AV-unprocessed.smi:2453|AV-procd|sdf|9689|dock8
  -GOLD-   2272013323D 1   1.00000     0.00000
 Structure written by MMmdl.
 40 41  0  0  0  0  0  0  0  0  1 V2000
  150.2410  138.5392  154.3516 C   0  0  0  0  0  0  0  0  0  0  0  0
  149.1345  139.5754  154.2582 C   0  0  0  0  0  0  0  0  0  0  0  0
  149.3960  140.9172  154.6108 C   0  0  0  0  0  0  0  0  0  0  0  0
  148.4718  141.8979  154.5529 N   0  0  0  0  0  0  0  0  0  0  0  0
  147.2347  141.5702  154.1272 C   0  0  0  0  0  0  0  0  0  0  0  0
  146.8641  140.2648  153.7499 C   0  0  0  0  0  0  0  0  0  0  0  0
  147.8298  139.2316  153.8269 C   0  0  0  0  0  0  0  0  0  0  0  0
  147.5678  137.8808  153.4587 N   0  0  0  0  0  0  0  0  0  0  0  0
  146.4464  137.1582  153.6257 C   0  0  0  0  0  0  0  0  0  0  0  0
  145.4078  137.5591  154.1502 O   0  0  0  0  0  0  0  0  0  0  0  0
  146.6037  135.9117  153.1578 N   0  0  0  0  0  0  0  0  0  0  0  0
  145.5845  134.8605  153.1755 C   0  0  2  0  0  0  0  0  0  0  0  0
  146.0612  133.6421  153.9964 C   0  0  0  0  0  0  0  0  0  0  0  0
  147.1969  132.8779  153.2958 C   0  0  0  0  0  0  0  0  0  0  0  0
  146.7911  132.4623  151.8747 C   0  0  0  0  0  0  0  0  0  0  0  0
  146.3340  133.6737  151.0465 C   0  0  0  0  0  0  0  0  0  0  0  0
  145.1836  134.4382  151.7364 C   0  0  2  0  0  0  0  0  0  0  0  0
  144.6921  135.6096  150.8597 C   0  0  0  0  0  0  0  0  0  0  0  0
  144.1913  135.1387  149.6260 O   0  0  0  0  0  0  0  0  0  0  0  0
  151.1667  138.9795  154.7232 H   0  0  0  0  0  0  0  0  0  0  0  0
  150.4430  138.1088  153.3704 H   0  0  0  0  0  0  0  0  0  0  0  0
  149.9547  137.7354  155.0304 H   0  0  0  0  0  0  0  0  0  0  0  0
  150.3772  141.2161  154.9492 H   0  0  0  0  0  0  0  0  0  0  0  0
  146.5174  142.3761  154.0788 H   0  0  0  0  0  0  0  0  0  0  0  0
  145.8582  140.0906  153.4014 H   0  0  0  0  0  0  0  0  0  0  0  0
  148.3574  137.3824  153.0756 H   0  0  0  0  0  0  0  0  0  0  0  0
  147.4951  135.6675  152.7519 H   0  0  0  0  0  0  0  0  0  0  0  0
  144.6960  135.2632  153.6650 H   0  0  0  0  0  0  0  0  0  0  0  0
  146.3792  133.9513  154.9926 H   0  0  0  0  0  0  0  0  0  0  0  0
  145.2197  132.9650  154.1483 H   0  0  0  0  0  0  0  0  0  0  0  0
  148.0919  133.5001  153.2553 H   0  0  0  0  0  0  0  0  0  0  0  0
  147.4625  131.9948  153.8773 H   0  0  0  0  0  0  0  0  0  0  0  0
  147.6274  131.9677  151.3800 H   0  0  0  0  0  0  0  0  0  0  0  0
  145.9851  131.7290  151.9250 H   0  0  0  0  0  0  0  0  0  0  0  0
  147.1797  134.3423  150.8807 H   0  0  0  0  0  0  0  0  0  0  0  0
  146.0160  133.3337  150.0603 H   0  0  0  0  0  0  0  0  0  0  0  0
  144.3509  133.7383  151.8252 H   0  0  0  0  0  0  0  0  0  0  0  0
  143.9227  136.1939  151.3647 H   0  0  0  0  0  0  0  0  0  0  0  0
  145.5166  136.2907  150.6470 H   0  0  0  0  0  0  0  0  0  0  0  0
  144.9063  134.7675  149.1319 H   0  0  0  0  0  0  0  0  0  0  0  0
  1  2  1  0  0  0  0
  1 20  1  0  0  0  0
  1 21  1  0  0  0  0
  1 22  1  0  0  0  0
  2  7  1  0  0  0  0
  2  3  2  0  0  0  0
  3  4  1  0  0  0  0
  3 23  1  0  0  0  0
  4  5  2  0  0  0  0
  5  6  1  0  0  0  0
  5 24  1  0  0  0  0
  6  7  2  0  0  0  0
  6 25  1  0  0  0  0
  7  8  1  0  0  0  0
  8  9  1  0  0  0  0
  8 26  1  0  0  0  0
  9 10  2  0  0  0  0
  9 11  1  0  0  0  0
 11 12  1  0  0  0  0
 11 27  1  0  0  0  0
 12 17  1  0  0  0  0
 12 13  1  0  0  0  0
 12 28  1  0  0  0  0
 13 14  1  0  0  0  0
 13 29  1  0  0  0  0
 13 30  1  0  0  0  0
 14 15  1  0  0  0  0
 14 31  1  0  0  0  0
 14 32  1  0  0  0  0
 15 16  1  0  0  0  0
 15 33  1  0  0  0  0
 15 34  1  0  0  0  0
 16 17  1  0  0  0  0
 16 35  1  0  0  0  0
 16 36  1  0  0  0  0
 17 18  1  0  0  0  0
 17 37  1  0  0  0  0
 18 19  1  0  0  0  0
 18 38  1  0  0  0  0
 18 39  1  0  0  0  0
 19 40  1  0  0  0  0
M  END
> <s_m_source_file>
AV-unprocessed.smi

> <i_m_source_file_index>
2453

> <i_lp_mmshare_version>
43012

> <i_f3d_flags>
0

> <s_epik_input>
W0NIM11jMVtjSF1uW2NIXVtjSF1jMVtOSF1DKD1PKVtOSF1bQ0BASF0yW0NIMl1bQ0gyXVtDSDJdW0NIMl1bQ0BIXTJbQ0gyXVtPSF0=

> <s_epik_cmdline>
J2VwaWtfcHl0aG9uJywgJy1waCcsICc3LjAnLCAnLXRuJywgJzgnLCAnLW1hJywgJzIwMCcsICctbWV0YWxfYmluZGluZycsICctaW1hZScsICc8aW5maWxlLm1hZT4nLCAnLW9tYWUnLCAnPG91dGZpbGUubWFlPic=

> <r_epik_Ionization_Penalty>
0.210691

> <r_epik_Ionization_Penalty_Charging>
0

> <r_epik_Ionization_Penalty_Neutral>
0.210691

> <r_epik_State_Penalty>
0.200732

> <r_epik_Charging_Adjusted_Penalty>
0.200732

> <i_epik_Tot_Q>
0

> <i_epik_Tot_abs_Q>
0

> <r_epik_Metal_State_Penalty>
0.147519

> <b_epik_Metal_Only>
0

> <s_lp_Force_Field>
OPLS_2005

> <r_lp_Energy>
18.5766

> <b_lp_Chiralities_Consistent>
1

> <s_lp_Variant>
AV-unprocessed.smi:2453-3

> <Gold.Version>
5.8.1

> <Gold.Id.Protein>
6NUR|6NUR_protein|mol2

> <Gold.PLP.Fitness>
39.1735

> <Gold.PLP.PLP>
-30.7061

> <Gold.PLP.part.hbond>
-4.3262

> <Gold.PLP.part.metal>
0.0000

> <Gold.PLP.part.buried>
-0.9200

> <Gold.PLP.part.nonpolar>
-26.5509

> <Gold.PLP.part.repulsive>
0.8813

> <Gold.PLP.ligand.clash>
0.0000

> <Gold.PLP.ligand.torsion>
0.2758

> <Gold.PLP.Chemscore.Hbond>
3.0000

> <Gold.PLP.Chemscore.CHOScore>
0.0000

> <Gold.PLP.Chemscore.Metal>
0.0000

> <Gold.Chemscore.Hbonds>
donor molecule, donor type, donor heavy atom, donor atom, acceptor molecule, acceptor atom, score
      L1  H     8    26       P1  7948  0.96
      L1  H    11    27       P1  7948  0.96
      L1  H    19    40       P1  7921  1.00

> <Gold.PLP.Chemscore.Internal.Correction>
0.0191

> <Gold.Rescore>
     Score         DG    S(hbond)    S(metal)    S(lipo)     H(rot)  DE(clash)    DE(int)     intcor
     18.51     -19.10       2.89        0.00      72.29       1.75       0.31       0.28       ----

> <Gold.Chemscore.Fitness>
18.5137

> <Gold.Chemscore.DG>
-19.0976

> <Gold.Chemscore.ZeroCoef>
-5.4800

> <Gold.Chemscore.Hbond>
2.8855

> <Gold.Chemscore.Metal>
0.0000

> <Gold.Chemscore.Lipo>
72.2930

> <Gold.Chemscore.Internal_Hbond>
0.0000

> <Gold.Chemscore.DEClash>
0.3081

> <Gold.Chemscore.DEInternal>
0.2757

> <Gold.Chemscore.Rot>
1.7493

> <Gold.Chemscore.Internal.Correction>
   9.000000E+99

> <Gold.Chemscore.Hbonds>
donor molecule, donor type, donor heavy atom, donor atom, acceptor molecule, acceptor atom, score
      L1  H     8    26       P1  7948  0.92
      L1  H    11    27       P1  7948  0.92
      L1  H    19    40       P1  7921  0.95

> <Gold.Chemscore.Hbond.Weighted>
-9.6375

> <Gold.Chemscore.Metal.Weighted>
-0.0000

> <Gold.Chemscore.Lipo.Weighted>
-8.4583

> <Gold.Chemscore.Internal_Hbond.Weighted>
0.0000

> <Gold.Chemscore.DEClash.Weighted>
0.3081

> <Gold.Chemscore.DEInternal.Weighted>
0.2757

> <Gold.Chemscore.Rot.Weighted>
4.4782

> <Gold.Chemscore.Internal.Correction.Weighted>
   9.000000E+99

> <Gold.Protein.RotatedTorsions>
[ 6907 6896 6895 6894 ] final  132.54 input  -60.11 | X-H torsion
[ 7974 7965 7964 7962 ] final -175.90 input  175.53 | X-H torsion
[ 8008 7997 7996 7995 ] final  106.70 input   59.86 | X-H torsion
[ 10167 10162 10161 10158 ] final -127.54 input  -65.29 | X-H torsion
[ 10718 10713 10712 10709 ] final  -20.90 input   66.30 | X-H torsion
[ 10763 10752 10751 10750 ] final  166.20 input  -60.55 | X-H torsion
[ 11005 11000 10999 10996 ] final -144.29 input  -57.11 | X-H torsion

> <Gold.Protein.ActiveResidues>
 VAL166  LYS551  ARG553  GLY616  TRP617  ASP618  TYR619  PRO620  LYS621  CYS622 
 ASP623  PHE694  ASN695  SER759  ASP760  ASP761  ALA762  ILE779  LEU786  VAL792 
 PHE793  MET794  SER795  GLU796  ALA797  LYS798  CYS799  TRP800  GLU811  SER814 

> <Gold.Protein.RotatedAtoms>
  152.3313  133.5961  159.5811 H   0  0  0  0  0  0  0  0  0  0  0  0  # atno 6907 bound_to 6896
  150.7425  133.9864  159.3601 H   0  0  0  0  0  0  0  0  0  0  0  0  # atno 6908 bound_to 6896
  151.7738  135.0780  160.0415 H   0  0  0  0  0  0  0  0  0  0  0  0  # atno 6909 bound_to 6896
  144.7127  140.1252  143.6402 H   0  0  0  0  0  0  0  0  0  0  0  0  # atno 7974 bound_to 7965
  156.1764  140.3108  155.9068 H   0  0  0  0  0  0  0  0  0  0  0  0  # atno 8008 bound_to 7997
  155.3477  140.0469  157.3063 H   0  0  0  0  0  0  0  0  0  0  0  0  # atno 8009 bound_to 7997
  154.5295  140.2226  155.8840 H   0  0  0  0  0  0  0  0  0  0  0  0  # atno 8010 bound_to 7997
  139.9598  143.5962  152.2449 H   0  0  0  0  0  0  0  0  0  0  0  0  # atno 10167 bound_to 10162
  156.5256  130.4642  149.6574 H   0  0  0  0  0  0  0  0  0  0  0  0  # atno 10718 bound_to 10713
  154.3355  135.2754  155.2450 H   0  0  0  0  0  0  0  0  0  0  0  0  # atno 10763 bound_to 10752
  154.4743  135.5875  153.6347 H   0  0  0  0  0  0  0  0  0  0  0  0  # atno 10764 bound_to 10752
  152.9862  135.6096  154.3551 H   0  0  0  0  0  0  0  0  0  0  0  0  # atno 10765 bound_to 10752
  140.8039  134.2824  157.4968 H   0  0  0  0  0  0  0  0  0  0  0  0  # atno 11005 bound_to 11000
  145.9336  139.2622  143.1310 LP  0  0  0  0  0  0  0  0  0  0  0  0  # atno 17320 bound_to 7965
  145.9497  140.8918  143.0265 LP  0  0  0  0  0  0  0  0  0  0  0  0  # atno 17321 bound_to 7965
  139.6563  144.7662  151.2050 LP  0  0  0  0  0  0  0  0  0  0  0  0  # atno 17342 bound_to 10162
  140.7557  143.6081  150.8633 LP  0  0  0  0  0  0  0  0  0  0  0  0  # atno 17343 bound_to 10162
  156.3108  130.7228  151.2120 LP  0  0  0  0  0  0  0  0  0  0  0  0  # atno 17370 bound_to 10713
  157.7430  131.0481  150.4981 LP  0  0  0  0  0  0  0  0  0  0  0  0  # atno 17371 bound_to 10713
  139.8719  134.9445  156.3884 LP  0  0  0  0  0  0  0  0  0  0  0  0  # atno 17394 bound_to 11000
  140.9266  133.7608  155.9973 LP  0  0  0  0  0  0  0  0  0  0  0  0  # atno 17395 bound_to 11000

$$$$
