AV-unprocessed.smi:2731|AV-procd|sdf|10530|dock5
  -GOLD-   2272014573D 1   1.00000     0.00000
 Structure written by MMmdl.
 45 46  0  0  0  0  0  0  0  0  1 V2000
  152.6868  138.8828  155.0260 C   0  0  0  0  0  0  0  0  0  0  0  0
  151.2101  139.0981  154.8613 C   0  0  0  0  0  0  0  0  0  0  0  0
  150.7696  140.3025  154.5388 N   0  0  0  0  0  0  0  0  0  0  0  0
  149.4289  140.1767  154.4856 N   0  0  0  0  0  0  0  0  0  0  0  0
  148.6210  141.3311  154.1425 C   0  0  0  0  0  0  0  0  0  0  0  0
  149.0208  138.8901  154.7800 C   0  0  0  0  0  0  0  0  0  0  0  0
  147.5785  138.4971  154.8009 C   0  0  0  0  0  0  0  0  0  0  0  0
  150.1515  138.1561  155.0235 C   0  0  0  0  0  0  0  0  0  0  0  0
  150.2661  136.6975  155.3998 C   0  0  0  0  0  0  0  0  0  0  0  0
  150.4345  136.4704  156.9153 C   0  0  0  0  0  0  0  0  0  0  0  0
  149.1634  136.1705  157.5709 N   0  0  0  0  0  0  0  0  0  0  0  0
  148.8183  134.9788  158.0832 C   0  0  0  0  0  0  0  0  0  0  0  0
  149.5230  133.9729  157.9857 O   0  0  0  0  0  0  0  0  0  0  0  0
  147.4770  134.9284  158.8258 C   0  0  0  0  0  0  0  0  0  0  0  0
  147.6477  134.8220  160.2807 N   0  0  0  0  0  0  0  0  0  0  0  0
  147.5422  133.4813  160.8697 C   0  0  0  0  0  0  0  0  0  0  0  0
  146.5922  133.4937  162.0789 C   0  0  0  0  0  0  0  0  0  0  0  0
  146.9664  134.5801  163.1075 C   0  0  0  0  0  0  0  0  0  0  0  0
  147.9583  135.6423  162.5817 C   0  0  0  0  0  0  0  0  0  0  0  0
  147.8217  135.9029  161.0758 C   0  0  0  0  0  0  0  0  0  0  0  0
  147.8872  137.0571  160.6530 O   0  0  0  0  0  0  0  0  0  0  0  0
  153.0251  139.2432  155.9976 H   0  0  0  0  0  0  0  0  0  0  0  0
  153.2531  139.4103  154.2577 H   0  0  0  0  0  0  0  0  0  0  0  0
  152.9450  137.8264  154.9567 H   0  0  0  0  0  0  0  0  0  0  0  0
  147.8673  141.4975  154.9124 H   0  0  0  0  0  0  0  0  0  0  0  0
  148.1235  141.1575  153.1879 H   0  0  0  0  0  0  0  0  0  0  0  0
  149.2411  142.2254  154.0612 H   0  0  0  0  0  0  0  0  0  0  0  0
  147.4334  137.5520  155.3236 H   0  0  0  0  0  0  0  0  0  0  0  0
  147.1951  138.3849  153.7867 H   0  0  0  0  0  0  0  0  0  0  0  0
  146.9740  139.2467  155.3114 H   0  0  0  0  0  0  0  0  0  0  0  0
  149.3897  136.1452  155.0610 H   0  0  0  0  0  0  0  0  0  0  0  0
  151.1066  136.2358  154.8815 H   0  0  0  0  0  0  0  0  0  0  0  0
  151.1183  135.6392  157.0885 H   0  0  0  0  0  0  0  0  0  0  0  0
  150.9040  137.3442  157.3700 H   0  0  0  0  0  0  0  0  0  0  0  0
  148.5197  136.9394  157.6874 H   0  0  0  0  0  0  0  0  0  0  0  0
  146.9036  135.8290  158.6001 H   0  0  0  0  0  0  0  0  0  0  0  0
  146.8882  134.0978  158.4332 H   0  0  0  0  0  0  0  0  0  0  0  0
  147.1835  132.7609  160.1339 H   0  0  0  0  0  0  0  0  0  0  0  0
  148.5359  133.1476  161.1719 H   0  0  0  0  0  0  0  0  0  0  0  0
  145.5798  133.6819  161.7184 H   0  0  0  0  0  0  0  0  0  0  0  0
  146.5648  132.5134  162.5548 H   0  0  0  0  0  0  0  0  0  0  0  0
  146.0567  135.0679  163.4597 H   0  0  0  0  0  0  0  0  0  0  0  0
  147.4045  134.1054  163.9861 H   0  0  0  0  0  0  0  0  0  0  0  0
  147.8446  136.5731  163.1386 H   0  0  0  0  0  0  0  0  0  0  0  0
  148.9795  135.3020  162.7568 H   0  0  0  0  0  0  0  0  0  0  0  0
  1  2  1  0  0  0  0
  1 22  1  0  0  0  0
  1 23  1  0  0  0  0
  1 24  1  0  0  0  0
  2  8  1  0  0  0  0
  2  3  2  0  0  0  0
  3  4  1  0  0  0  0
  4  5  1  0  0  0  0
  4  6  1  0  0  0  0
  5 25  1  0  0  0  0
  5 26  1  0  0  0  0
  5 27  1  0  0  0  0
  6  7  1  0  0  0  0
  6  8  2  0  0  0  0
  7 28  1  0  0  0  0
  7 29  1  0  0  0  0
  7 30  1  0  0  0  0
  8  9  1  0  0  0  0
  9 10  1  0  0  0  0
  9 31  1  0  0  0  0
  9 32  1  0  0  0  0
 10 11  1  0  0  0  0
 10 33  1  0  0  0  0
 10 34  1  0  0  0  0
 11 12  1  0  0  0  0
 11 35  1  0  0  0  0
 12 13  2  0  0  0  0
 12 14  1  0  0  0  0
 14 15  1  0  0  0  0
 14 36  1  0  0  0  0
 14 37  1  0  0  0  0
 15 20  1  0  0  0  0
 15 16  1  0  0  0  0
 16 17  1  0  0  0  0
 16 38  1  0  0  0  0
 16 39  1  0  0  0  0
 17 18  1  0  0  0  0
 17 40  1  0  0  0  0
 17 41  1  0  0  0  0
 18 19  1  0  0  0  0
 18 42  1  0  0  0  0
 18 43  1  0  0  0  0
 19 20  1  0  0  0  0
 19 44  1  0  0  0  0
 19 45  1  0  0  0  0
 20 21  2  0  0  0  0
M  END
> <s_m_source_file>
AV-unprocessed.smi

> <i_m_source_file_index>
2731

> <i_lp_mmshare_version>
43012

> <i_f3d_flags>
0

> <s_epik_input>
W0NIM11jMW5uKFtDSDNdKWMoW0NIM10pYzFbQ0gyXVtDSDJdW05IXUMoPU8pW0NIMl1OMltDSDJdW0NIMl1bQ0gyXVtDSDJdQzI9Tw==

> <s_epik_cmdline>
J2VwaWtfcHl0aG9uJywgJy1waCcsICc3LjAnLCAnLXRuJywgJzgnLCAnLW1hJywgJzIwMCcsICctbWV0YWxfYmluZGluZycsICctaW1hZScsICc8aW5maWxlLm1hZT4nLCAnLW9tYWUnLCAnPG91dGZpbGUubWFlPic=

> <r_lp_tautomer_probability>
1

> <r_epik_Ionization_Penalty>
0.0111965

> <r_epik_Ionization_Penalty_Charging>
0

> <r_epik_Ionization_Penalty_Neutral>
0.0111965

> <r_epik_State_Penalty>
0.00860379

> <r_epik_Charging_Adjusted_Penalty>
0.00860379

> <i_epik_Tot_Q>
0

> <i_epik_Tot_abs_Q>
0

> <r_epik_Metal_State_Penalty>
0.00844338

> <b_epik_Metal_Only>
0

> <s_lp_Force_Field>
OPLS_2005

> <r_lp_Energy>
7.02137

> <b_lp_Chiralities_Consistent>
1

> <s_lp_Variant>
AV-unprocessed.smi:2731-1

> <Gold.Version>
5.8.1

> <Gold.Id.Protein>
6NUR|6NUR_protein|mol2

> <Gold.PLP.Fitness>
46.6800

> <Gold.PLP.PLP>
-37.8897

> <Gold.PLP.part.hbond>
-3.8712

> <Gold.PLP.part.metal>
0.0000

> <Gold.PLP.part.buried>
-2.8282

> <Gold.PLP.part.nonpolar>
-32.6964

> <Gold.PLP.part.repulsive>
0.1576

> <Gold.PLP.ligand.clash>
0.0000

> <Gold.PLP.ligand.torsion>
1.0765

> <Gold.PLP.Chemscore.Hbond>
3.6370

> <Gold.PLP.Chemscore.CHOScore>
0.0000

> <Gold.PLP.Chemscore.Metal>
0.0000

> <Gold.Chemscore.Hbonds>
donor molecule, donor type, donor heavy atom, donor atom, acceptor molecule, acceptor atom, score
      P1  H  6896  6907       L1    13  1.00
      P1  H  6931  6943       L1    21  0.77
      P1  H  6934  6947       L1    21  0.70
      P1  H  7989  7998       L1     3  0.83

> <Gold.PLP.Chemscore.Internal.Correction>
0.0323

> <Gold.Rescore>
     Score         DG    S(hbond)    S(metal)    S(lipo)     H(rot)  DE(clash)    DE(int)     intcor
     20.37     -21.71       3.47        0.00      78.52       1.78       0.42       0.92       ----

> <Gold.Chemscore.Fitness>
20.3703

> <Gold.Chemscore.DG>
-21.7130

> <Gold.Chemscore.ZeroCoef>
-5.4800

> <Gold.Chemscore.Hbond>
3.4714

> <Gold.Chemscore.Metal>
0.0000

> <Gold.Chemscore.Lipo>
78.5196

> <Gold.Chemscore.Internal_Hbond>
0.0000

> <Gold.Chemscore.DEClash>
0.4242

> <Gold.Chemscore.DEInternal>
0.9185

> <Gold.Chemscore.Rot>
1.7767

> <Gold.Chemscore.Internal.Correction>
   9.000000E+99

> <Gold.Chemscore.Hbonds>
donor molecule, donor type, donor heavy atom, donor atom, acceptor molecule, acceptor atom, score
      P1  H  6896  6907       L1    13  0.90
      P1  H  6931  6943       L1    21  0.61
      P1  H  6934  6947       L1    21  0.67
      P1  H  7989  7998       L1     3  0.61

> <Gold.Chemscore.Hbond.Weighted>
-11.5945

> <Gold.Chemscore.Metal.Weighted>
-0.0000

> <Gold.Chemscore.Lipo.Weighted>
-9.1868

> <Gold.Chemscore.Internal_Hbond.Weighted>
0.0000

> <Gold.Chemscore.DEClash.Weighted>
0.4242

> <Gold.Chemscore.DEInternal.Weighted>
0.9185

> <Gold.Chemscore.Rot.Weighted>
4.5483

> <Gold.Chemscore.Internal.Correction.Weighted>
   9.000000E+99

> <Gold.Protein.RotatedTorsions>
[ 6907 6896 6895 6894 ] final -119.70 input  -60.11 | X-H torsion
[ 7974 7965 7964 7962 ] final  171.65 input  175.53 | X-H torsion
[ 8008 7997 7996 7995 ] final -122.63 input   59.86 | X-H torsion
[ 10167 10162 10161 10158 ] final  136.52 input  -65.29 | X-H torsion
[ 10718 10713 10712 10709 ] final  -33.46 input   66.30 | X-H torsion
[ 10763 10752 10751 10750 ] final  160.26 input  -60.55 | X-H torsion
[ 11005 11000 10999 10996 ] final   62.17 input  -57.11 | X-H torsion

> <Gold.Protein.ActiveResidues>
 VAL166  LYS551  ARG553  GLY616  TRP617  ASP618  TYR619  PRO620  LYS621  CYS622 
 ASP623  PHE694  ASN695  SER759  ASP760  ASP761  ALA762  ILE779  LEU786  VAL792 
 PHE793  MET794  SER795  GLU796  ALA797  LYS798  CYS799  TRP800  GLU811  SER814 

> <Gold.Protein.RotatedAtoms>
  150.8328  133.8063  159.3091 H   0  0  0  0  0  0  0  0  0  0  0  0  # atno 6907 bound_to 6896
  151.5787  135.1058  160.0022 H   0  0  0  0  0  0  0  0  0  0  0  0  # atno 6908 bound_to 6896
  152.4405  133.7398  159.6690 H   0  0  0  0  0  0  0  0  0  0  0  0  # atno 6909 bound_to 6896
  144.7289  139.9381  143.6427 H   0  0  0  0  0  0  0  0  0  0  0  0  # atno 7974 bound_to 7965
  155.1674  140.0407  157.2855 H   0  0  0  0  0  0  0  0  0  0  0  0  # atno 8008 bound_to 7997
  154.6293  140.2520  155.7425 H   0  0  0  0  0  0  0  0  0  0  0  0  # atno 8009 bound_to 7997
  156.2476  140.2878  156.0638 H   0  0  0  0  0  0  0  0  0  0  0  0  # atno 8010 bound_to 7997
  139.5177  144.6460  151.5438 H   0  0  0  0  0  0  0  0  0  0  0  0  # atno 10167 bound_to 10162
  156.3624  130.4326  149.7612 H   0  0  0  0  0  0  0  0  0  0  0  0  # atno 10718 bound_to 10713
  154.2447  135.2773  155.2840 H   0  0  0  0  0  0  0  0  0  0  0  0  # atno 10763 bound_to 10752
  154.5516  135.5673  153.6930 H   0  0  0  0  0  0  0  0  0  0  0  0  # atno 10764 bound_to 10752
  152.9992  135.6276  154.2592 H   0  0  0  0  0  0  0  0  0  0  0  0  # atno 10765 bound_to 10752
  140.0110  134.6296  155.9780 H   0  0  0  0  0  0  0  0  0  0  0  0  # atno 11005 bound_to 11000
  146.0806  139.3793  143.0467 LP  0  0  0  0  0  0  0  0  0  0  0  0  # atno 17320 bound_to 7965
  145.7846  140.9841  143.1081 LP  0  0  0  0  0  0  0  0  0  0  0  0  # atno 17321 bound_to 7965
  140.6245  143.9195  150.6553 LP  0  0  0  0  0  0  0  0  0  0  0  0  # atno 17342 bound_to 10162
  140.2479  143.3615  152.1431 LP  0  0  0  0  0  0  0  0  0  0  0  0  # atno 17343 bound_to 10162
  156.4771  130.8024  151.3039 LP  0  0  0  0  0  0  0  0  0  0  0  0  # atno 17370 bound_to 10713
  157.7475  131.0017  150.2974 LP  0  0  0  0  0  0  0  0  0  0  0  0  # atno 17371 bound_to 10713
  141.1711  133.6537  156.4655 LP  0  0  0  0  0  0  0  0  0  0  0  0  # atno 17394 bound_to 11000
  140.4554  134.6890  157.5060 LP  0  0  0  0  0  0  0  0  0  0  0  0  # atno 17395 bound_to 11000

$$$$
