AV-unprocessed.smi:287|AV-procd|sdf|2195|dock7
  -GOLD-   2262022 03D 1   1.00000     0.00000
 Structure written by MMmdl.
 55 58  0  0  0  0  0  0  0  0  1 V2000
  153.1169  138.6622  154.7522 C   0  0  0  0  0  0  0  0  0  0  0  0
  151.6339  138.8080  154.7704 C   0  0  0  0  0  0  0  0  0  0  0  0
  150.5980  137.9207  154.7360 C   0  0  0  0  0  0  0  0  0  0  0  0
  149.3877  138.6768  154.7696 C   0  0  0  0  0  0  0  0  0  0  0  0
  147.9700  138.1203  154.7564 C   0  0  1  0  0  0  0  0  0  0  0  0
  146.9698  139.2499  155.0509 C   0  0  0  0  0  0  0  0  0  0  0  0
  147.6003  137.6063  153.4912 O   0  0  0  0  0  0  0  0  0  0  0  0
  147.7707  136.9606  155.7596 C   0  0  0  0  0  0  0  0  0  0  0  0
  148.6014  135.8014  155.4592 N   0  0  0  0  0  0  0  0  0  0  0  0
  148.0525  134.6425  155.0393 C   0  0  0  0  0  0  0  0  0  0  0  0
  148.4552  133.5362  155.7068 N   0  0  0  0  0  0  0  0  0  0  0  0
  147.9694  132.3394  155.3726 C   0  0  0  0  0  0  0  0  0  0  0  0
  147.0876  132.0370  154.4202 N   0  0  0  0  0  0  0  0  0  0  0  0
  146.6728  133.1411  153.7332 C   0  0  0  0  0  0  0  0  0  0  0  0
  147.1102  134.4767  153.9803 C   0  0  0  0  0  0  0  0  0  0  0  0
  146.4887  135.3363  153.0837 N   0  0  0  0  0  0  0  0  0  0  0  0
  145.7369  134.5572  152.3578 C   0  0  0  0  0  0  0  0  0  0  0  0
  145.7695  133.2202  152.6838 N   0  0  0  0  0  0  0  0  0  0  0  0
  145.0154  132.1280  151.9724 C   0  0  1  0  0  0  0  0  0  0  0  0
  144.1736  132.7155  151.0334 O   0  0  0  0  0  0  0  0  0  0  0  0
  144.8110  132.7365  149.7645 C   0  0  2  0  0  0  0  0  0  0  0  0
  143.7524  132.8365  148.6556 C   0  0  0  0  0  0  0  0  0  0  0  0
  142.5959  132.1156  149.0240 O   0  0  0  0  0  0  0  0  0  0  0  0
  145.5892  131.4110  149.7484 C   0  0  1  0  0  0  0  0  0  0  0  0
  146.7735  131.5458  148.9886 O   0  0  0  0  0  0  0  0  0  0  0  0
  145.9147  131.1318  151.2196 C   0  0  2  0  0  0  0  0  0  0  0  0
  145.5807  129.7974  151.5452 O   0  0  0  0  0  0  0  0  0  0  0  0
  149.7958  139.9863  154.8464 C   0  0  0  0  0  0  0  0  0  0  0  0
  149.0736  141.2897  154.9400 C   0  0  0  0  0  0  0  0  0  0  0  0
  151.1551  140.0756  154.8400 O   0  0  0  0  0  0  0  0  0  0  0  0
  144.4269  131.6628  152.7646 H   0  0  0  0  0  0  0  0  0  0  0  0
  145.4936  133.5850  149.7152 H   0  0  0  0  0  0  0  0  0  0  0  0
  144.9696  130.6161  149.3293 H   0  0  0  0  0  0  0  0  0  0  0  0
  146.9629  131.2872  151.4725 H   0  0  0  0  0  0  0  0  0  0  0  0
  153.4036  137.6333  154.5344 H   0  0  0  0  0  0  0  0  0  0  0  0
  153.5434  138.9352  155.7174 H   0  0  0  0  0  0  0  0  0  0  0  0
  153.5606  139.3041  153.9909 H   0  0  0  0  0  0  0  0  0  0  0  0
  150.6969  136.8464  154.6843 H   0  0  0  0  0  0  0  0  0  0  0  0
  147.1540  139.6940  156.0299 H   0  0  0  0  0  0  0  0  0  0  0  0
  145.9416  138.8865  155.0447 H   0  0  0  0  0  0  0  0  0  0  0  0
  147.0428  140.0480  154.3107 H   0  0  0  0  0  0  0  0  0  0  0  0
  148.3486  137.1686  153.1150 H   0  0  0  0  0  0  0  0  0  0  0  0
  148.0488  137.3142  156.7533 H   0  0  0  0  0  0  0  0  0  0  0  0
  146.7208  136.6679  155.8092 H   0  0  0  0  0  0  0  0  0  0  0  0
  149.5785  135.8942  155.6970 H   0  0  0  0  0  0  0  0  0  0  0  0
  148.3378  131.5055  155.9514 H   0  0  0  0  0  0  0  0  0  0  0  0
  145.1300  134.9431  151.5516 H   0  0  0  0  0  0  0  0  0  0  0  0
  143.4574  133.8766  148.5129 H   0  0  0  0  0  0  0  0  0  0  0  0
  144.1392  132.4746  147.7025 H   0  0  0  0  0  0  0  0  0  0  0  0
  141.9373  132.7288  149.3119 H   0  0  0  0  0  0  0  0  0  0  0  0
  147.5135  131.4735  149.5720 H   0  0  0  0  0  0  0  0  0  0  0  0
  146.3773  129.3288  151.7424 H   0  0  0  0  0  0  0  0  0  0  0  0
  148.3178  141.2573  155.7247 H   0  0  0  0  0  0  0  0  0  0  0  0
  148.5757  141.5228  153.9988 H   0  0  0  0  0  0  0  0  0  0  0  0
  149.7591  142.1061  155.1694 H   0  0  0  0  0  0  0  0  0  0  0  0
  1  2  1  0  0  0  0
  1 35  1  0  0  0  0
  1 36  1  0  0  0  0
  1 37  1  0  0  0  0
  2 30  1  0  0  0  0
  2  3  2  0  0  0  0
  3  4  1  0  0  0  0
  3 38  1  0  0  0  0
  4  5  1  0  0  0  0
  4 28  2  0  0  0  0
  5  6  1  0  0  0  0
  5  7  1  0  0  0  0
  5  8  1  0  0  0  0
  6 39  1  0  0  0  0
  6 40  1  0  0  0  0
  6 41  1  0  0  0  0
  7 42  1  0  0  0  0
  8  9  1  0  0  0  0
  8 43  1  0  0  0  0
  8 44  1  0  0  0  0
  9 10  1  0  0  0  0
  9 45  1  0  0  0  0
 10 15  1  0  0  0  0
 10 11  2  0  0  0  0
 11 12  1  0  0  0  0
 12 13  2  0  0  0  0
 12 46  1  0  0  0  0
 13 14  1  0  0  0  0
 14 18  1  0  0  0  0
 14 15  2  0  0  0  0
 15 16  1  0  0  0  0
 16 17  2  0  0  0  0
 17 18  1  0  0  0  0
 17 47  1  0  0  0  0
 18 19  1  0  0  0  0
 19 31  1  0  0  0  0
 19 26  1  0  0  0  0
 19 20  1  0  0  0  0
 20 21  1  0  0  0  0
 21 32  1  0  0  0  0
 21 22  1  0  0  0  0
 21 24  1  0  0  0  0
 22 23  1  0  0  0  0
 22 48  1  0  0  0  0
 22 49  1  0  0  0  0
 23 50  1  0  0  0  0
 24 33  1  0  0  0  0
 24 25  1  0  0  0  0
 24 26  1  0  0  0  0
 25 51  1  0  0  0  0
 26 34  1  0  0  0  0
 26 27  1  0  0  0  0
 27 52  1  0  0  0  0
 28 29  1  0  0  0  0
 28 30  1  0  0  0  0
 29 53  1  0  0  0  0
 29 54  1  0  0  0  0
 29 55  1  0  0  0  0
M  END
> <s_m_source_file>
AV-unprocessed.smi

> <i_m_source_file_index>
287

> <i_lp_mmshare_version>
43012

> <i_f3d_flags>
0

> <s_epik_input>
W0NIM11jMVtjSF1jKGMobzEpW0NIM10pW0NAQF0oW0NIM10pKFtPSF0pW0NIMl1bTkhdYyhuW2NIXW4yKWMoYzIzKW5bY0hdbjNbQ0BASF00T1tDQEhdKFtDSDJdW09IXSlbQ0BASF0oW09IXSlbQ0BIXTRbT0hd

> <s_epik_cmdline>
J2VwaWtfcHl0aG9uJywgJy1waCcsICc3LjAnLCAnLXRuJywgJzgnLCAnLW1hJywgJzIwMCcsICctbWV0YWxfYmluZGluZycsICctaW1hZScsICc8aW5maWxlLm1hZT4nLCAnLW9tYWUnLCAnPG91dGZpbGUubWFlPic=

> <r_lp_tautomer_probability>
1

> <r_epik_Ionization_Penalty>
0.000992612

> <r_epik_Ionization_Penalty_Charging>
0

> <r_epik_Ionization_Penalty_Neutral>
0.000992612

> <r_epik_State_Penalty>
-0

> <r_epik_Charging_Adjusted_Penalty>
0

> <i_epik_Tot_Q>
0

> <i_epik_Tot_abs_Q>
0

> <r_epik_Metal_State_Penalty>
-0

> <b_epik_Metal_Only>
0

> <s_epik_Chemistry_Notes>
This compound contains an acetal/aminal-like group ( X-CH(R)-Y where X, Y are N, S, or O) that may be acid/base labile, releasing an aldehyde.

> <s_lp_Force_Field>
OPLS_2005

> <r_lp_Energy>
36.8397

> <b_lp_Chiralities_Consistent>
1

> <s_lp_Variant>
AV-unprocessed.smi:287-19

> <Gold.Version>
5.8.1

> <Gold.Id.Protein>
6NUR|6NUR_protein|mol2

> <Gold.PLP.Fitness>
54.3187

> <Gold.PLP.PLP>
-43.7387

> <Gold.PLP.part.hbond>
-5.8096

> <Gold.PLP.part.metal>
0.0000

> <Gold.PLP.part.buried>
-7.7495

> <Gold.PLP.part.nonpolar>
-32.1577

> <Gold.PLP.part.repulsive>
2.1622

> <Gold.PLP.ligand.clash>
2.2265

> <Gold.PLP.ligand.torsion>
1.0994

> <Gold.PLP.Chemscore.Hbond>
4.9600

> <Gold.PLP.Chemscore.CHOScore>
0.0000

> <Gold.PLP.Chemscore.Metal>
0.0000

> <Gold.Chemscore.Hbonds>
donor molecule, donor type, donor heavy atom, donor atom, acceptor molecule, acceptor atom, score
      L1  H     7    42       P1  7948  0.96
      L1  H    23    50       P1 10186  1.00
      L1  H    25    51       P1 10747  1.00
      P1  H  7989  7998       L1    30  1.00
      P1  H 10785 10796       L1    23  0.88

> <Gold.PLP.Chemscore.Internal.Correction>
0.1252

> <Gold.Rescore>
     Score         DG    S(hbond)    S(metal)    S(lipo)     H(rot)  DE(clash)    DE(int)     intcor
     10.34     -17.05       4.00        0.00     100.00       5.27       1.80       4.91       ----

> <Gold.Chemscore.Fitness>
10.3377

> <Gold.Chemscore.DG>
-17.0548

> <Gold.Chemscore.ZeroCoef>
-5.4800

> <Gold.Chemscore.Hbond>
3.9996

> <Gold.Chemscore.Metal>
0.0000

> <Gold.Chemscore.Lipo>
100.0012

> <Gold.Chemscore.Internal_Hbond>
0.0000

> <Gold.Chemscore.DEClash>
1.8045

> <Gold.Chemscore.DEInternal>
4.9126

> <Gold.Chemscore.Rot>
5.2672

> <Gold.Chemscore.Internal.Correction>
   9.000000E+99

> <Gold.Chemscore.Hbonds>
donor molecule, donor type, donor heavy atom, donor atom, acceptor molecule, acceptor atom, score
      L1  H     7    42       P1  7948  0.92
      L1  H    23    50       P1 10186  0.99
      L1  H    25    51       P1 10747  0.99
      P1  H  7989  7998       L1    30  0.48
      P1  H 10785 10796       L1    23  0.34

> <Gold.Chemscore.Hbond.Weighted>
-13.3586

> <Gold.Chemscore.Metal.Weighted>
-0.0000

> <Gold.Chemscore.Lipo.Weighted>
-11.7001

> <Gold.Chemscore.Internal_Hbond.Weighted>
0.0000

> <Gold.Chemscore.DEClash.Weighted>
1.8045

> <Gold.Chemscore.DEInternal.Weighted>
4.9126

> <Gold.Chemscore.Rot.Weighted>
13.4839

> <Gold.Chemscore.Internal.Correction.Weighted>
   9.000000E+99

> <Gold.Protein.RotatedTorsions>
[ 6907 6896 6895 6894 ] final    5.44 input  -60.11 | X-H torsion
[ 7974 7965 7964 7962 ] final  -22.43 input  175.53 | X-H torsion
[ 8008 7997 7996 7995 ] final -145.15 input   59.86 | X-H torsion
[ 10167 10162 10161 10158 ] final   32.71 input  -65.29 | X-H torsion
[ 10718 10713 10712 10709 ] final  -15.90 input   66.30 | X-H torsion
[ 10763 10752 10751 10750 ] final  100.33 input  -60.55 | X-H torsion
[ 11005 11000 10999 10996 ] final -130.43 input  -57.11 | X-H torsion

> <Gold.Protein.ActiveResidues>
 VAL166  LYS551  ARG553  GLY616  TRP617  ASP618  TYR619  PRO620  LYS621  CYS622 
 ASP623  PHE694  ASN695  SER759  ASP760  ASP761  ALA762  ILE779  LEU786  VAL792 
 PHE793  MET794  SER795  GLU796  ALA797  LYS798  CYS799  TRP800  GLU811  SER814 

> <Gold.Protein.RotatedAtoms>
  151.6576  135.0993  160.0172 H   0  0  0  0  0  0  0  0  0  0  0  0  # atno 6907 bound_to 6896
  152.3965  133.6750  159.6289 H   0  0  0  0  0  0  0  0  0  0  0  0  # atno 6908 bound_to 6896
  150.7871  133.8782  159.3319 H   0  0  0  0  0  0  0  0  0  0  0  0  # atno 6909 bound_to 6896
  146.1676  140.4478  142.8545 H   0  0  0  0  0  0  0  0  0  0  0  0  # atno 7974 bound_to 7965
  155.5385  140.0606  157.2875 H   0  0  0  0  0  0  0  0  0  0  0  0  # atno 8008 bound_to 7997
  154.4460  140.1923  156.0610 H   0  0  0  0  0  0  0  0  0  0  0  0  # atno 8009 bound_to 7997
  156.0602  140.3273  155.7456 H   0  0  0  0  0  0  0  0  0  0  0  0  # atno 8010 bound_to 7997
  140.4474  144.1099  150.6185 H   0  0  0  0  0  0  0  0  0  0  0  0  # atno 10167 bound_to 10162
  156.5952  130.4809  149.6263 H   0  0  0  0  0  0  0  0  0  0  0  0  # atno 10718 bound_to 10713
  153.3126  135.4082  155.1349 H   0  0  0  0  0  0  0  0  0  0  0  0  # atno 10763 bound_to 10752
  154.8580  135.3568  154.5703 H   0  0  0  0  0  0  0  0  0  0  0  0  # atno 10764 bound_to 10752
  153.6133  135.7067  153.5397 H   0  0  0  0  0  0  0  0  0  0  0  0  # atno 10765 bound_to 10752
  140.9347  134.1273  157.4204 H   0  0  0  0  0  0  0  0  0  0  0  0  # atno 11005 bound_to 11000
  144.8115  140.6394  143.6412 LP  0  0  0  0  0  0  0  0  0  0  0  0  # atno 17320 bound_to 7965
  145.4426  139.1533  143.3962 LP  0  0  0  0  0  0  0  0  0  0  0  0  # atno 17321 bound_to 7965
  140.4248  143.2595  151.9670 LP  0  0  0  0  0  0  0  0  0  0  0  0  # atno 17342 bound_to 10162
  139.4794  144.5798  151.7951 LP  0  0  0  0  0  0  0  0  0  0  0  0  # atno 17343 bound_to 10162
  156.2516  130.6910  151.1650 LP  0  0  0  0  0  0  0  0  0  0  0  0  # atno 17370 bound_to 10713
  157.7294  131.0625  150.5777 LP  0  0  0  0  0  0  0  0  0  0  0  0  # atno 17371 bound_to 10713
  139.8805  135.0017  156.6081 LP  0  0  0  0  0  0  0  0  0  0  0  0  # atno 17394 bound_to 11000
  140.7816  133.8655  155.8572 LP  0  0  0  0  0  0  0  0  0  0  0  0  # atno 17395 bound_to 11000

$$$$
