AV-unprocessed.smi:1889|AV-procd|sdf|7662|dock8
  -GOLD-   22720 9393D 1   1.00000     0.00000
 Structure written by MMmdl.
 35 36  0  0  0  0  0  0  0  0  2 V2000
  153.1008  143.5306  158.8176 C   0  0  0  0  0  0  0  0  0  0  0  0
  152.0393  142.8017  159.6486 C   0  0  0  0  0  0  0  0  0  0  0  0
  152.0134  141.2911  159.3769 C   0  0  0  0  0  0  0  0  0  0  0  0
  151.6728  140.9703  157.9599 C   0  0  0  0  0  0  0  0  0  0  0  0
  152.4537  140.2186  157.1795 N   0  0  0  0  0  0  0  0  0  0  0  0
  151.9401  140.0873  155.8977 N   0  0  0  0  0  0  0  0  0  0  0  0
  150.7939  140.7589  155.7187 C   0  0  0  0  0  0  0  0  0  0  0  0
  150.1359  140.7587  154.5476 N   0  5  0  0  0  0  0  0  0  0  0  0
  148.7835  140.7570  154.5319 C   0  0  0  0  0  0  0  0  0  0  0  0
  148.0467  139.9150  155.0509 O   0  0  0  0  0  0  0  0  0  0  0  0
  148.2499  141.7942  153.8733 N   0  0  0  0  0  0  0  0  0  0  0  0
  146.8224  142.0384  153.7061 C   0  0  0  0  0  0  0  0  0  0  0  0
  146.4015  143.3505  154.3888 C   0  0  1  0  0  0  0  0  0  0  0  0
  145.6027  144.2872  153.4898 C   0  0  0  0  0  0  0  0  0  0  0  0
  144.5442  144.8957  154.4162 C   0  0  0  0  0  0  0  0  0  0  0  0
  144.8819  144.4523  155.7228 O   0  0  0  0  0  0  0  0  0  0  0  0
  145.4783  143.1732  155.5936 C   0  0  0  0  0  0  0  0  0  0  0  0
  150.2431  141.6061  157.1641 S   0  0  0  0  0  0  0  0  0  0  0  0
  153.0917  144.6001  159.0284 H   0  0  0  0  0  0  0  0  0  0  0  0
  152.9228  143.4000  157.7499 H   0  0  0  0  0  0  0  0  0  0  0  0
  154.1002  143.1560  159.0400 H   0  0  0  0  0  0  0  0  0  0  0  0
  152.2279  142.9796  160.7080 H   0  0  0  0  0  0  0  0  0  0  0  0
  151.0589  143.2284  159.4336 H   0  0  0  0  0  0  0  0  0  0  0  0
  152.9826  140.8500  159.6131 H   0  0  0  0  0  0  0  0  0  0  0  0
  151.2835  140.8063  160.0261 H   0  0  0  0  0  0  0  0  0  0  0  0
  148.8840  142.4629  153.4615 H   0  0  0  0  0  0  0  0  0  0  0  0
  146.5927  142.0831  152.6407 H   0  0  0  0  0  0  0  0  0  0  0  0
  146.2585  141.2015  154.1214 H   0  0  0  0  0  0  0  0  0  0  0  0
  147.2931  143.8836  154.7229 H   0  0  0  0  0  0  0  0  0  0  0  0
  146.2462  145.0507  153.0516 H   0  0  0  0  0  0  0  0  0  0  0  0
  145.1197  143.7516  152.6714 H   0  0  0  0  0  0  0  0  0  0  0  0
  144.5225  145.9847  154.3686 H   0  0  0  0  0  0  0  0  0  0  0  0
  143.5517  144.5246  154.1570 H   0  0  0  0  0  0  0  0  0  0  0  0
  144.7073  142.4256  155.3988 H   0  0  0  0  0  0  0  0  0  0  0  0
  146.0153  142.8888  156.4989 H   0  0  0  0  0  0  0  0  0  0  0  0
  1  2  1  0  0  0  0
  1 19  1  0  0  0  0
  1 20  1  0  0  0  0
  1 21  1  0  0  0  0
  2  3  1  0  0  0  0
  2 22  1  0  0  0  0
  2 23  1  0  0  0  0
  3  4  1  0  0  0  0
  3 24  1  0  0  0  0
  3 25  1  0  0  0  0
  4 18  1  0  0  0  0
  4  5  2  0  0  0  0
  5  6  1  0  0  0  0
  6  7  2  0  0  0  0
  7  8  1  0  0  0  0
  7 18  1  0  0  0  0
  8  9  1  0  0  0  0
  9 10  2  0  0  0  0
  9 11  1  0  0  0  0
 11 12  1  0  0  0  0
 11 26  1  0  0  0  0
 12 13  1  0  0  0  0
 12 27  1  0  0  0  0
 12 28  1  0  0  0  0
 13 17  1  0  0  0  0
 13 14  1  0  0  0  0
 13 29  1  0  0  0  0
 14 15  1  0  0  0  0
 14 30  1  0  0  0  0
 14 31  1  0  0  0  0
 15 16  1  0  0  0  0
 15 32  1  0  0  0  0
 15 33  1  0  0  0  0
 16 17  1  0  0  0  0
 17 34  1  0  0  0  0
 17 35  1  0  0  0  0
M  CHG  1   8  -1
M  END
> <s_m_source_file>
AV-unprocessed.smi

> <i_m_source_file_index>
1889

> <i_lp_mmshare_version>
43012

> <i_f3d_flags>
0

> <s_epik_input>
W0NIM11bQ0gyXVtDSDJdYzFubmMoczEpW05IXUMoPU8pW05IXVtDSDJdW0NAQEhdMltDSDJdW0NIMl1PW0NIMl0y

> <s_epik_cmdline>
J2VwaWtfcHl0aG9uJywgJy1waCcsICc3LjAnLCAnLXRuJywgJzgnLCAnLW1hJywgJzIwMCcsICctbWV0YWxfYmluZGluZycsICctaW1hZScsICc8aW5maWxlLm1hZT4nLCAnLW9tYWUnLCAnPG91dGZpbGUubWFlPic=

> <r_lp_tautomer_probability>
1

> <r_epik_Ionization_Penalty>
4.29669

> <r_epik_Ionization_Penalty_Charging>
4.28522

> <r_epik_Ionization_Penalty_Neutral>
0.0114689

> <r_epik_State_Penalty>
4.28479

> <r_epik_Charging_Adjusted_Penalty>
8.57002

> <i_epik_Tot_Q>
-1

> <i_epik_Tot_abs_Q>
1

> <r_epik_Metal_State_Penalty>
0.72177

> <b_epik_Metal_Only>
1

> <s_lp_Force_Field>
OPLS_2005

> <r_lp_Energy>
12.2609

> <b_lp_Chiralities_Consistent>
1

> <s_lp_Variant>
AV-unprocessed.smi:1889-4

> <Gold.Version>
5.8.1

> <Gold.Id.Protein>
6NUR|6NUR_protein|mol2

> <Gold.PLP.Fitness>
38.7281

> <Gold.PLP.PLP>
-36.3886

> <Gold.PLP.part.hbond>
-2.4495

> <Gold.PLP.part.metal>
0.0000

> <Gold.PLP.part.buried>
-5.8135

> <Gold.PLP.part.nonpolar>
-28.8664

> <Gold.PLP.part.repulsive>
0.4821

> <Gold.PLP.ligand.clash>
0.0000

> <Gold.PLP.ligand.torsion>
1.5538

> <Gold.PLP.Chemscore.Hbond>
1.7824

> <Gold.PLP.Chemscore.CHOScore>
0.0000

> <Gold.PLP.Chemscore.Metal>
0.0000

> <Gold.Chemscore.Hbonds>
donor molecule, donor type, donor heavy atom, donor atom, acceptor molecule, acceptor atom, score
      P1  H  7989  7998       L1     8  0.61
      P1  H  7997  8010       L1     5  0.73

> <Gold.PLP.Chemscore.Internal.Correction>
0.0999

> <Gold.Rescore>
     Score         DG    S(hbond)    S(metal)    S(lipo)     H(rot)  DE(clash)    DE(int)     intcor
     11.46     -13.01       0.74        0.00      78.19       1.59       0.06       1.48       ----

> <Gold.Chemscore.Fitness>
11.4626

> <Gold.Chemscore.DG>
-13.0071

> <Gold.Chemscore.ZeroCoef>
-5.4800

> <Gold.Chemscore.Hbond>
0.7350

> <Gold.Chemscore.Metal>
0.0000

> <Gold.Chemscore.Lipo>
78.1900

> <Gold.Chemscore.Internal_Hbond>
0.0000

> <Gold.Chemscore.DEClash>
0.0614

> <Gold.Chemscore.DEInternal>
1.4831

> <Gold.Chemscore.Rot>
1.5922

> <Gold.Chemscore.Internal.Correction>
   9.000000E+99

> <Gold.Chemscore.Hbonds>
donor molecule, donor type, donor heavy atom, donor atom, acceptor molecule, acceptor atom, score
      P1  H  7989  7998       L1     8  0.09
      P1  H  7997  8010       L1     5  0.31

> <Gold.Chemscore.Hbond.Weighted>
-2.4549

> <Gold.Chemscore.Metal.Weighted>
-0.0000

> <Gold.Chemscore.Lipo.Weighted>
-9.1482

> <Gold.Chemscore.Internal_Hbond.Weighted>
0.0000

> <Gold.Chemscore.DEClash.Weighted>
0.0614

> <Gold.Chemscore.DEInternal.Weighted>
1.4831

> <Gold.Chemscore.Rot.Weighted>
4.0761

> <Gold.Chemscore.Internal.Correction.Weighted>
   9.000000E+99

> <Gold.Protein.RotatedTorsions>
[ 6907 6896 6895 6894 ] final    3.37 input  -60.11 | X-H torsion
[ 7974 7965 7964 7962 ] final  -19.38 input  175.53 | X-H torsion
[ 8008 7997 7996 7995 ] final   41.30 input   59.86 | X-H torsion
[ 10167 10162 10161 10158 ] final   35.11 input  -65.29 | X-H torsion
[ 10718 10713 10712 10709 ] final  173.02 input   66.30 | X-H torsion
[ 10763 10752 10751 10750 ] final  110.89 input  -60.55 | X-H torsion
[ 11005 11000 10999 10996 ] final   32.14 input  -57.11 | X-H torsion

> <Gold.Protein.ActiveResidues>
 VAL166  LYS551  ARG553  GLY616  TRP617  ASP618  TYR619  PRO620  LYS621  CYS622 
 ASP623  PHE694  ASN695  SER759  ASP760  ASP761  ALA762  ILE779  LEU786  VAL792 
 PHE793  MET794  SER795  GLU796  ALA797  LYS798  CYS799  TRP800  GLU811  SER814 

> <Gold.Protein.RotatedAtoms>
  151.6240  135.1029  160.0107 H   0  0  0  0  0  0  0  0  0  0  0  0  # atno 6907 bound_to 6896
  152.4142  133.7008  159.6433 H   0  0  0  0  0  0  0  0  0  0  0  0  # atno 6908 bound_to 6896
  150.8031  133.8486  159.3240 H   0  0  0  0  0  0  0  0  0  0  0  0  # atno 6909 bound_to 6896
  146.1844  140.4053  142.8482 H   0  0  0  0  0  0  0  0  0  0  0  0  # atno 7974 bound_to 7965
  155.2674  140.3363  155.4268 H   0  0  0  0  0  0  0  0  0  0  0  0  # atno 8008 bound_to 7997
  156.2148  140.1784  156.7656 H   0  0  0  0  0  0  0  0  0  0  0  0  # atno 8009 bound_to 7997
  154.5737  140.0665  156.8987 H   0  0  0  0  0  0  0  0  0  0  0  0  # atno 8010 bound_to 7997
  140.4252  144.1403  150.6152 H   0  0  0  0  0  0  0  0  0  0  0  0  # atno 10167 bound_to 10162
  156.9704  131.0088  151.2906 H   0  0  0  0  0  0  0  0  0  0  0  0  # atno 10718 bound_to 10713
  153.4555  135.3734  155.2308 H   0  0  0  0  0  0  0  0  0  0  0  0  # atno 10763 bound_to 10752
  154.8757  135.3896  154.3987 H   0  0  0  0  0  0  0  0  0  0  0  0  # atno 10764 bound_to 10752
  153.4553  135.7086  153.6147 H   0  0  0  0  0  0  0  0  0  0  0  0  # atno 10765 bound_to 10752
  140.2766  134.3021  155.7812 H   0  0  0  0  0  0  0  0  0  0  0  0  # atno 11005 bound_to 11000
  144.8371  140.6800  143.6253 LP  0  0  0  0  0  0  0  0  0  0  0  0  # atno 17320 bound_to 7965
  145.3981  139.1603  143.4192 LP  0  0  0  0  0  0  0  0  0  0  0  0  # atno 17321 bound_to 7965
  140.4489  143.2495  151.9375 LP  0  0  0  0  0  0  0  0  0  0  0  0  # atno 17342 bound_to 10162
  139.4783  144.5582  151.8281 LP  0  0  0  0  0  0  0  0  0  0  0  0  # atno 17343 bound_to 10162
  157.5596  130.8237  149.8249 LP  0  0  0  0  0  0  0  0  0  0  0  0  # atno 17370 bound_to 10713
  156.0285  130.3772  150.1755 LP  0  0  0  0  0  0  0  0  0  0  0  0  # atno 17371 bound_to 10713
  141.2169  133.7499  156.9416 LP  0  0  0  0  0  0  0  0  0  0  0  0  # atno 17394 bound_to 11000
  140.1323  134.9348  157.2354 LP  0  0  0  0  0  0  0  0  0  0  0  0  # atno 17395 bound_to 11000

$$$$
