AV-unprocessed.smi:3277|AV-procd|sdf|12539|dock2
  -GOLD-   2272018453D 1   1.00000     0.00000
 Structure written by MMmdl.
 35 37  0  0  0  0  0  0  0  0  1 V2000
  159.2748  141.5975  158.2980 C   0  0  0  0  0  0  0  0  0  0  0  0
  158.5209  141.0297  159.4052 N   0  0  0  0  0  0  0  0  0  0  0  0
  157.5355  140.1306  159.2651 C   0  0  0  0  0  0  0  0  0  0  0  0
  157.1614  139.7023  158.1734 O   0  0  0  0  0  0  0  0  0  0  0  0
  156.8707  139.6369  160.5513 C   0  0  0  0  0  0  0  0  0  0  0  0
  155.5896  140.3876  160.7236 C   0  0  0  0  0  0  0  0  0  0  0  0
  155.0098  141.0906  159.7471 N   0  0  0  0  0  0  0  0  0  0  0  0
  153.8141  141.6978  160.1472 C   0  0  0  0  0  0  0  0  0  0  0  0
  153.0065  142.5273  159.1835 C   0  0  1  0  0  0  0  0  0  0  0  0
  151.5210  142.1252  159.0606 C   0  0  0  0  0  0  0  0  0  0  0  0
  150.7956  143.4772  159.2092 C   0  0  2  0  0  0  0  0  0  0  0  0
  151.1042  144.3770  157.9956 C   0  0  0  0  0  0  0  0  0  0  0  0
  152.5643  144.8064  158.2474 C   0  0  0  0  0  0  0  0  0  0  0  0
  152.9242  144.0329  159.5306 C   0  0  1  0  0  0  0  0  0  0  0  0
  151.6134  144.1443  160.3075 C   0  0  0  0  0  0  0  0  0  0  0  0
  153.5032  141.4494  161.4614 C   0  0  0  0  0  0  0  0  0  0  0  0
  154.6953  140.4445  162.2386 S   0  0  0  0  0  0  0  0  0  0  0  0
  160.0082  142.3104  158.6747 H   0  0  0  0  0  0  0  0  0  0  0  0
  158.6145  142.1206  157.6050 H   0  0  0  0  0  0  0  0  0  0  0  0
  159.8071  140.8182  157.7511 H   0  0  0  0  0  0  0  0  0  0  0  0
  158.7685  141.3315  160.3366 H   0  0  0  0  0  0  0  0  0  0  0  0
  156.6670  138.5665  160.5019 H   0  0  0  0  0  0  0  0  0  0  0  0
  157.5243  139.8122  161.4072 H   0  0  0  0  0  0  0  0  0  0  0  0
  153.4690  142.4265  158.2002 H   0  0  0  0  0  0  0  0  0  0  0  0
  151.2992  141.6255  158.1169 H   0  0  0  0  0  0  0  0  0  0  0  0
  151.2206  141.4551  159.8675 H   0  0  0  0  0  0  0  0  0  0  0  0
  149.7311  143.3792  159.4234 H   0  0  0  0  0  0  0  0  0  0  0  0
  150.9847  143.8451  157.0510 H   0  0  0  0  0  0  0  0  0  0  0  0
  150.4470  145.2472  157.9761 H   0  0  0  0  0  0  0  0  0  0  0  0
  153.2217  144.5689  157.4102 H   0  0  0  0  0  0  0  0  0  0  0  0
  152.6226  145.8822  158.4181 H   0  0  0  0  0  0  0  0  0  0  0  0
  153.8082  144.4262  160.0342 H   0  0  0  0  0  0  0  0  0  0  0  0
  151.3133  145.1749  160.5049 H   0  0  0  0  0  0  0  0  0  0  0  0
  151.6075  143.5907  161.2470 H   0  0  0  0  0  0  0  0  0  0  0  0
  152.6459  141.7971  162.0184 H   0  0  0  0  0  0  0  0  0  0  0  0
  1  2  1  0  0  0  0
  1 18  1  0  0  0  0
  1 19  1  0  0  0  0
  1 20  1  0  0  0  0
  2  3  1  0  0  0  0
  2 21  1  0  0  0  0
  3  4  2  0  0  0  0
  3  5  1  0  0  0  0
  5  6  1  0  0  0  0
  5 22  1  0  0  0  0
  5 23  1  0  0  0  0
  6 17  1  0  0  0  0
  6  7  2  0  0  0  0
  7  8  1  0  0  0  0
  8  9  1  0  0  0  0
  8 16  2  0  0  0  0
  9 14  1  0  0  0  0
  9 10  1  0  0  0  0
  9 24  1  0  0  0  0
 10 11  1  0  0  0  0
 10 25  1  0  0  0  0
 10 26  1  0  0  0  0
 11 15  1  0  0  0  0
 11 12  1  0  0  0  0
 11 27  1  0  0  0  0
 12 13  1  0  0  0  0
 12 28  1  0  0  0  0
 12 29  1  0  0  0  0
 13 14  1  0  0  0  0
 13 30  1  0  0  0  0
 13 31  1  0  0  0  0
 14 15  1  0  0  0  0
 14 32  1  0  0  0  0
 15 33  1  0  0  0  0
 15 34  1  0  0  0  0
 16 17  1  0  0  0  0
 16 35  1  0  0  0  0
M  END
> <s_m_source_file>
AV-unprocessed.smi

> <i_m_source_file_index>
3277

> <i_lp_mmshare_version>
43012

> <i_f3d_flags>
0

> <s_epik_input>
W0NIM11bTkhdQyg9TylbQ0gyXWMxbmMoW2NIXXMxKVtDQEhdKFtDSDJdW0NAQEhdMjMpW0NAQEhdKFtDSDJdMylbQ0gyXVtDSDJdMg==

> <s_epik_cmdline>
J2VwaWtfcHl0aG9uJywgJy1waCcsICc3LjAnLCAnLXRuJywgJzgnLCAnLW1hJywgJzIwMCcsICctbWV0YWxfYmluZGluZycsICctaW1hZScsICc8aW5maWxlLm1hZT4nLCAnLW9tYWUnLCAnPG91dGZpbGUubWFlPic=

> <r_lp_tautomer_probability>
1

> <r_epik_Ionization_Penalty>
8.50008e-05

> <r_epik_Ionization_Penalty_Charging>
0

> <r_epik_Ionization_Penalty_Neutral>
8.50008e-05

> <r_epik_State_Penalty>
-0

> <r_epik_Charging_Adjusted_Penalty>
0

> <i_epik_Tot_Q>
0

> <i_epik_Tot_abs_Q>
0

> <r_epik_Metal_State_Penalty>
-0

> <b_epik_Metal_Only>
0

> <s_lp_Force_Field>
OPLS_2005

> <r_lp_Energy>
44.5578

> <b_lp_Chiralities_Consistent>
1

> <s_lp_Variant>
AV-unprocessed.smi:3277-4

> <Gold.Version>
5.8.1

> <Gold.Id.Protein>
6NUR|6NUR_protein|mol2

> <Gold.PLP.Fitness>
41.5783

> <Gold.PLP.PLP>
-39.7084

> <Gold.PLP.part.hbond>
-1.0000

> <Gold.PLP.part.metal>
0.0000

> <Gold.PLP.part.buried>
-2.2355

> <Gold.PLP.part.nonpolar>
-37.3564

> <Gold.PLP.part.repulsive>
0.1371

> <Gold.PLP.ligand.clash>
0.0000

> <Gold.PLP.ligand.torsion>
0.5657

> <Gold.PLP.Chemscore.Hbond>
1.0000

> <Gold.PLP.Chemscore.CHOScore>
0.0000

> <Gold.PLP.Chemscore.Metal>
0.0000

> <Gold.Chemscore.Hbonds>
donor molecule, donor type, donor heavy atom, donor atom, acceptor molecule, acceptor atom, score
      P1  H  7997  8009       L1     4  1.00

> <Gold.PLP.Chemscore.Internal.Correction>
0.0013

> <Gold.Rescore>
     Score         DG    S(hbond)    S(metal)    S(lipo)     H(rot)  DE(clash)    DE(int)     intcor
     19.94     -21.05       0.98        0.00     136.03       1.41       0.46       0.65       ----

> <Gold.Chemscore.Fitness>
19.9432

> <Gold.Chemscore.DG>
-21.0520

> <Gold.Chemscore.ZeroCoef>
-5.4800

> <Gold.Chemscore.Hbond>
0.9795

> <Gold.Chemscore.Metal>
0.0000

> <Gold.Chemscore.Lipo>
136.0294

> <Gold.Chemscore.Internal_Hbond>
0.0000

> <Gold.Chemscore.DEClash>
0.4620

> <Gold.Chemscore.DEInternal>
0.6467

> <Gold.Chemscore.Rot>
1.4122

> <Gold.Chemscore.Internal.Correction>
   9.000000E+99

> <Gold.Chemscore.Hbonds>
donor molecule, donor type, donor heavy atom, donor atom, acceptor molecule, acceptor atom, score
      P1  H  7997  8009       L1     4  0.98

> <Gold.Chemscore.Hbond.Weighted>
-3.2717

> <Gold.Chemscore.Metal.Weighted>
-0.0000

> <Gold.Chemscore.Lipo.Weighted>
-15.9154

> <Gold.Chemscore.Internal_Hbond.Weighted>
0.0000

> <Gold.Chemscore.DEClash.Weighted>
0.4620

> <Gold.Chemscore.DEInternal.Weighted>
0.6467

> <Gold.Chemscore.Rot.Weighted>
3.6151

> <Gold.Chemscore.Internal.Correction.Weighted>
   9.000000E+99

> <Gold.Protein.RotatedTorsions>
[ 6907 6896 6895 6894 ] final  -86.16 input  -60.11 | X-H torsion
[ 7974 7965 7964 7962 ] final  112.93 input  175.53 | X-H torsion
[ 8008 7997 7996 7995 ] final   48.97 input   59.86 | X-H torsion
[ 10167 10162 10161 10158 ] final  -35.12 input  -65.29 | X-H torsion
[ 10718 10713 10712 10709 ] final   91.23 input   66.30 | X-H torsion
[ 10763 10752 10751 10750 ] final  -32.51 input  -60.55 | X-H torsion
[ 11005 11000 10999 10996 ] final   93.12 input  -57.11 | X-H torsion

> <Gold.Protein.ActiveResidues>
 VAL166  LYS551  ARG553  GLY616  TRP617  ASP618  TYR619  PRO620  LYS621  CYS622 
 ASP623  PHE694  ASN695  SER759  ASP760  ASP761  ALA762  ILE779  LEU786  VAL792 
 PHE793  MET794  SER795  GLU796  ALA797  LYS798  CYS799  TRP800  GLU811  SER814 

> <Gold.Protein.RotatedAtoms>
  150.6867  134.3093  159.4739 H   0  0  0  0  0  0  0  0  0  0  0  0  # atno 6907 bound_to 6896
  152.0981  134.9358  160.0579 H   0  0  0  0  0  0  0  0  0  0  0  0  # atno 6908 bound_to 6896
  152.0648  133.4044  159.4470 H   0  0  0  0  0  0  0  0  0  0  0  0  # atno 6909 bound_to 6896
  145.2233  139.2852  143.4207 H   0  0  0  0  0  0  0  0  0  0  0  0  # atno 7974 bound_to 7965
  155.3944  140.3435  155.4253 H   0  0  0  0  0  0  0  0  0  0  0  0  # atno 8008 bound_to 7997
  156.1539  140.1579  156.8757 H   0  0  0  0  0  0  0  0  0  0  0  0  # atno 8009 bound_to 7997
  154.5077  140.0798  156.7909 H   0  0  0  0  0  0  0  0  0  0  0  0  # atno 8010 bound_to 7997
  140.7172  143.3499  151.2177 H   0  0  0  0  0  0  0  0  0  0  0  0  # atno 10167 bound_to 10162
  157.6960  131.0400  150.3698 H   0  0  0  0  0  0  0  0  0  0  0  0  # atno 10718 bound_to 10713
  153.8149  135.6879  153.4835 H   0  0  0  0  0  0  0  0  0  0  0  0  # atno 10763 bound_to 10752
  153.1605  135.4582  154.9764 H   0  0  0  0  0  0  0  0  0  0  0  0  # atno 10764 bound_to 10752
  154.7952  135.3316  154.7626 H   0  0  0  0  0  0  0  0  0  0  0  0  # atno 10765 bound_to 10752
  139.8814  134.8772  156.3672 H   0  0  0  0  0  0  0  0  0  0  0  0  # atno 11005 bound_to 11000
  146.3371  140.2545  142.8599 LP  0  0  0  0  0  0  0  0  0  0  0  0  # atno 17320 bound_to 7965
  144.9745  140.8400  143.5435 LP  0  0  0  0  0  0  0  0  0  0  0  0  # atno 17321 bound_to 7965
  139.7028  143.9505  152.2913 LP  0  0  0  0  0  0  0  0  0  0  0  0  # atno 17342 bound_to 10162
  139.9204  144.6803  150.8468 LP  0  0  0  0  0  0  0  0  0  0  0  0  # atno 17343 bound_to 10162
  156.4124  130.3937  149.6882 LP  0  0  0  0  0  0  0  0  0  0  0  0  # atno 17370 bound_to 10713
  156.4161  130.7746  151.2761 LP  0  0  0  0  0  0  0  0  0  0  0  0  # atno 17371 bound_to 10713
  140.9489  133.7464  156.0245 LP  0  0  0  0  0  0  0  0  0  0  0  0  # atno 17394 bound_to 11000
  140.8130  134.3378  157.5406 LP  0  0  0  0  0  0  0  0  0  0  0  0  # atno 17395 bound_to 11000

$$$$
