AV-unprocessed.smi:283|AV-procd|sdf|2156|dock3
  -GOLD-   2262021503D 1   1.00000     0.00000
 Structure written by MMmdl.
 48 51  0  0  0  0  0  0  0  0  1 V2000
  154.4269  139.1610  160.9017 C   0  0  0  0  0  0  0  0  0  0  0  0
  153.5986  139.8343  159.7925 C   0  0  1  0  0  0  0  0  0  0  0  0
  152.4857  138.9839  159.3713 N   0  0  0  0  0  0  0  0  0  0  0  0
  152.4425  138.4223  158.1428 C   0  0  0  0  0  0  0  0  0  0  0  0
  153.4627  138.5730  157.2583 N   0  0  0  0  0  0  0  0  0  0  0  0
  153.3896  138.0069  156.0501 C   0  0  0  0  0  0  0  0  0  0  0  0
  152.4031  137.2721  155.5314 N   0  0  0  0  0  0  0  0  0  0  0  0
  151.3707  137.1273  156.4119 C   0  0  0  0  0  0  0  0  0  0  0  0
  151.3189  137.6613  157.7292 C   0  0  0  0  0  0  0  0  0  0  0  0
  150.1269  137.2936  158.3383 N   0  0  0  0  0  0  0  0  0  0  0  0
  149.5170  136.5785  157.4317 C   0  0  0  0  0  0  0  0  0  0  0  0
  150.1800  136.4553  156.2276 N   0  0  0  0  0  0  0  0  0  0  0  0
  149.7744  135.6973  154.9982 C   0  0  1  0  0  0  0  0  0  0  0  0
  150.4829  134.4912  154.9807 O   0  0  0  0  0  0  0  0  0  0  0  0
  149.6470  133.3954  155.3484 C   0  0  1  0  0  0  0  0  0  0  0  0
  149.7106  133.1549  156.8695 C   0  0  0  0  0  0  0  0  0  0  0  0
  151.0426  132.9245  157.2762 O   0  0  0  0  0  0  0  0  0  0  0  0
  148.2663  133.8256  154.8471 C   0  0  2  0  0  0  0  0  0  0  0  0
  148.1375  133.4321  153.4911 O   0  0  0  0  0  0  0  0  0  0  0  0
  148.2742  135.3417  155.0361 C   0  0  2  0  0  0  0  0  0  0  0  0
  147.5159  136.0035  154.0412 O   0  0  0  0  0  0  0  0  0  0  0  0
  153.1373  141.2160  160.2528 C   0  0  0  0  0  0  0  0  0  0  0  0
  153.5264  141.7028  161.5231 C   0  0  0  0  0  0  0  0  0  0  0  0
  153.1171  142.9764  161.9610 C   0  0  0  0  0  0  0  0  0  0  0  0
  152.3172  143.7814  161.1309 C   0  0  0  0  0  0  0  0  0  0  0  0
  151.9338  143.3133  159.8607 C   0  0  0  0  0  0  0  0  0  0  0  0
  152.3421  142.0399  159.4158 C   0  0  0  0  0  0  0  0  0  0  0  0
  151.8559  141.5284  157.8368 Cl  0  0  0  0  0  0  0  0  0  0  0  0
  150.0703  136.3405  154.1686 H   0  0  0  0  0  0  0  0  0  0  0  0
  150.0010  132.4972  154.8394 H   0  0  0  0  0  0  0  0  0  0  0  0
  147.4570  133.3550  155.4064 H   0  0  0  0  0  0  0  0  0  0  0  0
  147.8655  135.5801  156.0193 H   0  0  0  0  0  0  0  0  0  0  0  0
  155.2807  139.7794  161.1799 H   0  0  0  0  0  0  0  0  0  0  0  0
  154.8180  138.1937  160.5878 H   0  0  0  0  0  0  0  0  0  0  0  0
  153.8289  138.9996  161.7992 H   0  0  0  0  0  0  0  0  0  0  0  0
  154.2350  139.9745  158.9197 H   0  0  0  0  0  0  0  0  0  0  0  0
  151.7771  138.8181  160.0713 H   0  0  0  0  0  0  0  0  0  0  0  0
  154.2416  138.1678  155.4062 H   0  0  0  0  0  0  0  0  0  0  0  0
  148.5559  136.1246  157.6236 H   0  0  0  0  0  0  0  0  0  0  0  0
  149.3440  134.0326  157.4016 H   0  0  0  0  0  0  0  0  0  0  0  0
  149.0908  132.3100  157.1708 H   0  0  0  0  0  0  0  0  0  0  0  0
  151.5391  132.6297  156.5279 H   0  0  0  0  0  0  0  0  0  0  0  0
  148.7350  132.7177  153.3302 H   0  0  0  0  0  0  0  0  0  0  0  0
  147.8199  135.7132  153.1946 H   0  0  0  0  0  0  0  0  0  0  0  0
  154.1481  141.1039  162.1724 H   0  0  0  0  0  0  0  0  0  0  0  0
  153.4192  143.3363  162.9336 H   0  0  0  0  0  0  0  0  0  0  0  0
  152.0017  144.7586  161.4653 H   0  0  0  0  0  0  0  0  0  0  0  0
  151.3247  143.9371  159.2229 H   0  0  0  0  0  0  0  0  0  0  0  0
  1  2  1  0  0  0  0
  1 33  1  0  0  0  0
  1 34  1  0  0  0  0
  1 35  1  0  0  0  0
  2  3  1  0  0  0  0
  2 22  1  0  0  0  0
  2 36  1  0  0  0  0
  3  4  1  0  0  0  0
  3 37  1  0  0  0  0
  4  9  1  0  0  0  0
  4  5  2  0  0  0  0
  5  6  1  0  0  0  0
  6  7  2  0  0  0  0
  6 38  1  0  0  0  0
  7  8  1  0  0  0  0
  8 12  1  0  0  0  0
  8  9  2  0  0  0  0
  9 10  1  0  0  0  0
 10 11  2  0  0  0  0
 11 12  1  0  0  0  0
 11 39  1  0  0  0  0
 12 13  1  0  0  0  0
 13 29  1  0  0  0  0
 13 20  1  0  0  0  0
 13 14  1  0  0  0  0
 14 15  1  0  0  0  0
 15 30  1  0  0  0  0
 15 16  1  0  0  0  0
 15 18  1  0  0  0  0
 16 17  1  0  0  0  0
 16 40  1  0  0  0  0
 16 41  1  0  0  0  0
 17 42  1  0  0  0  0
 18 31  1  0  0  0  0
 18 19  1  0  0  0  0
 18 20  1  0  0  0  0
 19 43  1  0  0  0  0
 20 32  1  0  0  0  0
 20 21  1  0  0  0  0
 21 44  1  0  0  0  0
 22 27  1  0  0  0  0
 22 23  2  0  0  0  0
 23 24  1  0  0  0  0
 23 45  1  0  0  0  0
 24 25  2  0  0  0  0
 24 46  1  0  0  0  0
 25 26  1  0  0  0  0
 25 47  1  0  0  0  0
 26 27  2  0  0  0  0
 26 48  1  0  0  0  0
 27 28  1  0  0  0  0
M  END
> <s_m_source_file>
AV-unprocessed.smi

> <i_m_source_file_index>
283

> <i_lp_mmshare_version>
43012

> <i_f3d_flags>
0

> <s_epik_input>
Q2xjMVtjSF1bY0hdW2NIXVtjSF1jMVtDQEhdKFtDSDNdKVtOSF1jKG5bY0hdbjIpYyhjMjMpbltjSF1uM1tDQEBIXTRPW0NASF0oW0NIMl1bT0hdKVtDQEBIXShbT0hdKVtDQEhdNFtPSF0=

> <s_epik_cmdline>
J2VwaWtfcHl0aG9uJywgJy1waCcsICc3LjAnLCAnLXRuJywgJzgnLCAnLW1hJywgJzIwMCcsICctbWV0YWxfYmluZGluZycsICctaW1hZScsICc8aW5maWxlLm1hZT4nLCAnLW9tYWUnLCAnPG91dGZpbGUubWFlPic=

> <r_lp_tautomer_probability>
1

> <r_epik_Ionization_Penalty>
0.000266407

> <r_epik_Ionization_Penalty_Charging>
0

> <r_epik_Ionization_Penalty_Neutral>
0.000266407

> <r_epik_State_Penalty>
-0

> <r_epik_Charging_Adjusted_Penalty>
0

> <i_epik_Tot_Q>
0

> <i_epik_Tot_abs_Q>
0

> <r_epik_Metal_State_Penalty>
-0

> <b_epik_Metal_Only>
0

> <s_epik_Chemistry_Notes>
This compound contains an acetal/aminal-like group ( X-CH(R)-Y where X, Y are N, S, or O) that may be acid/base labile, releasing an aldehyde.

> <s_lp_Force_Field>
OPLS_2005

> <r_lp_Energy>
46.4468

> <b_lp_Chiralities_Consistent>
1

> <s_lp_Variant>
AV-unprocessed.smi:283-32

> <Gold.Version>
5.8.1

> <Gold.Id.Protein>
6NUR|6NUR_protein|mol2

> <Gold.PLP.Fitness>
51.6047

> <Gold.PLP.PLP>
-41.7000

> <Gold.PLP.part.hbond>
-4.4074

> <Gold.PLP.part.metal>
0.0000

> <Gold.PLP.part.buried>
-5.0090

> <Gold.PLP.part.nonpolar>
-32.6111

> <Gold.PLP.part.repulsive>
0.2410

> <Gold.PLP.ligand.clash>
0.0000

> <Gold.PLP.ligand.torsion>
0.4953

> <Gold.PLP.Chemscore.Hbond>
3.5920

> <Gold.PLP.Chemscore.CHOScore>
0.0000

> <Gold.PLP.Chemscore.Metal>
0.0000

> <Gold.Chemscore.Hbonds>
donor molecule, donor type, donor heavy atom, donor atom, acceptor molecule, acceptor atom, score
      L1  H    21    44       P1  7948  0.82
      P1  H  6896  6907       L1    17  0.98
      P1  H  7997  8010       L1     5  0.94
      P1  H 10752 10765       L1     7  0.74

> <Gold.PLP.Chemscore.Internal.Correction>
0.1191

> <Gold.Rescore>
     Score         DG    S(hbond)    S(metal)    S(lipo)     H(rot)  DE(clash)    DE(int)     intcor
     14.11     -16.72       2.82        0.00     105.28       4.10       0.42       2.19       ----

> <Gold.Chemscore.Fitness>
14.1140

> <Gold.Chemscore.DG>
-16.7200

> <Gold.Chemscore.ZeroCoef>
-5.4800

> <Gold.Chemscore.Hbond>
2.8173

> <Gold.Chemscore.Metal>
0.0000

> <Gold.Chemscore.Lipo>
105.2818

> <Gold.Chemscore.Internal_Hbond>
0.0000

> <Gold.Chemscore.DEClash>
0.4187

> <Gold.Chemscore.DEInternal>
2.1872

> <Gold.Chemscore.Rot>
4.0968

> <Gold.Chemscore.Internal.Correction>
   9.000000E+99

> <Gold.Chemscore.Hbonds>
donor molecule, donor type, donor heavy atom, donor atom, acceptor molecule, acceptor atom, score
      L1  H    21    44       P1  7948  0.81
      P1  H  6896  6907       L1    17  0.71
      P1  H  7997  8010       L1     5  0.41
      P1  H 10752 10765       L1     7  0.49

> <Gold.Chemscore.Hbond.Weighted>
-9.4099

> <Gold.Chemscore.Metal.Weighted>
-0.0000

> <Gold.Chemscore.Lipo.Weighted>
-12.3180

> <Gold.Chemscore.Internal_Hbond.Weighted>
0.0000

> <Gold.Chemscore.DEClash.Weighted>
0.4187

> <Gold.Chemscore.DEInternal.Weighted>
2.1872

> <Gold.Chemscore.Rot.Weighted>
10.4879

> <Gold.Chemscore.Internal.Correction.Weighted>
   9.000000E+99

> <Gold.Protein.RotatedTorsions>
[ 6907 6896 6895 6894 ] final -158.42 input  -60.11 | X-H torsion
[ 7974 7965 7964 7962 ] final   82.37 input  175.53 | X-H torsion
[ 8008 7997 7996 7995 ] final   31.52 input   59.86 | X-H torsion
[ 10167 10162 10161 10158 ] final -133.04 input  -65.29 | X-H torsion
[ 10718 10713 10712 10709 ] final   86.13 input   66.30 | X-H torsion
[ 10763 10752 10751 10750 ] final -163.26 input  -60.55 | X-H torsion
[ 11005 11000 10999 10996 ] final   32.22 input  -57.11 | X-H torsion

> <Gold.Protein.ActiveResidues>
 VAL166  LYS551  ARG553  GLY616  TRP617  ASP618  TYR619  PRO620  LYS621  CYS622 
 ASP623  PHE694  ASN695  SER759  ASP760  ASP761  ALA762  ILE779  LEU786  VAL792 
 PHE793  MET794  SER795  GLU796  ALA797  LYS798  CYS799  TRP800  GLU811  SER814 

> <Gold.Protein.RotatedAtoms>
  151.3180  133.4052  159.2651 H   0  0  0  0  0  0  0  0  0  0  0  0  # atno 6907 bound_to 6896
  151.0059  134.9359  159.7990 H   0  0  0  0  0  0  0  0  0  0  0  0  # atno 6908 bound_to 6896
  152.5288  134.3144  159.9178 H   0  0  0  0  0  0  0  0  0  0  0  0  # atno 6909 bound_to 6896
  145.6260  139.2395  143.2112 H   0  0  0  0  0  0  0  0  0  0  0  0  # atno 7974 bound_to 7965
  155.1077  140.3236  155.4530 H   0  0  0  0  0  0  0  0  0  0  0  0  # atno 8008 bound_to 7997
  156.2699  140.2049  156.6149 H   0  0  0  0  0  0  0  0  0  0  0  0  # atno 8009 bound_to 7997
  154.6780  140.0529  157.0223 H   0  0  0  0  0  0  0  0  0  0  0  0  # atno 8010 bound_to 7997
  139.9024  143.6592  152.2592 H   0  0  0  0  0  0  0  0  0  0  0  0  # atno 10167 bound_to 10162
  157.6924  131.0203  150.2926 H   0  0  0  0  0  0  0  0  0  0  0  0  # atno 10718 bound_to 10713
  154.7139  135.3012  154.9154 H   0  0  0  0  0  0  0  0  0  0  0  0  # atno 10763 bound_to 10752
  154.0047  135.6702  153.4765 H   0  0  0  0  0  0  0  0  0  0  0  0  # atno 10764 bound_to 10752
  153.0777  135.5025  154.8354 H   0  0  0  0  0  0  0  0  0  0  0  0  # atno 10765 bound_to 10752
  140.2757  134.3030  155.7815 H   0  0  0  0  0  0  0  0  0  0  0  0  # atno 11005 bound_to 11000
  146.1394  140.7078  142.9374 LP  0  0  0  0  0  0  0  0  0  0  0  0  # atno 17320 bound_to 7965
  144.7212  140.4380  143.7006 LP  0  0  0  0  0  0  0  0  0  0  0  0  # atno 17321 bound_to 7965
  139.7014  144.7634  151.1267 LP  0  0  0  0  0  0  0  0  0  0  0  0  # atno 17342 bound_to 10162
  140.7704  143.5453  150.9265 LP  0  0  0  0  0  0  0  0  0  0  0  0  # atno 17343 bound_to 10162
  156.3454  130.3822  149.7373 LP  0  0  0  0  0  0  0  0  0  0  0  0  # atno 17370 bound_to 10713
  156.4868  130.8066  151.3078 LP  0  0  0  0  0  0  0  0  0  0  0  0  # atno 17371 bound_to 10713
  141.2170  133.7494  156.9404 LP  0  0  0  0  0  0  0  0  0  0  0  0  # atno 17394 bound_to 11000
  140.1330  134.9343  157.2364 LP  0  0  0  0  0  0  0  0  0  0  0  0  # atno 17395 bound_to 11000

$$$$
