AV-unprocessed.smi:1893|AV-procd|sdf|7674|dock3
  -GOLD-   22720 9413D 1   1.00000     0.00000
 Structure written by MMmdl.
 43 44  0  0  0  0  0  0  0  0  2 V2000
  145.6739  136.9619  152.8186 C   0  0  0  0  0  0  0  0  0  0  0  0
  145.6583  135.4345  152.6113 C   0  0  1  0  0  0  0  0  0  0  0  0
  145.5761  135.1323  151.0987 C   0  0  0  0  0  0  0  0  0  0  0  0
  145.5759  133.6279  150.8123 C   0  0  0  0  0  0  0  0  0  0  0  0
  146.8109  132.9877  151.4489 C   0  0  0  0  0  0  0  0  0  0  0  0
  146.8581  133.2911  152.9526 C   0  0  0  0  0  0  0  0  0  0  0  0
  146.8429  134.7546  153.2264 N   0  3  2  0  0  0  0  0  0  0  0  0
  147.0257  135.0334  154.6773 C   0  0  0  0  0  0  0  0  0  0  0  0
  148.5035  134.9155  155.0941 C   0  0  0  0  0  0  0  0  0  0  0  0
  149.3117  135.9636  154.4835 N   0  0  0  0  0  0  0  0  0  0  0  0
  149.8840  136.9795  155.1493 C   0  0  0  0  0  0  0  0  0  0  0  0
  149.8042  137.1062  156.3719 O   0  0  0  0  0  0  0  0  0  0  0  0
  150.6479  138.0067  154.2981 C   0  0  2  0  0  0  0  0  0  0  0  0
  152.1023  138.2125  154.7681 C   0  0  0  0  0  0  0  0  0  0  0  0
  149.9091  139.2621  154.2417 N   0  0  0  0  0  0  0  0  0  0  0  0
  148.6355  139.4949  153.9166 C   0  0  0  0  0  0  0  0  0  0  0  0
  148.2774  140.7669  154.0188 N   0  0  0  0  0  0  0  0  0  0  0  0
  149.4588  141.3033  154.4457 C   0  0  0  0  0  0  0  0  0  0  0  0
  150.4647  140.4441  154.6084 N   0  0  0  0  0  0  0  0  0  0  0  0
  144.8276  137.4297  152.3148 H   0  0  0  0  0  0  0  0  0  0  0  0
  146.5825  137.4080  152.4126 H   0  0  0  0  0  0  0  0  0  0  0  0
  145.6015  137.2405  153.8694 H   0  0  0  0  0  0  0  0  0  0  0  0
  144.7608  135.0364  153.0879 H   0  0  0  0  0  0  0  0  0  0  0  0
  144.6751  135.5790  150.6763 H   0  0  0  0  0  0  0  0  0  0  0  0
  146.4182  135.5969  150.5834 H   0  0  0  0  0  0  0  0  0  0  0  0
  144.6700  133.1719  151.2138 H   0  0  0  0  0  0  0  0  0  0  0  0
  145.5689  133.4479  149.7368 H   0  0  0  0  0  0  0  0  0  0  0  0
  146.7971  131.9096  151.2860 H   0  0  0  0  0  0  0  0  0  0  0  0
  147.7146  133.3637  150.9671 H   0  0  0  0  0  0  0  0  0  0  0  0
  146.0134  132.8178  153.4563 H   0  0  0  0  0  0  0  0  0  0  0  0
  147.7647  132.8513  153.3709 H   0  0  0  0  0  0  0  0  0  0  0  0
  146.6225  136.0128  154.9387 H   0  0  0  0  0  0  0  0  0  0  0  0
  146.4461  134.3244  155.2706 H   0  0  0  0  0  0  0  0  0  0  0  0
  148.5982  134.9572  156.1807 H   0  0  0  0  0  0  0  0  0  0  0  0
  148.9181  133.9562  154.7875 H   0  0  0  0  0  0  0  0  0  0  0  0
  149.4284  135.9272  153.4811 H   0  0  0  0  0  0  0  0  0  0  0  0
  150.6905  137.6136  153.2807 H   0  0  0  0  0  0  0  0  0  0  0  0
  152.6564  137.2732  154.7568 H   0  0  0  0  0  0  0  0  0  0  0  0
  152.1539  138.6141  155.7809 H   0  0  0  0  0  0  0  0  0  0  0  0
  152.6271  138.9072  154.1119 H   0  0  0  0  0  0  0  0  0  0  0  0
  147.9542  138.7170  153.6039 H   0  0  0  0  0  0  0  0  0  0  0  0
  149.5790  142.3570  154.6507 H   0  0  0  0  0  0  0  0  0  0  0  0
  147.6599  135.1269  152.7635 H   0  0  0  0  0  0  0  0  0  0  0  0
  1  2  1  0  0  0  0
  1 20  1  0  0  0  0
  1 21  1  0  0  0  0
  1 22  1  0  0  0  0
  2  7  1  0  0  0  0
  2  3  1  0  0  0  0
  2 23  1  0  0  0  0
  3  4  1  0  0  0  0
  3 24  1  0  0  0  0
  3 25  1  0  0  0  0
  4  5  1  0  0  0  0
  4 26  1  0  0  0  0
  4 27  1  0  0  0  0
  5  6  1  0  0  0  0
  5 28  1  0  0  0  0
  5 29  1  0  0  0  0
  6  7  1  0  0  0  0
  6 30  1  0  0  0  0
  6 31  1  0  0  0  0
  7  8  1  0  0  0  0
  7 43  1  0  0  0  0
  8  9  1  0  0  0  0
  8 32  1  0  0  0  0
  8 33  1  0  0  0  0
  9 10  1  0  0  0  0
  9 34  1  0  0  0  0
  9 35  1  0  0  0  0
 10 11  1  0  0  0  0
 10 36  1  0  0  0  0
 11 12  2  0  0  0  0
 11 13  1  0  0  0  0
 13 14  1  0  0  0  0
 13 15  1  0  0  0  0
 13 37  1  0  0  0  0
 14 38  1  0  0  0  0
 14 39  1  0  0  0  0
 14 40  1  0  0  0  0
 15 19  1  0  0  0  0
 15 16  1  0  0  0  0
 16 17  2  0  0  0  0
 16 41  1  0  0  0  0
 17 18  1  0  0  0  0
 18 19  2  0  0  0  0
 18 42  1  0  0  0  0
M  CHG  1   7   1
M  END
> <s_m_source_file>
AV-unprocessed.smi

> <i_m_source_file_index>
1893

> <i_lp_mmshare_version>
43012

> <i_f3d_flags>
0

> <s_epik_input>
W0NIM11bQ0BASF0xW0NIMl1bQ0gyXVtDSDJdW0NIMl1OMVtDSDJdW0NIMl1bTkhdQyg9TylbQ0BIXShbQ0gzXSluMltjSF1uW2NIXW4y

> <s_epik_cmdline>
J2VwaWtfcHl0aG9uJywgJy1waCcsICc3LjAnLCAnLXRuJywgJzgnLCAnLW1hJywgJzIwMCcsICctbWV0YWxfYmluZGluZycsICctaW1hZScsICc8aW5maWxlLm1hZT4nLCAnLW9tYWUnLCAnPG91dGZpbGUubWFlPic=

> <r_lp_tautomer_probability>
1

> <r_epik_Ionization_Penalty>
0.00266409

> <r_epik_Ionization_Penalty_Charging>
0.00265606

> <r_epik_Ionization_Penalty_Neutral>
8.02794e-06

> <r_epik_State_Penalty>
0.00184955

> <r_epik_Charging_Adjusted_Penalty>
0.00450561

> <i_epik_Tot_Q>
1

> <i_epik_Tot_abs_Q>
1

> <r_epik_Metal_State_Penalty>
-0

> <b_epik_Metal_Only>
0

> <s_lp_Force_Field>
OPLS_2005

> <r_lp_Energy>
24.4169

> <b_lp_Chiralities_Consistent>
1

> <s_lp_Variant>
AV-unprocessed.smi:1893-4

> <Gold.Version>
5.8.1

> <Gold.Id.Protein>
6NUR|6NUR_protein|mol2

> <Gold.PLP.Fitness>
46.1984

> <Gold.PLP.PLP>
-32.0317

> <Gold.PLP.part.hbond>
-3.0000

> <Gold.PLP.part.metal>
0.0000

> <Gold.PLP.part.buried>
-3.3924

> <Gold.PLP.part.nonpolar>
-25.9744

> <Gold.PLP.part.repulsive>
0.2461

> <Gold.PLP.ligand.clash>
0.0000

> <Gold.PLP.ligand.torsion>
0.4895

> <Gold.PLP.Chemscore.Hbond>
4.0000

> <Gold.PLP.Chemscore.CHOScore>
1.0000

> <Gold.PLP.Chemscore.Metal>
0.0000

> <Gold.Chemscore.Hbonds>
donor molecule, donor type, donor heavy atom, donor atom, acceptor molecule, acceptor atom, score
      L1  H     7    43       P1  7948  2.00
      L1  H    10    36       P1  7948  1.00
      P1  H  7989  7998       L1    19  1.00
      L1  C    18    42       P1  8028  0.71

> <Gold.PLP.Chemscore.Internal.Correction>
0.1458

> <Gold.Rescore>
     Score         DG    S(hbond)    S(metal)    S(lipo)     H(rot)  DE(clash)    DE(int)     intcor
     12.88     -13.65       2.58        0.00      51.68       2.54       0.07       0.70       ----

> <Gold.Chemscore.Fitness>
12.8845

> <Gold.Chemscore.DG>
-13.6509

> <Gold.Chemscore.ZeroCoef>
-5.4800

> <Gold.Chemscore.Hbond>
2.5810

> <Gold.Chemscore.Metal>
0.0000

> <Gold.Chemscore.Lipo>
51.6832

> <Gold.Chemscore.Internal_Hbond>
0.0000

> <Gold.Chemscore.DEClash>
0.0708

> <Gold.Chemscore.DEInternal>
0.6956

> <Gold.Chemscore.Rot>
2.5377

> <Gold.Chemscore.Internal.Correction>
   9.000000E+99

> <Gold.Chemscore.Hbonds>
donor molecule, donor type, donor heavy atom, donor atom, acceptor molecule, acceptor atom, score
      L1  H     7    43       P1  7948  1.00
      L1  H    10    36       P1  7948  0.44
      P1  H  7989  7998       L1    19  0.37

> <Gold.Chemscore.Hbond.Weighted>
-8.6205

> <Gold.Chemscore.Metal.Weighted>
-0.0000

> <Gold.Chemscore.Lipo.Weighted>
-6.0469

> <Gold.Chemscore.Internal_Hbond.Weighted>
0.0000

> <Gold.Chemscore.DEClash.Weighted>
0.0708

> <Gold.Chemscore.DEInternal.Weighted>
0.6956

> <Gold.Chemscore.Rot.Weighted>
6.4966

> <Gold.Chemscore.Internal.Correction.Weighted>
   9.000000E+99

> <Gold.Protein.RotatedTorsions>
[ 6907 6896 6895 6894 ] final  162.14 input  -60.11 | X-H torsion
[ 7974 7965 7964 7962 ] final  -43.50 input  175.53 | X-H torsion
[ 8008 7997 7996 7995 ] final   66.74 input   59.86 | X-H torsion
[ 10167 10162 10161 10158 ] final  101.72 input  -65.29 | X-H torsion
[ 10718 10713 10712 10709 ] final  157.72 input   66.30 | X-H torsion
[ 10763 10752 10751 10750 ] final -157.57 input  -60.55 | X-H torsion
[ 11005 11000 10999 10996 ] final   12.68 input  -57.11 | X-H torsion

> <Gold.Protein.ActiveResidues>
 VAL166  LYS551  ARG553  GLY616  TRP617  ASP618  TYR619  PRO620  LYS621  CYS622 
 ASP623  PHE694  ASN695  SER759  ASP760  ASP761  ALA762  ILE779  LEU786  VAL792 
 PHE793  MET794  SER795  GLU796  ALA797  LYS798  CYS799  TRP800  GLU811  SER814 

> <Gold.Protein.RotatedAtoms>
  151.9450  133.3649  159.3978 H   0  0  0  0  0  0  0  0  0  0  0  0  # atno 6907 bound_to 6896
  150.6991  134.4400  159.5297 H   0  0  0  0  0  0  0  0  0  0  0  0  # atno 6908 bound_to 6896
  152.2063  134.8542  160.0553 H   0  0  0  0  0  0  0  0  0  0  0  0  # atno 6909 bound_to 6896
  146.0013  140.7071  142.9269 H   0  0  0  0  0  0  0  0  0  0  0  0  # atno 7974 bound_to 7965
  155.6821  140.3496  155.4859 H   0  0  0  0  0  0  0  0  0  0  0  0  # atno 8008 bound_to 7997
  155.9597  140.1135  157.0928 H   0  0  0  0  0  0  0  0  0  0  0  0  # atno 8009 bound_to 7997
  154.4140  140.1178  156.5149 H   0  0  0  0  0  0  0  0  0  0  0  0  # atno 8010 bound_to 7997
  139.7413  144.7010  151.0571 H   0  0  0  0  0  0  0  0  0  0  0  0  # atno 10167 bound_to 10162
  157.1876  131.0647  151.2097 H   0  0  0  0  0  0  0  0  0  0  0  0  # atno 10718 bound_to 10713
  154.7625  135.3122  154.8350 H   0  0  0  0  0  0  0  0  0  0  0  0  # atno 10763 bound_to 10752
  153.9107  135.6806  153.4755 H   0  0  0  0  0  0  0  0  0  0  0  0  # atno 10764 bound_to 10752
  153.1228  135.4815  154.9155 H   0  0  0  0  0  0  0  0  0  0  0  0  # atno 10765 bound_to 10752
  140.4893  134.0857  155.7767 H   0  0  0  0  0  0  0  0  0  0  0  0  # atno 11005 bound_to 11000
  144.6920  140.3238  143.7228 LP  0  0  0  0  0  0  0  0  0  0  0  0  # atno 17320 bound_to 7965
  145.7483  139.1786  143.2336 LP  0  0  0  0  0  0  0  0  0  0  0  0  # atno 17321 bound_to 7965
  140.7786  143.4921  150.9879 LP  0  0  0  0  0  0  0  0  0  0  0  0  # atno 17342 bound_to 10162
  139.8609  143.7315  152.3173 LP  0  0  0  0  0  0  0  0  0  0  0  0  # atno 17343 bound_to 10162
  157.3892  130.7273  149.6685 LP  0  0  0  0  0  0  0  0  0  0  0  0  # atno 17370 bound_to 10713
  155.9716  130.4151  150.4165 LP  0  0  0  0  0  0  0  0  0  0  0  0  # atno 17371 bound_to 10713
  141.1492  133.8999  157.2140 LP  0  0  0  0  0  0  0  0  0  0  0  0  # atno 17394 bound_to 11000
  139.9779  135.0108  156.9677 LP  0  0  0  0  0  0  0  0  0  0  0  0  # atno 17395 bound_to 11000

$$$$
