AV-unprocessed.smi:3218|AV-procd|sdf|12293|dock5
  -GOLD-   2272018133D 1   1.00000     0.00000
 Structure written by MMmdl.
 38 39  0  0  0  0  0  0  0  0  2 V2000
  151.8525  145.6414  159.8551 C   0  0  0  0  0  0  0  0  0  0  0  0
  151.8581  144.3177  159.1457 C   0  0  0  0  0  0  0  0  0  0  0  0
  152.4325  143.0922  159.5878 C   0  0  0  0  0  0  0  0  0  0  0  0
  152.2617  142.1034  158.7250 N   0  0  0  0  0  0  0  0  0  0  0  0
  151.5768  142.6613  157.7043 N   0  0  0  0  0  0  0  0  0  0  0  0
  151.2032  141.8537  156.5572 C   0  0  0  0  0  0  0  0  0  0  0  0
  149.6914  141.5812  156.5033 C   0  0  0  0  0  0  0  0  0  0  0  0
  149.0782  142.1402  155.2815 N   0  3  0  0  0  0  0  0  0  0  0  0
  147.7132  141.6496  155.0137 C   0  0  0  0  0  0  0  0  0  0  0  0
  147.0472  142.4620  153.8921 C   0  0  0  0  0  0  0  0  0  0  0  0
  145.8845  143.1998  154.3787 N   0  0  0  0  0  0  0  0  0  0  0  0
  145.4041  143.0202  155.7385 C   0  0  0  0  0  0  0  0  0  0  0  0
  144.0843  143.8026  155.8014 C   0  0  0  0  0  0  0  0  0  0  0  0
  144.0613  144.6846  154.5482 C   0  0  0  0  0  0  0  0  0  0  0  0
  145.1869  144.1181  153.6996 C   0  0  0  0  0  0  0  0  0  0  0  0
  145.3997  144.4792  152.5432 O   0  0  0  0  0  0  0  0  0  0  0  0
  151.3191  143.9964  157.9322 C   0  0  0  0  0  0  0  0  0  0  0  0
  152.6948  145.7365  160.5408 H   0  0  0  0  0  0  0  0  0  0  0  0
  150.9438  145.7786  160.4414 H   0  0  0  0  0  0  0  0  0  0  0  0
  151.9138  146.4754  159.1556 H   0  0  0  0  0  0  0  0  0  0  0  0
  152.9649  142.8931  160.5063 H   0  0  0  0  0  0  0  0  0  0  0  0
  151.5135  142.3839  155.6561 H   0  0  0  0  0  0  0  0  0  0  0  0
  151.7663  140.9194  156.5776 H   0  0  0  0  0  0  0  0  0  0  0  0
  149.5029  140.5077  156.5517 H   0  0  0  0  0  0  0  0  0  0  0  0
  149.2100  142.0291  157.3734 H   0  0  0  0  0  0  0  0  0  0  0  0
  149.0504  143.1463  155.3661 H   0  0  0  0  0  0  0  0  0  0  0  0
  147.7642  140.5947  154.7409 H   0  0  0  0  0  0  0  0  0  0  0  0
  147.1209  141.7191  155.9269 H   0  0  0  0  0  0  0  0  0  0  0  0
  147.7648  143.1627  153.4629 H   0  0  0  0  0  0  0  0  0  0  0  0
  146.7384  141.8020  153.0797 H   0  0  0  0  0  0  0  0  0  0  0  0
  145.2599  141.9652  155.9746 H   0  0  0  0  0  0  0  0  0  0  0  0
  146.1348  143.4305  156.4367 H   0  0  0  0  0  0  0  0  0  0  0  0
  143.2389  143.1137  155.7836 H   0  0  0  0  0  0  0  0  0  0  0  0
  144.0079  144.3910  156.7163 H   0  0  0  0  0  0  0  0  0  0  0  0
  143.1049  144.6356  154.0267 H   0  0  0  0  0  0  0  0  0  0  0  0
  144.2770  145.7260  154.7896 H   0  0  0  0  0  0  0  0  0  0  0  0
  150.7782  144.6019  157.2196 H   0  0  0  0  0  0  0  0  0  0  0  0
  149.6661  141.9008  154.4951 H   0  0  0  0  0  0  0  0  0  0  0  0
  1  2  1  0  0  0  0
  1 18  1  0  0  0  0
  1 19  1  0  0  0  0
  1 20  1  0  0  0  0
  2 17  2  0  0  0  0
  2  3  1  0  0  0  0
  3  4  2  0  0  0  0
  3 21  1  0  0  0  0
  4  5  1  0  0  0  0
  5  6  1  0  0  0  0
  5 17  1  0  0  0  0
  6  7  1  0  0  0  0
  6 22  1  0  0  0  0
  6 23  1  0  0  0  0
  7  8  1  0  0  0  0
  7 24  1  0  0  0  0
  7 25  1  0  0  0  0
  8  9  1  0  0  0  0
  8 26  1  0  0  0  0
  8 38  1  0  0  0  0
  9 10  1  0  0  0  0
  9 27  1  0  0  0  0
  9 28  1  0  0  0  0
 10 11  1  0  0  0  0
 10 29  1  0  0  0  0
 10 30  1  0  0  0  0
 11 15  1  0  0  0  0
 11 12  1  0  0  0  0
 12 13  1  0  0  0  0
 12 31  1  0  0  0  0
 12 32  1  0  0  0  0
 13 14  1  0  0  0  0
 13 33  1  0  0  0  0
 13 34  1  0  0  0  0
 14 15  1  0  0  0  0
 14 35  1  0  0  0  0
 14 36  1  0  0  0  0
 15 16  2  0  0  0  0
 17 37  1  0  0  0  0
M  CHG  1   8   1
M  END
> <s_m_source_file>
AV-unprocessed.smi

> <i_m_source_file_index>
3218

> <i_lp_mmshare_version>
43012

> <i_f3d_flags>
0

> <s_epik_input>
W0NIM11jMVtjSF1ubihbY0hdMSlbQ0gyXVtDSDJdW05IXVtDSDJdW0NIMl1OMltDSDJdW0NIMl1bQ0gyXUMyPU8=

> <s_epik_cmdline>
J2VwaWtfcHl0aG9uJywgJy1waCcsICc3LjAnLCAnLXRuJywgJzgnLCAnLW1hJywgJzIwMCcsICctbWV0YWxfYmluZGluZycsICctaW1hZScsICc8aW5maWxlLm1hZT4nLCAnLW9tYWUnLCAnPG91dGZpbGUubWFlPic=

> <r_lp_tautomer_probability>
1

> <r_epik_Ionization_Penalty>
0.00826456

> <r_epik_Ionization_Penalty_Charging>
0.00825899

> <r_epik_Ionization_Penalty_Neutral>
5.57245e-06

> <r_epik_State_Penalty>
0.00621436

> <r_epik_Charging_Adjusted_Penalty>
0.0144734

> <i_epik_Tot_Q>
1

> <i_epik_Tot_abs_Q>
1

> <r_epik_Metal_State_Penalty>
0.00623755

> <b_epik_Metal_Only>
0

> <s_lp_Force_Field>
OPLS_2005

> <r_lp_Energy>
17.5309

> <b_lp_Chiralities_Consistent>
1

> <s_lp_Variant>
AV-unprocessed.smi:3218-1

> <Gold.Version>
5.8.1

> <Gold.Id.Protein>
6NUR|6NUR_protein|mol2

> <Gold.PLP.Fitness>
48.5750

> <Gold.PLP.PLP>
-41.4750

> <Gold.PLP.part.hbond>
-1.4883

> <Gold.PLP.part.metal>
0.0000

> <Gold.PLP.part.buried>
-7.7084

> <Gold.PLP.part.nonpolar>
-32.5914

> <Gold.PLP.part.repulsive>
0.3778

> <Gold.PLP.ligand.clash>
0.0000

> <Gold.PLP.ligand.torsion>
0.9755

> <Gold.PLP.Chemscore.Hbond>
2.0000

> <Gold.PLP.Chemscore.CHOScore>
1.0000

> <Gold.PLP.Chemscore.Metal>
0.0000

> <Gold.Chemscore.Hbonds>
donor molecule, donor type, donor heavy atom, donor atom, acceptor molecule, acceptor atom, score
      L1  H     8    26       P1  8028  2.00
      L1  C    17    37       P1  8028  1.00

> <Gold.PLP.Chemscore.Internal.Correction>
0.0509

> <Gold.Rescore>
     Score         DG    S(hbond)    S(metal)    S(lipo)     H(rot)  DE(clash)    DE(int)     intcor
     13.01     -14.03       1.00        0.00      89.10       2.03       0.15       0.86       ----

> <Gold.Chemscore.Fitness>
13.0143

> <Gold.Chemscore.DG>
-14.0317

> <Gold.Chemscore.ZeroCoef>
-5.4800

> <Gold.Chemscore.Hbond>
0.9966

> <Gold.Chemscore.Metal>
0.0000

> <Gold.Chemscore.Lipo>
89.1019

> <Gold.Chemscore.Internal_Hbond>
0.0000

> <Gold.Chemscore.DEClash>
0.1535

> <Gold.Chemscore.DEInternal>
0.8639

> <Gold.Chemscore.Rot>
2.0319

> <Gold.Chemscore.Internal.Correction>
   9.000000E+99

> <Gold.Chemscore.Hbonds>
donor molecule, donor type, donor heavy atom, donor atom, acceptor molecule, acceptor atom, score
      L1  H     8    26       P1  8028  0.99

> <Gold.Chemscore.Hbond.Weighted>
-3.3286

> <Gold.Chemscore.Metal.Weighted>
-0.0000

> <Gold.Chemscore.Lipo.Weighted>
-10.4249

> <Gold.Chemscore.Internal_Hbond.Weighted>
0.0000

> <Gold.Chemscore.DEClash.Weighted>
0.1535

> <Gold.Chemscore.DEInternal.Weighted>
0.8639

> <Gold.Chemscore.Rot.Weighted>
5.2017

> <Gold.Chemscore.Internal.Correction.Weighted>
   9.000000E+99

> <Gold.Protein.RotatedTorsions>
[ 6907 6896 6895 6894 ] final  -88.59 input  -60.11 | X-H torsion
[ 7974 7965 7964 7962 ] final  -73.97 input  175.53 | X-H torsion
[ 8008 7997 7996 7995 ] final -178.93 input   59.86 | X-H torsion
[ 10167 10162 10161 10158 ] final  -65.84 input  -65.29 | X-H torsion
[ 10718 10713 10712 10709 ] final   69.95 input   66.30 | X-H torsion
[ 10763 10752 10751 10750 ] final  -30.57 input  -60.55 | X-H torsion
[ 11005 11000 10999 10996 ] final  -16.01 input  -57.11 | X-H torsion

> <Gold.Protein.ActiveResidues>
 VAL166  LYS551  ARG553  GLY616  TRP617  ASP618  TYR619  PRO620  LYS621  CYS622 
 ASP623  PHE694  ASN695  SER759  ASP760  ASP761  ALA762  ILE779  LEU786  VAL792 
 PHE793  MET794  SER795  GLU796  ALA797  LYS798  CYS799  TRP800  GLU811  SER814 

> <Gold.Protein.RotatedAtoms>
  150.6869  134.2717  159.4590 H   0  0  0  0  0  0  0  0  0  0  0  0  # atno 6907 bound_to 6896
  152.0639  134.9574  160.0584 H   0  0  0  0  0  0  0  0  0  0  0  0  # atno 6908 bound_to 6896
  152.0990  133.4205  159.4615 H   0  0  0  0  0  0  0  0  0  0  0  0  # atno 6909 bound_to 6896
  145.6452  140.9299  143.1014 H   0  0  0  0  0  0  0  0  0  0  0  0  # atno 7974 bound_to 7965
  156.0246  140.1268  157.0321 H   0  0  0  0  0  0  0  0  0  0  0  0  # atno 8008 bound_to 7997
  154.4325  140.1061  156.6083 H   0  0  0  0  0  0  0  0  0  0  0  0  # atno 8009 bound_to 7997
  155.5895  140.3469  155.4564 H   0  0  0  0  0  0  0  0  0  0  0  0  # atno 8010 bound_to 7997
  140.5700  143.2317  151.6557 H   0  0  0  0  0  0  0  0  0  0  0  0  # atno 10167 bound_to 10162
  157.6374  130.9452  150.0584 H   0  0  0  0  0  0  0  0  0  0  0  0  # atno 10718 bound_to 10713
  153.7831  135.6903  153.4885 H   0  0  0  0  0  0  0  0  0  0  0  0  # atno 10763 bound_to 10752
  153.1798  135.4510  155.0012 H   0  0  0  0  0  0  0  0  0  0  0  0  # atno 10764 bound_to 10752
  154.8074  135.3362  154.7332 H   0  0  0  0  0  0  0  0  0  0  0  0  # atno 10765 bound_to 10752
  140.8024  133.8203  155.9483 H   0  0  0  0  0  0  0  0  0  0  0  0  # atno 11005 bound_to 11000
  144.7143  139.8255  143.7404 LP  0  0  0  0  0  0  0  0  0  0  0  0  # atno 17320 bound_to 7965
  146.1249  139.4273  143.0205 LP  0  0  0  0  0  0  0  0  0  0  0  0  # atno 17321 bound_to 7965
  139.5113  144.3515  152.0648 LP  0  0  0  0  0  0  0  0  0  0  0  0  # atno 17342 bound_to 10162
  140.2651  144.4025  150.6171 LP  0  0  0  0  0  0  0  0  0  0  0  0  # atno 17343 bound_to 10162
  156.1624  130.3644  149.9280 LP  0  0  0  0  0  0  0  0  0  0  0  0  # atno 17370 bound_to 10713
  156.7275  130.9030  151.3623 LP  0  0  0  0  0  0  0  0  0  0  0  0  # atno 17371 bound_to 10713
  140.9281  134.2057  157.4882 LP  0  0  0  0  0  0  0  0  0  0  0  0  # atno 17394 bound_to 11000
  139.8720  134.9821  156.5143 LP  0  0  0  0  0  0  0  0  0  0  0  0  # atno 17395 bound_to 11000

$$$$
