AV-unprocessed.smi:3263|AV-procd|sdf|12490|dock7
  -GOLD-   2272018393D 1   1.00000     0.00000
 Structure written by MMmdl.
 42 44  0  0  0  0  0  0  0  0  2 V2000
  149.3859  133.7282  158.2566 O   0  0  0  0  0  0  0  0  0  0  0  0
  148.2317  134.0081  157.9320 C   0  0  0  0  0  0  0  0  0  0  0  0
  147.3277  134.7870  158.8910 C   0  0  0  0  0  0  0  0  0  0  0  0
  147.8967  134.8621  160.3256 C   0  0  2  0  0  0  0  0  0  0  0  0
  147.6936  133.5740  161.1521 C   0  0  0  0  0  0  0  0  0  0  0  0
  147.0890  134.0997  162.4681 C   0  0  2  0  0  0  0  0  0  0  0  0
  145.6268  134.5138  162.2212 C   0  0  0  0  0  0  0  0  0  0  0  0
  145.7764  135.8093  161.4028 C   0  0  0  0  0  0  0  0  0  0  0  0
  147.3062  135.9490  161.2601 C   0  0  1  0  0  0  0  0  0  0  0  0
  147.7766  135.4516  162.6229 C   0  0  0  0  0  0  0  0  0  0  0  0
  147.7009  133.6789  156.7445 N   0  0  0  0  0  0  0  0  0  0  0  0
  148.4192  133.0043  155.6709 C   0  0  0  0  0  0  0  0  0  0  0  0
  148.3766  133.8237  154.3699 C   0  0  0  0  0  0  0  0  0  0  0  0
  147.5036  133.1775  153.3128 C   0  0  0  0  0  0  0  0  0  0  0  0
  146.8426  131.9489  153.5292 C   0  0  0  0  0  0  0  0  0  0  0  0
  146.0482  131.4041  152.4988 C   0  0  0  0  0  0  0  0  0  0  0  0
  145.9321  132.0976  151.2761 C   0  0  0  0  0  0  0  0  0  0  0  0
  146.6148  133.3204  151.1141 C   0  0  0  0  0  0  0  0  0  0  0  0
  147.3661  133.8099  152.1247 N   0  3  0  0  0  0  0  0  0  0  0  0
  147.1453  135.7882  158.4988 H   0  0  0  0  0  0  0  0  0  0  0  0
  146.3550  134.2947  158.9133 H   0  0  0  0  0  0  0  0  0  0  0  0
  148.9711  135.0405  160.2475 H   0  0  0  0  0  0  0  0  0  0  0  0
  147.0364  132.8531  160.6640 H   0  0  0  0  0  0  0  0  0  0  0  0
  148.6494  133.0798  161.3302 H   0  0  0  0  0  0  0  0  0  0  0  0
  147.2138  133.4179  163.3098 H   0  0  0  0  0  0  0  0  0  0  0  0
  145.0636  133.7472  161.6879 H   0  0  0  0  0  0  0  0  0  0  0  0
  145.1130  134.7123  163.1627 H   0  0  0  0  0  0  0  0  0  0  0  0
  145.2542  135.7687  160.4477 H   0  0  0  0  0  0  0  0  0  0  0  0
  145.3680  136.6550  161.9579 H   0  0  0  0  0  0  0  0  0  0  0  0
  147.6300  136.9610  161.0146 H   0  0  0  0  0  0  0  0  0  0  0  0
  147.3910  136.0406  163.4570 H   0  0  0  0  0  0  0  0  0  0  0  0
  148.8623  135.3786  162.7087 H   0  0  0  0  0  0  0  0  0  0  0  0
  146.7427  133.9415  156.5628 H   0  0  0  0  0  0  0  0  0  0  0  0
  149.4503  132.8163  155.9756 H   0  0  0  0  0  0  0  0  0  0  0  0
  147.9592  132.0285  155.5116 H   0  0  0  0  0  0  0  0  0  0  0  0
  148.0073  134.8295  154.5752 H   0  0  0  0  0  0  0  0  0  0  0  0
  149.3813  133.9446  153.9621 H   0  0  0  0  0  0  0  0  0  0  0  0
  146.9419  131.4288  154.4710 H   0  0  0  0  0  0  0  0  0  0  0  0
  145.5339  130.4654  152.6447 H   0  0  0  0  0  0  0  0  0  0  0  0
  145.3285  131.6975  150.4746 H   0  0  0  0  0  0  0  0  0  0  0  0
  146.5834  133.9172  150.2142 H   0  0  0  0  0  0  0  0  0  0  0  0
  147.8520  134.6965  151.9858 H   0  0  0  0  0  0  0  0  0  0  0  0
  1  2  2  0  0  0  0
  2  3  1  0  0  0  0
  2 11  1  0  0  0  0
  3  4  1  0  0  0  0
  3 20  1  0  0  0  0
  3 21  1  0  0  0  0
  4  9  1  0  0  0  0
  4  5  1  0  0  0  0
  4 22  1  0  0  0  0
  5  6  1  0  0  0  0
  5 23  1  0  0  0  0
  5 24  1  0  0  0  0
  6 10  1  0  0  0  0
  6  7  1  0  0  0  0
  6 25  1  0  0  0  0
  7  8  1  0  0  0  0
  7 26  1  0  0  0  0
  7 27  1  0  0  0  0
  8  9  1  0  0  0  0
  8 28  1  0  0  0  0
  8 29  1  0  0  0  0
  9 10  1  0  0  0  0
  9 30  1  0  0  0  0
 10 31  1  0  0  0  0
 10 32  1  0  0  0  0
 11 12  1  0  0  0  0
 11 33  1  0  0  0  0
 12 13  1  0  0  0  0
 12 34  1  0  0  0  0
 12 35  1  0  0  0  0
 13 14  1  0  0  0  0
 13 36  1  0  0  0  0
 13 37  1  0  0  0  0
 14 19  1  0  0  0  0
 14 15  2  0  0  0  0
 15 16  1  0  0  0  0
 15 38  1  0  0  0  0
 16 17  2  0  0  0  0
 16 39  1  0  0  0  0
 17 18  1  0  0  0  0
 17 40  1  0  0  0  0
 18 19  2  0  0  0  0
 18 41  1  0  0  0  0
 19 42  1  0  0  0  0
M  CHG  1  19   1
M  END
> <s_m_source_file>
AV-unprocessed.smi

> <i_m_source_file_index>
3263

> <i_lp_mmshare_version>
43012

> <i_f3d_flags>
0

> <s_epik_input>
W0NIMl0xW0NIMl1bQ0BASF0oW0NIMl0yKVtDQEBIXShbQ0gyXVtDQEhdMTIpW0NIMl1DKD1PKVtOSF1bQ0gyXVtDSDJdYzNbY0hdW2NIXVtjSF1bY0hdbjM=

> <s_epik_cmdline>
J2VwaWtfcHl0aG9uJywgJy1waCcsICc3LjAnLCAnLXRuJywgJzgnLCAnLW1hJywgJzIwMCcsICctbWV0YWxfYmluZGluZycsICctaW1hZScsICc8aW5maWxlLm1hZT4nLCAnLW9tYWUnLCAnPG91dGZpbGUubWFlPic=

> <r_epik_Ionization_Penalty>
1.83579

> <r_epik_Ionization_Penalty_Charging>
1.83579

> <r_epik_Ionization_Penalty_Neutral>
2.47288e-08

> <r_epik_State_Penalty>
1.95213

> <r_epik_Charging_Adjusted_Penalty>
3.78793

> <i_epik_Tot_Q>
1

> <i_epik_Tot_abs_Q>
1

> <r_epik_Metal_State_Penalty>
1.97847

> <b_epik_Metal_Only>
0

> <s_lp_Force_Field>
OPLS_2005

> <r_lp_Energy>
51.925

> <b_lp_Chiralities_Consistent>
1

> <s_lp_Variant>
AV-unprocessed.smi:3263-5

> <Gold.Version>
5.8.1

> <Gold.Id.Protein>
6NUR|6NUR_protein|mol2

> <Gold.PLP.Fitness>
41.0000

> <Gold.PLP.PLP>
-33.2714

> <Gold.PLP.part.hbond>
-2.0000

> <Gold.PLP.part.metal>
0.0000

> <Gold.PLP.part.buried>
-3.6430

> <Gold.PLP.part.nonpolar>
-27.1813

> <Gold.PLP.part.repulsive>
0.0319

> <Gold.PLP.ligand.clash>
0.0000

> <Gold.PLP.ligand.torsion>
0.6537

> <Gold.PLP.Chemscore.Hbond>
3.0000

> <Gold.PLP.Chemscore.CHOScore>
0.0000

> <Gold.PLP.Chemscore.Metal>
0.0000

> <Gold.Chemscore.Hbonds>
donor molecule, donor type, donor heavy atom, donor atom, acceptor molecule, acceptor atom, score
      L1  H    19    42       P1  7948  2.00
      P1  H  6896  6909       L1     1  1.00

> <Gold.PLP.Chemscore.Internal.Correction>
0.0359

> <Gold.Rescore>
     Score         DG    S(hbond)    S(metal)    S(lipo)     H(rot)  DE(clash)    DE(int)     intcor
     18.01     -18.63       1.90        0.00      92.38       1.56       0.00       0.61       ----

> <Gold.Chemscore.Fitness>
18.0082

> <Gold.Chemscore.DG>
-18.6250

> <Gold.Chemscore.ZeroCoef>
-5.4800

> <Gold.Chemscore.Hbond>
1.8984

> <Gold.Chemscore.Metal>
0.0000

> <Gold.Chemscore.Lipo>
92.3759

> <Gold.Chemscore.Internal_Hbond>
0.0000

> <Gold.Chemscore.DEClash>
0.0029

> <Gold.Chemscore.DEInternal>
0.6139

> <Gold.Chemscore.Rot>
1.5640

> <Gold.Chemscore.Internal.Correction>
   9.000000E+99

> <Gold.Chemscore.Hbonds>
donor molecule, donor type, donor heavy atom, donor atom, acceptor molecule, acceptor atom, score
      L1  H    19    42       P1  7948  0.40
      P1  H  6896  6909       L1     1  1.00

> <Gold.Chemscore.Hbond.Weighted>
-6.3408

> <Gold.Chemscore.Metal.Weighted>
-0.0000

> <Gold.Chemscore.Lipo.Weighted>
-10.8080

> <Gold.Chemscore.Internal_Hbond.Weighted>
0.0000

> <Gold.Chemscore.DEClash.Weighted>
0.0029

> <Gold.Chemscore.DEInternal.Weighted>
0.6139

> <Gold.Chemscore.Rot.Weighted>
4.0038

> <Gold.Chemscore.Internal.Correction.Weighted>
   9.000000E+99

> <Gold.Protein.RotatedTorsions>
[ 6907 6896 6895 6894 ] final    3.91 input  -60.11 | X-H torsion
[ 7974 7965 7964 7962 ] final   36.91 input  175.53 | X-H torsion
[ 8008 7997 7996 7995 ] final   26.38 input   59.86 | X-H torsion
[ 10167 10162 10161 10158 ] final  122.41 input  -65.29 | X-H torsion
[ 10718 10713 10712 10709 ] final -174.96 input   66.30 | X-H torsion
[ 10763 10752 10751 10750 ] final -164.97 input  -60.55 | X-H torsion
[ 11005 11000 10999 10996 ] final  145.22 input  -57.11 | X-H torsion

> <Gold.Protein.ActiveResidues>
 VAL166  LYS551  ARG553  GLY616  TRP617  ASP618  TYR619  PRO620  LYS621  CYS622 
 ASP623  PHE694  ASN695  SER759  ASP760  ASP761  ALA762  ILE779  LEU786  VAL792 
 PHE793  MET794  SER795  GLU796  ALA797  LYS798  CYS799  TRP800  GLU811  SER814 

> <Gold.Protein.RotatedAtoms>
  151.6328  135.1021  160.0124 H   0  0  0  0  0  0  0  0  0  0  0  0  # atno 6907 bound_to 6896
  152.4097  133.6940  159.6395 H   0  0  0  0  0  0  0  0  0  0  0  0  # atno 6908 bound_to 6896
  150.7988  133.8563  159.3260 H   0  0  0  0  0  0  0  0  0  0  0  0  # atno 6909 bound_to 6896
  146.1177  139.5960  142.9310 H   0  0  0  0  0  0  0  0  0  0  0  0  # atno 7974 bound_to 7965
  155.0263  140.3153  155.4774 H   0  0  0  0  0  0  0  0  0  0  0  0  # atno 8008 bound_to 7997
  156.2882  140.2188  156.5325 H   0  0  0  0  0  0  0  0  0  0  0  0  # atno 8009 bound_to 7997
  154.7408  140.0474  157.0797 H   0  0  0  0  0  0  0  0  0  0  0  0  # atno 8010 bound_to 7997
  139.5860  144.7006  151.3408 H   0  0  0  0  0  0  0  0  0  0  0  0  # atno 10167 bound_to 10162
  156.7928  130.9524  151.3120 H   0  0  0  0  0  0  0  0  0  0  0  0  # atno 10718 bound_to 10713
  154.6977  135.2982  154.9387 H   0  0  0  0  0  0  0  0  0  0  0  0  # atno 10763 bound_to 10752
  154.0329  135.6667  153.4786 H   0  0  0  0  0  0  0  0  0  0  0  0  # atno 10764 bound_to 10752
  153.0658  135.5089  154.8104 H   0  0  0  0  0  0  0  0  0  0  0  0  # atno 10765 bound_to 10752
  140.0695  134.9160  157.1321 H   0  0  0  0  0  0  0  0  0  0  0  0  # atno 11005 bound_to 11000
  145.5532  141.0411  143.2267 LP  0  0  0  0  0  0  0  0  0  0  0  0  # atno 17320 bound_to 7965
  144.7568  139.7055  143.7251 LP  0  0  0  0  0  0  0  0  0  0  0  0  # atno 17321 bound_to 7965
  140.7132  143.7337  150.7605 LP  0  0  0  0  0  0  0  0  0  0  0  0  # atno 17342 bound_to 10162
  140.0881  143.4904  152.2494 LP  0  0  0  0  0  0  0  0  0  0  0  0  # atno 17343 bound_to 10162
  157.6592  130.8951  149.9794 LP  0  0  0  0  0  0  0  0  0  0  0  0  # atno 17370 bound_to 10713
  156.1149  130.3648  149.9986 LP  0  0  0  0  0  0  0  0  0  0  0  0  # atno 17371 bound_to 10713
  140.3649  134.2454  155.7183 LP  0  0  0  0  0  0  0  0  0  0  0  0  # atno 17394 bound_to 11000
  141.2006  133.7983  157.0481 LP  0  0  0  0  0  0  0  0  0  0  0  0  # atno 17395 bound_to 11000

$$$$
