AV-unprocessed.smi:2287|AV-procd|sdf|9205|dock9
  -GOLD-   2272012423D 1   1.00000     0.00000
 Structure written by MMmdl.
 38 39  0  0  0  0  0  0  0  0  2 V2000
  146.6291  133.1910  151.2278 C   0  0  0  0  0  0  0  0  0  0  0  0
  147.2351  133.7592  152.4540 N   0  3  0  0  0  0  0  0  0  0  0  0
  146.2046  134.3040  153.3655 C   0  0  0  0  0  0  0  0  0  0  0  0
  148.1530  132.8205  153.1476 C   0  0  0  0  0  0  0  0  0  0  0  0
  148.8250  133.4527  154.3774 C   0  0  0  0  0  0  0  0  0  0  0  0
  149.1106  134.8613  154.1376 N   0  0  0  0  0  0  0  0  0  0  0  0
  149.5722  135.7062  155.0692 C   0  0  0  0  0  0  0  0  0  0  0  0
  149.7847  135.3743  156.2347 O   0  0  0  0  0  0  0  0  0  0  0  0
  149.7492  136.9391  154.5645 N   0  0  0  0  0  0  0  0  0  0  0  0
  150.2882  138.0891  155.2024 C   0  0  0  0  0  0  0  0  0  0  0  0
  150.5563  139.3282  154.5687 C   0  0  0  0  0  0  0  0  0  0  0  0
  151.0442  140.3849  155.2539 N   0  0  0  0  0  0  0  0  0  0  0  0
  151.2720  140.2101  156.5584 C   0  0  0  0  0  0  0  0  0  0  0  0
  151.7633  141.4018  157.3206 C   0  0  0  0  0  0  0  0  0  0  0  0
  150.9766  141.9526  158.4923 C   0  0  0  0  0  0  0  0  0  0  0  0
  151.0583  142.7386  157.2133 C   0  0  0  0  0  0  0  0  0  0  0  0
  151.0429  139.0990  157.2637 N   0  0  0  0  0  0  0  0  0  0  0  0
  150.5537  138.0378  156.5871 C   0  0  0  0  0  0  0  0  0  0  0  0
  146.0281  132.3107  151.4598 H   0  0  0  0  0  0  0  0  0  0  0  0
  147.3882  132.9057  150.5004 H   0  0  0  0  0  0  0  0  0  0  0  0
  145.9821  133.9248  150.7458 H   0  0  0  0  0  0  0  0  0  0  0  0
  145.5647  133.5092  153.7510 H   0  0  0  0  0  0  0  0  0  0  0  0
  145.5753  135.0293  152.8486 H   0  0  0  0  0  0  0  0  0  0  0  0
  146.6659  134.8140  154.2119 H   0  0  0  0  0  0  0  0  0  0  0  0
  147.5830  131.9522  153.4827 H   0  0  0  0  0  0  0  0  0  0  0  0
  148.9007  132.4477  152.4455 H   0  0  0  0  0  0  0  0  0  0  0  0
  148.1852  133.3801  155.2572 H   0  0  0  0  0  0  0  0  0  0  0  0
  149.7515  132.9226  154.6056 H   0  0  0  0  0  0  0  0  0  0  0  0
  148.9545  135.2140  153.2046 H   0  0  0  0  0  0  0  0  0  0  0  0
  149.4540  137.0758  153.6089 H   0  0  0  0  0  0  0  0  0  0  0  0
  150.3666  139.5052  153.5220 H   0  0  0  0  0  0  0  0  0  0  0  0
  152.8492  141.4043  157.3919 H   0  0  0  0  0  0  0  0  0  0  0  0
  150.0241  141.4835  158.7313 H   0  0  0  0  0  0  0  0  0  0  0  0
  151.5424  142.3197  159.3461 H   0  0  0  0  0  0  0  0  0  0  0  0
  151.6786  143.6325  157.2106 H   0  0  0  0  0  0  0  0  0  0  0  0
  150.1599  142.7926  156.6014 H   0  0  0  0  0  0  0  0  0  0  0  0
  150.3692  137.1404  157.1595 H   0  0  0  0  0  0  0  0  0  0  0  0
  147.7956  134.5485  152.1650 H   0  0  0  0  0  0  0  0  0  0  0  0
  1  2  1  0  0  0  0
  1 19  1  0  0  0  0
  1 20  1  0  0  0  0
  1 21  1  0  0  0  0
  2  3  1  0  0  0  0
  2  4  1  0  0  0  0
  2 38  1  0  0  0  0
  3 22  1  0  0  0  0
  3 23  1  0  0  0  0
  3 24  1  0  0  0  0
  4  5  1  0  0  0  0
  4 25  1  0  0  0  0
  4 26  1  0  0  0  0
  5  6  1  0  0  0  0
  5 27  1  0  0  0  0
  5 28  1  0  0  0  0
  6  7  1  0  0  0  0
  6 29  1  0  0  0  0
  7  8  2  0  0  0  0
  7  9  1  0  0  0  0
  9 10  1  0  0  0  0
  9 30  1  0  0  0  0
 10 18  1  0  0  0  0
 10 11  2  0  0  0  0
 11 12  1  0  0  0  0
 11 31  1  0  0  0  0
 12 13  2  0  0  0  0
 13 14  1  0  0  0  0
 13 17  1  0  0  0  0
 14 16  1  0  0  0  0
 14 15  1  0  0  0  0
 14 32  1  0  0  0  0
 15 16  1  0  0  0  0
 15 33  1  0  0  0  0
 15 34  1  0  0  0  0
 16 35  1  0  0  0  0
 16 36  1  0  0  0  0
 17 18  2  0  0  0  0
 18 37  1  0  0  0  0
M  CHG  1   2   1
M  END
> <s_m_source_file>
AV-unprocessed.smi

> <i_m_source_file_index>
2287

> <i_lp_mmshare_version>
43012

> <i_f3d_flags>
0

> <s_epik_input>
W0NIM11OKFtDSDNdKVtDSDJdW0NIMl1bTkhdQyg9TylbTkhdYzFbY0hdbmMobltjSF0xKVtDSF0yW0NIMl1bQ0gyXTI=

> <s_epik_cmdline>
J2VwaWtfcHl0aG9uJywgJy1waCcsICc3LjAnLCAnLXRuJywgJzgnLCAnLW1hJywgJzIwMCcsICctbWV0YWxfYmluZGluZycsICctaW1hZScsICc8aW5maWxlLm1hZT4nLCAnLW9tYWUnLCAnPG91dGZpbGUubWFlPic=

> <r_lp_tautomer_probability>
1

> <r_epik_Ionization_Penalty>
0.00435795

> <r_epik_Ionization_Penalty_Charging>
0.00433655

> <r_epik_Ionization_Penalty_Neutral>
2.14019e-05

> <r_epik_State_Penalty>
0.00312208

> <r_epik_Charging_Adjusted_Penalty>
0.00745864

> <i_epik_Tot_Q>
1

> <i_epik_Tot_abs_Q>
1

> <r_epik_Metal_State_Penalty>
-0

> <b_epik_Metal_Only>
0

> <s_lp_Force_Field>
OPLS_2005

> <r_lp_Energy>
7.96618

> <b_lp_Chiralities_Consistent>
1

> <s_lp_Variant>
AV-unprocessed.smi:2287-1

> <Gold.Version>
5.8.1

> <Gold.Id.Protein>
6NUR|6NUR_protein|mol2

> <Gold.PLP.Fitness>
42.0293

> <Gold.PLP.PLP>
-27.5607

> <Gold.PLP.part.hbond>
-4.0000

> <Gold.PLP.part.metal>
0.0000

> <Gold.PLP.part.buried>
-3.0899

> <Gold.PLP.part.nonpolar>
-20.5862

> <Gold.PLP.part.repulsive>
0.1367

> <Gold.PLP.ligand.clash>
0.0000

> <Gold.PLP.ligand.torsion>
0.2527

> <Gold.PLP.Chemscore.Hbond>
3.9440

> <Gold.PLP.Chemscore.CHOScore>
1.0000

> <Gold.PLP.Chemscore.Metal>
0.0000

> <Gold.Chemscore.Hbonds>
donor molecule, donor type, donor heavy atom, donor atom, acceptor molecule, acceptor atom, score
      L1  H     2    38       P1  7948  2.00
      L1  H     6    29       P1  7948  1.00
      L1  H     9    30       P1  7948  0.94
      P1  H  7989  7998       L1    12  0.10
      L1  C    11    31       P1  7957  1.00

> <Gold.PLP.Chemscore.Internal.Correction>
0.1422

> <Gold.Rescore>
     Score         DG    S(hbond)    S(metal)    S(lipo)     H(rot)  DE(clash)    DE(int)     intcor
     13.48     -15.10       2.19        0.00      57.54       1.73       0.00       1.61       ----

> <Gold.Chemscore.Fitness>
13.4812

> <Gold.Chemscore.DG>
-15.0980

> <Gold.Chemscore.ZeroCoef>
-5.4800

> <Gold.Chemscore.Hbond>
2.1869

> <Gold.Chemscore.Metal>
0.0000

> <Gold.Chemscore.Lipo>
57.5407

> <Gold.Chemscore.Internal_Hbond>
0.0000

> <Gold.Chemscore.DEClash>
0.0042

> <Gold.Chemscore.DEInternal>
1.6126

> <Gold.Chemscore.Rot>
1.7260

> <Gold.Chemscore.Internal.Correction>
   9.000000E+99

> <Gold.Chemscore.Hbonds>
donor molecule, donor type, donor heavy atom, donor atom, acceptor molecule, acceptor atom, score
      L1  H     2    38       P1  7948  0.42
      L1  H     6    29       P1  7948  0.39
      L1  H     9    30       P1  7948  0.82

> <Gold.Chemscore.Hbond.Weighted>
-7.3044

> <Gold.Chemscore.Metal.Weighted>
-0.0000

> <Gold.Chemscore.Lipo.Weighted>
-6.7323

> <Gold.Chemscore.Internal_Hbond.Weighted>
0.0000

> <Gold.Chemscore.DEClash.Weighted>
0.0042

> <Gold.Chemscore.DEInternal.Weighted>
1.6126

> <Gold.Chemscore.Rot.Weighted>
4.4186

> <Gold.Chemscore.Internal.Correction.Weighted>
   9.000000E+99

> <Gold.Protein.RotatedTorsions>
[ 6907 6896 6895 6894 ] final  140.97 input  -60.11 | X-H torsion
[ 7974 7965 7964 7962 ] final   -1.59 input  175.53 | X-H torsion
[ 8008 7997 7996 7995 ] final   17.14 input   59.86 | X-H torsion
[ 10167 10162 10161 10158 ] final   16.74 input  -65.29 | X-H torsion
[ 10718 10713 10712 10709 ] final  -25.74 input   66.30 | X-H torsion
[ 10763 10752 10751 10750 ] final   43.49 input  -60.55 | X-H torsion
[ 11005 11000 10999 10996 ] final   18.44 input  -57.11 | X-H torsion

> <Gold.Protein.ActiveResidues>
 VAL166  LYS551  ARG553  GLY616  TRP617  ASP618  TYR619  PRO620  LYS621  CYS622 
 ASP623  PHE694  ASN695  SER759  ASP760  ASP761  ALA762  ILE779  LEU786  VAL792 
 PHE793  MET794  SER795  GLU796  ALA797  LYS798  CYS799  TRP800  GLU811  SER814 

> <Gold.Protein.RotatedAtoms>
  152.2366  133.5101  159.5245 H   0  0  0  0  0  0  0  0  0  0  0  0  # atno 6907 bound_to 6896
  150.7052  134.1145  159.4021 H   0  0  0  0  0  0  0  0  0  0  0  0  # atno 6908 bound_to 6896
  151.9066  135.0356  160.0561 H   0  0  0  0  0  0  0  0  0  0  0  0  # atno 6909 bound_to 6896
  146.2415  140.1444  142.8335 H   0  0  0  0  0  0  0  0  0  0  0  0  # atno 7974 bound_to 7965
  154.8871  140.2981  155.5392 H   0  0  0  0  0  0  0  0  0  0  0  0  # atno 8008 bound_to 7997
  156.3021  140.2431  156.3816 H   0  0  0  0  0  0  0  0  0  0  0  0  # atno 8009 bound_to 7997
  154.8657  140.0403  157.1682 H   0  0  0  0  0  0  0  0  0  0  0  0  # atno 8010 bound_to 7997
  140.5775  143.9044  150.6762 H   0  0  0  0  0  0  0  0  0  0  0  0  # atno 10167 bound_to 10162
  156.4604  130.4502  149.6932 H   0  0  0  0  0  0  0  0  0  0  0  0  # atno 10718 bound_to 10713
  152.9860  135.6100  154.3119 H   0  0  0  0  0  0  0  0  0  0  0  0  # atno 10763 bound_to 10752
  154.2834  135.2776  155.2689 H   0  0  0  0  0  0  0  0  0  0  0  0  # atno 10764 bound_to 10752
  154.5017  135.5865  153.6593 H   0  0  0  0  0  0  0  0  0  0  0  0  # atno 10765 bound_to 10752
  140.4248  134.1481  155.7675 H   0  0  0  0  0  0  0  0  0  0  0  0  # atno 11005 bound_to 11000
  145.0220  140.8801  143.5161 LP  0  0  0  0  0  0  0  0  0  0  0  0  # atno 17320 bound_to 7965
  145.1494  139.2524  143.5449 LP  0  0  0  0  0  0  0  0  0  0  0  0  # atno 17321 bound_to 7965
  140.2535  143.3576  152.1385 LP  0  0  0  0  0  0  0  0  0  0  0  0  # atno 17342 bound_to 10162
  139.5151  144.6958  151.5634 LP  0  0  0  0  0  0  0  0  0  0  0  0  # atno 17343 bound_to 10162
  156.3723  130.7536  151.2521 LP  0  0  0  0  0  0  0  0  0  0  0  0  # atno 17370 bound_to 10713
  157.7498  131.0319  150.4205 LP  0  0  0  0  0  0  0  0  0  0  0  0  # atno 17371 bound_to 10713
  141.1770  133.8494  157.1389 LP  0  0  0  0  0  0  0  0  0  0  0  0  # atno 17394 bound_to 11000
  140.0175  134.9961  157.0524 LP  0  0  0  0  0  0  0  0  0  0  0  0  # atno 17395 bound_to 11000

$$$$
