#       Name:                AV-unprocessed.smi:247
#       Creating user name   scv26
#       Creation time:       Thu Mar 26 20:55:08 2020


#       File generated by GOLD software.
#

@<TRIPOS>MOLECULE
AV-unprocessed.smi:247
    73    77     1
SMALL
NO_CHARGES


@<TRIPOS>ATOM
      1 ****        -4.1903   3.7793  -0.1034 O.3            1 S1                 0.0000
      2 ****        -3.6037   2.4929  -0.0652 C.3            1 S1                 0.0000
      3 ****        -4.0516   1.6441   1.1573 C.3            1 S1                 0.0000
      4 ****        -3.4255   0.2196   1.0272 C.3            1 S1                 0.0000
      5 ****        -1.9697   0.1816   1.0183 N.pl3          1 S1                 0.0000
      6 ****        -1.1412   0.0814   2.1144 C.2            1 S1                 0.0000
      7 ****         0.1362   0.0524   1.8492 N.2            1 S1                 0.0000
      8 ****         0.1918   0.1198   0.4635 C.ar           1 S1                 0.0000
      9 ****         1.2531   0.1160  -0.4796 C.ar           1 S1                 0.0000
     10 ****         2.5477   0.0525  -0.0849 N.3            1 S1                 0.0000
     11 ****         3.0497   1.3899   0.1805 C.3            1 S1                 0.0000
     12 ****         4.5532   1.2307   0.3383 C.3            1 S1                 0.0000
     13 ****         4.8885  -0.0030  -0.5001 C.3            1 S1                 0.0000
     14 ****         3.5405  -0.6295  -0.9261 C.3            1 S1                 0.0000
     15 ****         3.5330  -2.1962  -0.8134 C.3            1 S1                 0.0000
     16 ****         2.1418  -2.8547  -0.9864 C.3            1 S1                 0.0000
     17 ****         1.6628  -2.6739  -2.3162 O.3            1 S1                 0.0000
     18 ****         2.4591  -3.3344  -3.2941 C.3            1 S1                 0.0000
     19 ****         3.9056  -2.8157  -3.2516 C.3            1 S1                 0.0000
     20 ****         4.4613  -2.9243  -1.8242 C.3            1 S1                 0.0000
     21 ****         5.8071  -2.4973  -1.7883 O.3            1 S1                 0.0000
     22 ****         0.9284   0.2064  -1.7965 N.ar           1 S1                 0.0000
     23 ****        -0.3541   0.2654  -2.1675 C.ar           1 S1                 0.0000
     24 ****        -1.4464   0.2625  -1.4000 N.ar           1 S1                 0.0000
     25 ****        -1.1219   0.1938  -0.0768 C.ar           1 S1                 0.0000
     26 ****        -3.6250   2.3494   2.4708 C.3            1 S1                 0.0000
     27 ****        -4.2363   1.6850   3.7173 C.3            1 S1                 0.0000
     28 ****        -5.6545   1.6684   3.6095 O.3            1 S1                 0.0000
     29 ****        -6.1218   0.9103   2.5000 C.3            1 S1                 0.0000
     30 ****        -5.5968   1.5145   1.1832 C.3            1 S1                 0.0000
     31 ****        -3.8744   4.2301  -0.8716 H              1 S1                 0.0000
     32 ****        -3.8550   1.9811  -0.9948 H              1 S1                 0.0000
     33 ****        -2.5228   2.6334  -0.0641 H              1 S1                 0.0000
     34 ****        -3.7560  -0.4351   1.8319 H              1 S1                 0.0000
     35 ****        -3.7770  -0.2549   0.1099 H              1 S1                 0.0000
     36 ****        -1.5161   0.0340   3.1265 H              1 S1                 0.0000
     37 ****         2.8285   2.0493  -0.6609 H              1 S1                 0.0000
     38 ****         2.5972   1.8183   1.0757 H              1 S1                 0.0000
     39 ****         5.0996   2.1201   0.0230 H              1 S1                 0.0000
     40 ****         4.7965   1.0415   1.3846 H              1 S1                 0.0000
     41 ****         5.4817   0.2636  -1.3755 H              1 S1                 0.0000
     42 ****         5.4855  -0.6862   0.1048 H              1 S1                 0.0000
     43 ****         3.3621  -0.3435  -1.9623 H              1 S1                 0.0000
     44 ****         3.8715  -2.4445   0.1935 H              1 S1                 0.0000
     45 ****         2.1983  -3.9227  -0.7697 H              1 S1                 0.0000
     46 ****         1.4169  -2.4640  -0.2755 H              1 S1                 0.0000
     47 ****         2.4314  -4.4116  -3.1225 H              1 S1                 0.0000
     48 ****         2.0261  -3.1600  -4.2791 H              1 S1                 0.0000
     49 ****         4.5222  -3.3897  -3.9442 H              1 S1                 0.0000
     50 ****         3.9378  -1.7818  -3.5955 H              1 S1                 0.0000
     51 ****         4.4868  -3.9818  -1.5567 H              1 S1                 0.0000
     52 ****         6.1399  -2.6266  -0.9133 H              1 S1                 0.0000
     53 ****        -0.5300   0.3216  -3.2316 H              1 S1                 0.0000
     54 ****        -2.5402   2.3973   2.5593 H              1 S1                 0.0000
     55 ****        -3.9600   3.3870   2.4582 H              1 S1                 0.0000
     56 ****        -3.8568   0.6735   3.8628 H              1 S1                 0.0000
     57 ****        -3.9634   2.2507   4.6082 H              1 S1                 0.0000
     58 ****        -5.8336  -0.1351   2.6104 H              1 S1                 0.0000
     59 ****        -7.2117   0.9293   2.5044 H              1 S1                 0.0000
     60 ****        -6.0593   2.4956   1.0721 H              1 S1                 0.0000
     61 ****        -5.9445   0.9226   0.3359 H              1 S1                 0.0000
     62 ****        -3.9350   4.2910   0.7169 LP             1 S1                 0.0000
     63 ****        -5.1858   3.6950  -0.1472 LP             1 S1                 0.0000
     64 ****         0.8981  -0.0050   2.4943 LP             1 S1                 0.0000
     65 ****         2.4702  -0.5398   0.7171 LP             1 S1                 0.0000
     66 ****         1.6552  -1.6951  -2.5209 LP             1 S1                 0.0000
     67 ****         0.7310  -3.0329  -2.3699 LP             1 S1                 0.0000
     68 ****         5.8599  -1.5282  -2.0294 LP             1 S1                 0.0000
     69 ****         6.3480  -3.0322  -2.4373 LP             1 S1                 0.0000
     70 ****         1.6500   0.2288  -2.4884 LP             1 S1                 0.0000
     71 ****        -2.3822   0.3052  -1.7500 LP             1 S1                 0.0000
     72 ****        -5.9771   2.6098   3.5101 LP             1 S1                 0.0000
     73 ****        -6.0326   1.2732   4.4467 LP             1 S1                 0.0000
@<TRIPOS>BOND
    1    1    2 1     
    2    1   31 1     
    3    2    3 1     
    4    2   32 1     
    5    2   33 1     
    6    3   30 1     
    7    3    4 1     
    8    3   26 1     
    9    4    5 1     
   10    4   34 1     
   11    4   35 1     
   12    5   25 1     
   13    5    6 1     
   14    6    7 2     
   15    6   36 1     
   16    7    8 1     
   17    8   25 ar    
   18    8    9 ar    
   19    9   10 1     
   20    9   22 ar    
   21   10   14 1     
   22   10   11 1     
   23   11   12 1     
   24   11   37 1     
   25   11   38 1     
   26   12   13 1     
   27   12   39 1     
   28   12   40 1     
   29   13   14 1     
   30   13   41 1     
   31   13   42 1     
   32   14   15 1     
   33   14   43 1     
   34   15   20 1     
   35   15   16 1     
   36   15   44 1     
   37   16   17 1     
   38   16   45 1     
   39   16   46 1     
   40   17   18 1     
   41   18   19 1     
   42   18   47 1     
   43   18   48 1     
   44   19   20 1     
   45   19   49 1     
   46   19   50 1     
   47   20   21 1     
   48   20   51 1     
   49   21   52 1     
   50   22   23 ar    
   51   23   24 ar    
   52   23   53 1     
   53   24   25 ar    
   54   26   27 1     
   55   26   54 1     
   56   26   55 1     
   57   27   28 1     
   58   27   56 1     
   59   27   57 1     
   60   28   29 1     
   61   29   30 1     
   62   29   58 1     
   63   29   59 1     
   64   30   60 1     
   65   30   61 1     
   66    1   62 1     
   67    1   63 1     
   68    7   64 1     
   69   10   65 1     
   70   17   66 1     
   71   17   67 1     
   72   21   68 1     
   73   21   69 1     
   74   22   70 1     
   75   24   71 1     
   76   28   72 1     
   77   28   73 1     
@<TRIPOS>SUBSTRUCTURE
      1 S1             1
@<TRIPOS>SET
LONE_PAIRS      STATIC     ATOMS    <user>   **** ""
12 62 63 64 65 66 67 68 69 70 71 72 73
DONOR_HYDROGENS      STATIC     ATOMS    <user>   **** ""
2 31 52
ATOM$BLUE        STATIC     ATOMS    COLORGROUP SYSTEM
12 62 63 64 65 66 67 68 69 70 71 72 73
ATOM$RED        STATIC     ATOMS    COLORGROUP SYSTEM
2 31 52
