AV-unprocessed.smi:61|AV-procd|sdf|597|dock1
  -GOLD-   2262016493D 1   1.00000     0.00000
 Structure written by MMmdl.
 28 29  0  0  0  0  0  0  0  0  1 V2000
  152.4106  138.4223  155.2963 N   0  0  0  0  0  0  0  0  0  0  0  0
  151.8007  139.5535  155.7800 C   0  0  0  0  0  0  0  0  0  0  0  0
  150.6710  139.9263  155.1780 N   0  0  0  0  0  0  0  0  0  0  0  0
  150.0724  141.0378  155.6559 C   0  0  0  0  0  0  0  0  0  0  0  0
  150.6115  141.7679  156.7344 C   0  0  0  0  0  0  0  0  0  0  0  0
  151.8157  141.2828  157.2980 C   0  0  0  0  0  0  0  0  0  0  0  0
  152.4268  141.9559  158.3772 N   0  0  0  0  0  0  0  0  0  0  0  0
  153.0785  141.1288  159.3878 C   0  0  0  0  0  0  0  0  0  0  0  0
  152.8273  141.8163  160.7325 C   0  0  0  0  0  0  0  0  0  0  0  0
  152.5267  143.2606  160.3478 C   0  0  0  0  0  0  0  0  0  0  0  0
  151.7945  143.1130  159.0095 C   0  0  1  0  0  0  0  0  0  0  0  0
  151.8581  144.3865  158.1418 C   0  0  0  0  0  0  0  0  0  0  0  0
  150.5714  144.9543  158.0202 O   0  0  0  0  0  0  0  0  0  0  0  0
  152.4005  140.1640  156.8034 N   0  0  0  0  0  0  0  0  0  0  0  0
  153.2690  138.0885  155.7101 H   0  0  0  0  0  0  0  0  0  0  0  0
  152.0248  137.9343  154.5014 H   0  0  0  0  0  0  0  0  0  0  0  0
  149.1559  141.3468  155.1759 H   0  0  0  0  0  0  0  0  0  0  0  0
  150.1158  142.6516  157.1078 H   0  0  0  0  0  0  0  0  0  0  0  0
  152.7014  140.1051  159.3998 H   0  0  0  0  0  0  0  0  0  0  0  0
  154.1464  141.0932  159.1702 H   0  0  0  0  0  0  0  0  0  0  0  0
  151.9514  141.3766  161.2115 H   0  0  0  0  0  0  0  0  0  0  0  0
  153.6685  141.7238  161.4197 H   0  0  0  0  0  0  0  0  0  0  0  0
  151.9353  143.7853  161.0987 H   0  0  0  0  0  0  0  0  0  0  0  0
  153.4625  143.8055  160.2140 H   0  0  0  0  0  0  0  0  0  0  0  0
  150.7522  142.8598  159.2105 H   0  0  0  0  0  0  0  0  0  0  0  0
  152.5370  145.1208  158.5770 H   0  0  0  0  0  0  0  0  0  0  0  0
  152.2248  144.1704  157.1389 H   0  0  0  0  0  0  0  0  0  0  0  0
  150.1418  144.5658  157.2735 H   0  0  0  0  0  0  0  0  0  0  0  0
  1  2  1  0  0  0  0
  1 15  1  0  0  0  0
  1 16  1  0  0  0  0
  2 14  1  0  0  0  0
  2  3  2  0  0  0  0
  3  4  1  0  0  0  0
  4  5  2  0  0  0  0
  4 17  1  0  0  0  0
  5  6  1  0  0  0  0
  5 18  1  0  0  0  0
  6  7  1  0  0  0  0
  6 14  2  0  0  0  0
  7 11  1  0  0  0  0
  7  8  1  0  0  0  0
  8  9  1  0  0  0  0
  8 19  1  0  0  0  0
  8 20  1  0  0  0  0
  9 10  1  0  0  0  0
  9 21  1  0  0  0  0
  9 22  1  0  0  0  0
 10 11  1  0  0  0  0
 10 23  1  0  0  0  0
 10 24  1  0  0  0  0
 11 12  1  0  0  0  0
 11 25  1  0  0  0  0
 12 13  1  0  0  0  0
 12 26  1  0  0  0  0
 12 27  1  0  0  0  0
 13 28  1  0  0  0  0
M  END
> <s_m_source_file>
AV-unprocessed.smi

> <i_m_source_file_index>
61

> <i_lp_mmshare_version>
43012

> <i_f3d_flags>
0

> <s_epik_input>
W05IMl1jMW5bY0hdW2NIXWMobjEpTjJbQ0gyXVtDSDJdW0NIMl1bQ0BIXTJbQ0gyXVtPSF0=

> <s_epik_cmdline>
J2VwaWtfcHl0aG9uJywgJy1waCcsICc3LjAnLCAnLXRuJywgJzgnLCAnLW1hJywgJzIwMCcsICctbWV0YWxfYmluZGluZycsICctaW1hZScsICc8aW5maWxlLm1hZT4nLCAnLW9tYWUnLCAnPG91dGZpbGUubWFlPic=

> <r_lp_tautomer_probability>
1

> <r_epik_Ionization_Penalty>
0.76024

> <r_epik_Ionization_Penalty_Charging>
0

> <r_epik_Ionization_Penalty_Neutral>
0.76024

> <r_epik_State_Penalty>
0.587668

> <r_epik_Charging_Adjusted_Penalty>
0.587668

> <i_epik_Tot_Q>
0

> <i_epik_Tot_abs_Q>
0

> <r_epik_Metal_State_Penalty>
0.307814

> <b_epik_Metal_Only>
0

> <s_lp_Force_Field>
OPLS_2005

> <r_lp_Energy>
20.8196

> <b_lp_Chiralities_Consistent>
1

> <s_lp_Variant>
AV-unprocessed.smi:61-3

> <Gold.Version>
5.8.1

> <Gold.Id.Protein>
6NUR|6NUR_protein|mol2

> <Gold.PLP.Fitness>
36.9206

> <Gold.PLP.PLP>
-30.4436

> <Gold.PLP.part.hbond>
-4.0000

> <Gold.PLP.part.metal>
0.0000

> <Gold.PLP.part.buried>
-0.4637

> <Gold.PLP.part.nonpolar>
-24.2047

> <Gold.PLP.part.repulsive>
0.2467

> <Gold.PLP.ligand.clash>
0.0000

> <Gold.PLP.ligand.torsion>
1.0735

> <Gold.PLP.Chemscore.Hbond>
2.7563

> <Gold.PLP.Chemscore.CHOScore>
0.0000

> <Gold.PLP.Chemscore.Metal>
0.0000

> <Gold.Chemscore.Hbonds>
donor molecule, donor type, donor heavy atom, donor atom, acceptor molecule, acceptor atom, score
      L1  H    13    28       P1  8028  0.98
      P1  H  7989  7998       L1     3  0.45
      P1  H  7997  8008       L1    14  1.00

> <Gold.PLP.Chemscore.Internal.Correction>
0.3552

> <Gold.Rescore>
     Score         DG    S(hbond)    S(metal)    S(lipo)     H(rot)  DE(clash)    DE(int)     intcor
     11.50     -12.95       1.35        0.00      68.11       1.96       0.52       0.93       ----

> <Gold.Chemscore.Fitness>
11.5002

> <Gold.Chemscore.DG>
-12.9477

> <Gold.Chemscore.ZeroCoef>
-5.4800

> <Gold.Chemscore.Hbond>
1.3493

> <Gold.Chemscore.Metal>
0.0000

> <Gold.Chemscore.Lipo>
68.1071

> <Gold.Chemscore.Internal_Hbond>
0.0000

> <Gold.Chemscore.DEClash>
0.5221

> <Gold.Chemscore.DEInternal>
0.9254

> <Gold.Chemscore.Rot>
1.9561

> <Gold.Chemscore.Internal.Correction>
   9.000000E+99

> <Gold.Chemscore.Hbonds>
donor molecule, donor type, donor heavy atom, donor atom, acceptor molecule, acceptor atom, score
      L1  H    13    28       P1  8028  0.35
      P1  H  7989  7998       L1     3  0.01
      P1  H  7997  8008       L1    14  0.51

> <Gold.Chemscore.Hbond.Weighted>
-4.5068

> <Gold.Chemscore.Metal.Weighted>
-0.0000

> <Gold.Chemscore.Lipo.Weighted>
-7.9685

> <Gold.Chemscore.Internal_Hbond.Weighted>
0.0000

> <Gold.Chemscore.DEClash.Weighted>
0.5221

> <Gold.Chemscore.DEInternal.Weighted>
0.9254

> <Gold.Chemscore.Rot.Weighted>
5.0077

> <Gold.Chemscore.Internal.Correction.Weighted>
   9.000000E+99

> <Gold.Protein.RotatedTorsions>
[ 6907 6896 6895 6894 ] final  118.31 input  -60.11 | X-H torsion
[ 7974 7965 7964 7962 ] final   66.71 input  175.53 | X-H torsion
[ 8008 7997 7996 7995 ] final  -45.01 input   59.86 | X-H torsion
[ 10167 10162 10161 10158 ] final -127.09 input  -65.29 | X-H torsion
[ 10718 10713 10712 10709 ] final -144.32 input   66.30 | X-H torsion
[ 10763 10752 10751 10750 ] final  -65.83 input  -60.55 | X-H torsion
[ 11005 11000 10999 10996 ] final -120.02 input  -57.11 | X-H torsion

> <Gold.Protein.ActiveResidues>
 VAL166  LYS551  ARG553  GLY616  TRP617  ASP618  TYR619  PRO620  LYS621  CYS622 
 ASP623  PHE694  ASN695  SER759  ASP760  ASP761  ALA762  ILE779  LEU786  VAL792 
 PHE793  MET794  SER795  GLU796  ALA797  LYS798  CYS799  TRP800  GLU811  SER814 

> <Gold.Protein.RotatedAtoms>
  152.4552  133.7709  159.6797 H   0  0  0  0  0  0  0  0  0  0  0  0  # atno 6907 bound_to 6896
  150.8476  133.7827  159.3043 H   0  0  0  0  0  0  0  0  0  0  0  0  # atno 6908 bound_to 6896
  151.5432  135.1071  159.9983 H   0  0  0  0  0  0  0  0  0  0  0  0  # atno 6909 bound_to 6896
  145.8234  139.3097  143.1030 H   0  0  0  0  0  0  0  0  0  0  0  0  # atno 7974 bound_to 7965
  154.3999  140.1407  156.3777 H   0  0  0  0  0  0  0  0  0  0  0  0  # atno 8008 bound_to 7997
  155.8033  140.3475  155.5394 H   0  0  0  0  0  0  0  0  0  0  0  0  # atno 8009 bound_to 7997
  155.8461  140.0934  157.1694 H   0  0  0  0  0  0  0  0  0  0  0  0  # atno 8010 bound_to 7997
  139.9645  143.5913  152.2434 H   0  0  0  0  0  0  0  0  0  0  0  0  # atno 10167 bound_to 10162
  156.3686  130.7776  151.1954 H   0  0  0  0  0  0  0  0  0  0  0  0  # atno 10718 bound_to 10713
  154.3508  135.6137  153.5642 H   0  0  0  0  0  0  0  0  0  0  0  0  # atno 10763 bound_to 10752
  152.9798  135.5792  154.4745 H   0  0  0  0  0  0  0  0  0  0  0  0  # atno 10764 bound_to 10752
  154.4466  135.2851  155.1788 H   0  0  0  0  0  0  0  0  0  0  0  0  # atno 10765 bound_to 10752
  141.0173  134.0176  157.3331 H   0  0  0  0  0  0  0  0  0  0  0  0  # atno 11005 bound_to 11000
  145.9650  140.8805  143.0191 LP  0  0  0  0  0  0  0  0  0  0  0  0  # atno 17320 bound_to 7965
  144.6746  140.1866  143.7400 LP  0  0  0  0  0  0  0  0  0  0  0  0  # atno 17321 bound_to 7965
  139.6528  144.7661  151.2114 LP  0  0  0  0  0  0  0  0  0  0  0  0  # atno 17342 bound_to 10162
  140.7542  143.6133  150.8584 LP  0  0  0  0  0  0  0  0  0  0  0  0  # atno 17343 bound_to 10162
  157.7481  131.0379  150.4477 LP  0  0  0  0  0  0  0  0  0  0  0  0  # atno 17370 bound_to 10713
  156.4700  130.4050  149.6524 LP  0  0  0  0  0  0  0  0  0  0  0  0  # atno 17371 bound_to 10713
  139.9125  135.0192  156.7749 LP  0  0  0  0  0  0  0  0  0  0  0  0  # atno 17394 bound_to 11000
  140.6632  133.9626  155.7816 LP  0  0  0  0  0  0  0  0  0  0  0  0  # atno 17395 bound_to 11000

$$$$
