AV-unprocessed.smi:2820|AV-procd|sdf|10855|dock4
  -GOLD-   2272015303D 1   1.00000     0.00000
 Structure written by MMmdl.
 30 31  0  0  0  0  0  0  0  0  2 V2000
  150.6202  138.1356  154.0713 C   0  0  0  0  0  0  0  0  0  0  0  0
  150.2331  139.5327  153.9646 N   0  0  0  0  0  0  0  0  0  0  0  0
  150.4682  140.4239  155.0202 C   0  0  0  0  0  0  0  0  0  0  0  0
  151.3786  140.0556  156.0345 C   0  0  0  0  0  0  0  0  0  0  0  0
  151.6286  140.9381  157.1054 C   0  0  0  0  0  0  0  0  0  0  0  0
  150.9609  142.1835  157.1467 C   0  0  0  0  0  0  0  0  0  0  0  0
  151.1418  143.1246  158.1686 N   0  0  0  0  0  0  0  0  0  0  0  0
  151.9759  144.2508  157.7684 C   0  0  0  0  0  0  0  0  0  0  0  0
  152.2149  145.1820  158.9695 C   0  0  0  0  0  0  0  0  0  0  0  0
  150.9621  145.5965  159.5064 O   0  0  0  0  0  0  0  0  0  0  0  0
  150.1860  144.4943  159.9671 C   0  0  0  0  0  0  0  0  0  0  0  0
  149.8933  143.5460  158.7916 C   0  0  0  0  0  0  0  0  0  0  0  0
  150.0968  142.5004  156.1580 N   0  3  0  0  0  0  0  0  0  0  0  0
  149.8301  141.6835  155.1157 C   0  0  0  0  0  0  0  0  0  0  0  0
  150.3553  137.6064  153.1559 H   0  0  0  0  0  0  0  0  0  0  0  0
  150.1062  137.6525  154.9028 H   0  0  0  0  0  0  0  0  0  0  0  0
  151.6966  138.0408  154.2181 H   0  0  0  0  0  0  0  0  0  0  0  0
  149.7888  139.8533  153.1159 H   0  0  0  0  0  0  0  0  0  0  0  0
  151.8846  139.1017  155.9956 H   0  0  0  0  0  0  0  0  0  0  0  0
  152.3243  140.6570  157.8826 H   0  0  0  0  0  0  0  0  0  0  0  0
  152.9289  143.8868  157.3821 H   0  0  0  0  0  0  0  0  0  0  0  0
  151.4900  144.8040  156.9635 H   0  0  0  0  0  0  0  0  0  0  0  0
  152.8052  144.6820  159.7391 H   0  0  0  0  0  0  0  0  0  0  0  0
  152.7773  146.0622  158.6579 H   0  0  0  0  0  0  0  0  0  0  0  0
  150.7140  143.9727  160.7671 H   0  0  0  0  0  0  0  0  0  0  0  0
  149.2539  144.8680  160.3911 H   0  0  0  0  0  0  0  0  0  0  0  0
  149.2644  144.0517  158.0578 H   0  0  0  0  0  0  0  0  0  0  0  0
  149.3425  142.6728  159.1439 H   0  0  0  0  0  0  0  0  0  0  0  0
  149.1180  142.0688  154.4008 H   0  0  0  0  0  0  0  0  0  0  0  0
  149.6213  143.4022  156.1999 H   0  0  0  0  0  0  0  0  0  0  0  0
  1  2  1  0  0  0  0
  1 15  1  0  0  0  0
  1 16  1  0  0  0  0
  1 17  1  0  0  0  0
  2  3  1  0  0  0  0
  2 18  1  0  0  0  0
  3 14  1  0  0  0  0
  3  4  2  0  0  0  0
  4  5  1  0  0  0  0
  4 19  1  0  0  0  0
  5  6  2  0  0  0  0
  5 20  1  0  0  0  0
  6  7  1  0  0  0  0
  6 13  1  0  0  0  0
  7 12  1  0  0  0  0
  7  8  1  0  0  0  0
  8  9  1  0  0  0  0
  8 21  1  0  0  0  0
  8 22  1  0  0  0  0
  9 10  1  0  0  0  0
  9 23  1  0  0  0  0
  9 24  1  0  0  0  0
 10 11  1  0  0  0  0
 11 12  1  0  0  0  0
 11 25  1  0  0  0  0
 11 26  1  0  0  0  0
 12 27  1  0  0  0  0
 12 28  1  0  0  0  0
 13 14  2  0  0  0  0
 13 30  1  0  0  0  0
 14 29  1  0  0  0  0
M  CHG  1  13   1
M  END
> <s_m_source_file>
AV-unprocessed.smi

> <i_m_source_file_index>
2820

> <i_lp_mmshare_version>
43012

> <i_f3d_flags>
0

> <s_epik_input>
W0NIM11bTkhdYzFbY0hdW2NIXWMobltjSF0xKU4yW0NIMl1bQ0gyXU9bQ0gyXVtDSDJdMg==

> <s_epik_cmdline>
J2VwaWtfcHl0aG9uJywgJy1waCcsICc3LjAnLCAnLXRuJywgJzgnLCAnLW1hJywgJzIwMCcsICctbWV0YWxfYmluZGluZycsICctaW1hZScsICc8aW5maWxlLm1hZT4nLCAnLW9tYWUnLCAnPG91dGZpbGUubWFlPic=

> <r_lp_tautomer_probability>
0.999846

> <r_epik_Ionization_Penalty>
1.60145

> <r_epik_Ionization_Penalty_Charging>
1.60145

> <r_epik_Ionization_Penalty_Neutral>
8.44735e-08

> <r_epik_State_Penalty>
1.69965

> <r_epik_Charging_Adjusted_Penalty>
3.3011

> <i_epik_Tot_Q>
1

> <i_epik_Tot_abs_Q>
1

> <r_epik_Metal_State_Penalty>
5.75781

> <b_epik_Metal_Only>
0

> <s_lp_Force_Field>
OPLS_2005

> <r_lp_Energy>
26.3697

> <b_lp_Chiralities_Consistent>
1

> <s_lp_Variant>
AV-unprocessed.smi:2820-2

> <Gold.Version>
5.8.1

> <Gold.Id.Protein>
6NUR|6NUR_protein|mol2

> <Gold.PLP.Fitness>
39.7777

> <Gold.PLP.PLP>
-31.4152

> <Gold.PLP.part.hbond>
-3.3745

> <Gold.PLP.part.metal>
0.0000

> <Gold.PLP.part.buried>
-2.6951

> <Gold.PLP.part.nonpolar>
-26.2882

> <Gold.PLP.part.repulsive>
1.1952

> <Gold.PLP.ligand.clash>
0.0000

> <Gold.PLP.ligand.torsion>
0.3061

> <Gold.PLP.Chemscore.Hbond>
2.9600

> <Gold.PLP.Chemscore.CHOScore>
0.0000

> <Gold.PLP.Chemscore.Metal>
0.0000

> <Gold.Chemscore.Hbonds>
donor molecule, donor type, donor heavy atom, donor atom, acceptor molecule, acceptor atom, score
      L1  H     2    18       P1  7957  1.00
      L1  H    13    30       P1  8028  2.00

> <Gold.PLP.Chemscore.Internal.Correction>
0.0946

> <Gold.Rescore>
     Score         DG    S(hbond)    S(metal)    S(lipo)     H(rot)  DE(clash)    DE(int)     intcor
     17.39     -18.48       1.94        0.00      77.70       1.00       0.80       0.29       ----

> <Gold.Chemscore.Fitness>
17.3930

> <Gold.Chemscore.DG>
-18.4786

> <Gold.Chemscore.ZeroCoef>
-5.4800

> <Gold.Chemscore.Hbond>
1.9363

> <Gold.Chemscore.Metal>
0.0000

> <Gold.Chemscore.Lipo>
77.7031

> <Gold.Chemscore.Internal_Hbond>
0.0000

> <Gold.Chemscore.DEClash>
0.7957

> <Gold.Chemscore.DEInternal>
0.2899

> <Gold.Chemscore.Rot>
1.0000

> <Gold.Chemscore.Internal.Correction>
   9.000000E+99

> <Gold.Chemscore.Hbonds>
donor molecule, donor type, donor heavy atom, donor atom, acceptor molecule, acceptor atom, score
      L1  H     2    18       P1  7957  0.96
      L1  H    13    30       P1  8028  0.98

> <Gold.Chemscore.Hbond.Weighted>
-6.4673

> <Gold.Chemscore.Metal.Weighted>
-0.0000

> <Gold.Chemscore.Lipo.Weighted>
-9.0913

> <Gold.Chemscore.Internal_Hbond.Weighted>
0.0000

> <Gold.Chemscore.DEClash.Weighted>
0.7957

> <Gold.Chemscore.DEInternal.Weighted>
0.2899

> <Gold.Chemscore.Rot.Weighted>
2.5600

> <Gold.Chemscore.Internal.Correction.Weighted>
   9.000000E+99

> <Gold.Protein.RotatedTorsions>
[ 6907 6896 6895 6894 ] final -108.11 input  -60.11 | X-H torsion
[ 7974 7965 7964 7962 ] final   12.06 input  175.53 | X-H torsion
[ 8008 7997 7996 7995 ] final  112.00 input   59.86 | X-H torsion
[ 10167 10162 10161 10158 ] final  -44.58 input  -65.29 | X-H torsion
[ 10718 10713 10712 10709 ] final   66.70 input   66.30 | X-H torsion
[ 10763 10752 10751 10750 ] final  111.19 input  -60.55 | X-H torsion
[ 11005 11000 10999 10996 ] final  114.13 input  -57.11 | X-H torsion

> <Gold.Protein.ActiveResidues>
 VAL166  LYS551  ARG553  GLY616  TRP617  ASP618  TYR619  PRO620  LYS621  CYS622 
 ASP623  PHE694  ASN695  SER759  ASP760  ASP761  ALA762  ILE779  LEU786  VAL792 
 PHE793  MET794  SER795  GLU796  ALA797  LYS798  CYS799  TRP800  GLU811  SER814 

> <Gold.Protein.RotatedAtoms>
  150.7483  133.9726  159.3550 H   0  0  0  0  0  0  0  0  0  0  0  0  # atno 6907 bound_to 6896
  151.7660  135.0796  160.0362 H   0  0  0  0  0  0  0  0  0  0  0  0  # atno 6908 bound_to 6896
  152.3371  133.5987  159.5886 H   0  0  0  0  0  0  0  0  0  0  0  0  # atno 6909 bound_to 6896
  146.2359  139.9393  142.8485 H   0  0  0  0  0  0  0  0  0  0  0  0  # atno 7974 bound_to 7965
  156.2163  140.3008  155.9846 H   0  0  0  0  0  0  0  0  0  0  0  0  # atno 8008 bound_to 7997
  155.2598  140.0429  157.3013 H   0  0  0  0  0  0  0  0  0  0  0  0  # atno 8009 bound_to 7997
  154.5772  140.2365  155.8114 H   0  0  0  0  0  0  0  0  0  0  0  0  # atno 8010 bound_to 7997
  140.6891  143.2923  151.3516 H   0  0  0  0  0  0  0  0  0  0  0  0  # atno 10167 bound_to 10162
  157.6185  130.9281  150.0143 H   0  0  0  0  0  0  0  0  0  0  0  0  # atno 10718 bound_to 10713
  153.4598  135.3725  155.2332 H   0  0  0  0  0  0  0  0  0  0  0  0  # atno 10763 bound_to 10752
  154.8757  135.3906  154.3938 H   0  0  0  0  0  0  0  0  0  0  0  0  # atno 10764 bound_to 10752
  153.4510  135.7085  153.6173 H   0  0  0  0  0  0  0  0  0  0  0  0  # atno 10765 bound_to 10752
  139.8972  134.9562  156.6845 H   0  0  0  0  0  0  0  0  0  0  0  0  # atno 11005 bound_to 11000
  145.1968  140.9836  143.4179 LP  0  0  0  0  0  0  0  0  0  0  0  0  # atno 17320 bound_to 7965
  144.9809  139.3785  143.6262 LP  0  0  0  0  0  0  0  0  0  0  0  0  # atno 17321 bound_to 7965
  139.6277  144.0783  152.2448 LP  0  0  0  0  0  0  0  0  0  0  0  0  # atno 17342 bound_to 10162
  140.0247  144.6126  150.7537 LP  0  0  0  0  0  0  0  0  0  0  0  0  # atno 17343 bound_to 10162
  156.1319  130.3643  149.9719 LP  0  0  0  0  0  0  0  0  0  0  0  0  # atno 17370 bound_to 10713
  156.7778  130.9210  151.3645 LP  0  0  0  0  0  0  0  0  0  0  0  0  # atno 17371 bound_to 10713
  140.7273  133.9089  155.8187 LP  0  0  0  0  0  0  0  0  0  0  0  0  # atno 17394 bound_to 11000
  141.0181  134.0928  157.4150 LP  0  0  0  0  0  0  0  0  0  0  0  0  # atno 17395 bound_to 11000

$$$$
