AV-unprocessed.smi:1080|AV-procd|sdf|4706|dock8
  -GOLD-   22720 3233D 1   1.00000     0.00000
 Structure written by MMmdl.
 48 50  0  0  0  0  0  0  0  0  1 V2000
  150.1597  134.0327  156.1878 O   0  0  0  0  0  0  0  0  0  0  0  0
  149.8947  134.7878  155.2529 C   0  0  0  0  0  0  0  0  0  0  0  0
  149.2804  134.4314  154.1108 N   0  0  0  0  0  0  0  0  0  0  0  0
  148.8044  133.1536  153.7067 C   0  0  0  0  0  0  0  0  0  0  0  0
  147.6416  133.1144  152.9089 C   0  0  0  0  0  0  0  0  0  0  0  0
  147.1377  131.8634  152.5008 C   0  0  0  0  0  0  0  0  0  0  0  0
  147.7075  130.6881  152.8397 N   0  0  0  0  0  0  0  0  0  0  0  0
  148.8134  130.7255  153.6125 C   0  0  0  0  0  0  0  0  0  0  0  0
  149.3983  131.9216  154.0749 C   0  0  0  0  0  0  0  0  0  0  0  0
  150.2047  136.0928  155.2424 N   0  0  0  0  0  0  0  0  0  0  0  0
  150.8937  136.8189  156.3064 C   0  0  2  0  0  0  0  0  0  0  0  0
  149.9700  137.9086  156.8817 C   0  0  0  0  0  0  0  0  0  0  0  0
  150.6911  138.7572  157.9422 C   0  0  0  0  0  0  0  0  0  0  0  0
  151.9842  139.3852  157.3815 C   0  0  1  0  0  0  0  0  0  0  0  0
  152.6901  140.2320  158.4634 C   0  0  0  0  0  0  0  0  0  0  0  0
  153.8022  139.8704  158.8512 O   0  0  0  0  0  0  0  0  0  0  0  0
  152.1004  141.3586  158.9385 N   0  0  0  0  0  0  0  0  0  0  0  0
  152.8154  142.3158  159.7921 C   0  0  0  0  0  0  0  0  0  0  0  0
  153.2685  143.5075  158.9310 C   0  0  0  0  0  0  0  0  0  0  0  0
  151.8416  144.3816  158.2111 S   0  0  0  0  0  0  0  0  0  0  0  0
  150.9247  142.9678  157.5213 C   0  0  0  0  0  0  0  0  0  0  0  0
  150.7690  141.8556  158.5710 C   0  0  0  0  0  0  0  0  0  0  0  0
  152.9076  138.2767  156.8263 C   0  0  0  0  0  0  0  0  0  0  0  0
  152.1916  137.4373  155.7559 C   0  0  0  0  0  0  0  0  0  0  0  0
  149.1865  135.1602  153.4187 H   0  0  0  0  0  0  0  0  0  0  0  0
  147.1431  134.0243  152.6081 H   0  0  0  0  0  0  0  0  0  0  0  0
  146.2518  131.8060  151.8859 H   0  0  0  0  0  0  0  0  0  0  0  0
  149.2449  129.7712  153.8762 H   0  0  0  0  0  0  0  0  0  0  0  0
  150.2733  131.8635  154.7026 H   0  0  0  0  0  0  0  0  0  0  0  0
  149.9466  136.6303  154.4279 H   0  0  0  0  0  0  0  0  0  0  0  0
  151.1637  136.1390  157.1164 H   0  0  0  0  0  0  0  0  0  0  0  0
  149.6193  138.5589  156.0789 H   0  0  0  0  0  0  0  0  0  0  0  0
  149.0816  137.4518  157.3195 H   0  0  0  0  0  0  0  0  0  0  0  0
  150.0164  139.5352  158.3016 H   0  0  0  0  0  0  0  0  0  0  0  0
  150.9244  138.1319  158.8057 H   0  0  0  0  0  0  0  0  0  0  0  0
  151.7359  140.0126  156.5267 H   0  0  0  0  0  0  0  0  0  0  0  0
  152.1699  142.6590  160.6019 H   0  0  0  0  0  0  0  0  0  0  0  0
  153.6795  141.8679  160.2844 H   0  0  0  0  0  0  0  0  0  0  0  0
  153.8449  144.2124  159.5304 H   0  0  0  0  0  0  0  0  0  0  0  0
  153.9195  143.1665  158.1250 H   0  0  0  0  0  0  0  0  0  0  0  0
  149.9473  143.3151  157.1864 H   0  0  0  0  0  0  0  0  0  0  0  0
  151.4512  142.5946  156.6423 H   0  0  0  0  0  0  0  0  0  0  0  0
  150.1070  141.0695  158.2110 H   0  0  0  0  0  0  0  0  0  0  0  0
  150.2642  142.2522  159.4531 H   0  0  0  0  0  0  0  0  0  0  0  0
  153.8086  138.7182  156.3987 H   0  0  0  0  0  0  0  0  0  0  0  0
  153.2380  137.6150  157.6287 H   0  0  0  0  0  0  0  0  0  0  0  0
  152.8583  136.6508  155.4000 H   0  0  0  0  0  0  0  0  0  0  0  0
  151.9675  138.0665  154.8932 H   0  0  0  0  0  0  0  0  0  0  0  0
  1  2  2  0  0  0  0
  2  3  1  0  0  0  0
  2 10  1  0  0  0  0
  3  4  1  0  0  0  0
  3 25  1  0  0  0  0
  4  9  1  0  0  0  0
  4  5  2  0  0  0  0
  5  6  1  0  0  0  0
  5 26  1  0  0  0  0
  6  7  2  0  0  0  0
  6 27  1  0  0  0  0
  7  8  1  0  0  0  0
  8  9  2  0  0  0  0
  8 28  1  0  0  0  0
  9 29  1  0  0  0  0
 10 11  1  0  0  0  0
 10 30  1  0  0  0  0
 11 24  1  0  0  0  0
 11 12  1  0  0  0  0
 11 31  1  0  0  0  0
 12 13  1  0  0  0  0
 12 32  1  0  0  0  0
 12 33  1  0  0  0  0
 13 14  1  0  0  0  0
 13 34  1  0  0  0  0
 13 35  1  0  0  0  0
 14 15  1  0  0  0  0
 14 23  1  0  0  0  0
 14 36  1  0  0  0  0
 15 16  2  0  0  0  0
 15 17  1  0  0  0  0
 17 22  1  0  0  0  0
 17 18  1  0  0  0  0
 18 19  1  0  0  0  0
 18 37  1  0  0  0  0
 18 38  1  0  0  0  0
 19 20  1  0  0  0  0
 19 39  1  0  0  0  0
 19 40  1  0  0  0  0
 20 21  1  0  0  0  0
 21 22  1  0  0  0  0
 21 41  1  0  0  0  0
 21 42  1  0  0  0  0
 22 43  1  0  0  0  0
 22 44  1  0  0  0  0
 23 24  1  0  0  0  0
 23 45  1  0  0  0  0
 23 46  1  0  0  0  0
 24 47  1  0  0  0  0
 24 48  1  0  0  0  0
M  END
> <s_m_source_file>
AV-unprocessed.smi

> <i_m_source_file_index>
1080

> <i_lp_mmshare_version>
43012

> <i_f3d_flags>
0

> <s_epik_input>
W2NIXTFbY0hdbltjSF1bY0hdYzFbTkhdQyg9TylbTkhdW0NAQEhdMltDSDJdW0NIMl1bQ0BIXShbQ0gyXVtDSDJdMilDKD1PKU4zW0NIMl1bQ0gyXVNbQ0gyXVtDSDJdMw==

> <s_epik_cmdline>
J2VwaWtfcHl0aG9uJywgJy1waCcsICc3LjAnLCAnLXRuJywgJzgnLCAnLW1hJywgJzIwMCcsICctbWV0YWxfYmluZGluZycsICctaW1hZScsICc8aW5maWxlLm1hZT4nLCAnLW9tYWUnLCAnPG91dGZpbGUubWFlPic=

> <r_epik_Ionization_Penalty>
0.118325

> <r_epik_Ionization_Penalty_Charging>
0

> <r_epik_Ionization_Penalty_Neutral>
0.118325

> <r_epik_State_Penalty>
0.107868

> <r_epik_Charging_Adjusted_Penalty>
0.107868

> <i_epik_Tot_Q>
0

> <i_epik_Tot_abs_Q>
0

> <r_epik_Metal_State_Penalty>
0.0897632

> <b_epik_Metal_Only>
0

> <s_lp_Force_Field>
OPLS_2005

> <r_lp_Energy>
33.2651

> <b_lp_Chiralities_Consistent>
1

> <s_lp_Variant>
AV-unprocessed.smi:1080-1

> <Gold.Version>
5.8.1

> <Gold.Id.Protein>
6NUR|6NUR_protein|mol2

> <Gold.PLP.Fitness>
45.0546

> <Gold.PLP.PLP>
-39.6721

> <Gold.PLP.part.hbond>
-2.0000

> <Gold.PLP.part.metal>
0.0000

> <Gold.PLP.part.buried>
-3.7939

> <Gold.PLP.part.nonpolar>
-35.1093

> <Gold.PLP.part.repulsive>
1.0876

> <Gold.PLP.ligand.clash>
0.0000

> <Gold.PLP.ligand.torsion>
0.3387

> <Gold.PLP.Chemscore.Hbond>
2.0000

> <Gold.PLP.Chemscore.CHOScore>
0.0000

> <Gold.PLP.Chemscore.Metal>
0.0000

> <Gold.Chemscore.Hbonds>
donor molecule, donor type, donor heavy atom, donor atom, acceptor molecule, acceptor atom, score
      L1  H     3    25       P1  7948  0.95
      P1  H  7997  8009       L1    16  0.90

> <Gold.PLP.Chemscore.Internal.Correction>
0.0598

> <Gold.Rescore>
     Score         DG    S(hbond)    S(metal)    S(lipo)     H(rot)  DE(clash)    DE(int)     intcor
     19.30     -20.27       1.76        0.00     103.18       1.23       0.00       0.97       ----

> <Gold.Chemscore.Fitness>
19.3009

> <Gold.Chemscore.DG>
-20.2732

> <Gold.Chemscore.ZeroCoef>
-5.4800

> <Gold.Chemscore.Hbond>
1.7610

> <Gold.Chemscore.Metal>
0.0000

> <Gold.Chemscore.Lipo>
103.1753

> <Gold.Chemscore.Internal_Hbond>
0.0000

> <Gold.Chemscore.DEClash>
0.0048

> <Gold.Chemscore.DEInternal>
0.9674

> <Gold.Chemscore.Rot>
1.2344

> <Gold.Chemscore.Internal.Correction>
   9.000000E+99

> <Gold.Chemscore.Hbonds>
donor molecule, donor type, donor heavy atom, donor atom, acceptor molecule, acceptor atom, score
      L1  H     3    25       P1  7948  0.22
      P1  H  7997  8009       L1    16  0.17

> <Gold.Chemscore.Hbond.Weighted>
-5.8817

> <Gold.Chemscore.Metal.Weighted>
-0.0000

> <Gold.Chemscore.Lipo.Weighted>
-12.0715

> <Gold.Chemscore.Internal_Hbond.Weighted>
0.0000

> <Gold.Chemscore.DEClash.Weighted>
0.0048

> <Gold.Chemscore.DEInternal.Weighted>
0.9674

> <Gold.Chemscore.Rot.Weighted>
3.1600

> <Gold.Chemscore.Internal.Correction.Weighted>
   9.000000E+99

> <Gold.Protein.RotatedTorsions>
[ 6907 6896 6895 6894 ] final    0.69 input  -60.11 | X-H torsion
[ 7974 7965 7964 7962 ] final -157.73 input  175.53 | X-H torsion
[ 8008 7997 7996 7995 ] final  142.90 input   59.86 | X-H torsion
[ 10167 10162 10161 10158 ] final  -17.93 input  -65.29 | X-H torsion
[ 10718 10713 10712 10709 ] final  -40.74 input   66.30 | X-H torsion
[ 10763 10752 10751 10750 ] final  -98.49 input  -60.55 | X-H torsion
[ 11005 11000 10999 10996 ] final   17.34 input  -57.11 | X-H torsion

> <Gold.Protein.ActiveResidues>
 VAL166  LYS551  ARG553  GLY616  TRP617  ASP618  TYR619  PRO620  LYS621  CYS622 
 ASP623  PHE694  ASN695  SER759  ASP760  ASP761  ALA762  ILE779  LEU786  VAL792 
 PHE793  MET794  SER795  GLU796  ALA797  LYS798  CYS799  TRP800  GLU811  SER814 

> <Gold.Protein.RotatedAtoms>
  151.5805  135.1058  160.0015 H   0  0  0  0  0  0  0  0  0  0  0  0  # atno 6907 bound_to 6896
  152.4356  133.7351  159.6620 H   0  0  0  0  0  0  0  0  0  0  0  0  # atno 6908 bound_to 6896
  150.8254  133.8111  159.3144 H   0  0  0  0  0  0  0  0  0  0  0  0  # atno 6909 bound_to 6896
  144.7536  140.3928  143.6029 H   0  0  0  0  0  0  0  0  0  0  0  0  # atno 7974 bound_to 7965
  156.2940  140.2276  156.4804 H   0  0  0  0  0  0  0  0  0  0  0  0  # atno 8008 bound_to 7997
  154.7858  140.0457  157.1184 H   0  0  0  0  0  0  0  0  0  0  0  0  # atno 8009 bound_to 7997
  154.9704  140.3066  155.4994 H   0  0  0  0  0  0  0  0  0  0  0  0  # atno 8010 bound_to 7997
  140.7253  143.4966  150.9922 H   0  0  0  0  0  0  0  0  0  0  0  0  # atno 10167 bound_to 10162
  156.2780  130.4214  149.8367 H   0  0  0  0  0  0  0  0  0  0  0  0  # atno 10718 bound_to 10713
  154.7419  135.5007  153.9137 H   0  0  0  0  0  0  0  0  0  0  0  0  # atno 10763 bound_to 10752
  153.1051  135.6695  153.9608 H   0  0  0  0  0  0  0  0  0  0  0  0  # atno 10764 bound_to 10752
  153.9383  135.3070  155.3422 H   0  0  0  0  0  0  0  0  0  0  0  0  # atno 10765 bound_to 10752
  140.4371  134.1360  155.7686 H   0  0  0  0  0  0  0  0  0  0  0  0  # atno 11005 bound_to 11000
  145.6858  139.1628  143.2675 LP  0  0  0  0  0  0  0  0  0  0  0  0  # atno 17320 bound_to 7965
  146.1518  140.6915  142.9319 LP  0  0  0  0  0  0  0  0  0  0  0  0  # atno 17321 bound_to 7965
  139.8674  143.7237  152.3169 LP  0  0  0  0  0  0  0  0  0  0  0  0  # atno 17342 bound_to 10162
  139.7473  144.7543  151.0560 LP  0  0  0  0  0  0  0  0  0  0  0  0  # atno 17343 bound_to 10162
  156.5824  130.8471  151.3386 LP  0  0  0  0  0  0  0  0  0  0  0  0  # atno 17370 bound_to 10713
  157.7305  130.9687  150.1838 LP  0  0  0  0  0  0  0  0  0  0  0  0  # atno 17371 bound_to 10713
  141.1721  133.8587  157.1537 LP  0  0  0  0  0  0  0  0  0  0  0  0  # atno 17394 bound_to 11000
  140.0095  134.9994  157.0364 LP  0  0  0  0  0  0  0  0  0  0  0  0  # atno 17395 bound_to 11000

$$$$
