AV-unprocessed.smi:1237|AV-procd|sdf|5183|dock7
  -GOLD-   22720 4263D 1   1.00000     0.00000
 Structure written by MMmdl.
 44 45  0  0  0  0  0  0  0  0  1 V2000
  145.0501  145.1645  152.4268 C   0  0  0  0  0  0  0  0  0  0  0  0
  144.7987  144.2759  153.5008 O   0  0  0  0  0  0  0  0  0  0  0  0
  145.8707  143.3736  153.7222 C   0  0  0  0  0  0  0  0  0  0  0  0
  145.4177  142.2682  154.6903 C   0  0  0  0  0  0  0  0  0  0  0  0
  145.1951  142.7873  156.0444 N   0  0  0  0  0  0  0  0  0  0  0  0
  146.3339  142.8119  156.8322 N   0  0  0  0  0  0  0  0  0  0  0  0
  146.2692  143.2244  158.0568 C   0  0  0  0  0  0  0  0  0  0  0  0
  147.4683  143.2566  158.9393 C   0  0  0  0  0  0  0  0  0  0  0  0
  147.3783  143.1417  160.1629 O   0  0  0  0  0  0  0  0  0  0  0  0
  148.6448  143.4139  158.3049 N   0  0  0  0  0  0  0  0  0  0  0  0
  149.9582  143.4768  158.9431 C   0  0  0  0  0  0  0  0  0  0  0  0
  150.1265  144.8862  159.5502 C   0  0  0  0  0  0  0  0  0  0  0  0
  151.5481  145.3097  159.9629 C   0  0  0  0  0  0  0  0  0  0  0  0
  152.4474  144.1951  160.5202 C   0  0  0  0  0  0  0  0  0  0  0  0
  153.1762  143.4147  159.4134 C   0  0  0  0  0  0  0  0  0  0  0  0
  152.2902  142.4422  158.6215 C   0  0  0  0  0  0  0  0  0  0  0  0
  151.0624  143.0740  157.9410 C   0  0  0  0  0  0  0  0  0  0  0  0
  145.0095  143.6756  158.6241 C   0  0  0  0  0  0  0  0  0  0  0  0
  143.9076  143.6483  157.8426 C   0  0  0  0  0  0  0  0  0  0  0  0
  143.9520  143.1795  156.4567 C   0  0  0  0  0  0  0  0  0  0  0  0
  142.9605  143.1366  155.7286 O   0  0  0  0  0  0  0  0  0  0  0  0
  144.2018  145.8374  152.3019 H   0  0  0  0  0  0  0  0  0  0  0  0
  145.1915  144.6221  151.4911 H   0  0  0  0  0  0  0  0  0  0  0  0
  145.9358  145.7720  152.6171 H   0  0  0  0  0  0  0  0  0  0  0  0
  146.1706  142.9258  152.7738 H   0  0  0  0  0  0  0  0  0  0  0  0
  146.7394  143.9017  154.1189 H   0  0  0  0  0  0  0  0  0  0  0  0
  144.5089  141.7989  154.3091 H   0  0  0  0  0  0  0  0  0  0  0  0
  146.1639  141.4722  154.7150 H   0  0  0  0  0  0  0  0  0  0  0  0
  148.6262  143.4969  157.2985 H   0  0  0  0  0  0  0  0  0  0  0  0
  149.9633  142.7610  159.7674 H   0  0  0  0  0  0  0  0  0  0  0  0
  149.7496  145.6361  158.8529 H   0  0  0  0  0  0  0  0  0  0  0  0
  149.4762  144.9528  160.4237 H   0  0  0  0  0  0  0  0  0  0  0  0
  152.0451  145.7808  159.1140 H   0  0  0  0  0  0  0  0  0  0  0  0
  151.4573  146.0978  160.7112 H   0  0  0  0  0  0  0  0  0  0  0  0
  153.2073  144.6604  161.1491 H   0  0  0  0  0  0  0  0  0  0  0  0
  151.8880  143.5266  161.1757 H   0  0  0  0  0  0  0  0  0  0  0  0
  153.6622  144.1105  158.7283 H   0  0  0  0  0  0  0  0  0  0  0  0
  153.9842  142.8407  159.8685 H   0  0  0  0  0  0  0  0  0  0  0  0
  152.9069  141.9726  157.8545 H   0  0  0  0  0  0  0  0  0  0  0  0
  151.9672  141.6299  159.2736 H   0  0  0  0  0  0  0  0  0  0  0  0
  150.6660  142.3269  157.2518 H   0  0  0  0  0  0  0  0  0  0  0  0
  151.3528  143.9225  157.3198 H   0  0  0  0  0  0  0  0  0  0  0  0
  144.9474  144.0264  159.6440 H   0  0  0  0  0  0  0  0  0  0  0  0
  142.9647  143.9808  158.2512 H   0  0  0  0  0  0  0  0  0  0  0  0
  1  2  1  0  0  0  0
  1 22  1  0  0  0  0
  1 23  1  0  0  0  0
  1 24  1  0  0  0  0
  2  3  1  0  0  0  0
  3  4  1  0  0  0  0
  3 25  1  0  0  0  0
  3 26  1  0  0  0  0
  4  5  1  0  0  0  0
  4 27  1  0  0  0  0
  4 28  1  0  0  0  0
  5 20  1  0  0  0  0
  5  6  1  0  0  0  0
  6  7  2  0  0  0  0
  7  8  1  0  0  0  0
  7 18  1  0  0  0  0
  8  9  2  0  0  0  0
  8 10  1  0  0  0  0
 10 11  1  0  0  0  0
 10 29  1  0  0  0  0
 11 17  1  0  0  0  0
 11 12  1  0  0  0  0
 11 30  1  0  0  0  0
 12 13  1  0  0  0  0
 12 31  1  0  0  0  0
 12 32  1  0  0  0  0
 13 14  1  0  0  0  0
 13 33  1  0  0  0  0
 13 34  1  0  0  0  0
 14 15  1  0  0  0  0
 14 35  1  0  0  0  0
 14 36  1  0  0  0  0
 15 16  1  0  0  0  0
 15 37  1  0  0  0  0
 15 38  1  0  0  0  0
 16 17  1  0  0  0  0
 16 39  1  0  0  0  0
 16 40  1  0  0  0  0
 17 41  1  0  0  0  0
 17 42  1  0  0  0  0
 18 19  2  0  0  0  0
 18 43  1  0  0  0  0
 19 20  1  0  0  0  0
 19 44  1  0  0  0  0
 20 21  2  0  0  0  0
M  END
> <s_m_source_file>
AV-unprocessed.smi

> <i_m_source_file_index>
1237

> <i_lp_mmshare_version>
43012

> <i_f3d_flags>
0

> <s_epik_input>
W0NIM11PW0NIMl1bQ0gyXW4xbmMoW2NIXVtjSF1jMT1PKUMoPU8pW05IXVtDSF0yW0NIMl1bQ0gyXVtDSDJdW0NIMl1bQ0gyXVtDSDJdMg==

> <s_epik_cmdline>
J2VwaWtfcHl0aG9uJywgJy1waCcsICc3LjAnLCAnLXRuJywgJzgnLCAnLW1hJywgJzIwMCcsICctbWV0YWxfYmluZGluZycsICctaW1hZScsICc8aW5maWxlLm1hZT4nLCAnLW9tYWUnLCAnPG91dGZpbGUubWFlPic=

> <r_lp_tautomer_probability>
1

> <r_epik_Ionization_Penalty>
5.81787e-07

> <r_epik_Ionization_Penalty_Charging>
6.75108e-09

> <r_epik_Ionization_Penalty_Neutral>
5.75036e-07

> <r_epik_State_Penalty>
-0

> <r_epik_Charging_Adjusted_Penalty>
6.75108e-09

> <i_epik_Tot_Q>
0

> <i_epik_Tot_abs_Q>
0

> <r_epik_Metal_State_Penalty>
-0

> <b_epik_Metal_Only>
0

> <s_lp_Force_Field>
OPLS_2005

> <r_lp_Energy>
36.1796

> <b_lp_Chiralities_Consistent>
1

> <s_lp_Variant>
AV-unprocessed.smi:1237-1

> <Gold.Version>
5.8.1

> <Gold.Id.Protein>
6NUR|6NUR_protein|mol2

> <Gold.PLP.Fitness>
41.5260

> <Gold.PLP.PLP>
-37.4847

> <Gold.PLP.part.hbond>
-3.8715

> <Gold.PLP.part.metal>
0.0000

> <Gold.PLP.part.buried>
-4.3945

> <Gold.PLP.part.nonpolar>
-30.9203

> <Gold.PLP.part.repulsive>
0.5761

> <Gold.PLP.ligand.clash>
0.0000

> <Gold.PLP.ligand.torsion>
1.0340

> <Gold.PLP.Chemscore.Hbond>
2.0208

> <Gold.PLP.Chemscore.CHOScore>
0.0000

> <Gold.PLP.Chemscore.Metal>
0.0000

> <Gold.Chemscore.Hbonds>
donor molecule, donor type, donor heavy atom, donor atom, acceptor molecule, acceptor atom, score
      L1  H    10    29       P1  8028  0.72
      P1  H  6933  6944       L1     9  1.00
      P1  H  6934  6946       L1     9  0.09

> <Gold.PLP.Chemscore.Internal.Correction>
0.0469

> <Gold.Rescore>
     Score         DG    S(hbond)    S(metal)    S(lipo)     H(rot)  DE(clash)    DE(int)     intcor
     16.68     -17.68       1.43        0.00      97.43       1.55       0.10       0.91       ----

> <Gold.Chemscore.Fitness>
16.6767

> <Gold.Chemscore.DG>
-17.6826

> <Gold.Chemscore.ZeroCoef>
-5.4800

> <Gold.Chemscore.Hbond>
1.4269

> <Gold.Chemscore.Metal>
0.0000

> <Gold.Chemscore.Lipo>
97.4275

> <Gold.Chemscore.Internal_Hbond>
0.0000

> <Gold.Chemscore.DEClash>
0.0970

> <Gold.Chemscore.DEInternal>
0.9089

> <Gold.Chemscore.Rot>
1.5478

> <Gold.Chemscore.Internal.Correction>
   9.000000E+99

> <Gold.Chemscore.Hbonds>
donor molecule, donor type, donor heavy atom, donor atom, acceptor molecule, acceptor atom, score
      L1  H    10    29       P1  8028  0.10
      P1  H  6933  6944       L1     9  0.95
      P1  H  6934  6946       L1     9  0.08

> <Gold.Chemscore.Hbond.Weighted>
-4.7659

> <Gold.Chemscore.Metal.Weighted>
-0.0000

> <Gold.Chemscore.Lipo.Weighted>
-11.3990

> <Gold.Chemscore.Internal_Hbond.Weighted>
0.0000

> <Gold.Chemscore.DEClash.Weighted>
0.0970

> <Gold.Chemscore.DEInternal.Weighted>
0.9089

> <Gold.Chemscore.Rot.Weighted>
3.9623

> <Gold.Chemscore.Internal.Correction.Weighted>
   9.000000E+99

> <Gold.Protein.RotatedTorsions>
[ 6907 6896 6895 6894 ] final   35.14 input  -60.11 | X-H torsion
[ 7974 7965 7964 7962 ] final  -52.64 input  175.53 | X-H torsion
[ 8008 7997 7996 7995 ] final -172.54 input   59.86 | X-H torsion
[ 10167 10162 10161 10158 ] final   73.50 input  -65.29 | X-H torsion
[ 10718 10713 10712 10709 ] final -154.44 input   66.30 | X-H torsion
[ 10763 10752 10751 10750 ] final  131.26 input  -60.55 | X-H torsion
[ 11005 11000 10999 10996 ] final  118.90 input  -57.11 | X-H torsion

> <Gold.Protein.ActiveResidues>
 VAL166  LYS551  ARG553  GLY616  TRP617  ASP618  TYR619  PRO620  LYS621  CYS622 
 ASP623  PHE694  ASN695  SER759  ASP760  ASP761  ALA762  ILE779  LEU786  VAL792 
 PHE793  MET794  SER795  GLU796  ALA797  LYS798  CYS799  TRP800  GLU811  SER814 

> <Gold.Protein.RotatedAtoms>
  152.1121  134.9267  160.0566 H   0  0  0  0  0  0  0  0  0  0  0  0  # atno 6907 bound_to 6896
  152.0440  133.3985  159.4357 H   0  0  0  0  0  0  0  0  0  0  0  0  # atno 6908 bound_to 6896
  150.6844  134.3303  159.4868 H   0  0  0  0  0  0  0  0  0  0  0  0  # atno 6909 bound_to 6896
  145.9057  140.7957  142.9720 H   0  0  0  0  0  0  0  0  0  0  0  0  # atno 7974 bound_to 7965
  155.9459  140.1117  157.1017 H   0  0  0  0  0  0  0  0  0  0  0  0  # atno 8008 bound_to 7997
  154.4099  140.1210  156.5054 H   0  0  0  0  0  0  0  0  0  0  0  0  # atno 8009 bound_to 7997
  155.6903  140.3472  155.4893 H   0  0  0  0  0  0  0  0  0  0  0  0  # atno 8010 bound_to 7997
  140.0239  144.5519  150.7560 H   0  0  0  0  0  0  0  0  0  0  0  0  # atno 10167 bound_to 10162
  156.4994  130.8384  151.2603 H   0  0  0  0  0  0  0  0  0  0  0  0  # atno 10718 bound_to 10713
  153.7715  135.3181  155.3352 H   0  0  0  0  0  0  0  0  0  0  0  0  # atno 10763 bound_to 10752
  154.8194  135.4613  154.0739 H   0  0  0  0  0  0  0  0  0  0  0  0  # atno 10764 bound_to 10752
  153.2001  135.6921  153.8327 H   0  0  0  0  0  0  0  0  0  0  0  0  # atno 10765 bound_to 10752
  139.9126  134.9624  156.7574 H   0  0  0  0  0  0  0  0  0  0  0  0  # atno 11005 bound_to 11000
  144.6739  140.1747  143.7411 LP  0  0  0  0  0  0  0  0  0  0  0  0  # atno 17320 bound_to 7965
  145.8735  139.2284  143.1647 LP  0  0  0  0  0  0  0  0  0  0  0  0  # atno 17321 bound_to 7965
  140.7331  143.2713  151.3879 LP  0  0  0  0  0  0  0  0  0  0  0  0  # atno 17342 bound_to 10162
  139.6121  144.1076  152.2309 LP  0  0  0  0  0  0  0  0  0  0  0  0  # atno 17343 bound_to 10162
  157.7465  130.9987  150.2862 LP  0  0  0  0  0  0  0  0  0  0  0  0  # atno 17370 bound_to 10713
  156.3348  130.3806  149.7459 LP  0  0  0  0  0  0  0  0  0  0  0  0  # atno 17371 bound_to 10713
  140.6725  133.9547  155.7864 LP  0  0  0  0  0  0  0  0  0  0  0  0  # atno 17394 bound_to 11000
  141.0567  134.0405  157.3712 LP  0  0  0  0  0  0  0  0  0  0  0  0  # atno 17395 bound_to 11000

$$$$
