AV-unprocessed.smi:260|AV-procd|sdf|1982|dock10
  -GOLD-   2262021153D 1   1.00000     0.00000
 Structure written by MMmdl.
 53 56  0  0  0  0  0  0  0  0  1 V2000
  145.7292  134.0780  155.8856 C   0  0  0  0  0  0  0  0  0  0  0  0
  147.0209  134.0658  155.2169 N   0  0  0  0  0  0  0  0  0  0  0  0
  148.1277  133.4899  155.7131 C   0  0  0  0  0  0  0  0  0  0  0  0
  148.1337  132.9236  156.8070 O   0  0  0  0  0  0  0  0  0  0  0  0
  149.4334  133.5468  154.8769 C   0  0  2  0  0  0  0  0  0  0  0  0
  149.1731  132.9136  153.4960 C   0  0  0  0  0  0  0  0  0  0  0  0
  150.6635  132.9225  155.5761 C   0  0  0  0  0  0  0  0  0  0  0  0
  151.1966  134.0259  156.5000 C   0  0  0  0  0  0  0  0  0  0  0  0
  150.6869  135.2718  155.9464 N   0  0  0  0  0  0  0  0  0  0  0  0
  151.3226  136.4548  156.1455 C   0  0  0  0  0  0  0  0  0  0  0  0
  151.8600  137.0946  155.0731 N   0  0  0  0  0  0  0  0  0  0  0  0
  152.4891  138.2633  155.2243 C   0  0  0  0  0  0  0  0  0  0  0  0
  152.6886  138.9646  156.3410 N   0  0  0  0  0  0  0  0  0  0  0  0
  152.1433  138.3362  157.4208 C   0  0  0  0  0  0  0  0  0  0  0  0
  151.4498  137.0915  157.4155 C   0  0  0  0  0  0  0  0  0  0  0  0
  151.0327  136.7858  158.7073 N   0  0  0  0  0  0  0  0  0  0  0  0
  151.4584  137.7849  159.4306 C   0  0  0  0  0  0  0  0  0  0  0  0
  152.1334  138.7618  158.7365 N   0  0  0  0  0  0  0  0  0  0  0  0
  152.7044  139.9812  159.2798 C   0  0  0  0  0  0  0  0  0  0  0  0
  152.0448  141.2460  158.6965 C   0  0  1  0  0  0  0  0  0  0  0  0
  150.6385  141.1877  158.8427 O   0  0  0  0  0  0  0  0  0  0  0  0
  152.5987  142.5471  159.3110 C   0  0  1  0  0  0  0  0  0  0  0  0
  152.0185  143.8570  158.7714 C   0  0  0  0  0  0  0  0  0  0  0  0
  152.3083  144.8004  159.9173 C   0  0  0  0  0  0  0  0  0  0  0  0
  152.0593  143.9054  161.1293 C   0  0  0  0  0  0  0  0  0  0  0  0
  152.4203  142.5870  160.7250 O   0  0  0  0  0  0  0  0  0  0  0  0
  149.9031  135.0081  154.7463 C   0  0  0  0  0  0  0  0  0  0  0  0
  144.9967  134.5995  155.2694 H   0  0  0  0  0  0  0  0  0  0  0  0
  145.7939  134.5903  156.8465 H   0  0  0  0  0  0  0  0  0  0  0  0
  145.3708  133.0618  156.0554 H   0  0  0  0  0  0  0  0  0  0  0  0
  147.0781  134.5137  154.3139 H   0  0  0  0  0  0  0  0  0  0  0  0
  150.0577  132.9684  152.8608 H   0  0  0  0  0  0  0  0  0  0  0  0
  148.3651  133.4193  152.9654 H   0  0  0  0  0  0  0  0  0  0  0  0
  148.9030  131.8609  153.5881 H   0  0  0  0  0  0  0  0  0  0  0  0
  150.4653  131.9889  156.1032 H   0  0  0  0  0  0  0  0  0  0  0  0
  151.4271  132.6949  154.8307 H   0  0  0  0  0  0  0  0  0  0  0  0
  150.8108  133.9036  157.5125 H   0  0  0  0  0  0  0  0  0  0  0  0
  152.2863  134.0087  156.5417 H   0  0  0  0  0  0  0  0  0  0  0  0
  152.8881  138.6992  154.3203 H   0  0  0  0  0  0  0  0  0  0  0  0
  151.2844  137.8406  160.4953 H   0  0  0  0  0  0  0  0  0  0  0  0
  152.6020  139.9588  160.3655 H   0  0  0  0  0  0  0  0  0  0  0  0
  153.7741  139.9809  159.0670 H   0  0  0  0  0  0  0  0  0  0  0  0
  152.2428  141.2750  157.6242 H   0  0  0  0  0  0  0  0  0  0  0  0
  150.3637  141.9245  159.3671 H   0  0  0  0  0  0  0  0  0  0  0  0
  153.6775  142.5709  159.1467 H   0  0  0  0  0  0  0  0  0  0  0  0
  152.4757  144.1697  157.8323 H   0  0  0  0  0  0  0  0  0  0  0  0
  150.9408  143.7890  158.6198 H   0  0  0  0  0  0  0  0  0  0  0  0
  153.3527  145.1146  159.8894 H   0  0  0  0  0  0  0  0  0  0  0  0
  151.6811  145.6922  159.9095 H   0  0  0  0  0  0  0  0  0  0  0  0
  152.6247  144.2233  162.0055 H   0  0  0  0  0  0  0  0  0  0  0  0
  151.0003  143.9079  161.3907 H   0  0  0  0  0  0  0  0  0  0  0  0
  150.5352  135.1362  153.8661 H   0  0  0  0  0  0  0  0  0  0  0  0
  149.0711  135.7091  154.6615 H   0  0  0  0  0  0  0  0  0  0  0  0
  1  2  1  0  0  0  0
  1 28  1  0  0  0  0
  1 29  1  0  0  0  0
  1 30  1  0  0  0  0
  2  3  1  0  0  0  0
  2 31  1  0  0  0  0
  3  4  2  0  0  0  0
  3  5  1  0  0  0  0
  5 27  1  0  0  0  0
  5  6  1  0  0  0  0
  5  7  1  0  0  0  0
  6 32  1  0  0  0  0
  6 33  1  0  0  0  0
  6 34  1  0  0  0  0
  7  8  1  0  0  0  0
  7 35  1  0  0  0  0
  7 36  1  0  0  0  0
  8  9  1  0  0  0  0
  8 37  1  0  0  0  0
  8 38  1  0  0  0  0
  9 10  1  0  0  0  0
  9 27  1  0  0  0  0
 10 15  1  0  0  0  0
 10 11  2  0  0  0  0
 11 12  1  0  0  0  0
 12 13  2  0  0  0  0
 12 39  1  0  0  0  0
 13 14  1  0  0  0  0
 14 18  1  0  0  0  0
 14 15  2  0  0  0  0
 15 16  1  0  0  0  0
 16 17  2  0  0  0  0
 17 18  1  0  0  0  0
 17 40  1  0  0  0  0
 18 19  1  0  0  0  0
 19 20  1  0  0  0  0
 19 41  1  0  0  0  0
 19 42  1  0  0  0  0
 20 21  1  0  0  0  0
 20 22  1  0  0  0  0
 20 43  1  0  0  0  0
 21 44  1  0  0  0  0
 22 26  1  0  0  0  0
 22 23  1  0  0  0  0
 22 45  1  0  0  0  0
 23 24  1  0  0  0  0
 23 46  1  0  0  0  0
 23 47  1  0  0  0  0
 24 25  1  0  0  0  0
 24 48  1  0  0  0  0
 24 49  1  0  0  0  0
 25 26  1  0  0  0  0
 25 50  1  0  0  0  0
 25 51  1  0  0  0  0
 27 52  1  0  0  0  0
 27 53  1  0  0  0  0
M  END
> <s_m_source_file>
AV-unprocessed.smi

> <i_m_source_file_index>
260

> <i_lp_mmshare_version>
43012

> <i_f3d_flags>
0

> <s_epik_input>
W0NIM11bTkhdQyg9TylbQ0BAXTEoW0NIM10pW0NIMl1bQ0gyXU4oW0NIMl0xKWMobltjSF1uMiljKGMyMyluW2NIXW4zW0NIMl1bQ0BIXShbT0hdKVtDQEBIXTRbQ0gyXVtDSDJdW0NIMl1PNA==

> <s_epik_cmdline>
J2VwaWtfcHl0aG9uJywgJy1waCcsICc3LjAnLCAnLXRuJywgJzgnLCAnLW1hJywgJzIwMCcsICctbWV0YWxfYmluZGluZycsICctaW1hZScsICc8aW5maWxlLm1hZT4nLCAnLW9tYWUnLCAnPG91dGZpbGUubWFlPic=

> <r_lp_tautomer_probability>
1

> <r_epik_Ionization_Penalty>
0.00115068

> <r_epik_Ionization_Penalty_Charging>
0

> <r_epik_Ionization_Penalty_Neutral>
0.00115068

> <r_epik_State_Penalty>
0.000668876

> <r_epik_Charging_Adjusted_Penalty>
0.000668876

> <i_epik_Tot_Q>
0

> <i_epik_Tot_abs_Q>
0

> <r_epik_Metal_State_Penalty>
-0

> <b_epik_Metal_Only>
0

> <s_lp_Force_Field>
OPLS_2005

> <r_lp_Energy>
50.4325

> <b_lp_Chiralities_Consistent>
1

> <s_lp_Variant>
AV-unprocessed.smi:260-8

> <Gold.Version>
5.8.1

> <Gold.Id.Protein>
6NUR|6NUR_protein|mol2

> <Gold.PLP.Fitness>
51.0977

> <Gold.PLP.PLP>
-44.5105

> <Gold.PLP.part.hbond>
-3.2872

> <Gold.PLP.part.metal>
0.0000

> <Gold.PLP.part.buried>
-7.6039

> <Gold.PLP.part.nonpolar>
-34.8791

> <Gold.PLP.part.repulsive>
0.1253

> <Gold.PLP.ligand.clash>
0.0000

> <Gold.PLP.ligand.torsion>
0.9610

> <Gold.PLP.Chemscore.Hbond>
2.7324

> <Gold.PLP.Chemscore.CHOScore>
0.0000

> <Gold.PLP.Chemscore.Metal>
0.0000

> <Gold.Chemscore.Hbonds>
donor molecule, donor type, donor heavy atom, donor atom, acceptor molecule, acceptor atom, score
      P1  H  6896  6909       L1    16  0.77
      P1  H  7997  8009       L1    13  1.00
      P1  H 10752 10765       L1    11  0.88

> <Gold.PLP.Chemscore.Internal.Correction>
0.3121

> <Gold.Rescore>
     Score         DG    S(hbond)    S(metal)    S(lipo)     H(rot)  DE(clash)    DE(int)     intcor
     15.70     -16.54       1.90        0.00      95.58       2.53       0.02       0.82       ----

> <Gold.Chemscore.Fitness>
15.7010

> <Gold.Chemscore.DG>
-16.5429

> <Gold.Chemscore.ZeroCoef>
-5.4800

> <Gold.Chemscore.Hbond>
1.9001

> <Gold.Chemscore.Metal>
0.0000

> <Gold.Chemscore.Lipo>
95.5813

> <Gold.Chemscore.Internal_Hbond>
0.0000

> <Gold.Chemscore.DEClash>
0.0215

> <Gold.Chemscore.DEInternal>
0.8204

> <Gold.Chemscore.Rot>
2.5259

> <Gold.Chemscore.Internal.Correction>
   9.000000E+99

> <Gold.Chemscore.Hbonds>
donor molecule, donor type, donor heavy atom, donor atom, acceptor molecule, acceptor atom, score
      P1  H  6896  6909       L1    16  0.61
      P1  H  7997  8009       L1    13  0.90
      P1  H 10752 10765       L1    11  0.17

> <Gold.Chemscore.Hbond.Weighted>
-6.3463

> <Gold.Chemscore.Metal.Weighted>
-0.0000

> <Gold.Chemscore.Lipo.Weighted>
-11.1830

> <Gold.Chemscore.Internal_Hbond.Weighted>
0.0000

> <Gold.Chemscore.DEClash.Weighted>
0.0215

> <Gold.Chemscore.DEInternal.Weighted>
0.8204

> <Gold.Chemscore.Rot.Weighted>
6.4663

> <Gold.Chemscore.Internal.Correction.Weighted>
   9.000000E+99

> <Gold.Protein.RotatedTorsions>
[ 6907 6896 6895 6894 ] final   84.09 input  -60.11 | X-H torsion
[ 7974 7965 7964 7962 ] final -137.36 input  175.53 | X-H torsion
[ 8008 7997 7996 7995 ] final -175.75 input   59.86 | X-H torsion
[ 10167 10162 10161 10158 ] final   38.09 input  -65.29 | X-H torsion
[ 10718 10713 10712 10709 ] final   87.93 input   66.30 | X-H torsion
[ 10763 10752 10751 10750 ] final  165.34 input  -60.55 | X-H torsion
[ 11005 11000 10999 10996 ] final   19.14 input  -57.11 | X-H torsion

> <Gold.Protein.ActiveResidues>
 VAL166  LYS551  ARG553  GLY616  TRP617  ASP618  TYR619  PRO620  LYS621  CYS622 
 ASP623  PHE694  ASN695  SER759  ASP760  ASP761  ALA762  ILE779  LEU786  VAL792 
 PHE793  MET794  SER795  GLU796  ALA797  LYS798  CYS799  TRP800  GLU811  SER814 

> <Gold.Protein.RotatedAtoms>
  152.5344  134.2794  159.9001 H   0  0  0  0  0  0  0  0  0  0  0  0  # atno 6907 bound_to 6896
  151.2749  133.4231  159.2631 H   0  0  0  0  0  0  0  0  0  0  0  0  # atno 6908 bound_to 6896
  151.0335  134.9571  159.8180 H   0  0  0  0  0  0  0  0  0  0  0  0  # atno 6909 bound_to 6896
  144.8849  140.6560  143.5182 H   0  0  0  0  0  0  0  0  0  0  0  0  # atno 7974 bound_to 7965
  155.9864  140.1192  157.0679 H   0  0  0  0  0  0  0  0  0  0  0  0  # atno 8008 bound_to 7997
  154.4198  140.1134  156.5574 H   0  0  0  0  0  0  0  0  0  0  0  0  # atno 8009 bound_to 7997
  155.6401  140.3473  155.4714 H   0  0  0  0  0  0  0  0  0  0  0  0  # atno 8010 bound_to 7997
  140.3970  144.1776  150.6132 H   0  0  0  0  0  0  0  0  0  0  0  0  # atno 10167 bound_to 10162
  157.6945  131.0275  150.3197 H   0  0  0  0  0  0  0  0  0  0  0  0  # atno 10718 bound_to 10713
  154.3225  135.2755  155.2512 H   0  0  0  0  0  0  0  0  0  0  0  0  # atno 10763 bound_to 10752
  154.4860  135.5846  153.6427 H   0  0  0  0  0  0  0  0  0  0  0  0  # atno 10764 bound_to 10752
  152.9875  135.6123  154.3411 H   0  0  0  0  0  0  0  0  0  0  0  0  # atno 10765 bound_to 10752
  140.4170  134.1558  155.7670 H   0  0  0  0  0  0  0  0  0  0  0  0  # atno 11005 bound_to 11000
  145.3888  139.1621  143.4240 LP  0  0  0  0  0  0  0  0  0  0  0  0  # atno 17320 bound_to 7965
  146.3018  140.3975  142.8701 LP  0  0  0  0  0  0  0  0  0  0  0  0  # atno 17321 bound_to 7965
  140.4780  143.2389  151.8995 LP  0  0  0  0  0  0  0  0  0  0  0  0  # atno 17342 bound_to 10162
  139.4786  144.5299  151.8681 LP  0  0  0  0  0  0  0  0  0  0  0  0  # atno 17343 bound_to 10162
  156.3686  130.3859  149.7193 LP  0  0  0  0  0  0  0  0  0  0  0  0  # atno 17370 bound_to 10713
  156.4615  130.7954  151.2974 LP  0  0  0  0  0  0  0  0  0  0  0  0  # atno 17371 bound_to 10713
  141.1799  133.8436  157.1295 LP  0  0  0  0  0  0  0  0  0  0  0  0  # atno 17394 bound_to 11000
  140.0227  134.9938  157.0623 LP  0  0  0  0  0  0  0  0  0  0  0  0  # atno 17395 bound_to 11000

$$$$
