AV-unprocessed.smi:3133|AV-procd|sdf|11938|dock4
  -GOLD-   2272017323D 1   1.00000     0.00000
 Structure written by MMmdl.
 32 33  0  0  0  0  0  0  0  0  1 V2000
  149.5422  140.8242  155.0846 C   0  0  0  0  0  0  0  0  0  0  0  0
  150.9385  140.7787  155.7386 C   0  0  1  0  0  0  0  0  0  0  0  0
  150.8754  140.9069  157.2670 C   0  0  0  0  0  0  0  0  0  0  0  0
  149.7923  140.8892  157.8526 O   0  0  0  0  0  0  0  0  0  0  0  0
  152.0544  141.0061  157.9010 N   0  0  0  0  0  0  0  0  0  0  0  0
  152.2399  141.0210  159.3475 C   0  0  0  0  0  0  0  0  0  0  0  0
  152.5640  142.4374  159.8508 C   0  0  2  0  0  0  0  0  0  0  0  0
  152.9406  142.5325  161.3292 C   0  0  0  0  0  0  0  0  0  0  0  0
  152.5965  143.9689  161.6881 C   0  0  0  0  0  0  0  0  0  0  0  0
  151.6810  144.4311  160.5495 C   0  0  0  0  0  0  0  0  0  0  0  0
  151.4165  143.2667  159.7785 O   0  0  0  0  0  0  0  0  0  0  0  0
  151.6896  139.5814  155.3790 N   0  0  0  0  0  0  0  0  0  0  0  0
  151.3506  138.2948  155.4879 C   0  0  0  0  0  0  0  0  0  0  0  0
  152.2544  137.4554  155.0025 N   0  0  0  0  0  0  0  0  0  0  0  0
  153.1870  138.3528  154.5656 C   0  0  0  0  0  0  0  0  0  0  0  0
  152.8926  139.6389  154.7539 N   0  0  0  0  0  0  0  0  0  0  0  0
  149.0235  141.7505  155.3338 H   0  0  0  0  0  0  0  0  0  0  0  0
  148.9084  139.9965  155.4059 H   0  0  0  0  0  0  0  0  0  0  0  0
  149.6208  140.7774  153.9981 H   0  0  0  0  0  0  0  0  0  0  0  0
  151.4998  141.6327  155.3558 H   0  0  0  0  0  0  0  0  0  0  0  0
  152.8927  141.0221  157.3386 H   0  0  0  0  0  0  0  0  0  0  0  0
  151.3143  140.6742  159.8076 H   0  0  0  0  0  0  0  0  0  0  0  0
  153.0154  140.3174  159.6555 H   0  0  0  0  0  0  0  0  0  0  0  0
  153.3515  142.8812  159.2383 H   0  0  0  0  0  0  0  0  0  0  0  0
  152.3243  141.8526  161.9188 H   0  0  0  0  0  0  0  0  0  0  0  0
  153.9863  142.2857  161.5166 H   0  0  0  0  0  0  0  0  0  0  0  0
  152.0992  144.0213  162.6572 H   0  0  0  0  0  0  0  0  0  0  0  0
  153.4910  144.5909  161.7351 H   0  0  0  0  0  0  0  0  0  0  0  0
  150.7543  144.8761  160.9123 H   0  0  0  0  0  0  0  0  0  0  0  0
  152.1896  145.1665  159.9246 H   0  0  0  0  0  0  0  0  0  0  0  0
  150.4192  137.9660  155.9247 H   0  0  0  0  0  0  0  0  0  0  0  0
  154.1068  138.0496  154.0874 H   0  0  0  0  0  0  0  0  0  0  0  0
  1  2  1  0  0  0  0
  1 17  1  0  0  0  0
  1 18  1  0  0  0  0
  1 19  1  0  0  0  0
  2  3  1  0  0  0  0
  2 12  1  0  0  0  0
  2 20  1  0  0  0  0
  3  4  2  0  0  0  0
  3  5  1  0  0  0  0
  5  6  1  0  0  0  0
  5 21  1  0  0  0  0
  6  7  1  0  0  0  0
  6 22  1  0  0  0  0
  6 23  1  0  0  0  0
  7 11  1  0  0  0  0
  7  8  1  0  0  0  0
  7 24  1  0  0  0  0
  8  9  1  0  0  0  0
  8 25  1  0  0  0  0
  8 26  1  0  0  0  0
  9 10  1  0  0  0  0
  9 27  1  0  0  0  0
  9 28  1  0  0  0  0
 10 11  1  0  0  0  0
 10 29  1  0  0  0  0
 10 30  1  0  0  0  0
 12 16  1  0  0  0  0
 12 13  1  0  0  0  0
 13 14  2  0  0  0  0
 13 31  1  0  0  0  0
 14 15  1  0  0  0  0
 15 16  2  0  0  0  0
 15 32  1  0  0  0  0
M  END
> <s_m_source_file>
AV-unprocessed.smi

> <i_m_source_file_index>
3133

> <i_lp_mmshare_version>
43012

> <i_f3d_flags>
0

> <s_epik_input>
bjFbY0hdbltjSF1uMVtDQEhdKFtDSDNdKUMoPU8pW05IXVtDSDJdW0NAQEhdMltDSDJdW0NIMl1bQ0gyXU8y

> <s_epik_cmdline>
J2VwaWtfcHl0aG9uJywgJy1waCcsICc3LjAnLCAnLXRuJywgJzgnLCAnLW1hJywgJzIwMCcsICctbWV0YWxfYmluZGluZycsICctaW1hZScsICc8aW5maWxlLm1hZT4nLCAnLW9tYWUnLCAnPG91dGZpbGUubWFlPic=

> <r_lp_tautomer_probability>
1

> <r_epik_Ionization_Penalty>
1.2027e-05

> <r_epik_Ionization_Penalty_Charging>
0

> <r_epik_Ionization_Penalty_Neutral>
1.2027e-05

> <r_epik_State_Penalty>
-0

> <r_epik_Charging_Adjusted_Penalty>
0

> <i_epik_Tot_Q>
0

> <i_epik_Tot_abs_Q>
0

> <r_epik_Metal_State_Penalty>
-0

> <b_epik_Metal_Only>
0

> <s_lp_Force_Field>
OPLS_2005

> <r_lp_Energy>
22.7356

> <b_lp_Chiralities_Consistent>
1

> <s_lp_Variant>
AV-unprocessed.smi:3133-2

> <Gold.Version>
5.8.1

> <Gold.Id.Protein>
6NUR|6NUR_protein|mol2

> <Gold.PLP.Fitness>
42.0017

> <Gold.PLP.PLP>
-37.2734

> <Gold.PLP.part.hbond>
-3.1097

> <Gold.PLP.part.metal>
0.0000

> <Gold.PLP.part.buried>
-4.0004

> <Gold.PLP.part.nonpolar>
-30.4700

> <Gold.PLP.part.repulsive>
0.2208

> <Gold.PLP.ligand.clash>
0.0000

> <Gold.PLP.ligand.torsion>
0.2885

> <Gold.PLP.Chemscore.Hbond>
1.7296

> <Gold.PLP.Chemscore.CHOScore>
0.0000

> <Gold.PLP.Chemscore.Metal>
0.0000

> <Gold.Chemscore.Hbonds>
donor molecule, donor type, donor heavy atom, donor atom, acceptor molecule, acceptor atom, score
      P1  H  7997  8008       L1    16  1.00
      P1  H 10752 10763       L1    14  0.70

> <Gold.PLP.Chemscore.Internal.Correction>
0.1166

> <Gold.Rescore>
     Score         DG    S(hbond)    S(metal)    S(lipo)     H(rot)  DE(clash)    DE(int)     intcor
     10.52     -10.78       0.93        0.00      68.24       2.26       0.11       0.15       ----

> <Gold.Chemscore.Fitness>
10.5189

> <Gold.Chemscore.DG>
-10.7834

> <Gold.Chemscore.ZeroCoef>
-5.4800

> <Gold.Chemscore.Hbond>
0.9263

> <Gold.Chemscore.Metal>
0.0000

> <Gold.Chemscore.Lipo>
68.2419

> <Gold.Chemscore.Internal_Hbond>
0.0000

> <Gold.Chemscore.DEClash>
0.1120

> <Gold.Chemscore.DEInternal>
0.1524

> <Gold.Chemscore.Rot>
2.2558

> <Gold.Chemscore.Internal.Correction>
   9.000000E+99

> <Gold.Chemscore.Hbonds>
donor molecule, donor type, donor heavy atom, donor atom, acceptor molecule, acceptor atom, score
      P1  H  7997  8008       L1    16  0.24
      P1  H 10752 10763       L1    14  0.33

> <Gold.Chemscore.Hbond.Weighted>
-3.0938

> <Gold.Chemscore.Metal.Weighted>
-0.0000

> <Gold.Chemscore.Lipo.Weighted>
-7.9843

> <Gold.Chemscore.Internal_Hbond.Weighted>
0.0000

> <Gold.Chemscore.DEClash.Weighted>
0.1120

> <Gold.Chemscore.DEInternal.Weighted>
0.1524

> <Gold.Chemscore.Rot.Weighted>
5.7747

> <Gold.Chemscore.Internal.Correction.Weighted>
   9.000000E+99

> <Gold.Protein.RotatedTorsions>
[ 6907 6896 6895 6894 ] final -109.31 input  -60.11 | X-H torsion
[ 7974 7965 7964 7962 ] final  -13.39 input  175.53 | X-H torsion
[ 8008 7997 7996 7995 ] final   -8.92 input   59.86 | X-H torsion
[ 10167 10162 10161 10158 ] final  156.58 input  -65.29 | X-H torsion
[ 10718 10713 10712 10709 ] final -168.25 input   66.30 | X-H torsion
[ 10763 10752 10751 10750 ] final   50.69 input  -60.55 | X-H torsion
[ 11005 11000 10999 10996 ] final  121.91 input  -57.11 | X-H torsion

> <Gold.Protein.ActiveResidues>
 VAL166  LYS551  ARG553  GLY616  TRP617  ASP618  TYR619  PRO620  LYS621  CYS622 
 ASP623  PHE694  ASN695  SER759  ASP760  ASP761  ALA762  ILE779  LEU786  VAL792 
 PHE793  MET794  SER795  GLU796  ALA797  LYS798  CYS799  TRP800  GLU811  SER814 

> <Gold.Protein.RotatedAtoms>
  150.7554  133.9548  159.3496 H   0  0  0  0  0  0  0  0  0  0  0  0  # atno 6907 bound_to 6896
  151.7468  135.0840  160.0334 H   0  0  0  0  0  0  0  0  0  0  0  0  # atno 6908 bound_to 6896
  152.3492  133.6122  159.5968 H   0  0  0  0  0  0  0  0  0  0  0  0  # atno 6909 bound_to 6896
  146.2116  140.3196  142.8389 H   0  0  0  0  0  0  0  0  0  0  0  0  # atno 7974 bound_to 7965
  154.5695  140.2368  155.8212 H   0  0  0  0  0  0  0  0  0  0  0  0  # atno 8008 bound_to 7997
  156.2096  140.3030  155.9660 H   0  0  0  0  0  0  0  0  0  0  0  0  # atno 8009 bound_to 7997
  155.2738  140.0419  157.3000 H   0  0  0  0  0  0  0  0  0  0  0  0  # atno 8010 bound_to 7997
  139.4821  144.4996  151.8189 H   0  0  0  0  0  0  0  0  0  0  0  0  # atno 10167 bound_to 10162
  156.6943  130.9171  151.3072 H   0  0  0  0  0  0  0  0  0  0  0  0  # atno 10718 bound_to 10713
  152.9784  135.5871  154.4293 H   0  0  0  0  0  0  0  0  0  0  0  0  # atno 10763 bound_to 10752
  154.3908  135.2768  155.2158 H   0  0  0  0  0  0  0  0  0  0  0  0  # atno 10764 bound_to 10752
  154.4031  135.6099  153.5963 H   0  0  0  0  0  0  0  0  0  0  0  0  # atno 10765 bound_to 10752
  139.9245  134.9640  156.8029 H   0  0  0  0  0  0  0  0  0  0  0  0  # atno 11005 bound_to 11000
  144.8929  140.7547  143.5915 LP  0  0  0  0  0  0  0  0  0  0  0  0  # atno 17320 bound_to 7965
  145.3119  139.1816  143.4634 LP  0  0  0  0  0  0  0  0  0  0  0  0  # atno 17321 bound_to 7965
  140.4487  144.1885  150.5896 LP  0  0  0  0  0  0  0  0  0  0  0  0  # atno 17342 bound_to 10162
  140.4607  143.2450  151.9223 LP  0  0  0  0  0  0  0  0  0  0  0  0  # atno 17343 bound_to 10162
  157.6997  130.9320  150.0749 LP  0  0  0  0  0  0  0  0  0  0  0  0  # atno 17370 bound_to 10713
  156.1775  130.3648  149.9080 LP  0  0  0  0  0  0  0  0  0  0  0  0  # atno 17371 bound_to 10713
  140.6375  133.9849  155.7691 LP  0  0  0  0  0  0  0  0  0  0  0  0  # atno 17394 bound_to 11000
  141.0793  134.0087  157.3410 LP  0  0  0  0  0  0  0  0  0  0  0  0  # atno 17395 bound_to 11000

$$$$
