#       Name:                AV-unprocessed.smi:1782
#       Creating user name   scv26
#       Creation time:       Fri Mar 27 08:43:02 2020


#       File generated by GOLD software.
#

@<TRIPOS>MOLECULE
AV-unprocessed.smi:1782
    46    48     1
SMALL
NO_CHARGES


@<TRIPOS>ATOM
      1 ****        -0.1508   1.5105  -0.9119 O.2            1 S1                 0.0000
      2 ****         0.3752   1.5327   0.2017 C.2            1 S1                 0.0000
      3 ****         1.7755   2.1304   0.4007 C.3            1 S1                 0.0000
      4 ****         2.5774   2.1543  -0.8349 N.am           1 S1                 0.0000
      5 ****         2.6366   3.3738  -1.5328 C.2            1 S1                 0.0000
      6 ****         3.3313   3.5017  -2.6712 C.2            1 S1                 0.0000
      7 ****         4.0286   2.3454  -3.1786 C.2            1 S1                 0.0000
      8 ****         3.9903   1.1587  -2.5295 C.2            1 S1                 0.0000
      9 ****         4.7141  -0.0775  -3.0586 C.3            1 S1                 0.0000
     10 ****         5.6465  -0.4770  -2.1933 F              1 S1                 0.0000
     11 ****         3.8577  -1.0833  -3.2423 F              1 S1                 0.0000
     12 ****         5.3151   0.1625  -4.2250 F              1 S1                 0.0000
     13 ****         3.2214   1.0288  -1.2749 C.2            1 S1                 0.0000
     14 ****         3.1538  -0.0304  -0.6483 O.2            1 S1                 0.0000
     15 ****        -0.2269   1.0599   1.3031 N.am           1 S1                 0.0000
     16 ****        -1.5521   0.4508   1.3271 C.3            1 S1                 0.0000
     17 ****        -2.1050   0.2402   2.7360 C.3            1 S1                 0.0000
     18 ****        -3.0449  -0.9707   2.6010 C.3            1 S1                 0.0000
     19 ****        -2.8176  -1.5453   1.2538 N.4            1 S1                 1.0000
     20 ****        -2.8643  -3.0217   1.2050 C.3            1 S1                 0.0000
     21 ****        -3.3156  -3.5679  -0.1285 C.3            1 S1                 0.0000
     22 ****        -4.2608  -3.5760   1.0538 C.3            1 S1                 0.0000
     23 ****        -1.5594  -0.9657   0.7535 C.3            1 S1                 0.0000
     24 ****         1.6589   3.1370   0.8042 H              1 S1                 0.0000
     25 ****         2.3029   1.5722   1.1767 H              1 S1                 0.0000
     26 ****         2.0808   4.1882  -1.0909 H              1 S1                 0.0000
     27 ****         3.3643   4.4442  -3.1979 H              1 S1                 0.0000
     28 ****         4.5856   2.4457  -4.0981 H              1 S1                 0.0000
     29 ****         0.2690   1.1225   2.1808 H              1 S1                 0.0000
     30 ****        -2.2534   1.0719   0.7655 H              1 S1                 0.0000
     31 ****        -1.2982  -0.0021   3.4297 H              1 S1                 0.0000
     32 ****        -2.6151   1.1254   3.1175 H              1 S1                 0.0000
     33 ****        -2.8357  -1.6990   3.3862 H              1 S1                 0.0000
     34 ****        -4.0911  -0.6772   2.6918 H              1 S1                 0.0000
     35 ****        -2.1201  -3.5516   1.7970 H              1 S1                 0.0000
     36 ****        -3.5213  -2.8627  -0.9319 H              1 S1                 0.0000
     37 ****        -2.9048  -4.5247  -0.4443 H              1 S1                 0.0000
     38 ****        -4.4721  -4.5384   1.5154 H              1 S1                 0.0000
     39 ****        -5.0944  -2.8760   1.0361 H              1 S1                 0.0000
     40 ****        -1.5194  -0.9803  -0.3363 H              1 S1                 0.0000
     41 ****        -0.7106  -1.5374   1.1345 H              1 S1                 0.0000
     42 ****        -3.5531  -1.1906   0.6591 H              1 S1                 0.0000
     43 ****         0.3348   1.8850  -1.7018 LP             1 S1                 0.0000
     44 ****        -1.0634   1.1179  -1.0261 LP             1 S1                 0.0000
     45 ****         2.6218  -0.0782   0.1971 LP             1 S1                 0.0000
     46 ****         3.6310  -0.8421  -0.9853 LP             1 S1                 0.0000
@<TRIPOS>BOND
    1    1    2 2     
    2    2    3 1     
    3    2   15 am    
    4    3    4 1     
    5    3   24 1     
    6    3   25 1     
    7    4   13 am    
    8    4    5 1     
    9    5    6 2     
   10    5   26 1     
   11    6    7 1     
   12    6   27 1     
   13    7    8 2     
   14    7   28 1     
   15    8    9 1     
   16    8   13 1     
   17    9   10 1     
   18    9   11 1     
   19    9   12 1     
   20   13   14 2     
   21   15   16 1     
   22   15   29 1     
   23   16   23 1     
   24   16   17 1     
   25   16   30 1     
   26   17   18 1     
   27   17   31 1     
   28   17   32 1     
   29   18   19 1     
   30   18   33 1     
   31   18   34 1     
   32   19   20 1     
   33   19   23 1     
   34   19   42 1     
   35   20   22 1     
   36   20   21 1     
   37   20   35 1     
   38   21   22 1     
   39   21   36 1     
   40   21   37 1     
   41   22   38 1     
   42   22   39 1     
   43   23   40 1     
   44   23   41 1     
   45    1   43 1     
   46    1   44 1     
   47   14   45 1     
   48   14   46 1     
@<TRIPOS>SUBSTRUCTURE
      1 S1             1
@<TRIPOS>SET
LONE_PAIRS      STATIC     ATOMS    <user>   **** ""
4 43 44 45 46
DONOR_HYDROGENS      STATIC     ATOMS    <user>   **** ""
2 29 42
ATOM$BLUE        STATIC     ATOMS    COLORGROUP SYSTEM
4 43 44 45 46
ATOM$RED        STATIC     ATOMS    COLORGROUP SYSTEM
2 29 42
