AV-unprocessed.smi:752|AV-procd|sdf|3596|dock1
  -GOLD-   22720 0593D 1   1.00000     0.00000
 Structure written by MMmdl.
 41 42  0  0  0  0  0  0  0  0  1 V2000
  144.8009  143.7149  156.1003 C   0  0  0  0  0  0  0  0  0  0  0  0
  145.7095  142.6226  156.6738 C   0  0  0  0  0  0  0  0  0  0  0  0
  146.5255  141.9458  155.6241 C   0  0  0  0  0  0  0  0  0  0  0  0
  147.3770  140.9501  155.8824 N   0  0  0  0  0  0  0  0  0  0  0  0
  148.0439  140.4992  154.7385 C   0  0  0  0  0  0  0  0  0  0  0  0
  149.0321  139.3728  154.8437 C   0  0  0  0  0  0  0  0  0  0  0  0
  150.2841  139.8085  155.6120 C   0  0  0  0  0  0  0  0  0  0  0  0
  151.0148  140.6934  155.1647 O   0  0  0  0  0  0  0  0  0  0  0  0
  150.5269  139.1652  156.7650 N   0  0  0  0  0  0  0  0  0  0  0  0
  151.6563  139.4138  157.6568 C   0  0  0  0  0  0  0  0  0  0  0  0
  151.4653  140.6822  158.5159 C   0  0  1  0  0  0  0  0  0  0  0  0
  152.6313  140.9247  159.5016 C   0  0  0  0  0  0  0  0  0  0  0  0
  152.4333  142.2095  160.3224 C   0  0  0  0  0  0  0  0  0  0  0  0
  152.2316  143.4297  159.4125 C   0  0  0  0  0  0  0  0  0  0  0  0
  151.0601  143.2002  158.4443 C   0  0  1  0  0  0  0  0  0  0  0  0
  150.9410  144.3081  157.5771 O   0  0  0  0  0  0  0  0  0  0  0  0
  151.2684  141.9200  157.6163 C   0  0  0  0  0  0  0  0  0  0  0  0
  147.6988  141.1926  153.6043 C   0  0  0  0  0  0  0  0  0  0  0  0
  146.5137  142.4268  153.9317 S   0  0  0  0  0  0  0  0  0  0  0  0
  144.2153  144.1867  156.8894 H   0  0  0  0  0  0  0  0  0  0  0  0
  144.1049  143.3029  155.3689 H   0  0  0  0  0  0  0  0  0  0  0  0
  145.3842  144.4934  155.6077 H   0  0  0  0  0  0  0  0  0  0  0  0
  146.3799  143.0500  157.4204 H   0  0  0  0  0  0  0  0  0  0  0  0
  145.1090  141.8713  157.1873 H   0  0  0  0  0  0  0  0  0  0  0  0
  148.5712  138.5152  155.3359 H   0  0  0  0  0  0  0  0  0  0  0  0
  149.3390  139.0306  153.8546 H   0  0  0  0  0  0  0  0  0  0  0  0
  149.8748  138.4489  157.0505 H   0  0  0  0  0  0  0  0  0  0  0  0
  151.8524  138.5489  158.2929 H   0  0  0  0  0  0  0  0  0  0  0  0
  152.5399  139.5296  157.0285 H   0  0  0  0  0  0  0  0  0  0  0  0
  150.5539  140.5521  159.1018 H   0  0  0  0  0  0  0  0  0  0  0  0
  152.7306  140.0851  160.1890 H   0  0  0  0  0  0  0  0  0  0  0  0
  153.5712  140.9847  158.9511 H   0  0  0  0  0  0  0  0  0  0  0  0
  151.5682  142.0945  160.9767 H   0  0  0  0  0  0  0  0  0  0  0  0
  153.2935  142.3700  160.9729 H   0  0  0  0  0  0  0  0  0  0  0  0
  152.0507  144.3177  160.0194 H   0  0  0  0  0  0  0  0  0  0  0  0
  153.1480  143.6177  158.8508 H   0  0  0  0  0  0  0  0  0  0  0  0
  150.1321  143.1171  159.0116 H   0  0  0  0  0  0  0  0  0  0  0  0
  150.2311  144.1440  156.9751 H   0  0  0  0  0  0  0  0  0  0  0  0
  152.1365  142.0394  156.9660 H   0  0  0  0  0  0  0  0  0  0  0  0
  150.4106  141.7670  156.9599 H   0  0  0  0  0  0  0  0  0  0  0  0
  148.0674  141.0508  152.5993 H   0  0  0  0  0  0  0  0  0  0  0  0
  1  2  1  0  0  0  0
  1 20  1  0  0  0  0
  1 21  1  0  0  0  0
  1 22  1  0  0  0  0
  2  3  1  0  0  0  0
  2 23  1  0  0  0  0
  2 24  1  0  0  0  0
  3 19  1  0  0  0  0
  3  4  2  0  0  0  0
  4  5  1  0  0  0  0
  5  6  1  0  0  0  0
  5 18  2  0  0  0  0
  6  7  1  0  0  0  0
  6 25  1  0  0  0  0
  6 26  1  0  0  0  0
  7  8  2  0  0  0  0
  7  9  1  0  0  0  0
  9 10  1  0  0  0  0
  9 27  1  0  0  0  0
 10 11  1  0  0  0  0
 10 28  1  0  0  0  0
 10 29  1  0  0  0  0
 11 17  1  0  0  0  0
 11 12  1  0  0  0  0
 11 30  1  0  0  0  0
 12 13  1  0  0  0  0
 12 31  1  0  0  0  0
 12 32  1  0  0  0  0
 13 14  1  0  0  0  0
 13 33  1  0  0  0  0
 13 34  1  0  0  0  0
 14 15  1  0  0  0  0
 14 35  1  0  0  0  0
 14 36  1  0  0  0  0
 15 16  1  0  0  0  0
 15 17  1  0  0  0  0
 15 37  1  0  0  0  0
 16 38  1  0  0  0  0
 17 39  1  0  0  0  0
 17 40  1  0  0  0  0
 18 19  1  0  0  0  0
 18 41  1  0  0  0  0
M  END
> <s_m_source_file>
AV-unprocessed.smi

> <i_m_source_file_index>
752

> <i_lp_mmshare_version>
43012

> <i_f3d_flags>
0

> <s_epik_input>
W0NIM11bQ0gyXWMxbmMoW2NIXXMxKVtDSDJdQyg9TylbTkhdW0NIMl1bQ0BASF0yW0NIMl1bQ0gyXVtDSDJdW0NAQEhdKFtPSF0pW0NIMl0y

> <s_epik_cmdline>
J2VwaWtfcHl0aG9uJywgJy1waCcsICc3LjAnLCAnLXRuJywgJzgnLCAnLW1hJywgJzIwMCcsICctbWV0YWxfYmluZGluZycsICctaW1hZScsICc8aW5maWxlLm1hZT4nLCAnLW9tYWUnLCAnPG91dGZpbGUubWFlPic=

> <r_lp_tautomer_probability>
1

> <r_epik_Ionization_Penalty>
5.44903e-05

> <r_epik_Ionization_Penalty_Charging>
0

> <r_epik_Ionization_Penalty_Neutral>
5.44903e-05

> <r_epik_State_Penalty>
-0

> <r_epik_Charging_Adjusted_Penalty>
0

> <i_epik_Tot_Q>
0

> <i_epik_Tot_abs_Q>
0

> <r_epik_Metal_State_Penalty>
-0

> <b_epik_Metal_Only>
0

> <s_lp_Force_Field>
OPLS_2005

> <r_lp_Energy>
4.53549

> <b_lp_Chiralities_Consistent>
1

> <s_lp_Variant>
AV-unprocessed.smi:752-2

> <Gold.Version>
5.8.1

> <Gold.Id.Protein>
6NUR|6NUR_protein|mol2

> <Gold.PLP.Fitness>
43.7135

> <Gold.PLP.PLP>
-35.1987

> <Gold.PLP.part.hbond>
-2.0000

> <Gold.PLP.part.metal>
0.0000

> <Gold.PLP.part.buried>
-4.9570

> <Gold.PLP.part.nonpolar>
-27.7846

> <Gold.PLP.part.repulsive>
0.1245

> <Gold.PLP.ligand.clash>
0.0000

> <Gold.PLP.ligand.torsion>
0.2192

> <Gold.PLP.Chemscore.Hbond>
1.9600

> <Gold.PLP.Chemscore.CHOScore>
1.0000

> <Gold.PLP.Chemscore.Metal>
0.0000

> <Gold.Chemscore.Hbonds>
donor molecule, donor type, donor heavy atom, donor atom, acceptor molecule, acceptor atom, score
      L1  H    16    38       P1  8028  1.00
      P1  H  7989  7998       L1     8  0.88
      L1  C    18    41       P1  7957  1.00

> <Gold.PLP.Chemscore.Internal.Correction>
0.0732

> <Gold.Rescore>
     Score         DG    S(hbond)    S(metal)    S(lipo)     H(rot)  DE(clash)    DE(int)     intcor
     16.43     -17.97       1.94        0.00      97.02       2.08       0.03       1.51       ----

> <Gold.Chemscore.Fitness>
16.4319

> <Gold.Chemscore.DG>
-17.9696

> <Gold.Chemscore.ZeroCoef>
-5.4800

> <Gold.Chemscore.Hbond>
1.9380

> <Gold.Chemscore.Metal>
0.0000

> <Gold.Chemscore.Lipo>
97.0232

> <Gold.Chemscore.Internal_Hbond>
0.0000

> <Gold.Chemscore.DEClash>
0.0294

> <Gold.Chemscore.DEInternal>
1.5084

> <Gold.Chemscore.Rot>
2.0840

> <Gold.Chemscore.Internal.Correction>
   9.000000E+99

> <Gold.Chemscore.Hbonds>
donor molecule, donor type, donor heavy atom, donor atom, acceptor molecule, acceptor atom, score
      L1  H    16    38       P1  8028  0.89
      P1  H  7989  7998       L1     8  0.86

> <Gold.Chemscore.Hbond.Weighted>
-6.4729

> <Gold.Chemscore.Metal.Weighted>
-0.0000

> <Gold.Chemscore.Lipo.Weighted>
-11.3517

> <Gold.Chemscore.Internal_Hbond.Weighted>
0.0000

> <Gold.Chemscore.DEClash.Weighted>
0.0294

> <Gold.Chemscore.DEInternal.Weighted>
1.5084

> <Gold.Chemscore.Rot.Weighted>
5.3350

> <Gold.Chemscore.Internal.Correction.Weighted>
   9.000000E+99

> <Gold.Protein.RotatedTorsions>
[ 6907 6896 6895 6894 ] final -169.65 input  -60.11 | X-H torsion
[ 7974 7965 7964 7962 ] final   55.01 input  175.53 | X-H torsion
[ 8008 7997 7996 7995 ] final -149.68 input   59.86 | X-H torsion
[ 10167 10162 10161 10158 ] final -155.79 input  -65.29 | X-H torsion
[ 10718 10713 10712 10709 ] final -160.51 input   66.30 | X-H torsion
[ 10763 10752 10751 10750 ] final   30.85 input  -60.55 | X-H torsion
[ 11005 11000 10999 10996 ] final  -47.77 input  -57.11 | X-H torsion

> <Gold.Protein.ActiveResidues>
 VAL166  LYS551  ARG553  GLY616  TRP617  ASP618  TYR619  PRO620  LYS621  CYS622 
 ASP623  PHE694  ASN695  SER759  ASP760  ASP761  ALA762  ILE779  LEU786  VAL792 
 PHE793  MET794  SER795  GLU796  ALA797  LYS798  CYS799  TRP800  GLU811  SER814 

> <Gold.Protein.RotatedAtoms>
  151.4951  133.3516  159.2859 H   0  0  0  0  0  0  0  0  0  0  0  0  # atno 6907 bound_to 6896
  150.8809  134.8202  159.7235 H   0  0  0  0  0  0  0  0  0  0  0  0  # atno 6908 bound_to 6896
  152.4762  134.4848  159.9729 H   0  0  0  0  0  0  0  0  0  0  0  0  # atno 6909 bound_to 6896
  145.9549  139.4006  143.0283 H   0  0  0  0  0  0  0  0  0  0  0  0  # atno 7974 bound_to 7965
  155.6115  140.0672  157.2704 H   0  0  0  0  0  0  0  0  0  0  0  0  # atno 8008 bound_to 7997
  154.4252  140.1800  156.1325 H   0  0  0  0  0  0  0  0  0  0  0  0  # atno 8009 bound_to 7997
  156.0081  140.3329  155.6916 H   0  0  0  0  0  0  0  0  0  0  0  0  # atno 8010 bound_to 7997
  139.6902  143.9433  152.2381 H   0  0  0  0  0  0  0  0  0  0  0  0  # atno 10167 bound_to 10162
  156.5831  130.8738  151.2870 H   0  0  0  0  0  0  0  0  0  0  0  0  # atno 10718 bound_to 10713
  153.0348  135.6454  154.1108 H   0  0  0  0  0  0  0  0  0  0  0  0  # atno 10763 bound_to 10752
  154.0824  135.2872  155.3289 H   0  0  0  0  0  0  0  0  0  0  0  0  # atno 10764 bound_to 10752
  154.6521  135.5422  153.7978 H   0  0  0  0  0  0  0  0  0  0  0  0  # atno 10765 bound_to 10752
  141.0661  133.6693  156.3345 H   0  0  0  0  0  0  0  0  0  0  0  0  # atno 11005 bound_to 11000
  145.8120  140.9721  143.0944 LP  0  0  0  0  0  0  0  0  0  0  0  0  # atno 17320 bound_to 7965
  144.6803  139.9933  143.7484 LP  0  0  0  0  0  0  0  0  0  0  0  0  # atno 17321 bound_to 7965
  139.9247  144.6778  150.8425 LP  0  0  0  0  0  0  0  0  0  0  0  0  # atno 17342 bound_to 10162
  140.7680  143.3350  151.2328 LP  0  0  0  0  0  0  0  0  0  0  0  0  # atno 17343 bound_to 10162
  157.7322  130.9711  150.1915 LP  0  0  0  0  0  0  0  0  0  0  0  0  # atno 17370 bound_to 10713
  156.2614  130.3711  149.8126 LP  0  0  0  0  0  0  0  0  0  0  0  0  # atno 17371 bound_to 10713
  140.5771  134.5783  157.5471 LP  0  0  0  0  0  0  0  0  0  0  0  0  # atno 17394 bound_to 11000
  139.9477  134.7672  156.0521 LP  0  0  0  0  0  0  0  0  0  0  0  0  # atno 17395 bound_to 11000

$$$$
