#       Name:                AV-unprocessed.smi:467
#       Creating user name   scv26
#       Creation time:       Thu Mar 26 23:05:27 2020


#       File generated by GOLD software.
#

@<TRIPOS>MOLECULE
AV-unprocessed.smi:467
    50    52     1
SMALL
NO_CHARGES


@<TRIPOS>ATOM
      1 ****        -3.3889   4.1316   3.4886 C.3            1 S1                 0.0000
      2 ****        -2.9356   3.1217   2.4492 C.ar           1 S1                 0.0000
      3 ****        -3.0725   3.4372   1.0784 C.ar           1 S1                 0.0000
      4 ****        -2.6570   2.5279   0.0809 C.ar           1 S1                 0.0000
      5 ****        -2.6908   2.6305  -1.2995 N.2            1 S1                 0.0000
      6 ****        -2.1639   1.4661  -1.6674 C.2            1 S1                 0.0000
      7 ****        -1.7941   0.6191  -0.6878 N.pl3          1 S1                 0.0000
      8 ****        -1.2008  -0.6967  -0.8491 C.3            1 S1                 0.0000
      9 ****         0.3350  -0.6439  -0.9606 C.3            1 S1                 0.0000
     10 ****         0.8731  -0.1034   0.2304 O.3            1 S1                 0.0000
     11 ****         0.9344  -2.0488  -1.1694 C.3            1 S1                 0.0000
     12 ****         2.3782  -2.0911  -1.4097 N.3            1 S1                 0.0000
     13 ****         2.7584  -1.5123  -2.6975 C.3            1 S1                 0.0000
     14 ****         4.2762  -1.5952  -2.9381 C.3            1 S1                 0.0000
     15 ****         4.7038  -2.9498  -2.8437 O.3            1 S1                 0.0000
     16 ****         4.3936  -3.5356  -1.5838 C.3            1 S1                 0.0000
     17 ****         2.8762  -3.4612  -1.3429 C.3            1 S1                 0.0000
     18 ****        -2.1019   1.2820   0.4955 C.ar           1 S1                 0.0000
     19 ****        -1.9632   0.9557   1.8560 C.ar           1 S1                 0.0000
     20 ****        -2.3773   1.8779   2.8397 C.ar           1 S1                 0.0000
     21 ****        -2.2119   1.5201   4.3060 C.3            1 S1                 0.0000
     22 ****        -3.8425   5.0068   3.0227 H              1 S1                 0.0000
     23 ****        -2.5413   4.4703   4.0848 H              1 S1                 0.0000
     24 ****        -4.1279   3.6894   4.1568 H              1 S1                 0.0000
     25 ****        -3.4959   4.3850   0.7803 H              1 S1                 0.0000
     26 ****        -2.0386   1.2131  -2.7101 H              1 S1                 0.0000
     27 ****        -1.5045  -1.3221  -0.0084 H              1 S1                 0.0000
     28 ****        -1.6258  -1.1531  -1.7442 H              1 S1                 0.0000
     29 ****         0.5956   0.0147  -1.7882 H              1 S1                 0.0000
     30 ****         1.8151  -0.0939   0.1526 H              1 S1                 0.0000
     31 ****         0.7005  -2.6468  -0.2871 H              1 S1                 0.0000
     32 ****         0.4218  -2.5370  -1.9998 H              1 S1                 0.0000
     33 ****         2.2366  -2.0289  -3.5044 H              1 S1                 0.0000
     34 ****         2.4594  -0.4665  -2.7504 H              1 S1                 0.0000
     35 ****         4.5251  -1.2105  -3.9271 H              1 S1                 0.0000
     36 ****         4.8157  -0.9851  -2.2117 H              1 S1                 0.0000
     37 ****         4.7280  -4.5730  -1.5801 H              1 S1                 0.0000
     38 ****         4.9368  -3.0198  -0.7903 H              1 S1                 0.0000
     39 ****         2.6472  -3.8914  -0.3671 H              1 S1                 0.0000
     40 ****         2.3640  -4.0780  -2.0833 H              1 S1                 0.0000
     41 ****        -1.5340   0.0056   2.1382 H              1 S1                 0.0000
     42 ****        -1.7479   0.5407   4.4262 H              1 S1                 0.0000
     43 ****        -3.1804   1.4958   4.8057 H              1 S1                 0.0000
     44 ****        -1.5797   2.2525   4.8086 H              1 S1                 0.0000
     45 ****        -3.0235   3.3818  -1.8694 LP             1 S1                 0.0000
     46 ****         0.6039  -0.6686   1.0102 LP             1 S1                 0.0000
     47 ****         0.5352   0.8286   0.3618 LP             1 S1                 0.0000
     48 ****         2.7925  -1.5375  -0.6873 LP             1 S1                 0.0000
     49 ****         5.6943  -2.9830  -2.9771 LP             1 S1                 0.0000
     50 ****         4.2528  -3.4788  -3.5625 LP             1 S1                 0.0000
@<TRIPOS>BOND
    1    1    2 1     
    2    1   22 1     
    3    1   23 1     
    4    1   24 1     
    5    2   20 ar    
    6    2    3 ar    
    7    3    4 ar    
    8    3   25 1     
    9    4   18 ar    
   10    4    5 1     
   11    5    6 2     
   12    6    7 1     
   13    6   26 1     
   14    7    8 1     
   15    7   18 1     
   16    8    9 1     
   17    8   27 1     
   18    8   28 1     
   19    9   10 1     
   20    9   11 1     
   21    9   29 1     
   22   10   30 1     
   23   11   12 1     
   24   11   31 1     
   25   11   32 1     
   26   12   17 1     
   27   12   13 1     
   28   13   14 1     
   29   13   33 1     
   30   13   34 1     
   31   14   15 1     
   32   14   35 1     
   33   14   36 1     
   34   15   16 1     
   35   16   17 1     
   36   16   37 1     
   37   16   38 1     
   38   17   39 1     
   39   17   40 1     
   40   18   19 ar    
   41   19   20 ar    
   42   19   41 1     
   43   20   21 1     
   44   21   42 1     
   45   21   43 1     
   46   21   44 1     
   47    5   45 1     
   48   10   46 1     
   49   10   47 1     
   50   12   48 1     
   51   15   49 1     
   52   15   50 1     
@<TRIPOS>SUBSTRUCTURE
      1 S1             1
@<TRIPOS>SET
LONE_PAIRS      STATIC     ATOMS    <user>   **** ""
6 45 46 47 48 49 50
DONOR_HYDROGENS      STATIC     ATOMS    <user>   **** ""
1 30
ATOM$BLUE        STATIC     ATOMS    COLORGROUP SYSTEM
6 45 46 47 48 49 50
ATOM$RED        STATIC     ATOMS    COLORGROUP SYSTEM
1 30
