AV-unprocessed.smi:2693|AV-procd|sdf|10397|dock3
  -GOLD-   2272014433D 1   1.00000     0.00000
 Structure written by MMmdl.
 45 47  0  0  0  0  0  0  0  0  1 V2000
  143.6838  132.2508  150.0016 C   0  0  0  0  0  0  0  0  0  0  0  0
  144.6870  132.6514  150.9835 N   0  0  0  0  0  0  0  0  0  0  0  0
  145.6377  131.6370  151.4294 C   0  0  0  0  0  0  0  0  0  0  0  0
  144.7328  133.9567  151.4821 C   0  0  0  0  0  0  0  0  0  0  0  0
  145.8034  134.3023  152.2093 N   0  0  0  0  0  0  0  0  0  0  0  0
  145.8526  135.5621  152.6906 C   0  0  0  0  0  0  0  0  0  0  0  0
  144.8212  136.4927  152.4547 C   0  0  0  0  0  0  0  0  0  0  0  0
  144.9469  137.8080  152.9759 N   0  0  0  0  0  0  0  0  0  0  0  0
  145.8647  138.2789  153.8364 C   0  0  0  0  0  0  0  0  0  0  0  0
  146.8065  137.6350  154.2973 O   0  0  0  0  0  0  0  0  0  0  0  0
  145.6447  139.5692  154.1194 N   0  0  0  0  0  0  0  0  0  0  0  0
  146.4856  140.3815  155.0052 C   0  0  2  0  0  0  0  0  0  0  0  0
  146.0596  141.8512  155.0374 C   0  0  2  0  0  0  0  0  0  0  0  0
  144.8400  142.6150  154.6673 C   0  0  0  0  0  0  0  0  0  0  0  0
  145.5613  143.8190  154.0027 C   0  0  0  0  0  0  0  0  0  0  0  0
  146.9555  143.4345  153.8845 O   0  0  0  0  0  0  0  0  0  0  0  0
  146.9138  142.0239  153.7983 C   0  0  1  0  0  0  0  0  0  0  0  0
  147.8286  140.9151  154.3652 C   0  0  0  0  0  0  0  0  0  0  0  0
  148.9455  141.3503  155.3309 C   0  0  0  0  0  0  0  0  0  0  0  0
  148.5063  140.0221  153.3198 C   0  0  0  0  0  0  0  0  0  0  0  0
  143.7408  136.0269  151.6681 C   0  0  0  0  0  0  0  0  0  0  0  0
  143.7050  134.7646  151.1906 N   0  0  0  0  0  0  0  0  0  0  0  0
  142.6868  132.2943  150.4403 H   0  0  0  0  0  0  0  0  0  0  0  0
  143.8485  131.2347  149.6432 H   0  0  0  0  0  0  0  0  0  0  0  0
  143.7093  132.9133  149.1360 H   0  0  0  0  0  0  0  0  0  0  0  0
  145.6318  131.5582  152.5169 H   0  0  0  0  0  0  0  0  0  0  0  0
  146.6467  131.8966  151.1083 H   0  0  0  0  0  0  0  0  0  0  0  0
  145.3998  130.6521  151.0273 H   0  0  0  0  0  0  0  0  0  0  0  0
  146.7241  135.8266  153.2713 H   0  0  0  0  0  0  0  0  0  0  0  0
  144.2820  138.4802  152.6217 H   0  0  0  0  0  0  0  0  0  0  0  0
  144.8514  140.0259  153.6942 H   0  0  0  0  0  0  0  0  0  0  0  0
  146.6187  139.9587  156.0026 H   0  0  0  0  0  0  0  0  0  0  0  0
  146.5010  142.3143  155.9233 H   0  0  0  0  0  0  0  0  0  0  0  0
  144.2107  142.0730  153.9603 H   0  0  0  0  0  0  0  0  0  0  0  0
  144.2423  142.9071  155.5311 H   0  0  0  0  0  0  0  0  0  0  0  0
  145.1401  144.0284  153.0186 H   0  0  0  0  0  0  0  0  0  0  0  0
  145.4821  144.7245  154.6047 H   0  0  0  0  0  0  0  0  0  0  0  0
  146.4220  141.7152  152.8699 H   0  0  0  0  0  0  0  0  0  0  0  0
  149.7024  141.9434  154.8167 H   0  0  0  0  0  0  0  0  0  0  0  0
  149.4502  140.4866  155.7653 H   0  0  0  0  0  0  0  0  0  0  0  0
  148.5906  141.9530  156.1650 H   0  0  0  0  0  0  0  0  0  0  0  0
  149.3609  140.5195  152.8599 H   0  0  0  0  0  0  0  0  0  0  0  0
  147.8286  139.7525  152.5095 H   0  0  0  0  0  0  0  0  0  0  0  0
  148.8644  139.0925  153.7631 H   0  0  0  0  0  0  0  0  0  0  0  0
  142.9062  136.6514  151.3911 H   0  0  0  0  0  0  0  0  0  0  0  0
  1  2  1  0  0  0  0
  1 23  1  0  0  0  0
  1 24  1  0  0  0  0
  1 25  1  0  0  0  0
  2  3  1  0  0  0  0
  2  4  1  0  0  0  0
  3 26  1  0  0  0  0
  3 27  1  0  0  0  0
  3 28  1  0  0  0  0
  4 22  1  0  0  0  0
  4  5  2  0  0  0  0
  5  6  1  0  0  0  0
  6  7  2  0  0  0  0
  6 29  1  0  0  0  0
  7  8  1  0  0  0  0
  7 21  1  0  0  0  0
  8  9  1  0  0  0  0
  8 30  1  0  0  0  0
  9 10  2  0  0  0  0
  9 11  1  0  0  0  0
 11 12  1  0  0  0  0
 11 31  1  0  0  0  0
 12 18  1  0  0  0  0
 12 13  1  0  0  0  0
 12 32  1  0  0  0  0
 13 17  1  0  0  0  0
 13 14  1  0  0  0  0
 13 33  1  0  0  0  0
 14 15  1  0  0  0  0
 14 34  1  0  0  0  0
 14 35  1  0  0  0  0
 15 16  1  0  0  0  0
 15 36  1  0  0  0  0
 15 37  1  0  0  0  0
 16 17  1  0  0  0  0
 17 18  1  0  0  0  0
 17 38  1  0  0  0  0
 18 19  1  0  0  0  0
 18 20  1  0  0  0  0
 19 39  1  0  0  0  0
 19 40  1  0  0  0  0
 19 41  1  0  0  0  0
 20 42  1  0  0  0  0
 20 43  1  0  0  0  0
 20 44  1  0  0  0  0
 21 22  2  0  0  0  0
 21 45  1  0  0  0  0
M  END
> <s_m_source_file>
AV-unprocessed.smi

> <i_m_source_file_index>
2693

> <i_lp_mmshare_version>
43012

> <i_f3d_flags>
0

> <s_epik_input>
W0NIM11OKFtDSDNdKWMxbltjSF1jKFtjSF1uMSlbTkhdQyg9TylbTkhdW0NASF0yQyhbQ0gzXSkoW0NIM10pW0NAQEhdKFtDQEhdMjMpT1tDSDJdW0NIMl0z

> <s_epik_cmdline>
J2VwaWtfcHl0aG9uJywgJy1waCcsICc3LjAnLCAnLXRuJywgJzgnLCAnLW1hJywgJzIwMCcsICctbWV0YWxfYmluZGluZycsICctaW1hZScsICc8aW5maWxlLm1hZT4nLCAnLW9tYWUnLCAnPG91dGZpbGUubWFlPic=

> <r_lp_tautomer_probability>
1

> <r_epik_Ionization_Penalty>
0.00031779

> <r_epik_Ionization_Penalty_Charging>
0

> <r_epik_Ionization_Penalty_Neutral>
0.00031779

> <r_epik_State_Penalty>
-0

> <r_epik_Charging_Adjusted_Penalty>
0

> <i_epik_Tot_Q>
0

> <i_epik_Tot_abs_Q>
0

> <r_epik_Metal_State_Penalty>
-0

> <b_epik_Metal_Only>
0

> <s_lp_Force_Field>
OPLS_2005

> <r_lp_Energy>
57.3168

> <b_lp_Chiralities_Consistent>
1

> <s_lp_Variant>
AV-unprocessed.smi:2693-1

> <Gold.Version>
5.8.1

> <Gold.Id.Protein>
6NUR|6NUR_protein|mol2

> <Gold.PLP.Fitness>
38.0062

> <Gold.PLP.PLP>
-27.9688

> <Gold.PLP.part.hbond>
-3.0000

> <Gold.PLP.part.metal>
0.0000

> <Gold.PLP.part.buried>
3.7257

> <Gold.PLP.part.nonpolar>
-29.2112

> <Gold.PLP.part.repulsive>
2.3483

> <Gold.PLP.ligand.clash>
0.0000

> <Gold.PLP.ligand.torsion>
0.2104

> <Gold.PLP.Chemscore.Hbond>
2.2007

> <Gold.PLP.Chemscore.CHOScore>
1.1976

> <Gold.PLP.Chemscore.Metal>
0.0000

> <Gold.Chemscore.Hbonds>
donor molecule, donor type, donor heavy atom, donor atom, acceptor molecule, acceptor atom, score
      L1  H     8    30       P1 10175  0.92
      L1  H    11    31       P1 10175  1.00
      P1  H  8022  8030       L1    16  0.28
      L1  C     6    29       P1  7948  0.47
      L1  C    21    45       P1 10171  0.39

> <Gold.PLP.Chemscore.Internal.Correction>
0.2633

> <Gold.Rescore>
     Score         DG    S(hbond)    S(metal)    S(lipo)     H(rot)  DE(clash)    DE(int)     intcor
     14.72     -19.28       2.15        0.00      78.47       1.00       2.99       1.58       ----

> <Gold.Chemscore.Fitness>
14.7153

> <Gold.Chemscore.DG>
-19.2756

> <Gold.Chemscore.ZeroCoef>
-5.4800

> <Gold.Chemscore.Hbond>
2.1480

> <Gold.Chemscore.Metal>
0.0000

> <Gold.Chemscore.Lipo>
78.4712

> <Gold.Chemscore.Internal_Hbond>
0.0000

> <Gold.Chemscore.DEClash>
2.9852

> <Gold.Chemscore.DEInternal>
1.5751

> <Gold.Chemscore.Rot>
1.0000

> <Gold.Chemscore.Internal.Correction>
   9.000000E+99

> <Gold.Chemscore.Hbonds>
donor molecule, donor type, donor heavy atom, donor atom, acceptor molecule, acceptor atom, score
      L1  H     8    30       P1 10175  0.84
      L1  H    11    31       P1 10175  1.00
      P1  H  8022  8030       L1    16  0.28

> <Gold.Chemscore.Hbond.Weighted>
-7.1744

> <Gold.Chemscore.Metal.Weighted>
-0.0000

> <Gold.Chemscore.Lipo.Weighted>
-9.1811

> <Gold.Chemscore.Internal_Hbond.Weighted>
0.0000

> <Gold.Chemscore.DEClash.Weighted>
2.9852

> <Gold.Chemscore.DEInternal.Weighted>
1.5751

> <Gold.Chemscore.Rot.Weighted>
2.5600

> <Gold.Chemscore.Internal.Correction.Weighted>
   9.000000E+99

> <Gold.Protein.RotatedTorsions>
[ 6907 6896 6895 6894 ] final   57.38 input  -60.11 | X-H torsion
[ 7974 7965 7964 7962 ] final -117.09 input  175.53 | X-H torsion
[ 8008 7997 7996 7995 ] final  125.81 input   59.86 | X-H torsion
[ 10167 10162 10161 10158 ] final  -16.63 input  -65.29 | X-H torsion
[ 10718 10713 10712 10709 ] final -110.22 input   66.30 | X-H torsion
[ 10763 10752 10751 10750 ] final   87.00 input  -60.55 | X-H torsion
[ 11005 11000 10999 10996 ] final  -61.47 input  -57.11 | X-H torsion

> <Gold.Protein.ActiveResidues>
 VAL166  LYS551  ARG553  GLY616  TRP617  ASP618  TYR619  PRO620  LYS621  CYS622 
 ASP623  PHE694  ASN695  SER759  ASP760  ASP761  ALA762  ILE779  LEU786  VAL792 
 PHE793  MET794  SER795  GLU796  ALA797  LYS798  CYS799  TRP800  GLU811  SER814 

> <Gold.Protein.RotatedAtoms>
  152.3726  134.6711  160.0170 H   0  0  0  0  0  0  0  0  0  0  0  0  # atno 6907 bound_to 6896
  151.7000  133.3305  159.3272 H   0  0  0  0  0  0  0  0  0  0  0  0  # atno 6908 bound_to 6896
  150.7685  134.6559  159.6358 H   0  0  0  0  0  0  0  0  0  0  0  0  # atno 6909 bound_to 6896
  145.0892  140.8478  143.3993 H   0  0  0  0  0  0  0  0  0  0  0  0  # atno 7974 bound_to 7965
  156.2845  140.2707  156.2009 H   0  0  0  0  0  0  0  0  0  0  0  0  # atno 8008 bound_to 7997
  155.0362  140.0386  157.2510 H   0  0  0  0  0  0  0  0  0  0  0  0  # atno 8009 bound_to 7997
  154.7313  140.2707  155.6459 H   0  0  0  0  0  0  0  0  0  0  0  0  # atno 8010 bound_to 7997
  140.7236  143.5096  150.9766 H   0  0  0  0  0  0  0  0  0  0  0  0  # atno 10167 bound_to 10162
  156.0579  130.5804  150.8208 H   0  0  0  0  0  0  0  0  0  0  0  0  # atno 10718 bound_to 10713
  153.1625  135.4559  154.9792 H   0  0  0  0  0  0  0  0  0  0  0  0  # atno 10763 bound_to 10752
  154.7908  135.3220  154.7783 H   0  0  0  0  0  0  0  0  0  0  0  0  # atno 10764 bound_to 10752
  153.8271  135.6942  153.4874 H   0  0  0  0  0  0  0  0  0  0  0  0  # atno 10765 bound_to 10752
  141.1325  133.6630  156.5380 H   0  0  0  0  0  0  0  0  0  0  0  0  # atno 11005 bound_to 11000
  145.1086  139.2772  143.5649 LP  0  0  0  0  0  0  0  0  0  0  0  0  # atno 17320 bound_to 7965
  146.3531  140.0675  142.8625 LP  0  0  0  0  0  0  0  0  0  0  0  0  # atno 17321 bound_to 7965
  139.8809  143.7073  152.3157 LP  0  0  0  0  0  0  0  0  0  0  0  0  # atno 17342 bound_to 10162
  139.7355  144.7572  151.0735 LP  0  0  0  0  0  0  0  0  0  0  0  0  # atno 17343 bound_to 10162
  157.5564  131.0945  150.9622 LP  0  0  0  0  0  0  0  0  0  0  0  0  # atno 17370 bound_to 10713
  156.9870  130.5548  149.5300 LP  0  0  0  0  0  0  0  0  0  0  0  0  # atno 17371 bound_to 10713
  140.4162  134.7228  157.4864 LP  0  0  0  0  0  0  0  0  0  0  0  0  # atno 17394 bound_to 11000
  140.0392  134.6293  155.9003 LP  0  0  0  0  0  0  0  0  0  0  0  0  # atno 17395 bound_to 11000

$$$$
