#       Name:                AV-unprocessed.smi:527
#       Creating user name   scv26
#       Creation time:       Thu Mar 26 23:29:36 2020


#       File generated by GOLD software.
#

@<TRIPOS>MOLECULE
AV-unprocessed.smi:527
    47    48     1
SMALL
NO_CHARGES


@<TRIPOS>ATOM
      1 ****        -2.4323  -2.1756  -2.6533 C.3            1 S1                 0.0000
      2 ****        -2.0016  -1.4192  -1.3838 C.3            1 S1                 0.0000
      3 ****        -2.5878  -2.1161  -0.1386 C.3            1 S1                 0.0000
      4 ****        -2.1816  -1.4142   1.1639 C.3            1 S1                 0.0000
      5 ****        -2.5885   0.0657   1.1391 C.3            1 S1                 0.0000
      6 ****        -2.0084   0.7985  -0.0876 C.3            1 S1                 0.0000
      7 ****        -0.5560   0.9416   0.0273 N.am           1 S1                 0.0000
      8 ****         0.0839   1.8767   0.7441 C.2            1 S1                 0.0000
      9 ****        -0.4962   2.7450   1.3996 O.2            1 S1                 0.0000
     10 ****         1.4180   1.7247   0.6467 N.am           1 S1                 0.0000
     11 ****         2.3774   2.4606   1.2457 C.2            1 S1                 0.0000
     12 ****         2.1742   3.4259   1.9842 O.2            1 S1                 0.0000
     13 ****         3.8196   2.0373   0.9537 C.3            1 S1                 0.0000
     14 ****         4.0675   0.6649   1.3584 N.pl3          1 S1                 0.0000
     15 ****         4.1468  -0.4514   0.5349 C.2            1 S1                 0.0000
     16 ****         4.3874  -1.5296   1.3562 C.2            1 S1                 0.0000
     17 ****         4.4606  -1.1032   2.6802 N.2            1 S1                 0.0000
     18 ****         4.2636   0.2065   2.6030 C.2            1 S1                 0.0000
     19 ****        -2.3963   0.0844  -1.4091 C.3            1 S1                 0.0000
     20 ****        -1.8364   0.8348  -2.6347 C.3            1 S1                 0.0000
     21 ****        -3.5066  -2.0920  -2.8198 H              1 S1                 0.0000
     22 ****        -2.1914  -3.2363  -2.5765 H              1 S1                 0.0000
     23 ****        -1.9238  -1.8005  -3.5411 H              1 S1                 0.0000
     24 ****        -0.9147  -1.4871  -1.3207 H              1 S1                 0.0000
     25 ****        -3.6761  -2.1409  -0.2101 H              1 S1                 0.0000
     26 ****        -2.2597  -3.1556  -0.1040 H              1 S1                 0.0000
     27 ****        -2.6492  -1.9119   2.0139 H              1 S1                 0.0000
     28 ****        -1.1044  -1.5026   1.3104 H              1 S1                 0.0000
     29 ****        -3.6767   0.1361   1.1159 H              1 S1                 0.0000
     30 ****        -2.2754   0.5545   2.0625 H              1 S1                 0.0000
     31 ****        -2.4420   1.8000  -0.1145 H              1 S1                 0.0000
     32 ****         0.0014   0.2681  -0.4773 H              1 S1                 0.0000
     33 ****         1.7398   0.9625   0.0689 H              1 S1                 0.0000
     34 ****         4.0233   2.1392  -0.1130 H              1 S1                 0.0000
     35 ****         4.5184   2.6891   1.4801 H              1 S1                 0.0000
     36 ****         4.0271  -0.3890  -0.5368 H              1 S1                 0.0000
     37 ****         4.5123  -2.5709   1.0982 H              1 S1                 0.0000
     38 ****         4.2568   0.8477   3.4725 H              1 S1                 0.0000
     39 ****        -3.4839   0.1328  -1.4837 H              1 S1                 0.0000
     40 ****        -0.7549   0.7229  -2.7168 H              1 S1                 0.0000
     41 ****        -2.0564   1.9009  -2.5741 H              1 S1                 0.0000
     42 ****        -2.2790   0.4741  -3.5626 H              1 S1                 0.0000
     43 ****        -1.4956   2.7760   1.4145 LP             1 S1                 0.0000
     44 ****         0.0327   3.4183   1.9163 LP             1 S1                 0.0000
     45 ****         1.2379   3.7179   2.1792 LP             1 S1                 0.0000
     46 ****         2.9457   3.9174   2.3884 LP             1 S1                 0.0000
     47 ****         4.6236  -1.6553   3.4979 LP             1 S1                 0.0000
@<TRIPOS>BOND
    1    1    2 1     
    2    1   21 1     
    3    1   22 1     
    4    1   23 1     
    5    2   19 1     
    6    2    3 1     
    7    2   24 1     
    8    3    4 1     
    9    3   25 1     
   10    3   26 1     
   11    4    5 1     
   12    4   27 1     
   13    4   28 1     
   14    5    6 1     
   15    5   29 1     
   16    5   30 1     
   17    6    7 1     
   18    6   19 1     
   19    6   31 1     
   20    7    8 1     
   21    7   32 1     
   22    8    9 2     
   23    8   10 1     
   24   10   11 1     
   25   10   33 1     
   26   11   12 2     
   27   11   13 1     
   28   13   14 1     
   29   13   34 1     
   30   13   35 1     
   31   14   18 1     
   32   14   15 1     
   33   15   16 2     
   34   15   36 1     
   35   16   17 1     
   36   16   37 1     
   37   17   18 2     
   38   18   38 1     
   39   19   20 1     
   40   19   39 1     
   41   20   40 1     
   42   20   41 1     
   43   20   42 1     
   44    9   43 1     
   45    9   44 1     
   46   12   45 1     
   47   12   46 1     
   48   17   47 1     
@<TRIPOS>SUBSTRUCTURE
      1 S1             1
@<TRIPOS>SET
LONE_PAIRS      STATIC     ATOMS    <user>   **** ""
5 43 44 45 46 47
DONOR_HYDROGENS      STATIC     ATOMS    <user>   **** ""
2 32 33
ATOM$BLUE        STATIC     ATOMS    COLORGROUP SYSTEM
5 43 44 45 46 47
ATOM$RED        STATIC     ATOMS    COLORGROUP SYSTEM
2 32 33
