AV-unprocessed.smi:1240|AV-procd|sdf|5213|dock2
  -GOLD-   22720 4303D 1   1.00000     0.00000
 Structure written by MMmdl.
 48 50  0  0  0  0  0  0  0  0  4 V2000
  145.4352  138.4214  153.3476 O   0  0  0  0  0  0  0  0  0  0  0  0
  146.4435  138.0143  152.7594 C   0  0  0  0  0  0  0  0  0  0  0  0
  146.5395  136.9572  151.9097 N   0  5  0  0  0  0  0  0  0  0  0  0
  145.5202  135.9201  151.7511 C   0  0  0  0  0  0  0  0  0  0  0  0
  146.1669  134.4896  151.7251 C   0  0  2  0  0  0  0  0  0  0  0  0
  145.1203  133.3365  151.6013 C   0  0  1  0  0  0  0  0  0  0  0  0
  144.0002  133.5403  150.5841 C   0  0  0  0  0  0  0  0  0  0  0  0
  143.4925  132.1205  150.3566 C   0  0  0  0  0  0  0  0  0  0  0  0
  144.6157  131.2706  150.5562 O   0  0  0  0  0  0  0  0  0  0  0  0
  145.7095  132.0257  151.0627 C   0  0  0  0  0  0  0  0  0  0  0  0
  147.1114  134.1765  152.8581 N   0  3  0  0  0  0  0  0  0  0  0  0
  146.5543  134.2735  154.2324 C   0  0  0  0  0  0  0  0  0  0  0  0
  147.7000  134.2872  155.2571 C   0  0  0  0  0  0  0  0  0  0  0  0
  148.5024  133.1225  155.0963 O   0  0  0  0  0  0  0  0  0  0  0  0
  149.1030  133.0551  153.8076 C   0  0  0  0  0  0  0  0  0  0  0  0
  148.0107  132.9961  152.7275 C   0  0  0  0  0  0  0  0  0  0  0  0
  147.6303  138.6167  152.9533 N   0  0  0  0  0  0  0  0  0  0  0  0
  147.9265  139.7766  153.7184 C   0  0  0  0  0  0  0  0  0  0  0  0
  146.9784  140.8233  153.7214 C   0  0  0  0  0  0  0  0  0  0  0  0
  147.2241  141.9801  154.4882 C   0  0  0  0  0  0  0  0  0  0  0  0
  148.3535  142.0729  155.2229 N   0  3  0  0  0  0  0  0  0  0  0  0
  149.2796  141.0907  155.2656 C   0  0  0  0  0  0  0  0  0  0  0  0
  149.0892  139.9108  154.5185 C   0  0  0  0  0  0  0  0  0  0  0  0
  144.7648  135.9501  152.5373 H   0  0  0  0  0  0  0  0  0  0  0  0
  144.9712  136.0753  150.8228 H   0  0  0  0  0  0  0  0  0  0  0  0
  146.7622  134.4327  150.8122 H   0  0  0  0  0  0  0  0  0  0  0  0
  144.6662  133.1250  152.5717 H   0  0  0  0  0  0  0  0  0  0  0  0
  143.2092  134.2055  150.9319 H   0  0  0  0  0  0  0  0  0  0  0  0
  144.4000  133.9463  149.6535 H   0  0  0  0  0  0  0  0  0  0  0  0
  142.7311  131.8658  151.0947 H   0  0  0  0  0  0  0  0  0  0  0  0
  143.0614  131.9874  149.3643 H   0  0  0  0  0  0  0  0  0  0  0  0
  146.3993  132.2220  150.2405 H   0  0  0  0  0  0  0  0  0  0  0  0
  146.2485  131.4634  151.8256 H   0  0  0  0  0  0  0  0  0  0  0  0
  145.9588  135.1809  154.3355 H   0  0  0  0  0  0  0  0  0  0  0  0
  145.8979  133.4289  154.4413 H   0  0  0  0  0  0  0  0  0  0  0  0
  148.3124  135.1835  155.1446 H   0  0  0  0  0  0  0  0  0  0  0  0
  147.2974  134.3018  156.2699 H   0  0  0  0  0  0  0  0  0  0  0  0
  149.7568  133.9149  153.6527 H   0  0  0  0  0  0  0  0  0  0  0  0
  149.7306  132.1653  153.7565 H   0  0  0  0  0  0  0  0  0  0  0  0
  147.4449  132.0701  152.8410 H   0  0  0  0  0  0  0  0  0  0  0  0
  148.4737  132.9751  151.7412 H   0  0  0  0  0  0  0  0  0  0  0  0
  148.4241  138.1553  152.5339 H   0  0  0  0  0  0  0  0  0  0  0  0
  146.0734  140.7449  153.1362 H   0  0  0  0  0  0  0  0  0  0  0  0
  146.5544  142.8260  154.5379 H   0  0  0  0  0  0  0  0  0  0  0  0
  150.1363  141.2726  155.8977 H   0  0  0  0  0  0  0  0  0  0  0  0
  149.8268  139.1249  154.5807 H   0  0  0  0  0  0  0  0  0  0  0  0
  147.7457  134.9606  152.8224 H   0  0  0  0  0  0  0  0  0  0  0  0
  148.5112  142.9175  155.7731 H   0  0  0  0  0  0  0  0  0  0  0  0
  1  2  2  0  0  0  0
  2  3  1  0  0  0  0
  2 17  1  0  0  0  0
  3  4  1  0  0  0  0
  4  5  1  0  0  0  0
  4 24  1  0  0  0  0
  4 25  1  0  0  0  0
  5  6  1  0  0  0  0
  5 11  1  0  0  0  0
  5 26  1  0  0  0  0
  6 10  1  0  0  0  0
  6  7  1  0  0  0  0
  6 27  1  0  0  0  0
  7  8  1  0  0  0  0
  7 28  1  0  0  0  0
  7 29  1  0  0  0  0
  8  9  1  0  0  0  0
  8 30  1  0  0  0  0
  8 31  1  0  0  0  0
  9 10  1  0  0  0  0
 10 32  1  0  0  0  0
 10 33  1  0  0  0  0
 11 16  1  0  0  0  0
 11 12  1  0  0  0  0
 11 47  1  0  0  0  0
 12 13  1  0  0  0  0
 12 34  1  0  0  0  0
 12 35  1  0  0  0  0
 13 14  1  0  0  0  0
 13 36  1  0  0  0  0
 13 37  1  0  0  0  0
 14 15  1  0  0  0  0
 15 16  1  0  0  0  0
 15 38  1  0  0  0  0
 15 39  1  0  0  0  0
 16 40  1  0  0  0  0
 16 41  1  0  0  0  0
 17 18  1  0  0  0  0
 17 42  1  0  0  0  0
 18 23  1  0  0  0  0
 18 19  2  0  0  0  0
 19 20  1  0  0  0  0
 19 43  1  0  0  0  0
 20 21  2  0  0  0  0
 20 44  1  0  0  0  0
 21 22  1  0  0  0  0
 21 48  1  0  0  0  0
 22 23  2  0  0  0  0
 22 45  1  0  0  0  0
 23 46  1  0  0  0  0
M  CHG  1   3  -1
M  CHG  1  11   1
M  CHG  1  21   1
M  END
> <s_m_source_file>
AV-unprocessed.smi

> <i_m_source_file_index>
1240

> <i_lp_mmshare_version>
43012

> <i_f3d_flags>
0

> <s_epik_input>
W2NIXTFbY0hdbltjSF1bY0hdYzFbTkhdQyg9TylbTkhdW0NIMl1bQ0BIXShbQ0BASF0yW0NIMl1bQ0gyXU9bQ0gyXTIpTjNbQ0gyXVtDSDJdT1tDSDJdW0NIMl0z

> <s_epik_cmdline>
J2VwaWtfcHl0aG9uJywgJy1waCcsICc3LjAnLCAnLXRuJywgJzgnLCAnLW1hJywgJzIwMCcsICctbWV0YWxfYmluZGluZycsICctaW1hZScsICc8aW5maWxlLm1hZT4nLCAnLW9tYWUnLCAnPG91dGZpbGUubWFlPic=

> <r_epik_Ionization_Penalty>
8.41087

> <r_epik_Ionization_Penalty_Charging>
8.41087

> <r_epik_Ionization_Penalty_Neutral>
3.12936e-06

> <r_epik_State_Penalty>
8.81894

> <r_epik_Charging_Adjusted_Penalty>
17.2298

> <i_epik_Tot_Q>
1

> <i_epik_Tot_abs_Q>
3

> <r_epik_Metal_State_Penalty>
4.82983

> <b_epik_Metal_Only>
1

> <s_lp_Force_Field>
OPLS_2005

> <r_lp_Energy>
48.3521

> <b_lp_Chiralities_Consistent>
1

> <s_lp_Variant>
AV-unprocessed.smi:1240-19

> <Gold.Version>
5.8.1

> <Gold.Id.Protein>
6NUR|6NUR_protein|mol2

> <Gold.PLP.Fitness>
48.5440

> <Gold.PLP.PLP>
-35.1662

> <Gold.PLP.part.hbond>
-4.4817

> <Gold.PLP.part.metal>
0.0000

> <Gold.PLP.part.buried>
-2.8366

> <Gold.PLP.part.nonpolar>
-35.9837

> <Gold.PLP.part.repulsive>
7.1729

> <Gold.PLP.ligand.clash>
0.0000

> <Gold.PLP.ligand.torsion>
0.7474

> <Gold.PLP.Chemscore.Hbond>
4.7520

> <Gold.PLP.Chemscore.CHOScore>
0.0000

> <Gold.PLP.Chemscore.Metal>
0.0000

> <Gold.Chemscore.Hbonds>
donor molecule, donor type, donor heavy atom, donor atom, acceptor molecule, acceptor atom, score
      L1  H    11    47       P1  7948  2.00
      L1  H    17    42       P1  7948  0.70
      L1  H    21    48       P1  8028  1.73

> <Gold.PLP.Chemscore.Internal.Correction>
0.6165

> <Gold.Rescore>
     Score         DG    S(hbond)    S(metal)    S(lipo)     H(rot)  DE(clash)    DE(int)     intcor
     15.80     -21.45       2.76        0.00      94.88       1.70       3.43       2.23       ----

> <Gold.Chemscore.Fitness>
15.7963

> <Gold.Chemscore.DG>
-21.4470

> <Gold.Chemscore.ZeroCoef>
-5.4800

> <Gold.Chemscore.Hbond>
2.7615

> <Gold.Chemscore.Metal>
0.0000

> <Gold.Chemscore.Lipo>
94.8798

> <Gold.Chemscore.Internal_Hbond>
0.0000

> <Gold.Chemscore.DEClash>
3.4250

> <Gold.Chemscore.DEInternal>
2.2256

> <Gold.Chemscore.Rot>
1.7021

> <Gold.Chemscore.Internal.Correction>
   9.000000E+99

> <Gold.Chemscore.Hbonds>
donor molecule, donor type, donor heavy atom, donor atom, acceptor molecule, acceptor atom, score
      L1  H    11    47       P1  7948  0.92
      L1  H    17    42       P1  7948  0.68
      L1  H    21    48       P1  8028  0.84

> <Gold.Chemscore.Hbond.Weighted>
-9.2235

> <Gold.Chemscore.Metal.Weighted>
-0.0000

> <Gold.Chemscore.Lipo.Weighted>
-11.1009

> <Gold.Chemscore.Internal_Hbond.Weighted>
0.0000

> <Gold.Chemscore.DEClash.Weighted>
3.4250

> <Gold.Chemscore.DEInternal.Weighted>
2.2256

> <Gold.Chemscore.Rot.Weighted>
4.3575

> <Gold.Chemscore.Internal.Correction.Weighted>
   9.000000E+99

> <Gold.Protein.RotatedTorsions>
[ 6907 6896 6895 6894 ] final -129.98 input  -60.11 | X-H torsion
[ 7974 7965 7964 7962 ] final  -98.70 input  175.53 | X-H torsion
[ 8008 7997 7996 7995 ] final  -45.36 input   59.86 | X-H torsion
[ 10167 10162 10161 10158 ] final  -87.40 input  -65.29 | X-H torsion
[ 10718 10713 10712 10709 ] final   28.10 input   66.30 | X-H torsion
[ 10763 10752 10751 10750 ] final   38.34 input  -60.55 | X-H torsion
[ 11005 11000 10999 10996 ] final  122.80 input  -57.11 | X-H torsion

> <Gold.Protein.ActiveResidues>
 VAL166  LYS551  ARG553  GLY616  TRP617  ASP618  TYR619  PRO620  LYS621  CYS622 
 ASP623  PHE694  ASN695  SER759  ASP760  ASP761  ALA762  ILE779  LEU786  VAL792 
 PHE793  MET794  SER795  GLU796  ALA797  LYS798  CYS799  TRP800  GLU811  SER814 

> <Gold.Protein.RotatedAtoms>
  150.9346  133.6727  159.2803 H   0  0  0  0  0  0  0  0  0  0  0  0  # atno 6907 bound_to 6896
  151.4137  135.0987  159.9602 H   0  0  0  0  0  0  0  0  0  0  0  0  # atno 6908 bound_to 6896
  152.5042  133.8813  159.7403 H   0  0  0  0  0  0  0  0  0  0  0  0  # atno 6909 bound_to 6896
  145.3172  140.9413  143.2736 H   0  0  0  0  0  0  0  0  0  0  0  0  # atno 7974 bound_to 7965
  154.4000  140.1399  156.3834 H   0  0  0  0  0  0  0  0  0  0  0  0  # atno 8008 bound_to 7997
  155.7982  140.3476  155.5367 H   0  0  0  0  0  0  0  0  0  0  0  0  # atno 8009 bound_to 7997
  155.8510  140.0941  157.1665 H   0  0  0  0  0  0  0  0  0  0  0  0  # atno 8010 bound_to 7997
  140.3848  143.2732  151.9338 H   0  0  0  0  0  0  0  0  0  0  0  0  # atno 10167 bound_to 10162
  157.2290  130.7015  149.6305 H   0  0  0  0  0  0  0  0  0  0  0  0  # atno 10718 bound_to 10713
  153.0004  135.6252  154.2289 H   0  0  0  0  0  0  0  0  0  0  0  0  # atno 10763 bound_to 10752
  154.2032  135.2803  155.2985 H   0  0  0  0  0  0  0  0  0  0  0  0  # atno 10764 bound_to 10752
  154.5667  135.5689  153.7116 H   0  0  0  0  0  0  0  0  0  0  0  0  # atno 10765 bound_to 10752
  139.9284  134.9641  156.8163 H   0  0  0  0  0  0  0  0  0  0  0  0  # atno 11005 bound_to 11000
  144.8968  139.4701  143.6651 LP  0  0  0  0  0  0  0  0  0  0  0  0  # atno 17320 bound_to 7965
  146.3096  139.7699  142.9030 LP  0  0  0  0  0  0  0  0  0  0  0  0  # atno 17321 bound_to 7965
  139.4793  144.5784  151.7973 LP  0  0  0  0  0  0  0  0  0  0  0  0  # atno 17342 bound_to 10162
  140.4900  144.1324  150.5948 LP  0  0  0  0  0  0  0  0  0  0  0  0  # atno 17343 bound_to 10162
  155.9676  130.4495  150.5660 LP  0  0  0  0  0  0  0  0  0  0  0  0  # atno 17370 bound_to 10713
  157.3498  131.0731  151.1722 LP  0  0  0  0  0  0  0  0  0  0  0  0  # atno 17371 bound_to 10713
  140.6270  133.9940  155.7644 LP  0  0  0  0  0  0  0  0  0  0  0  0  # atno 17394 bound_to 11000
  141.0857  133.9994  157.3317 LP  0  0  0  0  0  0  0  0  0  0  0  0  # atno 17395 bound_to 11000

$$$$
