AV-unprocessed.smi:157|AV-procd|sdf|1318|dock5
  -GOLD-   2262019 13D 1   1.00000     0.00000
 Structure written by MMmdl.
 36 38  0  0  0  0  0  0  0  0  2 V2000
  153.0659  135.4668  157.1592 O   0  0  0  0  0  0  0  0  0  0  0  0
  152.9787  136.8289  157.5199 C   0  0  0  0  0  0  0  0  0  0  0  0
  152.8049  137.7007  156.2670 C   0  0  2  0  0  0  0  0  0  0  0  0
  152.8468  139.0712  156.6594 O   0  0  0  0  0  0  0  0  0  0  0  0
  151.9949  139.7767  155.8228 C   0  0  2  0  0  0  0  0  0  0  0  0
  151.6099  141.0572  156.4861 N   0  0  0  0  0  0  0  0  0  0  0  0
  150.8179  142.0214  155.9716 C   0  0  0  0  0  0  0  0  0  0  0  0
  150.6427  143.0636  156.7667 N   0  3  0  0  0  0  0  0  0  0  0  0
  151.3668  142.8077  157.9122 C   0  0  0  0  0  0  0  0  0  0  0  0
  151.9699  141.5630  157.7133 C   0  0  0  0  0  0  0  0  0  0  0  0
  152.8270  140.8342  158.5519 N   0  0  0  0  0  0  0  0  0  0  0  0
  153.4350  141.3613  159.5643 C   0  0  0  0  0  0  0  0  0  0  0  0
  153.3217  142.6410  160.0815 N   0  0  0  0  0  0  0  0  0  0  0  0
  152.0441  143.2902  160.3166 C   0  0  0  0  0  0  0  0  0  0  0  0
  151.3642  143.7954  159.0371 C   0  0  1  0  0  0  0  0  0  0  0  0
  151.9455  145.0311  158.6751 O   0  0  0  0  0  0  0  0  0  0  0  0
  150.7851  138.8751  155.6398 C   0  0  0  0  0  0  0  0  0  0  0  0
  151.4486  137.5105  155.5491 C   0  0  1  0  0  0  0  0  0  0  0  0
  151.6558  137.1651  154.1939 O   0  0  0  0  0  0  0  0  0  0  0  0
  153.6363  137.5307  155.5798 H   0  0  0  0  0  0  0  0  0  0  0  0
  152.4931  140.0484  154.8906 H   0  0  0  0  0  0  0  0  0  0  0  0
  150.3242  144.0140  159.2812 H   0  0  0  0  0  0  0  0  0  0  0  0
  150.8291  136.7435  156.0152 H   0  0  0  0  0  0  0  0  0  0  0  0
  152.5373  134.9618  157.7584 H   0  0  0  0  0  0  0  0  0  0  0  0
  152.1517  136.9743  158.2157 H   0  0  0  0  0  0  0  0  0  0  0  0
  153.8948  137.1032  158.0437 H   0  0  0  0  0  0  0  0  0  0  0  0
  150.3684  141.9436  154.9977 H   0  0  0  0  0  0  0  0  0  0  0  0
  154.1427  140.7531  160.1298 H   0  0  0  0  0  0  0  0  0  0  0  0
  154.0248  142.9629  160.7314 H   0  0  0  0  0  0  0  0  0  0  0  0
  151.3921  142.5597  160.7981 H   0  0  0  0  0  0  0  0  0  0  0  0
  152.1708  144.1013  161.0345 H   0  0  0  0  0  0  0  0  0  0  0  0
  152.3971  145.3863  159.4251 H   0  0  0  0  0  0  0  0  0  0  0  0
  150.1562  138.9301  156.5298 H   0  0  0  0  0  0  0  0  0  0  0  0
  150.1975  139.1615  154.7663 H   0  0  0  0  0  0  0  0  0  0  0  0
  150.9757  137.5673  153.6748 H   0  0  0  0  0  0  0  0  0  0  0  0
  150.0821  143.8829  156.5695 H   0  0  0  0  0  0  0  0  0  0  0  0
  1  2  1  0  0  0  0
  1 24  1  0  0  0  0
  2  3  1  0  0  0  0
  2 25  1  0  0  0  0
  2 26  1  0  0  0  0
  3 20  1  0  0  0  0
  3 18  1  0  0  0  0
  3  4  1  0  0  0  0
  4  5  1  0  0  0  0
  5 21  1  0  0  0  0
  5  6  1  0  0  0  0
  5 17  1  0  0  0  0
  6 10  1  0  0  0  0
  6  7  1  0  0  0  0
  7  8  2  0  0  0  0
  7 27  1  0  0  0  0
  8  9  1  0  0  0  0
  8 36  1  0  0  0  0
  9 15  1  0  0  0  0
  9 10  2  0  0  0  0
 10 11  1  0  0  0  0
 11 12  2  0  0  0  0
 12 13  1  0  0  0  0
 12 28  1  0  0  0  0
 13 14  1  0  0  0  0
 13 29  1  0  0  0  0
 14 15  1  0  0  0  0
 14 30  1  0  0  0  0
 14 31  1  0  0  0  0
 15 22  1  0  0  0  0
 15 16  1  0  0  0  0
 16 32  1  0  0  0  0
 17 18  1  0  0  0  0
 17 33  1  0  0  0  0
 17 34  1  0  0  0  0
 18 23  1  0  0  0  0
 18 19  1  0  0  0  0
 19 35  1  0  0  0  0
M  CHG  1   8   1
M  END
> <s_m_source_file>
AV-unprocessed.smi

> <i_m_source_file_index>
157

> <i_lp_mmshare_version>
43012

> <i_f3d_flags>
0

> <s_epik_input>
W09IXVtDSDJdW0NASF0xT1tDQEhdKFtDSDJdW0NAQEhdMVtPSF0pbihbY0hdbjIpYyhjMjMpTj1bQ0hdW05IXVtDSDJdW0NASF0zW09IXQ==

> <s_epik_cmdline>
J2VwaWtfcHl0aG9uJywgJy1waCcsICc3LjAnLCAnLXRuJywgJzgnLCAnLW1hJywgJzIwMCcsICctbWV0YWxfYmluZGluZycsICctaW1hZScsICc8aW5maWxlLm1hZT4nLCAnLW9tYWUnLCAnPG91dGZpbGUubWFlPic=

> <r_epik_Ionization_Penalty>
1.68594

> <r_epik_Ionization_Penalty_Charging>
0

> <r_epik_Ionization_Penalty_Neutral>
1.68594

> <r_epik_State_Penalty>
1.79006

> <r_epik_Charging_Adjusted_Penalty>
1.79006

> <i_epik_Tot_Q>
1

> <i_epik_Tot_abs_Q>
1

> <r_epik_Metal_State_Penalty>
5.85324

> <b_epik_Metal_Only>
0

> <s_epik_Chemistry_Notes>
This compound has an imine and may undergo hydrolysis. This compound contains an acetal/aminal-like group ( X-CH(R)-Y where X, Y are N, S, or O) that may be acid/base labile, releasing an aldehyde.

> <s_lp_Force_Field>
OPLS_2005

> <r_lp_Energy>
52.5204

> <b_lp_Chiralities_Consistent>
1

> <s_lp_Variant>
AV-unprocessed.smi:157-28

> <Gold.Version>
5.8.1

> <Gold.Id.Protein>
6NUR|6NUR_protein|mol2

> <Gold.PLP.Fitness>
47.6664

> <Gold.PLP.PLP>
-32.8249

> <Gold.PLP.part.hbond>
-5.3331

> <Gold.PLP.part.metal>
0.0000

> <Gold.PLP.part.buried>
-6.8523

> <Gold.PLP.part.nonpolar>
-19.7655

> <Gold.PLP.part.repulsive>
0.0714

> <Gold.PLP.ligand.clash>
0.0000

> <Gold.PLP.ligand.torsion>
0.0567

> <Gold.PLP.Chemscore.Hbond>
4.9760

> <Gold.PLP.Chemscore.CHOScore>
0.0000

> <Gold.PLP.Chemscore.Metal>
0.0000

> <Gold.Chemscore.Hbonds>
donor molecule, donor type, donor heavy atom, donor atom, acceptor molecule, acceptor atom, score
      L1  H     8    36       P1  8028  2.00
      P1  H  7997  8010       L1     4  1.00
      P1  H 10752 10763       L1     1  0.93
      P1  H 10752 10765       L1    19  1.00

> <Gold.PLP.Chemscore.Internal.Correction>
0.0270

> <Gold.Rescore>
     Score         DG    S(hbond)    S(metal)    S(lipo)     H(rot)  DE(clash)    DE(int)     intcor
     11.15     -12.98       3.28        0.00      50.50       3.67       0.12       1.71       ----

> <Gold.Chemscore.Fitness>
11.1476

> <Gold.Chemscore.DG>
-12.9751

> <Gold.Chemscore.ZeroCoef>
-5.4800

> <Gold.Chemscore.Hbond>
3.2848

> <Gold.Chemscore.Metal>
0.0000

> <Gold.Chemscore.Lipo>
50.5022

> <Gold.Chemscore.Internal_Hbond>
0.0000

> <Gold.Chemscore.DEClash>
0.1165

> <Gold.Chemscore.DEInternal>
1.7110

> <Gold.Chemscore.Rot>
3.6659

> <Gold.Chemscore.Internal.Correction>
   9.000000E+99

> <Gold.Chemscore.Hbonds>
donor molecule, donor type, donor heavy atom, donor atom, acceptor molecule, acceptor atom, score
      L1  H     8    36       P1  8028  0.97
      P1  H  7997  8010       L1     4  0.30
      P1  H 10752 10763       L1     1  0.66
      P1  H 10752 10765       L1    19  0.73

> <Gold.Chemscore.Hbond.Weighted>
-10.9712

> <Gold.Chemscore.Metal.Weighted>
-0.0000

> <Gold.Chemscore.Lipo.Weighted>
-5.9088

> <Gold.Chemscore.Internal_Hbond.Weighted>
0.0000

> <Gold.Chemscore.DEClash.Weighted>
0.1165

> <Gold.Chemscore.DEInternal.Weighted>
1.7110

> <Gold.Chemscore.Rot.Weighted>
9.3848

> <Gold.Chemscore.Internal.Correction.Weighted>
   9.000000E+99

> <Gold.Protein.RotatedTorsions>
[ 6907 6896 6895 6894 ] final  129.07 input  -60.11 | X-H torsion
[ 7974 7965 7964 7962 ] final  -79.17 input  175.53 | X-H torsion
[ 8008 7997 7996 7995 ] final   64.67 input   59.86 | X-H torsion
[ 10167 10162 10161 10158 ] final  141.27 input  -65.29 | X-H torsion
[ 10718 10713 10712 10709 ] final   55.22 input   66.30 | X-H torsion
[ 10763 10752 10751 10750 ] final  145.20 input  -60.55 | X-H torsion
[ 11005 11000 10999 10996 ] final  118.13 input  -57.11 | X-H torsion

> <Gold.Protein.ActiveResidues>
 VAL166  LYS551  ARG553  GLY616  TRP617  ASP618  TYR619  PRO620  LYS621  CYS622 
 ASP623  PHE694  ASN695  SER759  ASP760  ASP761  ALA762  ILE779  LEU786  VAL792 
 PHE793  MET794  SER795  GLU796  ALA797  LYS798  CYS799  TRP800  GLU811  SER814 

> <Gold.Protein.RotatedAtoms>
  152.3659  133.6356  159.6049 H   0  0  0  0  0  0  0  0  0  0  0  0  # atno 6907 bound_to 6896
  150.7633  133.9349  159.3447 H   0  0  0  0  0  0  0  0  0  0  0  0  # atno 6908 bound_to 6896
  151.7180  135.0901  160.0330 H   0  0  0  0  0  0  0  0  0  0  0  0  # atno 6909 bound_to 6896
  145.5768  140.9456  143.1365 H   0  0  0  0  0  0  0  0  0  0  0  0  # atno 7974 bound_to 7965
  155.6496  140.3497  155.4743 H   0  0  0  0  0  0  0  0  0  0  0  0  # atno 8008 bound_to 7997
  155.9858  140.1184  157.0707 H   0  0  0  0  0  0  0  0  0  0  0  0  # atno 8009 bound_to 7997
  154.4204  140.1129  156.5484 H   0  0  0  0  0  0  0  0  0  0  0  0  # atno 8010 bound_to 7997
  139.5025  144.6182  151.6114 H   0  0  0  0  0  0  0  0  0  0  0  0  # atno 10167 bound_to 10162
  157.5326  130.8641  149.8708 H   0  0  0  0  0  0  0  0  0  0  0  0  # atno 10718 bound_to 10713
  154.0014  135.2923  155.3402 H   0  0  0  0  0  0  0  0  0  0  0  0  # atno 10763 bound_to 10752
  154.7157  135.5130  153.8737 H   0  0  0  0  0  0  0  0  0  0  0  0  # atno 10764 bound_to 10752
  153.0764  135.6665  154.0255 H   0  0  0  0  0  0  0  0  0  0  0  0  # atno 10765 bound_to 10752
  139.9098  134.9617  156.7456 H   0  0  0  0  0  0  0  0  0  0  0  0  # atno 11005 bound_to 11000
  144.7412  139.7444  143.7310 LP  0  0  0  0  0  0  0  0  0  0  0  0  # atno 17320 bound_to 7965
  146.1745  139.4909  142.9906 LP  0  0  0  0  0  0  0  0  0  0  0  0  # atno 17321 bound_to 7965
  140.5876  143.9836  150.6305 LP  0  0  0  0  0  0  0  0  0  0  0  0  # atno 17342 bound_to 10162
  140.3006  143.3263  152.0975 LP  0  0  0  0  0  0  0  0  0  0  0  0  # atno 17343 bound_to 10162
  156.0434  130.3733  150.1378 LP  0  0  0  0  0  0  0  0  0  0  0  0  # atno 17370 bound_to 10713
  156.9562  130.9790  151.3488 LP  0  0  0  0  0  0  0  0  0  0  0  0  # atno 17371 bound_to 10713
  140.6814  133.9471  155.7913 LP  0  0  0  0  0  0  0  0  0  0  0  0  # atno 17394 bound_to 11000
  141.0507  134.0489  157.3787 LP  0  0  0  0  0  0  0  0  0  0  0  0  # atno 17395 bound_to 11000

$$$$
