AV-unprocessed.smi:598|AV-procd|sdf|3024|dock10
  -GOLD-   2262023533D 1   1.00000     0.00000
 Structure written by MMmdl.
 43 44  0  0  0  0  0  0  0  0  3 V2000
  145.8037  131.1313  152.7695 C   0  0  0  0  0  0  0  0  0  0  0  0
  146.2018  131.8090  151.4421 C   0  0  1  0  0  0  0  0  0  0  0  0
  145.0408  131.7936  150.4273 C   0  0  0  0  0  0  0  0  0  0  0  0
  143.9292  132.7858  150.8021 C   0  0  0  0  0  0  0  0  0  0  0  0
  144.4874  134.2065  150.9594 C   0  0  0  0  0  0  0  0  0  0  0  0
  145.6453  134.2616  151.9745 C   0  0  2  0  0  0  0  0  0  0  0  0
  146.1644  135.6289  152.0100 N   0  0  0  0  0  0  0  0  0  0  0  0
  145.4391  136.7441  152.1882 C   0  0  0  0  0  0  0  0  0  0  0  0
  144.2221  136.7390  152.3785 O   0  0  0  0  0  0  0  0  0  0  0  0
  146.2252  138.0627  152.1691 C   0  0  0  0  0  0  0  0  0  0  0  0
  146.6504  138.5067  153.5076 N   0  0  0  0  0  0  0  0  0  0  0  0
  148.0196  138.7878  153.6850 C   0  0  0  0  0  0  0  0  0  0  0  0
  148.5192  139.1958  154.8682 C   0  0  0  0  0  0  0  0  0  0  0  0
  149.9281  139.4790  155.0328 N   0  3  0  0  0  0  0  0  0  0  0  0
  150.6839  139.2721  154.0890 O   0  0  0  0  0  0  0  0  0  0  0  0
  150.3261  139.9153  156.1088 O   0  5  0  0  0  0  0  0  0  0  0  0
  147.5952  139.3403  155.9764 C   0  0  0  0  0  0  0  0  0  0  0  0
  146.2849  139.0707  155.8136 C   0  0  0  0  0  0  0  0  0  0  0  0
  145.7434  138.6272  154.5250 C   0  0  0  0  0  0  0  0  0  0  0  0
  144.5475  138.3788  154.3700 O   0  0  0  0  0  0  0  0  0  0  0  0
  146.7620  133.2478  151.6058 C   0  0  1  0  0  0  0  0  0  0  0  0
  147.9700  133.2983  152.5624 C   0  0  0  0  0  0  0  0  0  0  0  0
  145.0458  131.6964  153.3109 H   0  0  0  0  0  0  0  0  0  0  0  0
  146.6612  131.0118  153.4313 H   0  0  0  0  0  0  0  0  0  0  0  0
  145.4018  130.1338  152.5904 H   0  0  0  0  0  0  0  0  0  0  0  0
  146.9975  131.1966  151.0156 H   0  0  0  0  0  0  0  0  0  0  0  0
  145.4255  132.0488  149.4389 H   0  0  0  0  0  0  0  0  0  0  0  0
  144.6283  130.7879  150.3384 H   0  0  0  0  0  0  0  0  0  0  0  0
  143.1533  132.7777  150.0361 H   0  0  0  0  0  0  0  0  0  0  0  0
  143.4458  132.4750  151.7285 H   0  0  0  0  0  0  0  0  0  0  0  0
  144.8316  134.5633  149.9874 H   0  0  0  0  0  0  0  0  0  0  0  0
  143.6876  134.8807  151.2683 H   0  0  0  0  0  0  0  0  0  0  0  0
  145.2417  133.9972  152.9530 H   0  0  0  0  0  0  0  0  0  0  0  0
  147.1591  135.7350  151.8723 H   0  0  0  0  0  0  0  0  0  0  0  0
  147.0885  137.9327  151.5149 H   0  0  0  0  0  0  0  0  0  0  0  0
  145.6214  138.8374  151.6927 H   0  0  0  0  0  0  0  0  0  0  0  0
  148.6250  138.6434  152.8017 H   0  0  0  0  0  0  0  0  0  0  0  0
  147.9467  139.6633  156.9451 H   0  0  0  0  0  0  0  0  0  0  0  0
  145.6145  139.1835  156.6532 H   0  0  0  0  0  0  0  0  0  0  0  0
  147.1428  133.5391  150.6253 H   0  0  0  0  0  0  0  0  0  0  0  0
  147.6667  133.1557  153.5997 H   0  0  0  0  0  0  0  0  0  0  0  0
  148.4864  134.2562  152.5025 H   0  0  0  0  0  0  0  0  0  0  0  0
  148.6995  132.5261  152.3164 H   0  0  0  0  0  0  0  0  0  0  0  0
  1  2  1  0  0  0  0
  1 23  1  0  0  0  0
  1 24  1  0  0  0  0
  1 25  1  0  0  0  0
  2 21  1  0  0  0  0
  2  3  1  0  0  0  0
  2 26  1  0  0  0  0
  3  4  1  0  0  0  0
  3 27  1  0  0  0  0
  3 28  1  0  0  0  0
  4  5  1  0  0  0  0
  4 29  1  0  0  0  0
  4 30  1  0  0  0  0
  5  6  1  0  0  0  0
  5 31  1  0  0  0  0
  5 32  1  0  0  0  0
  6  7  1  0  0  0  0
  6 21  1  0  0  0  0
  6 33  1  0  0  0  0
  7  8  1  0  0  0  0
  7 34  1  0  0  0  0
  8  9  2  0  0  0  0
  8 10  1  0  0  0  0
 10 11  1  0  0  0  0
 10 35  1  0  0  0  0
 10 36  1  0  0  0  0
 11 19  1  0  0  0  0
 11 12  1  0  0  0  0
 12 13  2  0  0  0  0
 12 37  1  0  0  0  0
 13 14  1  0  0  0  0
 13 17  1  0  0  0  0
 14 15  2  0  0  0  0
 14 16  1  0  0  0  0
 17 18  2  0  0  0  0
 17 38  1  0  0  0  0
 18 19  1  0  0  0  0
 18 39  1  0  0  0  0
 19 20  2  0  0  0  0
 21 22  1  0  0  0  0
 21 40  1  0  0  0  0
 22 41  1  0  0  0  0
 22 42  1  0  0  0  0
 22 43  1  0  0  0  0
M  CHG  1  14   1
M  CHG  1  16  -1
M  END
> <s_m_source_file>
AV-unprocessed.smi

> <i_m_source_file_index>
598

> <i_lp_mmshare_version>
43012

> <i_f3d_flags>
0

> <s_epik_input>
W0NIM11bQ0BASF0xW0NIMl1bQ0gyXVtDSDJdW0NASF0oW0NASF0xW0NIM10pW05IXUMoPU8pW0NIMl1uMltjSF1jKFtOK10oPU8pW08tXSlbY0hdW2NIXWMyPU8=

> <s_epik_cmdline>
J2VwaWtfcHl0aG9uJywgJy1waCcsICc3LjAnLCAnLXRuJywgJzgnLCAnLW1hJywgJzIwMCcsICctbWV0YWxfYmluZGluZycsICctaW1hZScsICc8aW5maWxlLm1hZT4nLCAnLW9tYWUnLCAnPG91dGZpbGUubWFlPic=

> <r_lp_tautomer_probability>
1

> <r_epik_Ionization_Penalty>
1.91291e-08

> <r_epik_Ionization_Penalty_Charging>
8.21931e-11

> <r_epik_Ionization_Penalty_Neutral>
1.90469e-08

> <r_epik_State_Penalty>
-0

> <r_epik_Charging_Adjusted_Penalty>
8.21931e-11

> <i_epik_Tot_Q>
0

> <i_epik_Tot_abs_Q>
2

> <r_epik_Metal_State_Penalty>
-0

> <b_epik_Metal_Only>
0

> <s_lp_Force_Field>
OPLS_2005

> <r_lp_Energy>
25.417

> <b_lp_Chiralities_Consistent>
1

> <s_lp_Variant>
AV-unprocessed.smi:598-4

> <Gold.Version>
5.8.1

> <Gold.Id.Protein>
6NUR|6NUR_protein|mol2

> <Gold.PLP.Fitness>
40.4095

> <Gold.PLP.PLP>
-30.1840

> <Gold.PLP.part.hbond>
-2.0000

> <Gold.PLP.part.metal>
0.0000

> <Gold.PLP.part.buried>
-3.0028

> <Gold.PLP.part.nonpolar>
-26.6152

> <Gold.PLP.part.repulsive>
1.4663

> <Gold.PLP.ligand.clash>
0.0000

> <Gold.PLP.ligand.torsion>
0.4610

> <Gold.PLP.Chemscore.Hbond>
2.0000

> <Gold.PLP.Chemscore.CHOScore>
1.7129

> <Gold.PLP.Chemscore.Metal>
0.0000

> <Gold.Chemscore.Hbonds>
donor molecule, donor type, donor heavy atom, donor atom, acceptor molecule, acceptor atom, score
      L1  H     7    34       P1  7948  1.00
      P1  H  7989  7998       L1    15  1.00
      L1  C    12    37       P1  7948  0.71
      L1  C    12    37       P1  7957  1.00

> <Gold.PLP.Chemscore.Internal.Correction>
0.0087

> <Gold.Rescore>
     Score         DG    S(hbond)    S(metal)    S(lipo)     H(rot)  DE(clash)    DE(int)     intcor
     11.77     -16.46       1.99        0.00      70.72       1.54       0.08       4.61       ----

> <Gold.Chemscore.Fitness>
11.7675

> <Gold.Chemscore.DG>
-16.4559

> <Gold.Chemscore.ZeroCoef>
-5.4800

> <Gold.Chemscore.Hbond>
1.9889

> <Gold.Chemscore.Metal>
0.0000

> <Gold.Chemscore.Lipo>
70.7155

> <Gold.Chemscore.Internal_Hbond>
0.0000

> <Gold.Chemscore.DEClash>
0.0825

> <Gold.Chemscore.DEInternal>
4.6059

> <Gold.Chemscore.Rot>
1.5393

> <Gold.Chemscore.Internal.Correction>
   9.000000E+99

> <Gold.Chemscore.Hbonds>
donor molecule, donor type, donor heavy atom, donor atom, acceptor molecule, acceptor atom, score
      L1  H     7    34       P1  7948  1.00
      P1  H  7989  7998       L1    15  0.87

> <Gold.Chemscore.Hbond.Weighted>
-6.6428

> <Gold.Chemscore.Metal.Weighted>
-0.0000

> <Gold.Chemscore.Lipo.Weighted>
-8.2737

> <Gold.Chemscore.Internal_Hbond.Weighted>
0.0000

> <Gold.Chemscore.DEClash.Weighted>
0.0825

> <Gold.Chemscore.DEInternal.Weighted>
4.6059

> <Gold.Chemscore.Rot.Weighted>
3.9407

> <Gold.Chemscore.Internal.Correction.Weighted>
   9.000000E+99

> <Gold.Protein.RotatedTorsions>
[ 6907 6896 6895 6894 ] final  -46.48 input  -60.11 | X-H torsion
[ 7974 7965 7964 7962 ] final -135.45 input  175.53 | X-H torsion
[ 8008 7997 7996 7995 ] final   85.33 input   59.86 | X-H torsion
[ 10167 10162 10161 10158 ] final  -71.38 input  -65.29 | X-H torsion
[ 10718 10713 10712 10709 ] final  134.37 input   66.30 | X-H torsion
[ 10763 10752 10751 10750 ] final   24.42 input  -60.55 | X-H torsion
[ 11005 11000 10999 10996 ] final  -43.01 input  -57.11 | X-H torsion

> <Gold.Protein.ActiveResidues>
 VAL166  LYS551  ARG553  GLY616  TRP617  ASP618  TYR619  PRO620  LYS621  CYS622 
 ASP623  PHE694  ASN695  SER759  ASP760  ASP761  ALA762  ILE779  LEU786  VAL792 
 PHE793  MET794  SER795  GLU796  ALA797  LYS798  CYS799  TRP800  GLU811  SER814 

> <Gold.Protein.RotatedAtoms>
  150.9108  134.8525  159.7423 H   0  0  0  0  0  0  0  0  0  0  0  0  # atno 6907 bound_to 6896
  152.4943  134.4362  159.9538 H   0  0  0  0  0  0  0  0  0  0  0  0  # atno 6908 bound_to 6896
  151.4404  133.3605  159.2816 H   0  0  0  0  0  0  0  0  0  0  0  0  # atno 6909 bound_to 6896
  144.9013  140.6775  143.5083 H   0  0  0  0  0  0  0  0  0  0  0  0  # atno 7974 bound_to 7965
  155.9486  140.3402  155.6388 H   0  0  0  0  0  0  0  0  0  0  0  0  # atno 8008 bound_to 7997
  155.6949  140.0753  157.2452 H   0  0  0  0  0  0  0  0  0  0  0  0  # atno 8009 bound_to 7997
  154.4117  140.1650  156.2114 H   0  0  0  0  0  0  0  0  0  0  0  0  # atno 8010 bound_to 7997
  140.5278  143.2324  151.7316 H   0  0  0  0  0  0  0  0  0  0  0  0  # atno 10167 bound_to 10162
  157.4680  131.1078  150.9838 H   0  0  0  0  0  0  0  0  0  0  0  0  # atno 10718 bound_to 10713
  153.0765  135.6605  154.0135 H   0  0  0  0  0  0  0  0  0  0  0  0  # atno 10763 bound_to 10752
  153.9768  135.2959  155.3424 H   0  0  0  0  0  0  0  0  0  0  0  0  # atno 10764 bound_to 10752
  154.7154  135.5187  153.8800 H   0  0  0  0  0  0  0  0  0  0  0  0  # atno 10765 bound_to 10752
  141.0355  133.6802  156.2674 H   0  0  0  0  0  0  0  0  0  0  0  0  # atno 11005 bound_to 11000
  145.3611  139.1681  143.4383 LP  0  0  0  0  0  0  0  0  0  0  0  0  # atno 17320 bound_to 7965
  146.3110  140.3673  142.8670 LP  0  0  0  0  0  0  0  0  0  0  0  0  # atno 17321 bound_to 7965
  139.4944  144.4160  152.0030 LP  0  0  0  0  0  0  0  0  0  0  0  0  # atno 17342 bound_to 10162
  140.3260  144.3372  150.5998 LP  0  0  0  0  0  0  0  0  0  0  0  0  # atno 17343 bound_to 10162
  157.0613  130.5826  149.5386 LP  0  0  0  0  0  0  0  0  0  0  0  0  # atno 17370 bound_to 10713
  156.0059  130.5146  150.7829 LP  0  0  0  0  0  0  0  0  0  0  0  0  # atno 17371 bound_to 10713
  140.6330  134.5244  157.5561 LP  0  0  0  0  0  0  0  0  0  0  0  0  # atno 17394 bound_to 11000
  139.9237  134.8097  156.1131 LP  0  0  0  0  0  0  0  0  0  0  0  0  # atno 17395 bound_to 11000

$$$$
