#       Name:                AV-unprocessed.smi:711
#       Creating user name   scv26
#       Creation time:       Fri Mar 27 00:45:23 2020


#       File generated by GOLD software.
#

@<TRIPOS>MOLECULE
AV-unprocessed.smi:711
    35    36     1
SMALL
NO_CHARGES


@<TRIPOS>ATOM
      1 ****        -2.7071   3.7082  -1.0522 O.2            1 S1                 0.0000
      2 ****        -2.2841   2.5548  -1.0978 C.2            1 S1                 0.0000
      3 ****        -2.3162   1.7562   0.0491 N.am           1 S1                 0.0000
      4 ****        -1.8693   0.4373   0.1346 C.2            1 S1                 0.0000
      5 ****        -1.9352  -0.1589   1.2095 O.2            1 S1                 0.0000
      6 ****        -1.3451  -0.1357  -1.0493 N.am           1 S1                 0.0000
      7 ****        -0.8388  -1.4890  -1.0086 C.3            1 S1                 0.0000
      8 ****         0.6960  -1.5699  -0.8494 C.3            1 S1                 0.0000
      9 ****         1.0803  -2.9267  -0.9460 O.3            1 S1                 0.0000
     10 ****         1.2044  -0.9092   0.4276 C.ar           1 S1                 0.0000
     11 ****         1.1194  -1.5900   1.6628 C.ar           1 S1                 0.0000
     12 ****         1.5666  -0.9744   2.8477 C.ar           1 S1                 0.0000
     13 ****         2.1012   0.3270   2.8065 C.ar           1 S1                 0.0000
     14 ****         2.5302   0.9198   3.9457 F              1 S1                 0.0000
     15 ****         2.1867   1.0127   1.5802 C.ar           1 S1                 0.0000
     16 ****         1.7390   0.3996   0.3939 C.ar           1 S1                 0.0000
     17 ****         1.8147   1.0809  -0.7749 F              1 S1                 0.0000
     18 ****        -1.2902   0.6227  -2.2081 C.2            1 S1                 0.0000
     19 ****        -1.7238   1.9041  -2.2812 C.2            1 S1                 0.0000
     20 ****        -1.6162   2.7833  -3.7640 Cl             1 S1                 0.0000
     21 ****        -2.6912   2.1714   0.8895 H              1 S1                 0.0000
     22 ****        -1.3689  -2.0466  -0.2340 H              1 S1                 0.0000
     23 ****        -1.1497  -1.9348  -1.9554 H              1 S1                 0.0000
     24 ****         1.1577  -1.0724  -1.7028 H              1 S1                 0.0000
     25 ****         2.0240  -2.9699  -0.9699 H              1 S1                 0.0000
     26 ****         0.7019  -2.5852   1.7076 H              1 S1                 0.0000
     27 ****         1.4961  -1.5003   3.7886 H              1 S1                 0.0000
     28 ****         2.5930   2.0129   1.5494 H              1 S1                 0.0000
     29 ****        -0.8759   0.1707  -3.0984 H              1 S1                 0.0000
     30 ****        -2.6838   4.2821  -1.8709 LP             1 S1                 0.0000
     31 ****        -3.0745   4.0726  -0.1965 LP             1 S1                 0.0000
     32 ****        -2.3074   0.3022   2.0150 LP             1 S1                 0.0000
     33 ****        -1.6165  -1.1043   1.2772 LP             1 S1                 0.0000
     34 ****         0.7031  -3.3255  -1.7819 LP             1 S1                 0.0000
     35 ****         0.7395  -3.4311  -0.1527 LP             1 S1                 0.0000
@<TRIPOS>BOND
    1    1    2 2     
    2    2   19 1     
    3    2    3 1     
    4    3   21 1     
    5    3    4 1     
    6    4    5 2     
    7    4    6 1     
    8    6    7 1     
    9    6   18 1     
   10    7    8 1     
   11    7   22 1     
   12    7   23 1     
   13    8    9 1     
   14    8   10 1     
   15    8   24 1     
   16    9   25 1     
   17   10   16 ar    
   18   10   11 ar    
   19   11   12 ar    
   20   11   26 1     
   21   12   13 ar    
   22   12   27 1     
   23   13   14 1     
   24   13   15 ar    
   25   15   16 ar    
   26   15   28 1     
   27   16   17 1     
   28   18   19 2     
   29   18   29 1     
   30   19   20 1     
   31    1   30 1     
   32    1   31 1     
   33    5   32 1     
   34    5   33 1     
   35    9   34 1     
   36    9   35 1     
@<TRIPOS>SUBSTRUCTURE
      1 S1             1
@<TRIPOS>SET
LONE_PAIRS      STATIC     ATOMS    <user>   **** ""
6 30 31 32 33 34 35
DONOR_HYDROGENS      STATIC     ATOMS    <user>   **** ""
2 21 25
ATOM$BLUE        STATIC     ATOMS    COLORGROUP SYSTEM
6 30 31 32 33 34 35
ATOM$RED        STATIC     ATOMS    COLORGROUP SYSTEM
2 21 25
