#       Name:                AV-unprocessed.smi:3286
#       Creating user name   scv26
#       Creation time:       Fri Mar 27 18:51:11 2020


#       File generated by GOLD software.
#

@<TRIPOS>MOLECULE
AV-unprocessed.smi:3286
    46    47     1
SMALL
NO_CHARGES


@<TRIPOS>ATOM
      1 ****        -6.5561   2.0729  -0.9228 C.3            1 S1                 0.0000
      2 ****        -5.0465   2.0172  -0.8177 C.ar           1 S1                 0.0000
      3 ****        -4.4072   1.9905   0.4399 C.ar           1 S1                 0.0000
      4 ****        -3.0006   1.9403   0.4764 C.ar           1 S1                 0.0000
      5 ****        -2.2890   1.9192  -0.7411 C.ar           1 S1                 0.0000
      6 ****        -0.7746   1.8598  -0.7579 C.3            1 S1                 0.0000
      7 ****        -0.2555   0.4165  -0.7836 C.3            1 S1                 0.0000
      8 ****         1.2209   0.3842  -0.7961 N.4            1 S1                 1.0000
      9 ****         1.8132  -0.9731  -0.7820 C.3            1 S1                 0.0000
     10 ****         2.6553  -1.1464  -2.0576 C.3            1 S1                 0.0000
     11 ****         2.6264  -1.1919   0.5213 C.3            1 S1                 0.0000
     12 ****         3.3077  -2.5752   0.5786 C.3            1 S1                 0.0000
     13 ****         4.0247  -2.7928   1.9214 C.3            1 S1                 0.0000
     14 ****         3.1062  -2.6399   2.9960 O.3            1 S1                 0.0000
     15 ****         2.5527  -1.3323   3.0614 C.3            1 S1                 0.0000
     16 ****         1.7499  -1.0424   1.7835 C.3            1 S1                 0.0000
     17 ****        -3.0247   1.9498  -1.9447 C.ar           1 S1                 0.0000
     18 ****        -4.3731   1.9962  -1.9890 N.ar           1 S1                 0.0000
     19 ****        -7.0219   2.0925   0.0629 H              1 S1                 0.0000
     20 ****        -6.9311   1.2009  -1.4591 H              1 S1                 0.0000
     21 ****        -6.8656   2.9680  -1.4630 H              1 S1                 0.0000
     22 ****        -4.9790   2.0086   1.3562 H              1 S1                 0.0000
     23 ****        -2.4802   1.9171   1.4227 H              1 S1                 0.0000
     24 ****        -0.4088   2.4060  -1.6286 H              1 S1                 0.0000
     25 ****        -0.3896   2.3827   0.1187 H              1 S1                 0.0000
     26 ****        -0.6207  -0.1252   0.0900 H              1 S1                 0.0000
     27 ****        -0.6319  -0.1013  -1.6671 H              1 S1                 0.0000
     28 ****         1.5419   0.8626  -1.6256 H              1 S1                 0.0000
     29 ****         1.0126  -1.7144  -0.8164 H              1 S1                 0.0000
     30 ****         3.0048  -2.1716  -2.1773 H              1 S1                 0.0000
     31 ****         3.5276  -0.4916  -2.0512 H              1 S1                 0.0000
     32 ****         2.0698  -0.9095  -2.9468 H              1 S1                 0.0000
     33 ****         3.4107  -0.4341   0.5645 H              1 S1                 0.0000
     34 ****         2.5656  -3.3613   0.4331 H              1 S1                 0.0000
     35 ****         4.0379  -2.6810  -0.2234 H              1 S1                 0.0000
     36 ****         4.4467  -3.7973   1.9617 H              1 S1                 0.0000
     37 ****         4.8556  -2.0949   2.0364 H              1 S1                 0.0000
     38 ****         1.9021  -1.2696   3.9342 H              1 S1                 0.0000
     39 ****         3.3445  -0.5945   3.2017 H              1 S1                 0.0000
     40 ****         1.3330  -0.0373   1.8491 H              1 S1                 0.0000
     41 ****         0.9027  -1.7275   1.7296 H              1 S1                 0.0000
     42 ****        -2.5184   1.9328  -2.8987 H              1 S1                 0.0000
     43 ****         1.5601   0.8855   0.0125 H              1 S1                 0.0000
     44 ****         3.5834  -2.8288   3.8542 LP             1 S1                 0.0000
     45 ****         2.3619  -3.2969   2.8768 LP             1 S1                 0.0000
     46 ****        -4.8591   2.0145  -2.8628 LP             1 S1                 0.0000
@<TRIPOS>BOND
    1    1    2 1     
    2    1   19 1     
    3    1   20 1     
    4    1   21 1     
    5    2   18 ar    
    6    2    3 ar    
    7    3    4 ar    
    8    3   22 1     
    9    4    5 ar    
   10    4   23 1     
   11    5    6 1     
   12    5   17 ar    
   13    6    7 1     
   14    6   24 1     
   15    6   25 1     
   16    7    8 1     
   17    7   26 1     
   18    7   27 1     
   19    8    9 1     
   20    8   28 1     
   21    8   43 1     
   22    9   10 1     
   23    9   11 1     
   24    9   29 1     
   25   10   30 1     
   26   10   31 1     
   27   10   32 1     
   28   11   16 1     
   29   11   12 1     
   30   11   33 1     
   31   12   13 1     
   32   12   34 1     
   33   12   35 1     
   34   13   14 1     
   35   13   36 1     
   36   13   37 1     
   37   14   15 1     
   38   15   16 1     
   39   15   38 1     
   40   15   39 1     
   41   16   40 1     
   42   16   41 1     
   43   17   18 ar    
   44   17   42 1     
   45   14   44 1     
   46   14   45 1     
   47   18   46 1     
@<TRIPOS>SUBSTRUCTURE
      1 S1             1
@<TRIPOS>SET
LONE_PAIRS      STATIC     ATOMS    <user>   **** ""
3 44 45 46
DONOR_HYDROGENS      STATIC     ATOMS    <user>   **** ""
2 28 43
ATOM$BLUE        STATIC     ATOMS    COLORGROUP SYSTEM
3 44 45 46
ATOM$RED        STATIC     ATOMS    COLORGROUP SYSTEM
2 28 43
