AV-unprocessed.smi:1110|AV-procd|sdf|4791|dock9
  -GOLD-   22720 3333D 1   1.00000     0.00000
 Structure written by MMmdl.
 44 45  0  0  0  0  0  0  0  0  2 V2000
  149.2686  132.3776  154.3269 C   0  0  0  0  0  0  0  0  0  0  0  0
  148.6219  133.1250  153.1516 C   0  0  0  0  0  0  0  0  0  0  0  0
  147.3450  133.9282  153.5196 C   0  0  1  0  0  0  0  0  0  0  0  0
  147.6023  134.9023  154.6983 C   0  0  0  0  0  0  0  0  0  0  0  0
  148.1222  136.1817  154.2290 N   0  0  0  0  0  0  0  0  0  0  0  0
  147.9301  137.3716  154.8207 C   0  0  0  0  0  0  0  0  0  0  0  0
  147.2768  137.5031  155.8545 O   0  0  0  0  0  0  0  0  0  0  0  0
  148.5474  138.6165  154.1599 C   0  0  0  0  0  0  0  0  0  0  0  0
  149.9203  138.9315  154.5966 N   0  0  0  0  0  0  0  0  0  0  0  0
  150.9288  138.0162  154.2345 C   0  0  0  0  0  0  0  0  0  0  0  0
  152.2111  138.1954  154.5888 C   0  0  0  0  0  0  0  0  0  0  0  0
  152.5480  139.3677  155.3612 C   0  0  0  0  0  0  0  0  0  0  0  0
  151.5904  140.2471  155.7172 C   0  0  0  0  0  0  0  0  0  0  0  0
  150.1861  140.0505  155.3397 C   0  0  0  0  0  0  0  0  0  0  0  0
  149.3014  140.8353  155.6803 O   0  0  0  0  0  0  0  0  0  0  0  0
  146.8168  134.6452  152.3192 N   0  3  0  0  0  0  0  0  0  0  0  0
  146.4904  133.7828  151.1541 C   0  0  0  0  0  0  0  0  0  0  0  0
  145.2173  134.3478  150.5094 C   0  0  0  0  0  0  0  0  0  0  0  0
  145.0194  135.7070  151.1687 C   0  0  0  0  0  0  0  0  0  0  0  0
  145.6358  135.5076  152.5477 C   0  0  0  0  0  0  0  0  0  0  0  0
  150.0715  131.7302  153.9738 H   0  0  0  0  0  0  0  0  0  0  0  0
  148.5428  131.7509  154.8455 H   0  0  0  0  0  0  0  0  0  0  0  0
  149.7068  133.0631  155.0521 H   0  0  0  0  0  0  0  0  0  0  0  0
  149.3620  133.7821  152.6930 H   0  0  0  0  0  0  0  0  0  0  0  0
  148.3852  132.3771  152.3954 H   0  0  0  0  0  0  0  0  0  0  0  0
  146.5787  133.2205  153.8406 H   0  0  0  0  0  0  0  0  0  0  0  0
  146.6859  135.0473  155.2718 H   0  0  0  0  0  0  0  0  0  0  0  0
  148.3111  134.4775  155.4081 H   0  0  0  0  0  0  0  0  0  0  0  0
  148.6846  136.1629  153.3903 H   0  0  0  0  0  0  0  0  0  0  0  0
  148.5266  138.4704  153.0788 H   0  0  0  0  0  0  0  0  0  0  0  0
  147.8857  139.4657  154.3390 H   0  0  0  0  0  0  0  0  0  0  0  0
  150.5923  137.1654  153.6600 H   0  0  0  0  0  0  0  0  0  0  0  0
  152.9708  137.4825  154.3033 H   0  0  0  0  0  0  0  0  0  0  0  0
  153.5733  139.5420  155.6532 H   0  0  0  0  0  0  0  0  0  0  0  0
  151.8614  141.1196  156.2939 H   0  0  0  0  0  0  0  0  0  0  0  0
  147.3269  133.7971  150.4546 H   0  0  0  0  0  0  0  0  0  0  0  0
  146.3214  132.7464  151.4504 H   0  0  0  0  0  0  0  0  0  0  0  0
  145.2907  134.4172  149.4237 H   0  0  0  0  0  0  0  0  0  0  0  0
  144.3703  133.7011  150.7432 H   0  0  0  0  0  0  0  0  0  0  0  0
  145.5733  136.4707  150.6208 H   0  0  0  0  0  0  0  0  0  0  0  0
  143.9732  136.0122  151.2104 H   0  0  0  0  0  0  0  0  0  0  0  0
  144.9241  134.9953  153.1975 H   0  0  0  0  0  0  0  0  0  0  0  0
  145.9033  136.4567  153.0132 H   0  0  0  0  0  0  0  0  0  0  0  0
  147.5472  135.2686  152.0063 H   0  0  0  0  0  0  0  0  0  0  0  0
  1  2  1  0  0  0  0
  1 21  1  0  0  0  0
  1 22  1  0  0  0  0
  1 23  1  0  0  0  0
  2  3  1  0  0  0  0
  2 24  1  0  0  0  0
  2 25  1  0  0  0  0
  3  4  1  0  0  0  0
  3 16  1  0  0  0  0
  3 26  1  0  0  0  0
  4  5  1  0  0  0  0
  4 27  1  0  0  0  0
  4 28  1  0  0  0  0
  5  6  1  0  0  0  0
  5 29  1  0  0  0  0
  6  7  2  0  0  0  0
  6  8  1  0  0  0  0
  8  9  1  0  0  0  0
  8 30  1  0  0  0  0
  8 31  1  0  0  0  0
  9 14  1  0  0  0  0
  9 10  1  0  0  0  0
 10 11  2  0  0  0  0
 10 32  1  0  0  0  0
 11 12  1  0  0  0  0
 11 33  1  0  0  0  0
 12 13  2  0  0  0  0
 12 34  1  0  0  0  0
 13 14  1  0  0  0  0
 13 35  1  0  0  0  0
 14 15  2  0  0  0  0
 16 20  1  0  0  0  0
 16 17  1  0  0  0  0
 16 44  1  0  0  0  0
 17 18  1  0  0  0  0
 17 36  1  0  0  0  0
 17 37  1  0  0  0  0
 18 19  1  0  0  0  0
 18 38  1  0  0  0  0
 18 39  1  0  0  0  0
 19 20  1  0  0  0  0
 19 40  1  0  0  0  0
 19 41  1  0  0  0  0
 20 42  1  0  0  0  0
 20 43  1  0  0  0  0
M  CHG  1  16   1
M  END
> <s_m_source_file>
AV-unprocessed.smi

> <i_m_source_file_index>
1110

> <i_lp_mmshare_version>
43012

> <i_f3d_flags>
0

> <s_epik_input>
W0NIMl0xW0NIMl1bQ0gyXVtDSDJdTjFbQ0BIXShbQ0gyXVtDSDNdKVtDSDJdW05IXUMoPU8pW0NIMl1uMltjSF1bY0hdW2NIXVtjSF1jMj1P

> <s_epik_cmdline>
J2VwaWtfcHl0aG9uJywgJy1waCcsICc3LjAnLCAnLXRuJywgJzgnLCAnLW1hJywgJzIwMCcsICctbWV0YWxfYmluZGluZycsICctaW1hZScsICc8aW5maWxlLm1hZT4nLCAnLW9tYWUnLCAnPG91dGZpbGUubWFlPic=

> <r_lp_tautomer_probability>
1

> <r_epik_Ionization_Penalty>
0.00361135

> <r_epik_Ionization_Penalty_Charging>
0.00361127

> <r_epik_Ionization_Penalty_Neutral>
7.8489e-08

> <r_epik_State_Penalty>
0.00256751

> <r_epik_Charging_Adjusted_Penalty>
0.00617878

> <i_epik_Tot_Q>
1

> <i_epik_Tot_abs_Q>
1

> <r_epik_Metal_State_Penalty>
-0

> <b_epik_Metal_Only>
0

> <s_lp_Force_Field>
OPLS_2005

> <r_lp_Energy>
49.2182

> <b_lp_Chiralities_Consistent>
1

> <s_lp_Variant>
AV-unprocessed.smi:1110-2

> <Gold.Version>
5.8.1

> <Gold.Id.Protein>
6NUR|6NUR_protein|mol2

> <Gold.PLP.Fitness>
47.3551

> <Gold.PLP.PLP>
-36.4696

> <Gold.PLP.part.hbond>
-1.9166

> <Gold.PLP.part.metal>
0.0000

> <Gold.PLP.part.buried>
-1.0315

> <Gold.PLP.part.nonpolar>
-33.6833

> <Gold.PLP.part.repulsive>
0.1120

> <Gold.PLP.ligand.clash>
0.0000

> <Gold.PLP.ligand.torsion>
0.9184

> <Gold.PLP.Chemscore.Hbond>
3.0000

> <Gold.PLP.Chemscore.CHOScore>
1.1863

> <Gold.PLP.Chemscore.Metal>
0.0000

> <Gold.Chemscore.Hbonds>
donor molecule, donor type, donor heavy atom, donor atom, acceptor molecule, acceptor atom, score
      L1  H     5    29       P1  7948  1.00
      L1  H    16    44       P1  7948  2.00
      L1  C    10    32       P1  7948  0.54
      L1  C    10    32       P1  7949  0.62

> <Gold.PLP.Chemscore.Internal.Correction>
0.1632

> <Gold.Rescore>
     Score         DG    S(hbond)    S(metal)    S(lipo)     H(rot)  DE(clash)    DE(int)     intcor
     14.92     -15.84       1.95        0.00      76.30       1.99       0.01       0.91       ----

> <Gold.Chemscore.Fitness>
14.9153

> <Gold.Chemscore.DG>
-15.8355

> <Gold.Chemscore.ZeroCoef>
-5.4800

> <Gold.Chemscore.Hbond>
1.9525

> <Gold.Chemscore.Metal>
0.0000

> <Gold.Chemscore.Lipo>
76.2969

> <Gold.Chemscore.Internal_Hbond>
0.0000

> <Gold.Chemscore.DEClash>
0.0102

> <Gold.Chemscore.DEInternal>
0.9100

> <Gold.Chemscore.Rot>
1.9893

> <Gold.Chemscore.Internal.Correction>
   9.000000E+99

> <Gold.Chemscore.Hbonds>
donor molecule, donor type, donor heavy atom, donor atom, acceptor molecule, acceptor atom, score
      L1  H     5    29       P1  7948  0.93
      L1  H    16    44       P1  7948  0.98

> <Gold.Chemscore.Hbond.Weighted>
-6.5214

> <Gold.Chemscore.Metal.Weighted>
-0.0000

> <Gold.Chemscore.Lipo.Weighted>
-8.9267

> <Gold.Chemscore.Internal_Hbond.Weighted>
0.0000

> <Gold.Chemscore.DEClash.Weighted>
0.0102

> <Gold.Chemscore.DEInternal.Weighted>
0.9100

> <Gold.Chemscore.Rot.Weighted>
5.0927

> <Gold.Chemscore.Internal.Correction.Weighted>
   9.000000E+99

> <Gold.Protein.RotatedTorsions>
[ 6907 6896 6895 6894 ] final -151.40 input  -60.11 | X-H torsion
[ 7974 7965 7964 7962 ] final  -13.61 input  175.53 | X-H torsion
[ 8008 7997 7996 7995 ] final  -90.44 input   59.86 | X-H torsion
[ 10167 10162 10161 10158 ] final  -67.97 input  -65.29 | X-H torsion
[ 10718 10713 10712 10709 ] final -138.81 input   66.30 | X-H torsion
[ 10763 10752 10751 10750 ] final -128.24 input  -60.55 | X-H torsion
[ 11005 11000 10999 10996 ] final  101.21 input  -57.11 | X-H torsion

> <Gold.Protein.ActiveResidues>
 VAL166  LYS551  ARG553  GLY616  TRP617  ASP618  TYR619  PRO620  LYS621  CYS622 
 ASP623  PHE694  ASN695  SER759  ASP760  ASP761  ALA762  ILE779  LEU786  VAL792 
 PHE793  MET794  SER795  GLU796  ALA797  LYS798  CYS799  TRP800  GLU811  SER814 

> <Gold.Protein.RotatedAtoms>
  151.2126  133.4547  159.2598 H   0  0  0  0  0  0  0  0  0  0  0  0  # atno 6907 bound_to 6896
  151.0962  134.9945  159.8437 H   0  0  0  0  0  0  0  0  0  0  0  0  # atno 6908 bound_to 6896
  152.5439  134.2056  159.8782 H   0  0  0  0  0  0  0  0  0  0  0  0  # atno 6909 bound_to 6896
  146.2107  140.3228  142.8392 H   0  0  0  0  0  0  0  0  0  0  0  0  # atno 7974 bound_to 7965
  154.6986  140.0530  157.0435 H   0  0  0  0  0  0  0  0  0  0  0  0  # atno 8008 bound_to 7997
  155.0717  140.3200  155.4609 H   0  0  0  0  0  0  0  0  0  0  0  0  # atno 8009 bound_to 7997
  156.2752  140.2080  156.5844 H   0  0  0  0  0  0  0  0  0  0  0  0  # atno 8010 bound_to 7997
  140.5543  143.2312  151.6852 H   0  0  0  0  0  0  0  0  0  0  0  0  # atno 10167 bound_to 10162
  156.3035  130.7442  151.1500 H   0  0  0  0  0  0  0  0  0  0  0  0  # atno 10718 bound_to 10713
  154.8755  135.3935  154.3724 H   0  0  0  0  0  0  0  0  0  0  0  0  # atno 10763 bound_to 10752
  153.4482  135.7028  153.6131 H   0  0  0  0  0  0  0  0  0  0  0  0  # atno 10764 bound_to 10752
  153.4682  135.3796  155.2345 H   0  0  0  0  0  0  0  0  0  0  0  0  # atno 10765 bound_to 10752
  139.8772  134.9173  156.4872 H   0  0  0  0  0  0  0  0  0  0  0  0  # atno 11005 bound_to 11000
  144.8908  140.7520  143.5928 LP  0  0  0  0  0  0  0  0  0  0  0  0  # atno 17320 bound_to 7965
  145.3151  139.1806  143.4618 LP  0  0  0  0  0  0  0  0  0  0  0  0  # atno 17321 bound_to 7965
  139.5041  144.3767  152.0416 LP  0  0  0  0  0  0  0  0  0  0  0  0  # atno 17342 bound_to 10162
  140.2887  144.3778  150.6095 LP  0  0  0  0  0  0  0  0  0  0  0  0  # atno 17343 bound_to 10162
  157.7374  131.0552  150.5358 LP  0  0  0  0  0  0  0  0  0  0  0  0  # atno 17370 bound_to 10713
  156.5489  130.4226  149.6117 LP  0  0  0  0  0  0  0  0  0  0  0  0  # atno 17371 bound_to 10713
  140.8685  133.8006  155.9339 LP  0  0  0  0  0  0  0  0  0  0  0  0  # atno 17394 bound_to 11000
  140.8977  134.2417  157.5059 LP  0  0  0  0  0  0  0  0  0  0  0  0  # atno 17395 bound_to 11000

$$$$
