#       Name:                AV-unprocessed.smi:2083
#       Creating user name   scv26
#       Creation time:       Fri Mar 27 11:21:41 2020


#       File generated by GOLD software.
#

@<TRIPOS>MOLECULE
AV-unprocessed.smi:2083
    50    51     1
SMALL
NO_CHARGES


@<TRIPOS>ATOM
      1 ****        -6.8091   5.0597  -0.5763 C.3            1 S1                 0.0000
      2 ****        -5.4442   4.5264  -0.8495 C.2            1 S1                 0.0000
      3 ****        -4.4671   4.0196  -0.0404 C.2            1 S1                 0.0000
      4 ****        -3.4266   3.6935  -0.9526 C.2            1 S1                 0.0000
      5 ****        -2.2312   3.1728  -0.6351 N.pl3          1 S1                -1.0000
      6 ****        -2.0832   1.8353  -0.5007 C.2            1 S1                 0.0000
      7 ****        -2.9664   0.9830  -0.6179 O.2            1 S1                 0.0000
      8 ****        -0.8302   1.4613  -0.2122 N.am           1 S1                 0.0000
      9 ****        -0.3822   0.0868  -0.0227 C.3            1 S1                 0.0000
     10 ****         1.1610  -0.0174   0.0138 C.3            1 S1                 0.0000
     11 ****         1.7647   0.5339  -1.3017 C.3            1 S1                 0.0000
     12 ****         1.5650  -1.4271   0.3306 N.4            1 S1                 1.0000
     13 ****         1.4664  -1.7161   1.7898 C.3            1 S1                 0.0000
     14 ****         1.6785  -3.2071   2.0886 C.3            1 S1                 0.0000
     15 ****         3.0362  -3.6773   1.5598 C.3            1 S1                 0.0000
     16 ****         3.1492  -3.3658   0.0603 C.3            1 S1                 0.0000
     17 ****         4.5087  -3.8069  -0.5010 C.3            1 S1                 0.0000
     18 ****         2.8870  -1.8683  -0.2059 C.3            1 S1                 0.0000
     19 ****        -3.7381   3.9915  -2.2027 N.2            1 S1                 0.0000
     20 ****        -5.0333   4.5200  -2.1462 O.3            1 S1                 0.0000
     21 ****        -6.7634   5.8972   0.1198 H              1 S1                 0.0000
     22 ****        -7.4425   4.2889  -0.1377 H              1 S1                 0.0000
     23 ****        -7.2866   5.4081  -1.4925 H              1 S1                 0.0000
     24 ****        -4.4931   3.8982   1.0321 H              1 S1                 0.0000
     25 ****        -0.1372   2.1902  -0.1230 H              1 S1                 0.0000
     26 ****        -0.8341  -0.2794   0.8984 H              1 S1                 0.0000
     27 ****        -0.7699  -0.5374  -0.8300 H              1 S1                 0.0000
     28 ****         1.5335   0.6227   0.8157 H              1 S1                 0.0000
     29 ****         1.4406   1.5564  -1.4958 H              1 S1                 0.0000
     30 ****         1.4663  -0.0672  -2.1612 H              1 S1                 0.0000
     31 ****         2.8536   0.5721  -1.2690 H              1 S1                 0.0000
     32 ****         2.2076  -1.1221   2.3272 H              1 S1                 0.0000
     33 ****         0.4941  -1.4215   2.1813 H              1 S1                 0.0000
     34 ****         1.6183  -3.3829   3.1631 H              1 S1                 0.0000
     35 ****         0.8789  -3.7926   1.6329 H              1 S1                 0.0000
     36 ****         3.8380  -3.1801   2.1076 H              1 S1                 0.0000
     37 ****         3.1533  -4.7471   1.7361 H              1 S1                 0.0000
     38 ****         2.3798  -3.9387  -0.4600 H              1 S1                 0.0000
     39 ****         5.3286  -3.2653  -0.0278 H              1 S1                 0.0000
     40 ****         4.5678  -3.6282  -1.5749 H              1 S1                 0.0000
     41 ****         4.6745  -4.8719  -0.3362 H              1 S1                 0.0000
     42 ****         2.9268  -1.7275  -1.2855 H              1 S1                 0.0000
     43 ****         3.6791  -1.2583   0.2316 H              1 S1                 0.0000
     44 ****         0.8823  -2.0133  -0.1284 H              1 S1                 0.0000
     45 ****        -1.4462   3.7767  -0.4973 LP             1 S1                 0.0000
     46 ****        -3.9028   1.2598  -0.8337 LP             1 S1                 0.0000
     47 ****        -2.7463   0.0151  -0.4972 LP             1 S1                 0.0000
     48 ****        -3.1694   3.8661  -3.0157 LP             1 S1                 0.0000
     49 ****        -5.0318   5.4540  -2.5036 LP             1 S1                 0.0000
     50 ****        -5.6517   3.9551  -2.6926 LP             1 S1                 0.0000
@<TRIPOS>BOND
    1    1    2 1     
    2    1   21 1     
    3    1   22 1     
    4    1   23 1     
    5    2   20 1     
    6    2    3 2     
    7    3    4 1     
    8    3   24 1     
    9    4    5 1     
   10    4   19 2     
   11    5    6 1     
   12    6    7 2     
   13    6    8 am    
   14    8    9 1     
   15    8   25 1     
   16    9   10 1     
   17    9   26 1     
   18    9   27 1     
   19   10   11 1     
   20   10   12 1     
   21   10   28 1     
   22   11   29 1     
   23   11   30 1     
   24   11   31 1     
   25   12   18 1     
   26   12   13 1     
   27   12   44 1     
   28   13   14 1     
   29   13   32 1     
   30   13   33 1     
   31   14   15 1     
   32   14   34 1     
   33   14   35 1     
   34   15   16 1     
   35   15   36 1     
   36   15   37 1     
   37   16   17 1     
   38   16   18 1     
   39   16   38 1     
   40   17   39 1     
   41   17   40 1     
   42   17   41 1     
   43   18   42 1     
   44   18   43 1     
   45   19   20 1     
   46    5   45 1     
   47    7   46 1     
   48    7   47 1     
   49   19   48 1     
   50   20   49 1     
   51   20   50 1     
@<TRIPOS>SUBSTRUCTURE
      1 S1             1
@<TRIPOS>SET
LONE_PAIRS      STATIC     ATOMS    <user>   **** ""
6 45 46 47 48 49 50
DONOR_HYDROGENS      STATIC     ATOMS    <user>   **** ""
2 25 44
ATOM$BLUE        STATIC     ATOMS    COLORGROUP SYSTEM
6 45 46 47 48 49 50
ATOM$RED        STATIC     ATOMS    COLORGROUP SYSTEM
2 25 44
