AV-unprocessed.smi:2594|AV-procd|sdf|10166|dock1
  -GOLD-   2272014183D 1   1.00000     0.00000
 Structure written by MMmdl.
 29 30  0  0  0  0  0  0  0  0  1 V2000
  154.8818  139.1978  159.2152 O   0  0  0  0  0  0  0  0  0  0  0  0
  153.6691  139.2189  158.9987 C   0  0  0  0  0  0  0  0  0  0  0  0
  152.9745  138.0369  158.3097 C   0  0  0  0  0  0  0  0  0  0  0  0
  152.4670  138.3718  156.9784 N   0  0  0  0  0  0  0  0  0  0  0  0
  152.5110  139.6720  156.5808 N   0  0  0  0  0  0  0  0  0  0  0  0
  152.0193  139.8202  155.4068 C   0  0  0  0  0  0  0  0  0  0  0  0
  151.4301  138.3520  154.6162 S   0  0  0  0  0  0  0  0  0  0  0  0
  151.9261  137.4571  156.0788 C   0  0  0  0  0  0  0  0  0  0  0  0
  151.7870  136.2423  156.2115 O   0  0  0  0  0  0  0  0  0  0  0  0
  152.8785  140.2426  159.3544 N   0  0  0  0  0  0  0  0  0  0  0  0
  153.3377  141.4698  159.9946 C   0  0  0  0  0  0  0  0  0  0  0  0
  152.4251  142.6591  159.6513 C   0  0  2  0  0  0  0  0  0  0  0  0
  153.1405  143.7959  158.9266 C   0  0  0  0  0  0  0  0  0  0  0  0
  152.2290  144.9636  159.2285 C   0  0  0  0  0  0  0  0  0  0  0  0
  151.8012  144.6723  160.6654 C   0  0  0  0  0  0  0  0  0  0  0  0
  151.9151  143.2613  160.8378 O   0  0  0  0  0  0  0  0  0  0  0  0
  153.6812  137.2080  158.2470 H   0  0  0  0  0  0  0  0  0  0  0  0
  152.1447  137.6888  158.9272 H   0  0  0  0  0  0  0  0  0  0  0  0
  151.9334  140.7584  154.8590 H   0  0  0  0  0  0  0  0  0  0  0  0
  151.8931  140.1793  159.1437 H   0  0  0  0  0  0  0  0  0  0  0  0
  153.3579  141.3110  161.0730 H   0  0  0  0  0  0  0  0  0  0  0  0
  154.3648  141.6817  159.6934 H   0  0  0  0  0  0  0  0  0  0  0  0
  151.5780  142.3331  159.0450 H   0  0  0  0  0  0  0  0  0  0  0  0
  154.1272  143.9695  159.3585 H   0  0  0  0  0  0  0  0  0  0  0  0
  153.2600  143.6108  157.8587 H   0  0  0  0  0  0  0  0  0  0  0  0
  152.7179  145.9316  159.1160 H   0  0  0  0  0  0  0  0  0  0  0  0
  151.3618  144.9392  158.5668 H   0  0  0  0  0  0  0  0  0  0  0  0
  152.4716  145.1614  161.3728 H   0  0  0  0  0  0  0  0  0  0  0  0
  150.7866  145.0148  160.8688 H   0  0  0  0  0  0  0  0  0  0  0  0
  1  2  2  0  0  0  0
  2  3  1  0  0  0  0
  2 10  1  0  0  0  0
  3  4  1  0  0  0  0
  3 17  1  0  0  0  0
  3 18  1  0  0  0  0
  4  8  1  0  0  0  0
  4  5  1  0  0  0  0
  5  6  2  0  0  0  0
  6  7  1  0  0  0  0
  6 19  1  0  0  0  0
  7  8  1  0  0  0  0
  8  9  2  0  0  0  0
 10 11  1  0  0  0  0
 10 20  1  0  0  0  0
 11 12  1  0  0  0  0
 11 21  1  0  0  0  0
 11 22  1  0  0  0  0
 12 16  1  0  0  0  0
 12 13  1  0  0  0  0
 12 23  1  0  0  0  0
 13 14  1  0  0  0  0
 13 24  1  0  0  0  0
 13 25  1  0  0  0  0
 14 15  1  0  0  0  0
 14 26  1  0  0  0  0
 14 27  1  0  0  0  0
 15 16  1  0  0  0  0
 15 28  1  0  0  0  0
 15 29  1  0  0  0  0
M  END
> <s_m_source_file>
AV-unprocessed.smi

> <i_m_source_file_index>
2594

> <i_lp_mmshare_version>
43012

> <i_f3d_flags>
0

> <s_epik_input>
TzFbQ0gyXVtDSDJdW0NIMl1bQ0BIXTFbQ0gyXVtOSF1DKD1PKVtDSDJdbjJuW2NIXXNjMj1P

> <s_epik_cmdline>
J2VwaWtfcHl0aG9uJywgJy1waCcsICc3LjAnLCAnLXRuJywgJzgnLCAnLW1hJywgJzIwMCcsICctbWV0YWxfYmluZGluZycsICctaW1hZScsICc8aW5maWxlLm1hZT4nLCAnLW9tYWUnLCAnPG91dGZpbGUubWFlPic=

> <r_lp_tautomer_probability>
1

> <r_epik_Ionization_Penalty>
2.49222e-07

> <r_epik_Ionization_Penalty_Charging>
1.4085e-08

> <r_epik_Ionization_Penalty_Neutral>
2.35137e-07

> <r_epik_State_Penalty>
-0

> <r_epik_Charging_Adjusted_Penalty>
1.4085e-08

> <i_epik_Tot_Q>
0

> <i_epik_Tot_abs_Q>
0

> <r_epik_Metal_State_Penalty>
-0

> <b_epik_Metal_Only>
0

> <s_lp_Force_Field>
OPLS_2005

> <r_lp_Energy>
18.2258

> <b_lp_Chiralities_Consistent>
1

> <s_lp_Variant>
AV-unprocessed.smi:2594-1

> <Gold.Version>
5.8.1

> <Gold.Id.Protein>
6NUR|6NUR_protein|mol2

> <Gold.PLP.Fitness>
40.8656

> <Gold.PLP.PLP>
-34.0854

> <Gold.PLP.part.hbond>
-3.0000

> <Gold.PLP.part.metal>
0.0000

> <Gold.PLP.part.buried>
-2.8116

> <Gold.PLP.part.nonpolar>
-27.7961

> <Gold.PLP.part.repulsive>
0.2020

> <Gold.PLP.ligand.clash>
0.0000

> <Gold.PLP.ligand.torsion>
1.0468

> <Gold.PLP.Chemscore.Hbond>
2.9520

> <Gold.PLP.Chemscore.CHOScore>
0.0000

> <Gold.PLP.Chemscore.Metal>
0.0000

> <Gold.Chemscore.Hbonds>
donor molecule, donor type, donor heavy atom, donor atom, acceptor molecule, acceptor atom, score
      P1  H  7997  8008       L1     5  0.82
      P1  H  7997  8010       L1     1  0.57
      P1  H 10752 10763       L1     9  1.00

> <Gold.PLP.Chemscore.Internal.Correction>
0.0177

> <Gold.Rescore>
     Score         DG    S(hbond)    S(metal)    S(lipo)     H(rot)  DE(clash)    DE(int)     intcor
     13.32     -14.68       1.51        0.00      79.16       2.00       0.36       1.00       ----

> <Gold.Chemscore.Fitness>
13.3215

> <Gold.Chemscore.DG>
-14.6790

> <Gold.Chemscore.ZeroCoef>
-5.4800

> <Gold.Chemscore.Hbond>
1.5104

> <Gold.Chemscore.Metal>
0.0000

> <Gold.Chemscore.Lipo>
79.1630

> <Gold.Chemscore.Internal_Hbond>
0.0000

> <Gold.Chemscore.DEClash>
0.3584

> <Gold.Chemscore.DEInternal>
0.9992

> <Gold.Chemscore.Rot>
1.9952

> <Gold.Chemscore.Internal.Correction>
   9.000000E+99

> <Gold.Chemscore.Hbonds>
donor molecule, donor type, donor heavy atom, donor atom, acceptor molecule, acceptor atom, score
      P1  H  7997  8008       L1     5  0.10
      P1  H  7997  8010       L1     1  0.12
      P1  H 10752 10763       L1     9  0.44

> <Gold.Chemscore.Hbond.Weighted>
-5.0447

> <Gold.Chemscore.Metal.Weighted>
-0.0000

> <Gold.Chemscore.Lipo.Weighted>
-9.2621

> <Gold.Chemscore.Internal_Hbond.Weighted>
0.0000

> <Gold.Chemscore.DEClash.Weighted>
0.3584

> <Gold.Chemscore.DEInternal.Weighted>
0.9992

> <Gold.Chemscore.Rot.Weighted>
5.1077

> <Gold.Chemscore.Internal.Correction.Weighted>
   9.000000E+99

> <Gold.Protein.RotatedTorsions>
[ 6907 6896 6895 6894 ] final  -54.42 input  -60.11 | X-H torsion
[ 7974 7965 7964 7962 ] final -105.98 input  175.53 | X-H torsion
[ 8008 7997 7996 7995 ] final  -28.22 input   59.86 | X-H torsion
[ 10167 10162 10161 10158 ] final   43.27 input  -65.29 | X-H torsion
[ 10718 10713 10712 10709 ] final  -92.58 input   66.30 | X-H torsion
[ 10763 10752 10751 10750 ] final   84.74 input  -60.55 | X-H torsion
[ 11005 11000 10999 10996 ] final   80.99 input  -57.11 | X-H torsion

> <Gold.Protein.ActiveResidues>
 VAL166  LYS551  ARG553  GLY616  TRP617  ASP618  TYR619  PRO620  LYS621  CYS622 
 ASP623  PHE694  ASN695  SER759  ASP760  ASP761  ALA762  ILE779  LEU786  VAL792 
 PHE793  MET794  SER795  GLU796  ALA797  LYS798  CYS799  TRP800  GLU811  SER814 

> <Gold.Protein.RotatedAtoms>
  150.8340  134.7605  159.6877 H   0  0  0  0  0  0  0  0  0  0  0  0  # atno 6907 bound_to 6896
  152.4440  134.5530  159.9882 H   0  0  0  0  0  0  0  0  0  0  0  0  # atno 6908 bound_to 6896
  151.5684  133.3355  159.3020 H   0  0  0  0  0  0  0  0  0  0  0  0  # atno 6909 bound_to 6896
  145.2236  140.9144  143.3245 H   0  0  0  0  0  0  0  0  0  0  0  0  # atno 7974 bound_to 7965
  154.4342  140.1851  156.1056 H   0  0  0  0  0  0  0  0  0  0  0  0  # atno 8008 bound_to 7997
  156.0258  140.3336  155.7061 H   0  0  0  0  0  0  0  0  0  0  0  0  # atno 8009 bound_to 7997
  155.5911  140.0631  157.2749 H   0  0  0  0  0  0  0  0  0  0  0  0  # atno 8010 bound_to 7997
  140.3460  144.2410  150.6150 H   0  0  0  0  0  0  0  0  0  0  0  0  # atno 10167 bound_to 10162
  156.0004  130.4993  150.5647 H   0  0  0  0  0  0  0  0  0  0  0  0  # atno 10718 bound_to 10713
  153.1409  135.4643  154.9494 H   0  0  0  0  0  0  0  0  0  0  0  0  # atno 10763 bound_to 10752
  154.7746  135.3169  154.8120 H   0  0  0  0  0  0  0  0  0  0  0  0  # atno 10764 bound_to 10752
  153.8643  135.6909  153.4834 H   0  0  0  0  0  0  0  0  0  0  0  0  # atno 10765 bound_to 10752
  139.9114  134.7962  156.1982 H   0  0  0  0  0  0  0  0  0  0  0  0  # atno 11005 bound_to 11000
  144.9742  139.3849  143.6294 LP  0  0  0  0  0  0  0  0  0  0  0  0  # atno 17320 bound_to 7965
  146.3370  139.8854  142.8817 LP  0  0  0  0  0  0  0  0  0  0  0  0  # atno 17321 bound_to 7965
  140.5264  143.2253  151.8308 LP  0  0  0  0  0  0  0  0  0  0  0  0  # atno 17342 bound_to 10162
  139.4833  144.4775  151.9349 LP  0  0  0  0  0  0  0  0  0  0  0  0  # atno 17343 bound_to 10162
  157.3551  131.0740  151.1682 LP  0  0  0  0  0  0  0  0  0  0  0  0  # atno 17370 bound_to 10713
  157.2485  130.6603  149.5921 LP  0  0  0  0  0  0  0  0  0  0  0  0  # atno 17371 bound_to 10713
  141.0541  133.6874  156.1827 LP  0  0  0  0  0  0  0  0  0  0  0  0  # atno 17394 bound_to 11000
  140.6764  134.4813  157.5588 LP  0  0  0  0  0  0  0  0  0  0  0  0  # atno 17395 bound_to 11000

$$$$
