AV-unprocessed.smi:1059|AV-procd|sdf|4655|dock4
  -GOLD-   22720 3163D 1   1.00000     0.00000
 Structure written by MMmdl.
 54 55  0  0  0  0  0  0  0  0  1 V2000
  152.4665  143.8189  158.3407 C   0  0  0  0  0  0  0  0  0  0  0  0
  151.9855  142.7728  159.3584 C   0  0  0  0  0  0  0  0  0  0  0  0
  153.1426  142.3768  160.2951 C   0  0  0  0  0  0  0  0  0  0  0  0
  151.3601  141.5559  158.6326 C   0  0  0  0  0  0  0  0  0  0  0  0
  150.3854  141.8898  157.4855 C   0  0  0  0  0  0  0  0  0  0  0  0
  149.4265  142.6305  157.7092 O   0  0  0  0  0  0  0  0  0  0  0  0
  150.6135  141.3638  156.2565 N   0  0  0  0  0  0  0  0  0  0  0  0
  151.7437  140.4698  155.9751 C   0  0  0  0  0  0  0  0  0  0  0  0
  151.2111  139.0416  155.7623 C   0  0  0  0  0  0  0  0  0  0  0  0
  150.1498  138.9973  154.6424 C   0  0  0  0  0  0  0  0  0  0  0  0
  149.5440  137.6697  154.5978 N   0  0  0  0  0  0  0  0  0  0  0  0
  150.2038  136.5099  154.7295 C   0  0  0  0  0  0  0  0  0  0  0  0
  151.4218  136.4349  154.8914 O   0  0  0  0  0  0  0  0  0  0  0  0
  149.3605  135.4645  154.6840 N   0  0  0  0  0  0  0  0  0  0  0  0
  149.6702  134.0804  154.7656 C   0  0  0  0  0  0  0  0  0  0  0  0
  150.6340  133.6695  155.7083 C   0  0  0  0  0  0  0  0  0  0  0  0
  150.9440  132.3012  155.8220 C   0  0  0  0  0  0  0  0  0  0  0  0
  150.2669  131.3823  154.9944 C   0  0  0  0  0  0  0  0  0  0  0  0
  150.5682  130.0172  155.0990 N   0  0  0  0  0  0  0  0  0  0  0  0
  149.8096  129.1912  154.1716 C   0  0  0  0  0  0  0  0  0  0  0  0
  151.9986  129.7579  155.1623 C   0  0  0  0  0  0  0  0  0  0  0  0
  149.3281  131.7642  154.0964 N   0  0  0  0  0  0  0  0  0  0  0  0
  149.0384  133.0788  153.9891 C   0  0  0  0  0  0  0  0  0  0  0  0
  149.0731  140.0884  154.8462 C   0  0  0  0  0  0  0  0  0  0  0  0
  149.7126  141.4653  155.1005 C   0  0  0  0  0  0  0  0  0  0  0  0
  153.2439  143.4132  157.6922 H   0  0  0  0  0  0  0  0  0  0  0  0
  152.8758  144.6965  158.8423 H   0  0  0  0  0  0  0  0  0  0  0  0
  151.6475  144.1585  157.7060 H   0  0  0  0  0  0  0  0  0  0  0  0
  151.2140  143.2529  159.9623 H   0  0  0  0  0  0  0  0  0  0  0  0
  153.9484  141.8921  159.7435 H   0  0  0  0  0  0  0  0  0  0  0  0
  152.8199  141.6922  161.0789 H   0  0  0  0  0  0  0  0  0  0  0  0
  153.5626  143.2536  160.7887 H   0  0  0  0  0  0  0  0  0  0  0  0
  152.1577  140.9452  158.2075 H   0  0  0  0  0  0  0  0  0  0  0  0
  150.8476  140.9400  159.3725 H   0  0  0  0  0  0  0  0  0  0  0  0
  152.2631  140.8145  155.0796 H   0  0  0  0  0  0  0  0  0  0  0  0
  152.4931  140.4713  156.7678 H   0  0  0  0  0  0  0  0  0  0  0  0
  152.0359  138.3691  155.5238 H   0  0  0  0  0  0  0  0  0  0  0  0
  150.7787  138.6813  156.6973 H   0  0  0  0  0  0  0  0  0  0  0  0
  150.6591  139.1873  153.6955 H   0  0  0  0  0  0  0  0  0  0  0  0
  148.5433  137.6336  154.4690 H   0  0  0  0  0  0  0  0  0  0  0  0
  148.3769  135.6871  154.6425 H   0  0  0  0  0  0  0  0  0  0  0  0
  151.1360  134.3922  156.3348 H   0  0  0  0  0  0  0  0  0  0  0  0
  151.6857  131.9651  156.5320 H   0  0  0  0  0  0  0  0  0  0  0  0
  148.7480  129.4383  154.2114 H   0  0  0  0  0  0  0  0  0  0  0  0
  149.9194  128.1376  154.4294 H   0  0  0  0  0  0  0  0  0  0  0  0
  150.1590  129.3306  153.1478 H   0  0  0  0  0  0  0  0  0  0  0  0
  152.4804  130.4096  155.8921 H   0  0  0  0  0  0  0  0  0  0  0  0
  152.4676  129.9206  154.1913 H   0  0  0  0  0  0  0  0  0  0  0  0
  152.1814  128.7255  155.4609 H   0  0  0  0  0  0  0  0  0  0  0  0
  148.2639  133.3142  153.2757 H   0  0  0  0  0  0  0  0  0  0  0  0
  148.4192  140.1415  153.9749 H   0  0  0  0  0  0  0  0  0  0  0  0
  148.4375  139.8281  155.6941 H   0  0  0  0  0  0  0  0  0  0  0  0
  148.9306  142.2138  155.2125 H   0  0  0  0  0  0  0  0  0  0  0  0
  150.2864  141.7760  154.2262 H   0  0  0  0  0  0  0  0  0  0  0  0
  1  2  1  0  0  0  0
  1 26  1  0  0  0  0
  1 27  1  0  0  0  0
  1 28  1  0  0  0  0
  2  3  1  0  0  0  0
  2  4  1  0  0  0  0
  2 29  1  0  0  0  0
  3 30  1  0  0  0  0
  3 31  1  0  0  0  0
  3 32  1  0  0  0  0
  4  5  1  0  0  0  0
  4 33  1  0  0  0  0
  4 34  1  0  0  0  0
  5  6  2  0  0  0  0
  5  7  1  0  0  0  0
  7 25  1  0  0  0  0
  7  8  1  0  0  0  0
  8  9  1  0  0  0  0
  8 35  1  0  0  0  0
  8 36  1  0  0  0  0
  9 10  1  0  0  0  0
  9 37  1  0  0  0  0
  9 38  1  0  0  0  0
 10 11  1  0  0  0  0
 10 24  1  0  0  0  0
 10 39  1  0  0  0  0
 11 12  1  0  0  0  0
 11 40  1  0  0  0  0
 12 13  2  0  0  0  0
 12 14  1  0  0  0  0
 14 15  1  0  0  0  0
 14 41  1  0  0  0  0
 15 23  1  0  0  0  0
 15 16  2  0  0  0  0
 16 17  1  0  0  0  0
 16 42  1  0  0  0  0
 17 18  2  0  0  0  0
 17 43  1  0  0  0  0
 18 19  1  0  0  0  0
 18 22  1  0  0  0  0
 19 20  1  0  0  0  0
 19 21  1  0  0  0  0
 20 44  1  0  0  0  0
 20 45  1  0  0  0  0
 20 46  1  0  0  0  0
 21 47  1  0  0  0  0
 21 48  1  0  0  0  0
 21 49  1  0  0  0  0
 22 23  2  0  0  0  0
 23 50  1  0  0  0  0
 24 25  1  0  0  0  0
 24 51  1  0  0  0  0
 24 52  1  0  0  0  0
 25 53  1  0  0  0  0
 25 54  1  0  0  0  0
M  END
> <s_m_source_file>
AV-unprocessed.smi

> <i_m_source_file_index>
1059

> <i_lp_mmshare_version>
43012

> <i_f3d_flags>
0

> <s_epik_input>
W0NIM11bQ0hdKFtDSDNdKVtDSDJdQyg9TylOMVtDSDJdW0NIMl1bQ0hdKFtDSDJdW0NIMl0xKVtOSF1DKD1PKVtOSF1jMltjSF1bY0hdYyhOKFtDSDNdKVtDSDNdKW5bY0hdMg==

> <s_epik_cmdline>
J2VwaWtfcHl0aG9uJywgJy1waCcsICc3LjAnLCAnLXRuJywgJzgnLCAnLW1hJywgJzIwMCcsICctbWV0YWxfYmluZGluZycsICctaW1hZScsICc8aW5maWxlLm1hZT4nLCAnLW9tYWUnLCAnPG91dGZpbGUubWFlPic=

> <r_lp_tautomer_probability>
1

> <r_epik_Ionization_Penalty>
0.622059

> <r_epik_Ionization_Penalty_Charging>
0

> <r_epik_Ionization_Penalty_Neutral>
0.622059

> <r_epik_State_Penalty>
0.637048

> <r_epik_Charging_Adjusted_Penalty>
0.637048

> <i_epik_Tot_Q>
0

> <i_epik_Tot_abs_Q>
0

> <r_epik_Metal_State_Penalty>
0.306613

> <b_epik_Metal_Only>
0

> <s_lp_Force_Field>
OPLS_2005

> <r_lp_Energy>
31.4899

> <b_lp_Chiralities_Consistent>
1

> <s_lp_Variant>
AV-unprocessed.smi:1059-2

> <Gold.Version>
5.8.1

> <Gold.Id.Protein>
6NUR|6NUR_protein|mol2

> <Gold.PLP.Fitness>
51.1377

> <Gold.PLP.PLP>
-49.5979

> <Gold.PLP.part.hbond>
-2.7196

> <Gold.PLP.part.metal>
0.0000

> <Gold.PLP.part.buried>
-6.1435

> <Gold.PLP.part.nonpolar>
-42.2873

> <Gold.PLP.part.repulsive>
1.5349

> <Gold.PLP.ligand.clash>
0.0000

> <Gold.PLP.ligand.torsion>
0.8614

> <Gold.PLP.Chemscore.Hbond>
1.0000

> <Gold.PLP.Chemscore.CHOScore>
0.0000

> <Gold.PLP.Chemscore.Metal>
0.0000

> <Gold.Chemscore.Hbonds>
donor molecule, donor type, donor heavy atom, donor atom, acceptor molecule, acceptor atom, score
      P1  H 10752 10765       L1    13  1.00

> <Gold.PLP.Chemscore.Internal.Correction>
0.2625

> <Gold.Rescore>
     Score         DG    S(hbond)    S(metal)    S(lipo)     H(rot)  DE(clash)    DE(int)     intcor
     14.25     -17.53       1.00        0.00     107.83       1.52       0.05       3.23       ----

> <Gold.Chemscore.Fitness>
14.2506

> <Gold.Chemscore.DG>
-17.5321

> <Gold.Chemscore.ZeroCoef>
-5.4800

> <Gold.Chemscore.Hbond>
0.9988

> <Gold.Chemscore.Metal>
0.0000

> <Gold.Chemscore.Lipo>
107.8300

> <Gold.Chemscore.Internal_Hbond>
0.0000

> <Gold.Chemscore.DEClash>
0.0489

> <Gold.Chemscore.DEInternal>
3.2326

> <Gold.Chemscore.Rot>
1.5235

> <Gold.Chemscore.Internal.Correction>
   9.000000E+99

> <Gold.Chemscore.Hbonds>
donor molecule, donor type, donor heavy atom, donor atom, acceptor molecule, acceptor atom, score
      P1  H 10752 10765       L1    13  1.00

> <Gold.Chemscore.Hbond.Weighted>
-3.3361

> <Gold.Chemscore.Metal.Weighted>
-0.0000

> <Gold.Chemscore.Lipo.Weighted>
-12.6161

> <Gold.Chemscore.Internal_Hbond.Weighted>
0.0000

> <Gold.Chemscore.DEClash.Weighted>
0.0489

> <Gold.Chemscore.DEInternal.Weighted>
3.2326

> <Gold.Chemscore.Rot.Weighted>
3.9001

> <Gold.Chemscore.Internal.Correction.Weighted>
   9.000000E+99

> <Gold.Protein.RotatedTorsions>
[ 6907 6896 6895 6894 ] final -125.44 input  -60.11 | X-H torsion
[ 7974 7965 7964 7962 ] final  -67.49 input  175.53 | X-H torsion
[ 8008 7997 7996 7995 ] final  163.17 input   59.86 | X-H torsion
[ 10167 10162 10161 10158 ] final  -76.81 input  -65.29 | X-H torsion
[ 10718 10713 10712 10709 ] final  -68.31 input   66.30 | X-H torsion
[ 10763 10752 10751 10750 ] final  175.76 input  -60.55 | X-H torsion
[ 11005 11000 10999 10996 ] final   52.01 input  -57.11 | X-H torsion

> <Gold.Protein.ActiveResidues>
 VAL166  LYS551  ARG553  GLY616  TRP617  ASP618  TYR619  PRO620  LYS621  CYS622 
 ASP623  PHE694  ASN695  SER759  ASP760  ASP761  ALA762  ILE779  LEU786  VAL792 
 PHE793  MET794  SER795  GLU796  ALA797  LYS798  CYS799  TRP800  GLU811  SER814 

> <Gold.Protein.RotatedAtoms>
  150.8867  133.7297  159.2916 H   0  0  0  0  0  0  0  0  0  0  0  0  # atno 6907 bound_to 6896
  151.4861  135.1053  159.9800 H   0  0  0  0  0  0  0  0  0  0  0  0  # atno 6908 bound_to 6896
  152.4795  133.8172  159.7090 H   0  0  0  0  0  0  0  0  0  0  0  0  # atno 6909 bound_to 6896
  145.7285  140.9007  143.0592 H   0  0  0  0  0  0  0  0  0  0  0  0  # atno 7974 bound_to 7965
  156.1977  140.1731  156.7963 H   0  0  0  0  0  0  0  0  0  0  0  0  # atno 8008 bound_to 7997
  154.5551  140.0710  156.8762 H   0  0  0  0  0  0  0  0  0  0  0  0  # atno 8009 bound_to 7997
  155.2954  140.3358  155.4252 H   0  0  0  0  0  0  0  0  0  0  0  0  # atno 8010 bound_to 7997
  140.4824  143.2399  151.8036 H   0  0  0  0  0  0  0  0  0  0  0  0  # atno 10167 bound_to 10162
  156.0512  130.4292  150.1982 H   0  0  0  0  0  0  0  0  0  0  0  0  # atno 10718 bound_to 10713
  154.4720  135.2771  155.1635 H   0  0  0  0  0  0  0  0  0  0  0  0  # atno 10763 bound_to 10752
  154.3380  135.6176  153.5586 H   0  0  0  0  0  0  0  0  0  0  0  0  # atno 10764 bound_to 10752
  152.9865  135.5781  154.5103 H   0  0  0  0  0  0  0  0  0  0  0  0  # atno 10765 bound_to 10752
  140.0885  134.5242  155.8876 H   0  0  0  0  0  0  0  0  0  0  0  0  # atno 11005 bound_to 11000
  144.6899  139.9299  143.7471 LP  0  0  0  0  0  0  0  0  0  0  0  0  # atno 17320 bound_to 7965
  146.0559  139.3556  143.0611 LP  0  0  0  0  0  0  0  0  0  0  0  0  # atno 17321 bound_to 7965
  139.4836  144.4755  151.9372 LP  0  0  0  0  0  0  0  0  0  0  0  0  # atno 17342 bound_to 10162
  140.3840  144.2699  150.5906 LP  0  0  0  0  0  0  0  0  0  0  0  0  # atno 17343 bound_to 10162
  157.0065  130.9938  151.3377 LP  0  0  0  0  0  0  0  0  0  0  0  0  # atno 17370 bound_to 10713
  157.5439  130.8138  149.8062 LP  0  0  0  0  0  0  0  0  0  0  0  0  # atno 17371 bound_to 10713
  141.2070  133.6660  156.6279 LP  0  0  0  0  0  0  0  0  0  0  0  0  # atno 17394 bound_to 11000
  140.3386  134.7868  157.4381 LP  0  0  0  0  0  0  0  0  0  0  0  0  # atno 17395 bound_to 11000

$$$$
