#       Name:                AV-unprocessed.smi:2550
#       Creating user name   scv26
#       Creation time:       Fri Mar 27 14:05:44 2020


#       File generated by GOLD software.
#

@<TRIPOS>MOLECULE
AV-unprocessed.smi:2550
    32    33     1
SMALL
NO_CHARGES


@<TRIPOS>ATOM
      1 ****        -3.1525  -1.3950   0.8128 C.3            1 S1                 0.0000
      2 ****        -2.5493  -0.6776  -0.4057 C.3            1 S1                 0.0000
      3 ****        -2.9896  -1.3196  -1.7313 C.3            1 S1                 0.0000
      4 ****        -3.0491   0.6467  -0.3973 O.3            1 S1                 0.0000
      5 ****        -1.0459  -0.5757  -0.3065 C.2            1 S1                 0.0000
      6 ****        -0.2341   0.5251  -0.2478 C.2            1 S1                 0.0000
      7 ****         1.0321  -0.0108  -0.1535 N.pl3          1 S1                 0.0000
      8 ****         2.2807   0.6906  -0.1337 C.3            1 S1                 0.0000
      9 ****         3.4799   0.1577   0.6507 C.3            1 S1                 0.0000
     10 ****         3.8433   1.5440   0.9166 N.4            1 S1                 1.0000
     11 ****         2.4563   1.9460   0.7180 C.3            1 S1                 0.0000
     12 ****         1.0064  -1.3622  -0.2028 N.2            1 S1                 0.0000
     13 ****        -0.2379  -1.7152  -0.2734 N.2            1 S1                 0.0000
     14 ****        -2.8071  -2.4277   0.8731 H              1 S1                 0.0000
     15 ****        -4.2417  -1.4168   0.7637 H              1 S1                 0.0000
     16 ****        -2.8728  -0.9002   1.7437 H              1 S1                 0.0000
     17 ****        -2.6268  -2.3447  -1.8130 H              1 S1                 0.0000
     18 ****        -2.6044  -0.7653  -2.5881 H              1 S1                 0.0000
     19 ****        -4.0763  -1.3491  -1.8176 H              1 S1                 0.0000
     20 ****        -3.9913   0.6111  -0.4615 H              1 S1                 0.0000
     21 ****        -0.4401   1.5853  -0.2629 H              1 S1                 0.0000
     22 ****         2.5475   0.8834  -1.1753 H              1 S1                 0.0000
     23 ****         3.2063  -0.3763   1.5630 H              1 S1                 0.0000
     24 ****         4.2129  -0.3893   0.0571 H              1 S1                 0.0000
     25 ****         4.1893   1.7072   1.8514 H              1 S1                 0.0000
     26 ****         2.3377   2.8873   0.1806 H              1 S1                 0.0000
     27 ****         1.8849   1.9275   1.6482 H              1 S1                 0.0000
     28 ****         4.4429   1.9144   0.1929 H              1 S1                 0.0000
     29 ****        -2.6767   1.1530  -1.1751 LP             1 S1                 0.0000
     30 ****        -2.7857   1.1015   0.4534 LP             1 S1                 0.0000
     31 ****         1.7979  -1.9731  -0.1877 LP             1 S1                 0.0000
     32 ****        -0.5694  -2.6583  -0.3002 LP             1 S1                 0.0000
@<TRIPOS>BOND
    1    1    2 1     
    2    1   14 1     
    3    1   15 1     
    4    1   16 1     
    5    2    3 1     
    6    2    4 1     
    7    2    5 1     
    8    3   17 1     
    9    3   18 1     
   10    3   19 1     
   11    4   20 1     
   12    5   13 1     
   13    5    6 2     
   14    6    7 1     
   15    6   21 1     
   16    7    8 1     
   17    7   12 1     
   18    8   11 1     
   19    8    9 1     
   20    8   22 1     
   21    9   10 1     
   22    9   23 1     
   23    9   24 1     
   24   10   11 1     
   25   10   25 1     
   26   10   28 1     
   27   11   26 1     
   28   11   27 1     
   29   12   13 2     
   30    4   29 1     
   31    4   30 1     
   32   12   31 1     
   33   13   32 1     
@<TRIPOS>SUBSTRUCTURE
      1 S1             1
@<TRIPOS>SET
LONE_PAIRS      STATIC     ATOMS    <user>   **** ""
4 29 30 31 32
DONOR_HYDROGENS      STATIC     ATOMS    <user>   **** ""
3 20 25 28
ATOM$BLUE        STATIC     ATOMS    COLORGROUP SYSTEM
4 29 30 31 32
ATOM$RED        STATIC     ATOMS    COLORGROUP SYSTEM
3 20 25 28
