AV-unprocessed.smi:99|AV-procd|sdf|881|dock3
  -GOLD-   2262017353D 1   1.00000     0.00000
 Structure written by MMmdl.
 52 55  0  0  0  0  0  0  0  0  2 V2000
  144.6202  134.3657  157.6013 O   0  0  0  0  0  0  0  0  0  0  0  0
  145.4197  135.2565  157.8946 C   0  0  0  0  0  0  0  0  0  0  0  0
  145.9538  136.1069  156.9975 O   0  0  0  0  0  0  0  0  0  0  0  0
  145.5249  136.0966  155.6456 C   0  0  0  0  0  0  0  0  0  0  0  0
  146.5520  136.8572  154.7976 C   0  0  2  0  0  0  0  0  0  0  0  0
  147.1596  137.8847  155.5730 O   0  0  0  0  0  0  0  0  0  0  0  0
  147.6435  138.8979  154.7334 C   0  0  1  0  0  0  0  0  0  0  0  0
  149.1595  138.9092  154.7816 N   0  0  0  0  0  0  0  0  0  0  0  0
  149.8899  137.7361  154.8800 C   0  0  0  0  0  0  0  0  0  0  0  0
  151.2381  137.7506  154.9207 C   0  0  0  0  0  0  0  0  0  0  0  0
  151.9442  139.0272  154.8605 C   0  0  0  0  0  0  0  0  0  0  0  0
  153.1728  139.0303  154.9040 O   0  0  0  0  0  0  0  0  0  0  0  0
  151.2023  140.1676  154.7570 N   0  5  0  0  0  0  0  0  0  0  0  0
  149.8380  140.1559  154.7111 C   0  0  0  0  0  0  0  0  0  0  0  0
  149.1574  141.1768  154.6062 O   0  0  0  0  0  0  0  0  0  0  0  0
  147.0811  138.6314  153.3155 C   0  0  1  0  0  0  0  0  0  0  0  0
  148.0409  138.0613  152.4373 O   0  0  0  0  0  0  0  0  0  0  0  0
  145.9633  137.6490  153.6312 C   0  0  1  0  0  0  0  0  0  0  0  0
  145.6010  136.8642  152.4975 O   0  0  0  0  0  0  0  0  0  0  0  0
  144.4567  136.1463  152.4765 C   0  0  0  0  0  0  0  0  0  0  0  0
  143.4330  136.4662  153.0838 O   0  0  0  0  0  0  0  0  0  0  0  0
  144.5762  134.8949  151.6759 C   0  0  0  0  0  0  0  0  0  0  0  0
  143.4218  134.1140  151.4355 C   0  0  0  0  0  0  0  0  0  0  0  0
  143.5085  132.9122  150.7066 C   0  0  0  0  0  0  0  0  0  0  0  0
  144.7497  132.4794  150.2054 C   0  0  0  0  0  0  0  0  0  0  0  0
  145.9042  133.2506  150.4327 C   0  0  0  0  0  0  0  0  0  0  0  0
  145.8204  134.4512  151.1642 C   0  0  0  0  0  0  0  0  0  0  0  0
  145.9223  135.4933  159.2788 C   0  0  0  0  0  0  0  0  0  0  0  0
  146.7985  136.5758  159.5238 C   0  0  0  0  0  0  0  0  0  0  0  0
  147.2685  136.8377  160.8255 C   0  0  0  0  0  0  0  0  0  0  0  0
  146.8691  136.0192  161.8980 C   0  0  0  0  0  0  0  0  0  0  0  0
  146.0015  134.9363  161.6668 C   0  0  0  0  0  0  0  0  0  0  0  0
  145.5320  134.6723  160.3657 C   0  0  0  0  0  0  0  0  0  0  0  0
  145.4134  135.0780  155.2707 H   0  0  0  0  0  0  0  0  0  0  0  0
  144.5494  136.5800  155.5836 H   0  0  0  0  0  0  0  0  0  0  0  0
  147.3320  136.1794  154.4461 H   0  0  0  0  0  0  0  0  0  0  0  0
  147.3224  139.8515  155.1556 H   0  0  0  0  0  0  0  0  0  0  0  0
  149.3872  136.7824  154.9234 H   0  0  0  0  0  0  0  0  0  0  0  0
  151.7920  136.8264  154.9968 H   0  0  0  0  0  0  0  0  0  0  0  0
  146.7033  139.5569  152.8802 H   0  0  0  0  0  0  0  0  0  0  0  0
  148.4370  138.7569  151.9355 H   0  0  0  0  0  0  0  0  0  0  0  0
  145.1141  138.2277  153.9979 H   0  0  0  0  0  0  0  0  0  0  0  0
  142.4592  134.4219  151.8179 H   0  0  0  0  0  0  0  0  0  0  0  0
  142.6215  132.3204  150.5350 H   0  0  0  0  0  0  0  0  0  0  0  0
  144.8162  131.5570  149.6477 H   0  0  0  0  0  0  0  0  0  0  0  0
  146.8575  132.9198  150.0478 H   0  0  0  0  0  0  0  0  0  0  0  0
  146.7260  135.0178  151.3245 H   0  0  0  0  0  0  0  0  0  0  0  0
  147.1142  137.2215  158.7169 H   0  0  0  0  0  0  0  0  0  0  0  0
  147.9344  137.6697  161.0010 H   0  0  0  0  0  0  0  0  0  0  0  0
  147.2267  136.2224  162.8966 H   0  0  0  0  0  0  0  0  0  0  0  0
  145.6896  134.3097  162.4892 H   0  0  0  0  0  0  0  0  0  0  0  0
  144.8608  133.8376  160.2259 H   0  0  0  0  0  0  0  0  0  0  0  0
  1  2  2  0  0  0  0
  2  3  1  0  0  0  0
  2 28  1  0  0  0  0
  3  4  1  0  0  0  0
  4  5  1  0  0  0  0
  4 34  1  0  0  0  0
  4 35  1  0  0  0  0
  5 18  1  0  0  0  0
  5  6  1  0  0  0  0
  5 36  1  0  0  0  0
  6  7  1  0  0  0  0
  7  8  1  0  0  0  0
  7 16  1  0  0  0  0
  7 37  1  0  0  0  0
  8 14  1  0  0  0  0
  8  9  1  0  0  0  0
  9 10  2  0  0  0  0
  9 38  1  0  0  0  0
 10 11  1  0  0  0  0
 10 39  1  0  0  0  0
 11 12  2  0  0  0  0
 11 13  1  0  0  0  0
 13 14  1  0  0  0  0
 14 15  2  0  0  0  0
 16 17  1  0  0  0  0
 16 18  1  0  0  0  0
 16 40  1  0  0  0  0
 17 41  1  0  0  0  0
 18 19  1  0  0  0  0
 18 42  1  0  0  0  0
 19 20  1  0  0  0  0
 20 21  2  0  0  0  0
 20 22  1  0  0  0  0
 22 27  1  0  0  0  0
 22 23  2  0  0  0  0
 23 24  1  0  0  0  0
 23 43  1  0  0  0  0
 24 25  2  0  0  0  0
 24 44  1  0  0  0  0
 25 26  1  0  0  0  0
 25 45  1  0  0  0  0
 26 27  2  0  0  0  0
 26 46  1  0  0  0  0
 27 47  1  0  0  0  0
 28 33  1  0  0  0  0
 28 29  2  0  0  0  0
 29 30  1  0  0  0  0
 29 48  1  0  0  0  0
 30 31  2  0  0  0  0
 30 49  1  0  0  0  0
 31 32  1  0  0  0  0
 31 50  1  0  0  0  0
 32 33  2  0  0  0  0
 32 51  1  0  0  0  0
 33 52  1  0  0  0  0
M  CHG  1  13  -1
M  END
> <s_m_source_file>
AV-unprocessed.smi

> <i_m_source_file_index>
99

> <i_lp_mmshare_version>
43012

> <i_f3d_flags>
0

> <s_epik_input>
W2NIXTFbY0hdW2NIXVtjSF1bY0hdYzFDKD1PKU9bQ0gyXVtDQEBIXTJPW0NAQEhdKG4zW2NIXVtjSF1jKD1PKVtuSF1jMz1PKVtDQEBIXShbT0hdKVtDQEhdMk9DKD1PKWM0W2NIXVtjSF1bY0hdW2NIXVtjSF00

> <s_epik_cmdline>
J2VwaWtfcHl0aG9uJywgJy1waCcsICc3LjAnLCAnLXRuJywgJzgnLCAnLW1hJywgJzIwMCcsICctbWV0YWxfYmluZGluZycsICctaW1hZScsICc8aW5maWxlLm1hZT4nLCAnLW9tYWUnLCAnPG91dGZpbGUubWFlPic=

> <r_lp_tautomer_probability>
1

> <r_epik_Ionization_Penalty>
2.89159

> <r_epik_Ionization_Penalty_Charging>
2.1077e-08

> <r_epik_Ionization_Penalty_Neutral>
2.89159

> <r_epik_State_Penalty>
2.88671

> <r_epik_Charging_Adjusted_Penalty>
2.88671

> <i_epik_Tot_Q>
-1

> <i_epik_Tot_abs_Q>
1

> <r_epik_Metal_State_Penalty>
0.0727308

> <b_epik_Metal_Only>
1

> <s_epik_Chemistry_Notes>
This compound has an ester and may undergo hydrolysis at high or low pH. This compound contains an acetal/aminal-like group ( X-CH(R)-Y where X, Y are N, S, or O) that may be acid/base labile, releasing an aldehyde.

> <s_lp_Force_Field>
OPLS_2005

> <r_lp_Energy>
51.3472

> <b_lp_Chiralities_Consistent>
1

> <s_lp_Variant>
AV-unprocessed.smi:99-17

> <Gold.Version>
5.8.1

> <Gold.Id.Protein>
6NUR|6NUR_protein|mol2

> <Gold.PLP.Fitness>
50.4112

> <Gold.PLP.PLP>
-44.3551

> <Gold.PLP.part.hbond>
-2.5044

> <Gold.PLP.part.metal>
0.0000

> <Gold.PLP.part.buried>
-8.3401

> <Gold.PLP.part.nonpolar>
-34.1364

> <Gold.PLP.part.repulsive>
0.5036

> <Gold.PLP.ligand.clash>
0.0000

> <Gold.PLP.ligand.torsion>
1.7115

> <Gold.PLP.Chemscore.Hbond>
3.0000

> <Gold.PLP.Chemscore.CHOScore>
0.0000

> <Gold.PLP.Chemscore.Metal>
0.0000

> <Gold.Chemscore.Hbonds>
donor molecule, donor type, donor heavy atom, donor atom, acceptor molecule, acceptor atom, score
      L1  H    17    41       P1  7957  1.00
      P1  H  7989  7998       L1    13  0.93
      P1  H  7997  8008       L1    12  1.00

> <Gold.PLP.Chemscore.Internal.Correction>
0.4791

> <Gold.Rescore>
     Score         DG    S(hbond)    S(metal)    S(lipo)     H(rot)  DE(clash)    DE(int)     intcor
     14.25     -16.13       2.29        0.00      94.33       3.13       0.02       1.86       ----

> <Gold.Chemscore.Fitness>
14.2454

> <Gold.Chemscore.DG>
-16.1255

> <Gold.Chemscore.ZeroCoef>
-5.4800

> <Gold.Chemscore.Hbond>
2.2856

> <Gold.Chemscore.Metal>
0.0000

> <Gold.Chemscore.Lipo>
94.3270

> <Gold.Chemscore.Internal_Hbond>
0.0000

> <Gold.Chemscore.DEClash>
0.0179

> <Gold.Chemscore.DEInternal>
1.8622

> <Gold.Chemscore.Rot>
3.1346

> <Gold.Chemscore.Internal.Correction>
   9.000000E+99

> <Gold.Chemscore.Hbonds>
donor molecule, donor type, donor heavy atom, donor atom, acceptor molecule, acceptor atom, score
      L1  H    17    41       P1  7957  0.82
      P1  H  7989  7998       L1    13  0.29
      P1  H  7997  8008       L1    12  0.95

> <Gold.Chemscore.Hbond.Weighted>
-7.6338

> <Gold.Chemscore.Metal.Weighted>
-0.0000

> <Gold.Chemscore.Lipo.Weighted>
-11.0363

> <Gold.Chemscore.Internal_Hbond.Weighted>
0.0000

> <Gold.Chemscore.DEClash.Weighted>
0.0179

> <Gold.Chemscore.DEInternal.Weighted>
1.8622

> <Gold.Chemscore.Rot.Weighted>
8.0246

> <Gold.Chemscore.Internal.Correction.Weighted>
   9.000000E+99

> <Gold.Protein.RotatedTorsions>
[ 6907 6896 6895 6894 ] final   99.10 input  -60.11 | X-H torsion
[ 7974 7965 7964 7962 ] final -104.64 input  175.53 | X-H torsion
[ 8008 7997 7996 7995 ] final  -24.12 input   59.86 | X-H torsion
[ 10167 10162 10161 10158 ] final   21.91 input  -65.29 | X-H torsion
[ 10718 10713 10712 10709 ] final  158.71 input   66.30 | X-H torsion
[ 10763 10752 10751 10750 ] final   -8.21 input  -60.55 | X-H torsion
[ 11005 11000 10999 10996 ] final   -7.52 input  -57.11 | X-H torsion

> <Gold.Protein.ActiveResidues>
 VAL166  LYS551  ARG553  GLY616  TRP617  ASP618  TYR619  PRO620  LYS621  CYS622 
 ASP623  PHE694  ASN695  SER759  ASP760  ASP761  ALA762  ILE779  LEU786  VAL792 
 PHE793  MET794  SER795  GLU796  ALA797  LYS798  CYS799  TRP800  GLU811  SER814 

> <Gold.Protein.RotatedAtoms>
  152.5398  134.0480  159.8096 H   0  0  0  0  0  0  0  0  0  0  0  0  # atno 6907 bound_to 6896
  151.0625  133.5524  159.2640 H   0  0  0  0  0  0  0  0  0  0  0  0  # atno 6908 bound_to 6896
  151.2418  135.0599  159.9081 H   0  0  0  0  0  0  0  0  0  0  0  0  # atno 6909 bound_to 6896
  145.2406  140.9203  143.3152 H   0  0  0  0  0  0  0  0  0  0  0  0  # atno 7974 bound_to 7965
  154.4547  140.1962  156.0415 H   0  0  0  0  0  0  0  0  0  0  0  0  # atno 8008 bound_to 7997
  156.0721  140.3283  155.7561 H   0  0  0  0  0  0  0  0  0  0  0  0  # atno 8009 bound_to 7997
  155.5246  140.0573  157.2891 H   0  0  0  0  0  0  0  0  0  0  0  0  # atno 8010 bound_to 7997
  140.5389  143.9711  150.6508 H   0  0  0  0  0  0  0  0  0  0  0  0  # atno 10167 bound_to 10162
  157.1741  131.0617  151.2167 H   0  0  0  0  0  0  0  0  0  0  0  0  # atno 10718 bound_to 10713
  153.4372  135.7013  153.6192 H   0  0  0  0  0  0  0  0  0  0  0  0  # atno 10763 bound_to 10752
  153.4582  135.3742  155.2323 H   0  0  0  0  0  0  0  0  0  0  0  0  # atno 10764 bound_to 10752
  154.8727  135.4013  154.3765 H   0  0  0  0  0  0  0  0  0  0  0  0  # atno 10765 bound_to 10752
  140.7137  133.8887  155.8769 H   0  0  0  0  0  0  0  0  0  0  0  0  # atno 11005 bound_to 11000
  144.9593  139.3998  143.6364 LP  0  0  0  0  0  0  0  0  0  0  0  0  # atno 17320 bound_to 7965
  146.3329  139.8638  142.8852 LP  0  0  0  0  0  0  0  0  0  0  0  0  # atno 17321 bound_to 7965
  140.3106  143.3200  152.0882 LP  0  0  0  0  0  0  0  0  0  0  0  0  # atno 17342 bound_to 10162
  139.4981  144.6638  151.6403 LP  0  0  0  0  0  0  0  0  0  0  0  0  # atno 17343 bound_to 10162
  157.4015  130.7336  149.6770 LP  0  0  0  0  0  0  0  0  0  0  0  0  # atno 17370 bound_to 10713
  155.9734  130.4119  150.4007 LP  0  0  0  0  0  0  0  0  0  0  0  0  # atno 17371 bound_to 10713
  141.0063  134.1082  157.4267 LP  0  0  0  0  0  0  0  0  0  0  0  0  # atno 17394 bound_to 11000
  139.8865  135.0082  156.6504 LP  0  0  0  0  0  0  0  0  0  0  0  0  # atno 17395 bound_to 11000

$$$$
