AV-unprocessed.smi:3159|AV-procd|sdf|12050|dock4
  -GOLD-   2272017473D 1   1.00000     0.00000
 Structure written by MMmdl.
 35 36  0  0  0  0  0  0  0  0  1 V2000
  151.7553  144.9689  160.2936 C   0  0  0  0  0  0  0  0  0  0  0  0
  152.1291  143.5333  160.0694 C   0  0  0  0  0  0  0  0  0  0  0  0
  153.1051  142.7621  160.7644 C   0  0  0  0  0  0  0  0  0  0  0  0
  153.0205  141.5425  160.1496 C   0  0  0  0  0  0  0  0  0  0  0  0
  153.7275  140.4090  160.4045 N   0  0  0  0  0  0  0  0  0  0  0  0
  154.7398  140.2246  161.2701 C   0  0  0  0  0  0  0  0  0  0  0  0
  155.2122  141.0871  162.0107 O   0  0  0  0  0  0  0  0  0  0  0  0
  155.1872  138.9611  161.2268 N   0  0  0  0  0  0  0  0  0  0  0  0
  156.2805  138.4213  162.0298 C   0  0  0  0  0  0  0  0  0  0  0  0
  155.8267  137.2255  162.8883 C   0  0  1  0  0  0  0  0  0  0  0  0
  154.8384  137.5573  163.9899 C   0  0  0  0  0  0  0  0  0  0  0  0
  154.2343  136.1907  164.2995 C   0  0  0  0  0  0  0  0  0  0  0  0
  154.2924  135.4509  163.0829 O   0  0  0  0  0  0  0  0  0  0  0  0
  155.0431  136.1700  162.1094 C   0  0  0  0  0  0  0  0  0  0  0  0
  152.0583  141.6078  159.1639 N   0  0  0  0  0  0  0  0  0  0  0  0
  151.5946  140.5925  158.2377 C   0  0  0  0  0  0  0  0  0  0  0  0
  151.5115  142.8415  159.1189 N   0  0  0  0  0  0  0  0  0  0  0  0
  152.2257  145.3621  161.1951 H   0  0  0  0  0  0  0  0  0  0  0  0
  150.6770  145.0827  160.4065 H   0  0  0  0  0  0  0  0  0  0  0  0
  152.0716  145.5909  159.4559 H   0  0  0  0  0  0  0  0  0  0  0  0
  153.7475  143.0725  161.5745 H   0  0  0  0  0  0  0  0  0  0  0  0
  153.4518  139.6015  159.8655 H   0  0  0  0  0  0  0  0  0  0  0  0
  154.7385  138.3212  160.5877 H   0  0  0  0  0  0  0  0  0  0  0  0
  157.1274  138.1446  161.3993 H   0  0  0  0  0  0  0  0  0  0  0  0
  156.6365  139.2198  162.6811 H   0  0  0  0  0  0  0  0  0  0  0  0
  156.7001  136.7470  163.3351 H   0  0  0  0  0  0  0  0  0  0  0  0
  155.3027  138.0207  164.8610 H   0  0  0  0  0  0  0  0  0  0  0  0
  154.0657  138.2310  163.6165 H   0  0  0  0  0  0  0  0  0  0  0  0
  154.8326  135.6707  165.0483 H   0  0  0  0  0  0  0  0  0  0  0  0
  153.2127  136.2636  164.6732 H   0  0  0  0  0  0  0  0  0  0  0  0
  154.3446  136.6403  161.4159 H   0  0  0  0  0  0  0  0  0  0  0  0
  155.6909  135.5058  161.5369 H   0  0  0  0  0  0  0  0  0  0  0  0
  152.1025  139.6449  158.4162 H   0  0  0  0  0  0  0  0  0  0  0  0
  151.7936  140.9113  157.2141 H   0  0  0  0  0  0  0  0  0  0  0  0
  150.5215  140.4446  158.3626 H   0  0  0  0  0  0  0  0  0  0  0  0
  1  2  1  0  0  0  0
  1 18  1  0  0  0  0
  1 19  1  0  0  0  0
  1 20  1  0  0  0  0
  2 17  2  0  0  0  0
  2  3  1  0  0  0  0
  3  4  2  0  0  0  0
  3 21  1  0  0  0  0
  4  5  1  0  0  0  0
  4 15  1  0  0  0  0
  5  6  1  0  0  0  0
  5 22  1  0  0  0  0
  6  7  2  0  0  0  0
  6  8  1  0  0  0  0
  8  9  1  0  0  0  0
  8 23  1  0  0  0  0
  9 10  1  0  0  0  0
  9 24  1  0  0  0  0
  9 25  1  0  0  0  0
 10 14  1  0  0  0  0
 10 11  1  0  0  0  0
 10 26  1  0  0  0  0
 11 12  1  0  0  0  0
 11 27  1  0  0  0  0
 11 28  1  0  0  0  0
 12 13  1  0  0  0  0
 12 29  1  0  0  0  0
 12 30  1  0  0  0  0
 13 14  1  0  0  0  0
 14 31  1  0  0  0  0
 14 32  1  0  0  0  0
 15 16  1  0  0  0  0
 15 17  1  0  0  0  0
 16 33  1  0  0  0  0
 16 34  1  0  0  0  0
 16 35  1  0  0  0  0
M  END
> <s_m_source_file>
AV-unprocessed.smi

> <i_m_source_file_index>
3159

> <i_lp_mmshare_version>
43012

> <i_f3d_flags>
0

> <s_epik_input>
W0NIM11jMVtjSF1jKG4objEpW0NIM10pW05IXUMoPU8pW05IXVtDSDJdW0NAQEhdMltDSDJdW0NIMl1PW0NIMl0y

> <s_epik_cmdline>
J2VwaWtfcHl0aG9uJywgJy1waCcsICc3LjAnLCAnLXRuJywgJzgnLCAnLW1hJywgJzIwMCcsICctbWV0YWxfYmluZGluZycsICctaW1hZScsICc8aW5maWxlLm1hZT4nLCAnLW9tYWUnLCAnPG91dGZpbGUubWFlPic=

> <r_lp_tautomer_probability>
1

> <r_epik_Ionization_Penalty>
9.40319e-05

> <r_epik_Ionization_Penalty_Charging>
0

> <r_epik_Ionization_Penalty_Neutral>
9.40319e-05

> <r_epik_State_Penalty>
-0

> <r_epik_Charging_Adjusted_Penalty>
0

> <i_epik_Tot_Q>
0

> <i_epik_Tot_abs_Q>
0

> <r_epik_Metal_State_Penalty>
-0

> <b_epik_Metal_Only>
0

> <s_lp_Force_Field>
OPLS_2005

> <r_lp_Energy>
19.8906

> <b_lp_Chiralities_Consistent>
1

> <s_lp_Variant>
AV-unprocessed.smi:3159-2

> <Gold.Version>
5.8.1

> <Gold.Id.Protein>
6NUR|6NUR_protein|mol2

> <Gold.PLP.Fitness>
33.5765

> <Gold.PLP.PLP>
-33.6709

> <Gold.PLP.part.hbond>
-0.9733

> <Gold.PLP.part.metal>
0.0000

> <Gold.PLP.part.buried>
-4.8569

> <Gold.PLP.part.nonpolar>
-27.5559

> <Gold.PLP.part.repulsive>
0.0859

> <Gold.PLP.ligand.clash>
0.0000

> <Gold.PLP.ligand.torsion>
0.0499

> <Gold.PLP.Chemscore.Hbond>
0.0000

> <Gold.PLP.Chemscore.CHOScore>
0.0000

> <Gold.PLP.Chemscore.Metal>
0.0000

> <Gold.PLP.Chemscore.Internal.Correction>
0.0053

> <Gold.Rescore>
     Score         DG    S(hbond)    S(metal)    S(lipo)     H(rot)  DE(clash)    DE(int)     intcor
      8.24     -10.70       0.00        0.00      71.91       1.25       1.30       1.16       ----

> <Gold.Chemscore.Fitness>
8.2403

> <Gold.Chemscore.DG>
-10.6987

> <Gold.Chemscore.ZeroCoef>
-5.4800

> <Gold.Chemscore.Hbond>
0.0000

> <Gold.Chemscore.Metal>
0.0000

> <Gold.Chemscore.Lipo>
71.9068

> <Gold.Chemscore.Internal_Hbond>
0.0000

> <Gold.Chemscore.DEClash>
1.2950

> <Gold.Chemscore.DEInternal>
1.1634

> <Gold.Chemscore.Rot>
1.2478

> <Gold.Chemscore.Internal.Correction>
   9.000000E+99

> <Gold.Chemscore.Hbond.Weighted>
-0.0000

> <Gold.Chemscore.Metal.Weighted>
-0.0000

> <Gold.Chemscore.Lipo.Weighted>
-8.4131

> <Gold.Chemscore.Internal_Hbond.Weighted>
0.0000

> <Gold.Chemscore.DEClash.Weighted>
1.2950

> <Gold.Chemscore.DEInternal.Weighted>
1.1634

> <Gold.Chemscore.Rot.Weighted>
3.1944

> <Gold.Chemscore.Internal.Correction.Weighted>
   9.000000E+99

> <Gold.Protein.RotatedTorsions>
[ 6907 6896 6895 6894 ] final -118.27 input  -60.11 | X-H torsion
[ 7974 7965 7964 7962 ] final    5.60 input  175.53 | X-H torsion
[ 8008 7997 7996 7995 ] final  -37.87 input   59.86 | X-H torsion
[ 10167 10162 10161 10158 ] final  134.60 input  -65.29 | X-H torsion
[ 10718 10713 10712 10709 ] final  168.39 input   66.30 | X-H torsion
[ 10763 10752 10751 10750 ] final  139.38 input  -60.55 | X-H torsion
[ 11005 11000 10999 10996 ] final   27.14 input  -57.11 | X-H torsion

> <Gold.Protein.ActiveResidues>
 VAL166  LYS551  ARG553  GLY616  TRP617  ASP618  TYR619  PRO620  LYS621  CYS622 
 ASP623  PHE694  ASN695  SER759  ASP760  ASP761  ALA762  ILE779  LEU786  VAL792 
 PHE793  MET794  SER795  GLU796  ALA797  LYS798  CYS799  TRP800  GLU811  SER814 

> <Gold.Protein.RotatedAtoms>
  150.8206  133.8260  159.3140 H   0  0  0  0  0  0  0  0  0  0  0  0  # atno 6907 bound_to 6896
  151.6019  135.1045  160.0071 H   0  0  0  0  0  0  0  0  0  0  0  0  # atno 6908 bound_to 6896
  152.4295  133.7212  159.6591 H   0  0  0  0  0  0  0  0  0  0  0  0  # atno 6909 bound_to 6896
  146.2439  140.0359  142.8386 H   0  0  0  0  0  0  0  0  0  0  0  0  # atno 7974 bound_to 7965
  154.4046  140.1593  156.2607 H   0  0  0  0  0  0  0  0  0  0  0  0  # atno 8008 bound_to 7997
  155.9039  140.3431  155.6024 H   0  0  0  0  0  0  0  0  0  0  0  0  # atno 8009 bound_to 7997
  155.7416  140.0793  157.2234 H   0  0  0  0  0  0  0  0  0  0  0  0  # atno 8010 bound_to 7997
  139.5250  144.6559  151.5162 H   0  0  0  0  0  0  0  0  0  0  0  0  # atno 10167 bound_to 10162
  157.0378  131.0278  151.2723 H   0  0  0  0  0  0  0  0  0  0  0  0  # atno 10718 bound_to 10713
  153.9052  135.3017  155.3448 H   0  0  0  0  0  0  0  0  0  0  0  0  # atno 10763 bound_to 10752
  154.7650  135.4915  153.9541 H   0  0  0  0  0  0  0  0  0  0  0  0  # atno 10764 bound_to 10752
  153.1223  135.6785  153.9416 H   0  0  0  0  0  0  0  0  0  0  0  0  # atno 10765 bound_to 10752
  140.3295  134.2454  155.7704 H   0  0  0  0  0  0  0  0  0  0  0  0  # atno 11005 bound_to 11000
  145.1113  140.9406  143.4655 LP  0  0  0  0  0  0  0  0  0  0  0  0  # atno 17320 bound_to 7965
  145.0573  139.3133  143.5898 LP  0  0  0  0  0  0  0  0  0  0  0  0  # atno 17321 bound_to 7965
  140.6385  143.8936  150.6669 LP  0  0  0  0  0  0  0  0  0  0  0  0  # atno 17342 bound_to 10162
  140.2263  143.3770  152.1602 LP  0  0  0  0  0  0  0  0  0  0  0  0  # atno 17343 bound_to 10162
  157.5128  130.7949  149.7723 LP  0  0  0  0  0  0  0  0  0  0  0  0  # atno 17370 bound_to 10713
  156.0048  130.3861  150.2471 LP  0  0  0  0  0  0  0  0  0  0  0  0  # atno 17371 bound_to 10713
  141.2067  133.7826  157.0163 LP  0  0  0  0  0  0  0  0  0  0  0  0  # atno 17394 bound_to 11000
  140.0873  134.9613  157.1720 LP  0  0  0  0  0  0  0  0  0  0  0  0  # atno 17395 bound_to 11000

$$$$
