AV-unprocessed.smi:2772|AV-procd|sdf|10675|dock4
  -GOLD-   2272015123D 1   1.00000     0.00000
 Structure written by MMmdl.
 56 58  0  0  0  0  0  0  0  0  4 V2000
  150.9819  141.5172  155.8866 C   0  0  0  0  0  0  0  0  0  0  0  0
  149.7363  140.9277  155.2595 C   0  0  0  0  0  0  0  0  0  0  0  0
  149.6913  139.6071  154.7660 C   0  0  0  0  0  0  0  0  0  0  0  0
  148.4959  139.1273  154.1919 C   0  0  0  0  0  0  0  0  0  0  0  0
  147.3623  139.9672  154.1270 C   0  0  0  0  0  0  0  0  0  0  0  0
  146.1834  139.4434  153.5281 N   0  0  0  0  0  0  0  0  0  0  0  0
  145.8599  138.1576  153.3047 C   0  0  0  0  0  0  0  0  0  0  0  0
  146.5710  137.1911  153.5773 O   0  0  0  0  0  0  0  0  0  0  0  0
  144.6557  138.0523  152.7225 N   0  0  0  0  0  0  0  0  0  0  0  0
  144.0084  136.8032  152.3258 C   0  0  2  0  0  0  0  0  0  0  0  0
  143.8810  135.8634  153.5381 C   0  0  0  0  0  0  0  0  0  0  0  0
  143.3305  134.4876  153.1144 C   0  0  0  0  0  0  0  0  0  0  0  0
  144.1730  133.8488  152.0620 N   0  3  2  0  0  0  0  0  0  0  0  0
  145.5049  133.3269  152.5311 C   0  0  2  0  0  0  0  0  0  0  0  0
  146.6799  133.7008  151.5950 C   0  0  0  0  0  0  0  0  0  0  0  0
  146.5749  132.9942  150.2304 C   0  0  0  0  0  0  0  0  0  0  0  0
  146.5313  131.5191  150.3933 N   0  3  2  0  0  0  0  0  0  0  0  0
  146.4939  130.8117  149.0949 C   0  0  0  0  0  0  0  0  0  0  0  0
  145.4443  131.0812  151.3051 C   0  0  0  0  0  0  0  0  0  0  0  0
  145.5469  131.7857  152.6712 C   0  0  0  0  0  0  0  0  0  0  0  0
  144.2184  134.7388  150.8655 C   0  0  0  0  0  0  0  0  0  0  0  0
  144.8074  136.1235  151.1993 C   0  0  0  0  0  0  0  0  0  0  0  0
  147.4739  141.2880  154.6301 C   0  0  0  0  0  0  0  0  0  0  0  0
  148.6378  141.7093  155.1712 N   0  3  0  0  0  0  0  0  0  0  0  0
  151.7923  140.7880  155.9121 H   0  0  0  0  0  0  0  0  0  0  0  0
  150.7788  141.8365  156.9093 H   0  0  0  0  0  0  0  0  0  0  0  0
  151.3204  142.3825  155.3158 H   0  0  0  0  0  0  0  0  0  0  0  0
  150.5600  138.9672  154.8240 H   0  0  0  0  0  0  0  0  0  0  0  0
  148.4527  138.1178  153.8091 H   0  0  0  0  0  0  0  0  0  0  0  0
  145.5300  140.1321  153.1840 H   0  0  0  0  0  0  0  0  0  0  0  0
  144.1476  138.9046  152.5347 H   0  0  0  0  0  0  0  0  0  0  0  0
  143.0029  136.9986  151.9483 H   0  0  0  0  0  0  0  0  0  0  0  0
  144.8472  135.7447  154.0299 H   0  0  0  0  0  0  0  0  0  0  0  0
  143.2168  136.3090  154.2798 H   0  0  0  0  0  0  0  0  0  0  0  0
  143.1869  133.8431  153.9784 H   0  0  0  0  0  0  0  0  0  0  0  0
  142.3277  134.6225  152.7066 H   0  0  0  0  0  0  0  0  0  0  0  0
  145.7107  133.7571  153.5111 H   0  0  0  0  0  0  0  0  0  0  0  0
  146.7853  134.7765  151.4681 H   0  0  0  0  0  0  0  0  0  0  0  0
  147.6143  133.3950  152.0686 H   0  0  0  0  0  0  0  0  0  0  0  0
  145.6870  133.3327  149.6943 H   0  0  0  0  0  0  0  0  0  0  0  0
  147.4355  133.2624  149.6163 H   0  0  0  0  0  0  0  0  0  0  0  0
  145.5783  131.0442  148.5494 H   0  0  0  0  0  0  0  0  0  0  0  0
  146.5395  129.7321  149.2417 H   0  0  0  0  0  0  0  0  0  0  0  0
  147.3435  131.0981  148.4743 H   0  0  0  0  0  0  0  0  0  0  0  0
  144.4748  131.2811  150.8463 H   0  0  0  0  0  0  0  0  0  0  0  0
  145.5087  130.0018  151.4483 H   0  0  0  0  0  0  0  0  0  0  0  0
  146.4942  131.5028  153.1329 H   0  0  0  0  0  0  0  0  0  0  0  0
  144.7920  131.4088  153.3583 H   0  0  0  0  0  0  0  0  0  0  0  0
  144.7427  134.2825  150.0293 H   0  0  0  0  0  0  0  0  0  0  0  0
  143.1970  134.8701  150.5050 H   0  0  0  0  0  0  0  0  0  0  0  0
  144.7911  136.7506  150.3070 H   0  0  0  0  0  0  0  0  0  0  0  0
  145.8562  136.0258  151.4819 H   0  0  0  0  0  0  0  0  0  0  0  0
  146.6909  142.0307  154.6140 H   0  0  0  0  0  0  0  0  0  0  0  0
  143.6595  133.0305  151.7673 H   0  0  0  0  0  0  0  0  0  0  0  0
  147.4002  131.2544  150.8361 H   0  0  0  0  0  0  0  0  0  0  0  0
  148.6895  142.6640  155.5273 H   0  0  0  0  0  0  0  0  0  0  0  0
  1  2  1  0  0  0  0
  1 25  1  0  0  0  0
  1 26  1  0  0  0  0
  1 27  1  0  0  0  0
  2 24  1  0  0  0  0
  2  3  2  0  0  0  0
  3  4  1  0  0  0  0
  3 28  1  0  0  0  0
  4  5  2  0  0  0  0
  4 29  1  0  0  0  0
  5  6  1  0  0  0  0
  5 23  1  0  0  0  0
  6  7  1  0  0  0  0
  6 30  1  0  0  0  0
  7  8  2  0  0  0  0
  7  9  1  0  0  0  0
  9 10  1  0  0  0  0
  9 31  1  0  0  0  0
 10 22  1  0  0  0  0
 10 11  1  0  0  0  0
 10 32  1  0  0  0  0
 11 12  1  0  0  0  0
 11 33  1  0  0  0  0
 11 34  1  0  0  0  0
 12 13  1  0  0  0  0
 12 35  1  0  0  0  0
 12 36  1  0  0  0  0
 13 14  1  0  0  0  0
 13 21  1  0  0  0  0
 13 54  1  0  0  0  0
 14 20  1  0  0  0  0
 14 15  1  0  0  0  0
 14 37  1  0  0  0  0
 15 16  1  0  0  0  0
 15 38  1  0  0  0  0
 15 39  1  0  0  0  0
 16 17  1  0  0  0  0
 16 40  1  0  0  0  0
 16 41  1  0  0  0  0
 17 18  1  0  0  0  0
 17 19  1  0  0  0  0
 17 55  1  0  0  0  0
 18 42  1  0  0  0  0
 18 43  1  0  0  0  0
 18 44  1  0  0  0  0
 19 20  1  0  0  0  0
 19 45  1  0  0  0  0
 19 46  1  0  0  0  0
 20 47  1  0  0  0  0
 20 48  1  0  0  0  0
 21 22  1  0  0  0  0
 21 49  1  0  0  0  0
 21 50  1  0  0  0  0
 22 51  1  0  0  0  0
 22 52  1  0  0  0  0
 23 24  2  0  0  0  0
 23 53  1  0  0  0  0
 24 56  1  0  0  0  0
M  CHG  1  13   1
M  CHG  1  17   1
M  CHG  1  24   1
M  END
> <s_m_source_file>
AV-unprocessed.smi

> <i_m_source_file_index>
2772

> <i_lp_mmshare_version>
43012

> <i_f3d_flags>
0

> <s_epik_input>
W0NIM11jMVtjSF1bY0hdYyhbY0hdbjEpW05IXUMoPU8pW05IXVtDSF0yW0NIMl1bQ0gyXU4oW0NIMl1bQ0gyXTIpW0NIXTNbQ0gyXVtDSDJdTihbQ0gzXSlbQ0gyXVtDSDJdMw==

> <s_epik_cmdline>
J2VwaWtfcHl0aG9uJywgJy1waCcsICc3LjAnLCAnLXRuJywgJzgnLCAnLW1hJywgJzIwMCcsICctbWV0YWxfYmluZGluZycsICctaW1hZScsICc8aW5maWxlLm1hZT4nLCAnLW9tYWUnLCAnPG91dGZpbGUubWFlPic=

> <r_epik_Ionization_Penalty>
2.34117

> <r_epik_Ionization_Penalty_Charging>
2.34115

> <r_epik_Ionization_Penalty_Neutral>
2.22786e-05

> <r_epik_State_Penalty>
2.43944

> <r_epik_Charging_Adjusted_Penalty>
4.78059

> <i_epik_Tot_Q>
3

> <i_epik_Tot_abs_Q>
3

> <r_epik_Metal_State_Penalty>
2.45906

> <b_epik_Metal_Only>
0

> <s_lp_Force_Field>
OPLS_2005

> <r_lp_Energy>
58.0527

> <b_lp_Chiralities_Consistent>
1

> <s_lp_Variant>
AV-unprocessed.smi:2772-12

> <Gold.Version>
5.8.1

> <Gold.Id.Protein>
6NUR|6NUR_protein|mol2

> <Gold.PLP.Fitness>
44.1076

> <Gold.PLP.PLP>
-33.1355

> <Gold.PLP.part.hbond>
-4.9115

> <Gold.PLP.part.metal>
0.0000

> <Gold.PLP.part.buried>
1.7100

> <Gold.PLP.part.nonpolar>
-30.4164

> <Gold.PLP.part.repulsive>
0.7926

> <Gold.PLP.ligand.clash>
0.0000

> <Gold.PLP.ligand.torsion>
1.4606

> <Gold.PLP.Chemscore.Hbond>
4.6160

> <Gold.PLP.Chemscore.CHOScore>
0.0000

> <Gold.PLP.Chemscore.Metal>
0.0000

> <Gold.Chemscore.Hbonds>
donor molecule, donor type, donor heavy atom, donor atom, acceptor molecule, acceptor atom, score
      L1  H     6    30       P1 10175  0.93
      L1  H     9    31       P1 10175  1.00
      L1  H    17    55       P1 10747  0.69
      L1  H    24    56       P1  8028  1.85

> <Gold.PLP.Chemscore.Internal.Correction>
0.0454

> <Gold.Rescore>
     Score         DG    S(hbond)    S(metal)    S(lipo)     H(rot)  DE(clash)    DE(int)     intcor
     18.99     -26.93       3.65        0.00     105.97       1.22       3.12       4.82       ----

> <Gold.Chemscore.Fitness>
18.9921

> <Gold.Chemscore.DG>
-26.9310

> <Gold.Chemscore.ZeroCoef>
-5.4800

> <Gold.Chemscore.Hbond>
3.6472

> <Gold.Chemscore.Metal>
0.0000

> <Gold.Chemscore.Lipo>
105.9679

> <Gold.Chemscore.Internal_Hbond>
0.0000

> <Gold.Chemscore.DEClash>
3.1212

> <Gold.Chemscore.DEInternal>
4.8178

> <Gold.Chemscore.Rot>
1.2222

> <Gold.Chemscore.Internal.Correction>
   9.000000E+99

> <Gold.Chemscore.Hbonds>
donor molecule, donor type, donor heavy atom, donor atom, acceptor molecule, acceptor atom, score
      L1  H     6    30       P1 10175  0.86
      L1  H     9    31       P1 10175  0.99
      L1  H    17    55       P1 10747  0.68
      L1  H    24    56       P1  8028  0.88

> <Gold.Chemscore.Hbond.Weighted>
-12.1817

> <Gold.Chemscore.Metal.Weighted>
-0.0000

> <Gold.Chemscore.Lipo.Weighted>
-12.3982

> <Gold.Chemscore.Internal_Hbond.Weighted>
0.0000

> <Gold.Chemscore.DEClash.Weighted>
3.1212

> <Gold.Chemscore.DEInternal.Weighted>
4.8178

> <Gold.Chemscore.Rot.Weighted>
3.1289

> <Gold.Chemscore.Internal.Correction.Weighted>
   9.000000E+99

> <Gold.Protein.RotatedTorsions>
[ 6907 6896 6895 6894 ] final  -53.76 input  -60.11 | X-H torsion
[ 7974 7965 7964 7962 ] final  -78.70 input  175.53 | X-H torsion
[ 8008 7997 7996 7995 ] final  -26.96 input   59.86 | X-H torsion
[ 10167 10162 10161 10158 ] final   98.83 input  -65.29 | X-H torsion
[ 10718 10713 10712 10709 ] final  129.58 input   66.30 | X-H torsion
[ 10763 10752 10751 10750 ] final   13.74 input  -60.55 | X-H torsion
[ 11005 11000 10999 10996 ] final   33.96 input  -57.11 | X-H torsion

> <Gold.Protein.ActiveResidues>
 VAL166  LYS551  ARG553  GLY616  TRP617  ASP618  TYR619  PRO620  LYS621  CYS622 
 ASP623  PHE694  ASN695  SER759  ASP760  ASP761  ALA762  ILE779  LEU786  VAL792 
 PHE793  MET794  SER795  GLU796  ALA797  LYS798  CYS799  TRP800  GLU811  SER814 

> <Gold.Protein.RotatedAtoms>
  150.8398  134.7686  159.6922 H   0  0  0  0  0  0  0  0  0  0  0  0  # atno 6907 bound_to 6896
  152.4488  134.5435  159.9856 H   0  0  0  0  0  0  0  0  0  0  0  0  # atno 6908 bound_to 6896
  151.5577  133.3370  159.3001 H   0  0  0  0  0  0  0  0  0  0  0  0  # atno 6909 bound_to 6896
  145.5829  140.9445  143.1334 H   0  0  0  0  0  0  0  0  0  0  0  0  # atno 7974 bound_to 7965
  154.4400  140.1885  156.0857 H   0  0  0  0  0  0  0  0  0  0  0  0  # atno 8008 bound_to 7997
  156.0405  140.3320  155.7212 H   0  0  0  0  0  0  0  0  0  0  0  0  # atno 8009 bound_to 7997
  155.5707  140.0612  157.2798 H   0  0  0  0  0  0  0  0  0  0  0  0  # atno 8010 bound_to 7997
  139.7673  144.6934  151.0207 H   0  0  0  0  0  0  0  0  0  0  0  0  # atno 10167 bound_to 10162
  157.5141  131.1097  150.9250 H   0  0  0  0  0  0  0  0  0  0  0  0  # atno 10718 bound_to 10713
  153.1691  135.6809  153.8634 H   0  0  0  0  0  0  0  0  0  0  0  0  # atno 10763 bound_to 10752
  153.8004  135.3156  155.3390 H   0  0  0  0  0  0  0  0  0  0  0  0  # atno 10764 bound_to 10752
  154.7985  135.4792  154.0311 H   0  0  0  0  0  0  0  0  0  0  0  0  # atno 10765 bound_to 10752
  140.2577  134.3228  155.7868 H   0  0  0  0  0  0  0  0  0  0  0  0  # atno 11005 bound_to 11000
  144.7385  139.7515  143.7320 LP  0  0  0  0  0  0  0  0  0  0  0  0  # atno 17320 bound_to 7965
  146.1703  139.4850  142.9932 LP  0  0  0  0  0  0  0  0  0  0  0  0  # atno 17321 bound_to 7965
  140.7811  143.4629  151.0253 LP  0  0  0  0  0  0  0  0  0  0  0  0  # atno 17342 bound_to 10162
  139.8313  143.7687  152.3180 LP  0  0  0  0  0  0  0  0  0  0  0  0  # atno 17343 bound_to 10162
  156.9881  130.5552  149.5301 LP  0  0  0  0  0  0  0  0  0  0  0  0  # atno 17370 bound_to 10713
  156.0309  130.5400  150.8530 LP  0  0  0  0  0  0  0  0  0  0  0  0  # atno 17371 bound_to 10713
  141.2194  133.7391  156.9138 LP  0  0  0  0  0  0  0  0  0  0  0  0  # atno 17394 bound_to 11000
  140.1495  134.9240  157.2574 LP  0  0  0  0  0  0  0  0  0  0  0  0  # atno 17395 bound_to 11000

$$$$
