AV-unprocessed.smi:1150|AV-procd|sdf|4894|dock2
  -GOLD-   22720 3463D 1   1.00000     0.00000
 Structure written by MMmdl.
 50 51  0  0  0  0  0  0  0  0  1 V2000
  153.6932  138.8572  160.3965 C   0  0  0  0  0  0  0  0  0  0  0  0
  153.8083  140.3815  160.5634 C   0  0  0  0  0  0  0  0  0  0  0  0
  153.2164  141.1988  159.3898 C   0  0  1  0  0  0  0  0  0  0  0  0
  151.9202  140.6219  159.0298 N   0  0  0  0  0  0  0  0  0  0  0  0
  151.6916  139.7290  158.0525 C   0  0  0  0  0  0  0  0  0  0  0  0
  152.5533  139.3390  157.2654 O   0  0  0  0  0  0  0  0  0  0  0  0
  150.2688  139.1789  157.9625 C   0  0  0  0  0  0  0  0  0  0  0  0
  150.3242  137.6941  157.7008 C   0  0  0  0  0  0  0  0  0  0  0  0
  149.7870  136.6530  158.5141 C   0  0  0  0  0  0  0  0  0  0  0  0
  149.0477  136.7783  159.8155 C   0  0  0  0  0  0  0  0  0  0  0  0
  149.9842  135.4532  157.9940 N   0  0  0  0  0  0  0  0  0  0  0  0
  150.6440  135.6819  156.8412 N   0  0  0  0  0  0  0  0  0  0  0  0
  151.0210  134.5588  156.0054 C   0  0  0  0  0  0  0  0  0  0  0  0
  150.8676  137.0291  156.6337 C   0  0  0  0  0  0  0  0  0  0  0  0
  151.5744  137.5394  155.4192 C   0  0  0  0  0  0  0  0  0  0  0  0
  153.0637  142.7157  159.7016 C   0  0  0  0  0  0  0  0  0  0  0  0
  152.3413  142.9682  161.0502 C   0  0  0  0  0  0  0  0  0  0  0  0
  152.1805  144.4649  161.3601 C   0  0  0  0  0  0  0  0  0  0  0  0
  151.4426  145.1908  160.2287 C   0  0  0  0  0  0  0  0  0  0  0  0
  152.1597  144.9757  158.8904 C   0  0  0  0  0  0  0  0  0  0  0  0
  152.3240  143.4797  158.5756 C   0  0  0  0  0  0  0  0  0  0  0  0
  154.2066  138.3410  161.2078 H   0  0  0  0  0  0  0  0  0  0  0  0
  154.1418  138.5296  159.4584 H   0  0  0  0  0  0  0  0  0  0  0  0
  152.6551  138.5241  160.4065 H   0  0  0  0  0  0  0  0  0  0  0  0
  153.3258  140.6745  161.4967 H   0  0  0  0  0  0  0  0  0  0  0  0
  154.8660  140.6130  160.6801 H   0  0  0  0  0  0  0  0  0  0  0  0
  153.9049  141.1011  158.5485 H   0  0  0  0  0  0  0  0  0  0  0  0
  151.1390  140.8771  159.6163 H   0  0  0  0  0  0  0  0  0  0  0  0
  149.7380  139.4106  158.8862 H   0  0  0  0  0  0  0  0  0  0  0  0
  149.7320  139.7013  157.1700 H   0  0  0  0  0  0  0  0  0  0  0  0
  148.0109  137.0684  159.6450 H   0  0  0  0  0  0  0  0  0  0  0  0
  149.5025  137.5348  160.4548 H   0  0  0  0  0  0  0  0  0  0  0  0
  149.0445  135.8392  160.3697 H   0  0  0  0  0  0  0  0  0  0  0  0
  150.7572  134.7643  154.9679 H   0  0  0  0  0  0  0  0  0  0  0  0
  150.5043  133.6521  156.3235 H   0  0  0  0  0  0  0  0  0  0  0  0
  152.0967  134.3975  156.0751 H   0  0  0  0  0  0  0  0  0  0  0  0
  151.6493  138.6262  155.4287 H   0  0  0  0  0  0  0  0  0  0  0  0
  151.0414  137.2527  154.5126 H   0  0  0  0  0  0  0  0  0  0  0  0
  152.5851  137.1351  155.3614 H   0  0  0  0  0  0  0  0  0  0  0  0
  154.0659  143.1397  159.7842 H   0  0  0  0  0  0  0  0  0  0  0  0
  151.3593  142.4933  161.0330 H   0  0  0  0  0  0  0  0  0  0  0  0
  152.8875  142.5099  161.8746 H   0  0  0  0  0  0  0  0  0  0  0  0
  151.6390  144.5936  162.2977 H   0  0  0  0  0  0  0  0  0  0  0  0
  153.1628  144.9161  161.5057 H   0  0  0  0  0  0  0  0  0  0  0  0
  150.4185  144.8210  160.1612 H   0  0  0  0  0  0  0  0  0  0  0  0
  151.3748  146.2563  160.4498 H   0  0  0  0  0  0  0  0  0  0  0  0
  151.6036  145.4638  158.0894 H   0  0  0  0  0  0  0  0  0  0  0  0
  153.1404  145.4525  158.9202 H   0  0  0  0  0  0  0  0  0  0  0  0
  152.8626  143.3961  157.6329 H   0  0  0  0  0  0  0  0  0  0  0  0
  151.3422  143.0331  158.4121 H   0  0  0  0  0  0  0  0  0  0  0  0
  1  2  1  0  0  0  0
  1 22  1  0  0  0  0
  1 23  1  0  0  0  0
  1 24  1  0  0  0  0
  2  3  1  0  0  0  0
  2 25  1  0  0  0  0
  2 26  1  0  0  0  0
  3  4  1  0  0  0  0
  3 16  1  0  0  0  0
  3 27  1  0  0  0  0
  4  5  1  0  0  0  0
  4 28  1  0  0  0  0
  5  6  2  0  0  0  0
  5  7  1  0  0  0  0
  7  8  1  0  0  0  0
  7 29  1  0  0  0  0
  7 30  1  0  0  0  0
  8 14  2  0  0  0  0
  8  9  1  0  0  0  0
  9 10  1  0  0  0  0
  9 11  2  0  0  0  0
 10 31  1  0  0  0  0
 10 32  1  0  0  0  0
 10 33  1  0  0  0  0
 11 12  1  0  0  0  0
 12 13  1  0  0  0  0
 12 14  1  0  0  0  0
 13 34  1  0  0  0  0
 13 35  1  0  0  0  0
 13 36  1  0  0  0  0
 14 15  1  0  0  0  0
 15 37  1  0  0  0  0
 15 38  1  0  0  0  0
 15 39  1  0  0  0  0
 16 21  1  0  0  0  0
 16 17  1  0  0  0  0
 16 40  1  0  0  0  0
 17 18  1  0  0  0  0
 17 41  1  0  0  0  0
 17 42  1  0  0  0  0
 18 19  1  0  0  0  0
 18 43  1  0  0  0  0
 18 44  1  0  0  0  0
 19 20  1  0  0  0  0
 19 45  1  0  0  0  0
 19 46  1  0  0  0  0
 20 21  1  0  0  0  0
 20 47  1  0  0  0  0
 20 48  1  0  0  0  0
 21 49  1  0  0  0  0
 21 50  1  0  0  0  0
M  END
> <s_m_source_file>
AV-unprocessed.smi

> <i_m_source_file_index>
1150

> <i_lp_mmshare_version>
43012

> <i_f3d_flags>
0

> <s_epik_input>
W0NIMl0xW0NIMl1bQ0gyXVtDSDJdW0NIMl1bQ0hdMVtDQEhdKFtDSDJdW0NIM10pW05IXUMoPU8pW0NIMl1jMmMoW0NIM10pbm4oW0NIM10pYzJbQ0gzXQ==

> <s_epik_cmdline>
J2VwaWtfcHl0aG9uJywgJy1waCcsICc3LjAnLCAnLXRuJywgJzgnLCAnLW1hJywgJzIwMCcsICctbWV0YWxfYmluZGluZycsICctaW1hZScsICc8aW5maWxlLm1hZT4nLCAnLW9tYWUnLCAnPG91dGZpbGUubWFlPic=

> <r_lp_tautomer_probability>
1

> <r_epik_Ionization_Penalty>
0.00328092

> <r_epik_Ionization_Penalty_Charging>
0

> <r_epik_Ionization_Penalty_Neutral>
0.00328092

> <r_epik_State_Penalty>
0.00231765

> <r_epik_Charging_Adjusted_Penalty>
0.00231765

> <i_epik_Tot_Q>
0

> <i_epik_Tot_abs_Q>
0

> <r_epik_Metal_State_Penalty>
-0

> <b_epik_Metal_Only>
0

> <s_lp_Force_Field>
OPLS_2005

> <r_lp_Energy>
7.94886

> <b_lp_Chiralities_Consistent>
1

> <s_lp_Variant>
AV-unprocessed.smi:1150-2

> <Gold.Version>
5.8.1

> <Gold.Id.Protein>
6NUR|6NUR_protein|mol2

> <Gold.PLP.Fitness>
47.5315

> <Gold.PLP.PLP>
-43.6285

> <Gold.PLP.part.hbond>
-1.9781

> <Gold.PLP.part.metal>
0.0000

> <Gold.PLP.part.buried>
-6.1824

> <Gold.PLP.part.nonpolar>
-36.2138

> <Gold.PLP.part.repulsive>
0.1375

> <Gold.PLP.ligand.clash>
0.0000

> <Gold.PLP.ligand.torsion>
0.7419

> <Gold.PLP.Chemscore.Hbond>
1.7771

> <Gold.PLP.Chemscore.CHOScore>
0.0000

> <Gold.PLP.Chemscore.Metal>
0.0000

> <Gold.Chemscore.Hbonds>
donor molecule, donor type, donor heavy atom, donor atom, acceptor molecule, acceptor atom, score
      P1  H  6896  6907       L1    11  0.77
      P1  H  7997  8008       L1     6  0.91

> <Gold.PLP.Chemscore.Internal.Correction>
0.0555

> <Gold.Rescore>
     Score         DG    S(hbond)    S(metal)    S(lipo)     H(rot)  DE(clash)    DE(int)     intcor
     18.81     -22.19       1.55        0.00     129.44       1.42       0.07       3.30       ----

> <Gold.Chemscore.Fitness>
18.8135

> <Gold.Chemscore.DG>
-22.1890

> <Gold.Chemscore.ZeroCoef>
-5.4800

> <Gold.Chemscore.Hbond>
1.5547

> <Gold.Chemscore.Metal>
0.0000

> <Gold.Chemscore.Lipo>
129.4440

> <Gold.Chemscore.Internal_Hbond>
0.0000

> <Gold.Chemscore.DEClash>
0.0727

> <Gold.Chemscore.DEInternal>
3.3028

> <Gold.Chemscore.Rot>
1.4174

> <Gold.Chemscore.Internal.Correction>
   9.000000E+99

> <Gold.Chemscore.Hbonds>
donor molecule, donor type, donor heavy atom, donor atom, acceptor molecule, acceptor atom, score
      P1  H  6896  6907       L1    11  0.50
      P1  H  7997  8008       L1     6  0.89

> <Gold.Chemscore.Hbond.Weighted>
-5.1926

> <Gold.Chemscore.Metal.Weighted>
-0.0000

> <Gold.Chemscore.Lipo.Weighted>
-15.1449

> <Gold.Chemscore.Internal_Hbond.Weighted>
0.0000

> <Gold.Chemscore.DEClash.Weighted>
0.0727

> <Gold.Chemscore.DEInternal.Weighted>
3.3028

> <Gold.Chemscore.Rot.Weighted>
3.6286

> <Gold.Chemscore.Internal.Correction.Weighted>
   9.000000E+99

> <Gold.Protein.RotatedTorsions>
[ 6907 6896 6895 6894 ] final  -90.45 input  -60.11 | X-H torsion
[ 7974 7965 7964 7962 ] final    4.56 input  175.53 | X-H torsion
[ 8008 7997 7996 7995 ] final  -60.16 input   59.86 | X-H torsion
[ 10167 10162 10161 10158 ] final  -88.86 input  -65.29 | X-H torsion
[ 10718 10713 10712 10709 ] final -149.88 input   66.30 | X-H torsion
[ 10763 10752 10751 10750 ] final -165.11 input  -60.55 | X-H torsion
[ 11005 11000 10999 10996 ] final   43.40 input  -57.11 | X-H torsion

> <Gold.Protein.ActiveResidues>
 VAL166  LYS551  ARG553  GLY616  TRP617  ASP618  TYR619  PRO620  LYS621  CYS622 
 ASP623  PHE694  ASN695  SER759  ASP760  ASP761  ALA762  ILE779  LEU786  VAL792 
 PHE793  MET794  SER795  GLU796  ALA797  LYS798  CYS799  TRP800  GLU811  SER814 

> <Gold.Protein.RotatedAtoms>
  150.6882  134.2430  159.4479 H   0  0  0  0  0  0  0  0  0  0  0  0  # atno 6907 bound_to 6896
  152.0373  134.9730  160.0582 H   0  0  0  0  0  0  0  0  0  0  0  0  # atno 6908 bound_to 6896
  152.1246  133.4338  159.4728 H   0  0  0  0  0  0  0  0  0  0  0  0  # atno 6909 bound_to 6896
  146.2443  140.0516  142.8374 H   0  0  0  0  0  0  0  0  0  0  0  0  # atno 7974 bound_to 7965
  154.4386  140.1045  156.6230 H   0  0  0  0  0  0  0  0  0  0  0  0  # atno 8008 bound_to 7997
  155.5687  140.3489  155.4491 H   0  0  0  0  0  0  0  0  0  0  0  0  # atno 8009 bound_to 7997
  156.0406  140.1281  157.0149 H   0  0  0  0  0  0  0  0  0  0  0  0  # atno 8010 bound_to 7997
  140.3705  143.2797  151.9506 H   0  0  0  0  0  0  0  0  0  0  0  0  # atno 10167 bound_to 10162
  156.4389  130.8112  151.2341 H   0  0  0  0  0  0  0  0  0  0  0  0  # atno 10718 bound_to 10713
  154.6964  135.2980  154.9406 H   0  0  0  0  0  0  0  0  0  0  0  0  # atno 10763 bound_to 10752
  154.0352  135.6665  153.4788 H   0  0  0  0  0  0  0  0  0  0  0  0  # atno 10764 bound_to 10752
  153.0649  135.5094  154.8084 H   0  0  0  0  0  0  0  0  0  0  0  0  # atno 10765 bound_to 10752
  140.1648  134.4295  155.8294 H   0  0  0  0  0  0  0  0  0  0  0  0  # atno 11005 bound_to 11000
  145.0979  140.9327  143.4730 LP  0  0  0  0  0  0  0  0  0  0  0  0  # atno 17320 bound_to 7965
  145.0703  139.3037  143.5835 LP  0  0  0  0  0  0  0  0  0  0  0  0  # atno 17321 bound_to 7965
  139.4804  144.5911  151.7770 LP  0  0  0  0  0  0  0  0  0  0  0  0  # atno 17342 bound_to 10162
  140.5038  144.1129  150.5977 LP  0  0  0  0  0  0  0  0  0  0  0  0  # atno 17343 bound_to 10162
  157.7507  131.0175  150.3586 LP  0  0  0  0  0  0  0  0  0  0  0  0  # atno 17370 bound_to 10713
  156.3939  130.3903  149.7009 LP  0  0  0  0  0  0  0  0  0  0  0  0  # atno 17371 bound_to 10713
  141.2212  133.6929  156.7659 LP  0  0  0  0  0  0  0  0  0  0  0  0  # atno 17394 bound_to 11000
  140.2446  134.8587  157.3608 LP  0  0  0  0  0  0  0  0  0  0  0  0  # atno 17395 bound_to 11000

$$$$
