#       Name:                AV-unprocessed.smi:496
#       Creating user name   scv26
#       Creation time:       Thu Mar 26 23:16:59 2020


#       File generated by GOLD software.
#

@<TRIPOS>MOLECULE
AV-unprocessed.smi:496
    49    51     1
SMALL
NO_CHARGES


@<TRIPOS>ATOM
      1 ****        -4.5017   1.8553  -1.7615 C.3            1 S1                 0.0000
      2 ****        -3.9242   0.5616  -1.7622 O.3            1 S1                 0.0000
      3 ****        -2.5260   0.5949  -1.5354 C.3            1 S1                 0.0000
      4 ****        -1.9927  -0.8427  -1.5068 C.3            1 S1                 0.0000
      5 ****        -0.5328  -0.8782  -1.2932 N.pl3          1 S1                 0.0000
      6 ****         0.2206  -0.9431  -0.1474 C.2            1 S1                 0.0000
      7 ****        -0.2494  -1.0144   1.2823 C.3            1 S1                 0.0000
      8 ****        -0.3537  -2.4794   1.7312 C.3            1 S1                 0.0000
      9 ****         0.6593  -0.2934   2.1761 N.pl3          1 S1                -1.0000
     10 ****         0.2578   0.4793   3.2246 C.2            1 S1                 0.0000
     11 ****        -0.8810   0.7010   3.6496 O.2            1 S1                 0.0000
     12 ****         1.3993   1.1220   3.9179 C.2            1 S1                 0.0000
     13 ****         1.4136   1.9496   5.0095 C.2            1 S1                 0.0000
     14 ****         2.7740   2.2843   5.2552 C.2            1 S1                 0.0000
     15 ****         3.4988   1.6356   4.2976 C.2            1 S1                 0.0000
     16 ****         2.6801   0.9248   3.4762 O.3            1 S1                 0.0000
     17 ****         1.5289  -0.9461  -0.5351 N.pl3          1 S1                 1.0000
     18 ****         1.6214  -0.8618  -1.9225 C.ar           1 S1                 0.0000
     19 ****         2.7317  -0.8212  -2.7597 C.ar           1 S1                 0.0000
     20 ****         2.4768  -0.7256  -4.1432 C.ar           1 S1                 0.0000
     21 ****         1.1601  -0.6730  -4.6446 C.ar           1 S1                 0.0000
     22 ****         0.0428  -0.7155  -3.7846 C.ar           1 S1                 0.0000
     23 ****         0.3026  -0.8131  -2.4171 C.ar           1 S1                 0.0000
     24 ****        -5.5724   1.7794  -1.9504 H              1 S1                 0.0000
     25 ****        -4.0661   2.4832  -2.5398 H              1 S1                 0.0000
     26 ****        -4.3646   2.3467  -0.7973 H              1 S1                 0.0000
     27 ****        -2.0353   1.1663  -2.3250 H              1 S1                 0.0000
     28 ****        -2.3108   1.0907  -0.5873 H              1 S1                 0.0000
     29 ****        -2.4739  -1.4098  -0.7096 H              1 S1                 0.0000
     30 ****        -2.2329  -1.3686  -2.4307 H              1 S1                 0.0000
     31 ****        -1.2533  -0.5882   1.3061 H              1 S1                 0.0000
     32 ****        -1.0385  -3.0352   1.0899 H              1 S1                 0.0000
     33 ****        -0.7292  -2.5538   2.7525 H              1 S1                 0.0000
     34 ****         0.6147  -2.9801   1.6946 H              1 S1                 0.0000
     35 ****         0.5464   2.2762   5.5642 H              1 S1                 0.0000
     36 ****         3.1710   2.9186   6.0336 H              1 S1                 0.0000
     37 ****         4.5517   1.5734   4.0660 H              1 S1                 0.0000
     38 ****         3.7404  -0.8579  -2.3749 H              1 S1                 0.0000
     39 ****         3.3076  -0.6895  -4.8328 H              1 S1                 0.0000
     40 ****         1.0031  -0.5977  -5.7109 H              1 S1                 0.0000
     41 ****        -0.9607  -0.6710  -4.1804 H              1 S1                 0.0000
     42 ****         2.2960  -0.9818   0.1241 H              1 S1                 0.0000
     43 ****        -4.0956   0.1337  -2.6496 LP             1 S1                 0.0000
     44 ****        -4.3537   0.0176  -1.0413 LP             1 S1                 0.0000
     45 ****         1.6414  -0.3735   2.0056 LP             1 S1                 0.0000
     46 ****        -1.6716   0.2819   3.2033 LP             1 S1                 0.0000
     47 ****        -1.0120   1.2995   4.4399 LP             1 S1                 0.0000
     48 ****         2.7724   1.2494   2.5349 LP             1 S1                 0.0000
     49 ****         2.9118  -0.0471   3.5179 LP             1 S1                 0.0000
@<TRIPOS>BOND
    1    1    2 1     
    2    1   24 1     
    3    1   25 1     
    4    1   26 1     
    5    2    3 1     
    6    3    4 1     
    7    3   27 1     
    8    3   28 1     
    9    4    5 1     
   10    4   29 1     
   11    4   30 1     
   12    5   23 1     
   13    5    6 1     
   14    6    7 1     
   15    6   17 2     
   16    7    8 1     
   17    7    9 1     
   18    7   31 1     
   19    8   32 1     
   20    8   33 1     
   21    8   34 1     
   22    9   10 1     
   23   10   11 2     
   24   10   12 1     
   25   12   16 1     
   26   12   13 2     
   27   13   14 1     
   28   13   35 1     
   29   14   15 2     
   30   14   36 1     
   31   15   16 1     
   32   15   37 1     
   33   17   18 1     
   34   17   42 1     
   35   18   23 ar    
   36   18   19 ar    
   37   19   20 ar    
   38   19   38 1     
   39   20   21 ar    
   40   20   39 1     
   41   21   22 ar    
   42   21   40 1     
   43   22   23 ar    
   44   22   41 1     
   45    2   43 1     
   46    2   44 1     
   47    9   45 1     
   48   11   46 1     
   49   11   47 1     
   50   16   48 1     
   51   16   49 1     
@<TRIPOS>SUBSTRUCTURE
      1 S1             1
@<TRIPOS>SET
LONE_PAIRS      STATIC     ATOMS    <user>   **** ""
7 43 44 45 46 47 48 49
DONOR_HYDROGENS      STATIC     ATOMS    <user>   **** ""
1 42
ATOM$BLUE        STATIC     ATOMS    COLORGROUP SYSTEM
7 43 44 45 46 47 48 49
ATOM$RED        STATIC     ATOMS    COLORGROUP SYSTEM
1 42
