AV-unprocessed.smi:1590|AV-procd|sdf|6395|dock10
  -GOLD-   22720 7 33D 1   1.00000     0.00000
 Structure written by MMmdl.
 35 36  0  0  0  0  0  0  0  0  1 V2000
  146.8166  137.3593  154.1481 C   0  0  0  0  0  0  0  0  0  0  0  0
  146.7806  138.7718  153.5462 C   0  0  0  0  0  0  0  0  0  0  0  0
  146.7959  138.7549  152.0111 C   0  0  0  0  0  0  0  0  0  0  0  0
  147.8605  139.6469  154.1047 C   0  0  0  0  0  0  0  0  0  0  0  0
  149.1615  139.3560  153.9752 N   0  0  0  0  0  0  0  0  0  0  0  0
  149.9783  140.3055  154.5725 N   0  0  0  0  0  0  0  0  0  0  0  0
  149.2685  141.2883  155.1428 C   0  0  0  0  0  0  0  0  0  0  0  0
  149.8516  142.3948  155.8150 N   0  0  0  0  0  0  0  0  0  0  0  0
  150.8761  142.3951  156.6860 C   0  0  0  0  0  0  0  0  0  0  0  0
  151.4715  141.3943  157.0858 O   0  0  0  0  0  0  0  0  0  0  0  0
  151.1766  143.6405  157.0809 N   0  0  0  0  0  0  0  0  0  0  0  0
  152.2369  143.9872  158.0201 C   0  0  0  0  0  0  0  0  0  0  0  0
  151.9270  143.4785  159.4255 C   0  0  0  0  0  0  0  0  0  0  0  0
  151.9312  144.4548  160.6121 C   0  0  0  0  0  0  0  0  0  0  0  0
  152.5021  143.3295  161.4789 C   0  0  0  0  0  0  0  0  0  0  0  0
  152.9871  142.6687  160.1859 C   0  0  0  0  0  0  0  0  0  0  0  0
  147.5269  141.1297  154.9977 S   0  0  0  0  0  0  0  0  0  0  0  0
  146.7384  137.3947  155.2351 H   0  0  0  0  0  0  0  0  0  0  0  0
  147.7422  136.8408  153.8964 H   0  0  0  0  0  0  0  0  0  0  0  0
  145.9886  136.7545  153.7780 H   0  0  0  0  0  0  0  0  0  0  0  0
  145.8284  139.2131  153.8448 H   0  0  0  0  0  0  0  0  0  0  0  0
  146.6983  139.7633  151.6075 H   0  0  0  0  0  0  0  0  0  0  0  0
  145.9703  138.1616  151.6174 H   0  0  0  0  0  0  0  0  0  0  0  0
  147.7230  138.3291  151.6259 H   0  0  0  0  0  0  0  0  0  0  0  0
  149.4496  143.2943  155.5962 H   0  0  0  0  0  0  0  0  0  0  0  0
  150.6348  144.4049  156.7051 H   0  0  0  0  0  0  0  0  0  0  0  0
  153.1924  143.5933  157.6704 H   0  0  0  0  0  0  0  0  0  0  0  0
  152.3400  145.0727  158.0236 H   0  0  0  0  0  0  0  0  0  0  0  0
  150.9909  142.9157  159.4384 H   0  0  0  0  0  0  0  0  0  0  0  0
  152.6325  145.2805  160.4806 H   0  0  0  0  0  0  0  0  0  0  0  0
  150.9449  144.8090  160.9134 H   0  0  0  0  0  0  0  0  0  0  0  0
  153.2957  143.6358  162.1610 H   0  0  0  0  0  0  0  0  0  0  0  0
  151.7289  142.7509  161.9869 H   0  0  0  0  0  0  0  0  0  0  0  0
  152.8499  141.5878  160.1448 H   0  0  0  0  0  0  0  0  0  0  0  0
  154.0075  142.9547  159.9248 H   0  0  0  0  0  0  0  0  0  0  0  0
  1  2  1  0  0  0  0
  1 18  1  0  0  0  0
  1 19  1  0  0  0  0
  1 20  1  0  0  0  0
  2  3  1  0  0  0  0
  2  4  1  0  0  0  0
  2 21  1  0  0  0  0
  3 22  1  0  0  0  0
  3 23  1  0  0  0  0
  3 24  1  0  0  0  0
  4 17  1  0  0  0  0
  4  5  2  0  0  0  0
  5  6  1  0  0  0  0
  6  7  2  0  0  0  0
  7  8  1  0  0  0  0
  7 17  1  0  0  0  0
  8  9  1  0  0  0  0
  8 25  1  0  0  0  0
  9 10  2  0  0  0  0
  9 11  1  0  0  0  0
 11 12  1  0  0  0  0
 11 26  1  0  0  0  0
 12 13  1  0  0  0  0
 12 27  1  0  0  0  0
 12 28  1  0  0  0  0
 13 16  1  0  0  0  0
 13 14  1  0  0  0  0
 13 29  1  0  0  0  0
 14 15  1  0  0  0  0
 14 30  1  0  0  0  0
 14 31  1  0  0  0  0
 15 16  1  0  0  0  0
 15 32  1  0  0  0  0
 15 33  1  0  0  0  0
 16 34  1  0  0  0  0
 16 35  1  0  0  0  0
M  END
> <s_m_source_file>
AV-unprocessed.smi

> <i_m_source_file_index>
1590

> <i_lp_mmshare_version>
43012

> <i_f3d_flags>
0

> <s_epik_input>
W0NIM11bQ0hdKFtDSDNdKWMxbm5jKHMxKVtOSF1DKD1PKVtOSF1bQ0gyXVtDSF0yW0NIMl1bQ0gyXVtDSDJdMg==

> <s_epik_cmdline>
J2VwaWtfcHl0aG9uJywgJy1waCcsICc3LjAnLCAnLXRuJywgJzgnLCAnLW1hJywgJzIwMCcsICctbWV0YWxfYmluZGluZycsICctaW1hZScsICc8aW5maWxlLm1hZT4nLCAnLW9tYWUnLCAnPG91dGZpbGUubWFlPic=

> <r_lp_tautomer_probability>
1

> <r_epik_Ionization_Penalty>
0.000374979

> <r_epik_Ionization_Penalty_Charging>
0

> <r_epik_Ionization_Penalty_Neutral>
0.000374979

> <r_epik_State_Penalty>
-0

> <r_epik_Charging_Adjusted_Penalty>
0

> <i_epik_Tot_Q>
0

> <i_epik_Tot_abs_Q>
0

> <r_epik_Metal_State_Penalty>
0.186879

> <b_epik_Metal_Only>
0

> <s_lp_Force_Field>
OPLS_2005

> <r_lp_Energy>
5.08701

> <b_lp_Chiralities_Consistent>
1

> <s_lp_Variant>
AV-unprocessed.smi:1590-1

> <Gold.Version>
5.8.1

> <Gold.Id.Protein>
6NUR|6NUR_protein|mol2

> <Gold.PLP.Fitness>
43.3231

> <Gold.PLP.PLP>
-37.1882

> <Gold.PLP.part.hbond>
-2.9480

> <Gold.PLP.part.metal>
0.0000

> <Gold.PLP.part.buried>
-5.2685

> <Gold.PLP.part.nonpolar>
-31.2119

> <Gold.PLP.part.repulsive>
1.9085

> <Gold.PLP.ligand.clash>
0.0000

> <Gold.PLP.ligand.torsion>
1.1412

> <Gold.PLP.Chemscore.Hbond>
2.7673

> <Gold.PLP.Chemscore.CHOScore>
0.0000

> <Gold.PLP.Chemscore.Metal>
0.0000

> <Gold.Chemscore.Hbonds>
donor molecule, donor type, donor heavy atom, donor atom, acceptor molecule, acceptor atom, score
      L1  H     8    25       P1  8028  1.00
      L1  H    11    26       P1  8028  0.81
      P1  H  7989  7998       L1     6  0.92

> <Gold.PLP.Chemscore.Internal.Correction>
0.1156

> <Gold.Rescore>
     Score         DG    S(hbond)    S(metal)    S(lipo)     H(rot)  DE(clash)    DE(int)     intcor
     19.20     -20.40       2.53        0.00      85.70       1.39       0.03       1.18       ----

> <Gold.Chemscore.Fitness>
19.1951

> <Gold.Chemscore.DG>
-20.3998

> <Gold.Chemscore.ZeroCoef>
-5.4800

> <Gold.Chemscore.Hbond>
2.5288

> <Gold.Chemscore.Metal>
0.0000

> <Gold.Chemscore.Lipo>
85.6961

> <Gold.Chemscore.Internal_Hbond>
0.0000

> <Gold.Chemscore.DEClash>
0.0281

> <Gold.Chemscore.DEInternal>
1.1766

> <Gold.Chemscore.Rot>
1.3879

> <Gold.Chemscore.Internal.Correction>
   9.000000E+99

> <Gold.Chemscore.Hbonds>
donor molecule, donor type, donor heavy atom, donor atom, acceptor molecule, acceptor atom, score
      L1  H     8    25       P1  8028  0.93
      L1  H    11    26       P1  8028  0.75
      P1  H  7989  7998       L1     6  0.72

> <Gold.Chemscore.Hbond.Weighted>
-8.4462

> <Gold.Chemscore.Metal.Weighted>
-0.0000

> <Gold.Chemscore.Lipo.Weighted>
-10.0264

> <Gold.Chemscore.Internal_Hbond.Weighted>
0.0000

> <Gold.Chemscore.DEClash.Weighted>
0.0281

> <Gold.Chemscore.DEInternal.Weighted>
1.1766

> <Gold.Chemscore.Rot.Weighted>
3.5529

> <Gold.Chemscore.Internal.Correction.Weighted>
   9.000000E+99

> <Gold.Protein.RotatedTorsions>
[ 6907 6896 6895 6894 ] final  136.99 input  -60.11 | X-H torsion
[ 7974 7965 7964 7962 ] final -114.06 input  175.53 | X-H torsion
[ 8008 7997 7996 7995 ] final  120.91 input   59.86 | X-H torsion
[ 10167 10162 10161 10158 ] final -110.83 input  -65.29 | X-H torsion
[ 10718 10713 10712 10709 ] final -101.76 input   66.30 | X-H torsion
[ 10763 10752 10751 10750 ] final -112.79 input  -60.55 | X-H torsion
[ 11005 11000 10999 10996 ] final  -48.14 input  -57.11 | X-H torsion

> <Gold.Protein.ActiveResidues>
 VAL166  LYS551  ARG553  GLY616  TRP617  ASP618  TYR619  PRO620  LYS621  CYS622 
 ASP623  PHE694  ASN695  SER759  ASP760  ASP761  ALA762  ILE779  LEU786  VAL792 
 PHE793  MET794  SER795  GLU796  ALA797  LYS798  CYS799  TRP800  GLU811  SER814 

> <Gold.Protein.RotatedAtoms>
  152.2831  133.5489  159.5510 H   0  0  0  0  0  0  0  0  0  0  0  0  # atno 6907 bound_to 6896
  150.7204  134.0535  159.3815 H   0  0  0  0  0  0  0  0  0  0  0  0  # atno 6908 bound_to 6896
  151.8445  135.0579  160.0503 H   0  0  0  0  0  0  0  0  0  0  0  0  # atno 6909 bound_to 6896
  145.1247  140.8689  143.3793 H   0  0  0  0  0  0  0  0  0  0  0  0  # atno 7974 bound_to 7965
  156.2663  140.2820  156.1224 H   0  0  0  0  0  0  0  0  0  0  0  0  # atno 8008 bound_to 7997
  155.1141  140.0391  157.2749 H   0  0  0  0  0  0  0  0  0  0  0  0  # atno 8009 bound_to 7997
  154.6720  140.2590  155.7003 H   0  0  0  0  0  0  0  0  0  0  0  0  # atno 8010 bound_to 7997
  140.1402  143.4286  152.1567 H   0  0  0  0  0  0  0  0  0  0  0  0  # atno 10167 bound_to 10162
  156.0205  130.5389  150.7010 H   0  0  0  0  0  0  0  0  0  0  0  0  # atno 10718 bound_to 10713
  154.8366  135.4478  154.1248 H   0  0  0  0  0  0  0  0  0  0  0  0  # atno 10763 bound_to 10752
  153.2474  135.6923  153.7722 H   0  0  0  0  0  0  0  0  0  0  0  0  # atno 10764 bound_to 10752
  153.7047  135.3366  155.3208 H   0  0  0  0  0  0  0  0  0  0  0  0  # atno 10765 bound_to 10752
  141.0683  133.6687  156.3398 H   0  0  0  0  0  0  0  0  0  0  0  0  # atno 11005 bound_to 11000
  145.0701  139.3038  143.5836 LP  0  0  0  0  0  0  0  0  0  0  0  0  # atno 17320 bound_to 7965
  146.3518  140.0173  142.8661 LP  0  0  0  0  0  0  0  0  0  0  0  0  # atno 17321 bound_to 7965
  139.5476  144.7311  151.4535 LP  0  0  0  0  0  0  0  0  0  0  0  0  # atno 17342 bound_to 10162
  140.6765  143.8178  150.7065 LP  0  0  0  0  0  0  0  0  0  0  0  0  # atno 17343 bound_to 10162
  157.4670  131.0889  151.0683 LP  0  0  0  0  0  0  0  0  0  0  0  0  # atno 17370 bound_to 10713
  157.1155  130.6039  149.5492 LP  0  0  0  0  0  0  0  0  0  0  0  0  # atno 17371 bound_to 10713
  140.5727  134.5824  157.5461 LP  0  0  0  0  0  0  0  0  0  0  0  0  # atno 17394 bound_to 11000
  139.9498  134.7637  156.0476 LP  0  0  0  0  0  0  0  0  0  0  0  0  # atno 17395 bound_to 11000

$$$$
