AV-unprocessed.smi:2186|AV-procd|sdf|8877|dock2
  -GOLD-   2272012 73D 1   1.00000     0.00000
 Structure written by MMmdl.
 44 45  0  0  0  0  0  0  0  0  2 V2000
  152.7772  144.6644  158.1944 C   0  0  0  0  0  0  0  0  0  0  0  0
  152.2053  143.4747  158.9784 C   0  0  0  0  0  0  0  0  0  0  0  0
  153.1835  142.9140  160.0219 C   0  0  0  0  0  0  0  0  0  0  0  0
  151.6816  142.4033  158.0754 C   0  0  0  0  0  0  0  0  0  0  0  0
  150.7680  142.6201  157.1255 N   0  0  0  0  0  0  0  0  0  0  0  0
  150.4732  141.4725  156.3799 C   0  0  0  0  0  0  0  0  0  0  0  0
  149.4989  141.5403  155.2348 C   0  0  0  0  0  0  0  0  0  0  0  0
  149.2848  140.1535  154.6193 C   0  0  0  0  0  0  0  0  0  0  0  0
  150.2219  139.5688  154.0762 O   0  0  0  0  0  0  0  0  0  0  0  0
  148.0557  139.6250  154.7349 N   0  0  0  0  0  0  0  0  0  0  0  0
  147.6982  138.2602  154.3720 C   0  0  0  0  0  0  0  0  0  0  0  0
  146.5527  138.2558  153.3408 C   0  0  0  0  0  0  0  0  0  0  0  0
  146.3617  136.9319  152.6987 N   0  3  0  0  0  0  0  0  0  0  0  0
  146.0378  135.8739  153.6858 C   0  0  0  0  0  0  0  0  0  0  0  0
  145.8958  134.5101  152.9896 C   0  0  0  0  0  0  0  0  0  0  0  0
  144.8939  134.5933  151.9843 O   0  0  0  0  0  0  0  0  0  0  0  0
  145.2298  135.5400  150.9780 C   0  0  0  0  0  0  0  0  0  0  0  0
  145.3604  136.9400  151.6028 C   0  0  0  0  0  0  0  0  0  0  0  0
  151.1625  140.3644  156.8069 C   0  0  0  0  0  0  0  0  0  0  0  0
  152.2222  140.7299  158.1411 S   0  0  0  0  0  0  0  0  0  0  0  0
  152.0304  145.0845  157.5197 H   0  0  0  0  0  0  0  0  0  0  0  0
  153.6383  144.3679  157.5948 H   0  0  0  0  0  0  0  0  0  0  0  0
  153.0992  145.4598  158.8669 H   0  0  0  0  0  0  0  0  0  0  0  0
  151.3473  143.8558  159.5336 H   0  0  0  0  0  0  0  0  0  0  0  0
  152.7160  142.1273  160.6149 H   0  0  0  0  0  0  0  0  0  0  0  0
  153.5151  143.6934  160.7083 H   0  0  0  0  0  0  0  0  0  0  0  0
  154.0698  142.4906  159.5477 H   0  0  0  0  0  0  0  0  0  0  0  0
  148.5350  141.9282  155.5666 H   0  0  0  0  0  0  0  0  0  0  0  0
  149.8620  142.2269  154.4690 H   0  0  0  0  0  0  0  0  0  0  0  0
  147.3429  140.1809  155.1856 H   0  0  0  0  0  0  0  0  0  0  0  0
  148.5919  137.7895  153.9643 H   0  0  0  0  0  0  0  0  0  0  0  0
  147.4214  137.6910  155.2610 H   0  0  0  0  0  0  0  0  0  0  0  0
  145.6283  138.5305  153.8514 H   0  0  0  0  0  0  0  0  0  0  0  0
  146.7178  139.0177  152.5770 H   0  0  0  0  0  0  0  0  0  0  0  0
  146.8221  135.8180  154.4418 H   0  0  0  0  0  0  0  0  0  0  0  0
  145.1109  136.1269  154.2029 H   0  0  0  0  0  0  0  0  0  0  0  0
  146.8443  134.1936  152.5521 H   0  0  0  0  0  0  0  0  0  0  0  0
  145.6083  133.7468  153.7128 H   0  0  0  0  0  0  0  0  0  0  0  0
  146.1552  135.2466  150.4795 H   0  0  0  0  0  0  0  0  0  0  0  0
  144.4465  135.5398  150.2197 H   0  0  0  0  0  0  0  0  0  0  0  0
  144.3940  137.2636  151.9926 H   0  0  0  0  0  0  0  0  0  0  0  0
  145.6471  137.6495  150.8277 H   0  0  0  0  0  0  0  0  0  0  0  0
  151.1185  139.3596  156.4132 H   0  0  0  0  0  0  0  0  0  0  0  0
  147.2496  136.6767  152.2903 H   0  0  0  0  0  0  0  0  0  0  0  0
  1  2  1  0  0  0  0
  1 21  1  0  0  0  0
  1 22  1  0  0  0  0
  1 23  1  0  0  0  0
  2  3  1  0  0  0  0
  2  4  1  0  0  0  0
  2 24  1  0  0  0  0
  3 25  1  0  0  0  0
  3 26  1  0  0  0  0
  3 27  1  0  0  0  0
  4 20  1  0  0  0  0
  4  5  2  0  0  0  0
  5  6  1  0  0  0  0
  6  7  1  0  0  0  0
  6 19  2  0  0  0  0
  7  8  1  0  0  0  0
  7 28  1  0  0  0  0
  7 29  1  0  0  0  0
  8  9  2  0  0  0  0
  8 10  1  0  0  0  0
 10 11  1  0  0  0  0
 10 30  1  0  0  0  0
 11 12  1  0  0  0  0
 11 31  1  0  0  0  0
 11 32  1  0  0  0  0
 12 13  1  0  0  0  0
 12 33  1  0  0  0  0
 12 34  1  0  0  0  0
 13 18  1  0  0  0  0
 13 14  1  0  0  0  0
 13 44  1  0  0  0  0
 14 15  1  0  0  0  0
 14 35  1  0  0  0  0
 14 36  1  0  0  0  0
 15 16  1  0  0  0  0
 15 37  1  0  0  0  0
 15 38  1  0  0  0  0
 16 17  1  0  0  0  0
 17 18  1  0  0  0  0
 17 39  1  0  0  0  0
 17 40  1  0  0  0  0
 18 41  1  0  0  0  0
 18 42  1  0  0  0  0
 19 20  1  0  0  0  0
 19 43  1  0  0  0  0
M  CHG  1  13   1
M  END
> <s_m_source_file>
AV-unprocessed.smi

> <i_m_source_file_index>
2186

> <i_lp_mmshare_version>
43012

> <i_f3d_flags>
0

> <s_epik_input>
W0NIM11bQ0hdKFtDSDNdKWMxbmMoW2NIXXMxKVtDSDJdQyg9TylbTkhdW0NIMl1bQ0gyXU4yW0NIMl1bQ0gyXU9bQ0gyXVtDSDJdMg==

> <s_epik_cmdline>
J2VwaWtfcHl0aG9uJywgJy1waCcsICc3LjAnLCAnLXRuJywgJzgnLCAnLW1hJywgJzIwMCcsICctbWV0YWxfYmluZGluZycsICctaW1hZScsICc8aW5maWxlLm1hZT4nLCAnLW9tYWUnLCAnPG91dGZpbGUubWFlPic=

> <r_epik_Ionization_Penalty>
0.678862

> <r_epik_Ionization_Penalty_Charging>
0.678842

> <r_epik_Ionization_Penalty_Neutral>
2.00527e-05

> <r_epik_State_Penalty>
0.699693

> <r_epik_Charging_Adjusted_Penalty>
1.37854

> <i_epik_Tot_Q>
1

> <i_epik_Tot_abs_Q>
1

> <r_epik_Metal_State_Penalty>
0.699708

> <b_epik_Metal_Only>
0

> <s_lp_Force_Field>
OPLS_2005

> <r_lp_Energy>
6.68048

> <b_lp_Chiralities_Consistent>
1

> <s_lp_Variant>
AV-unprocessed.smi:2186-2

> <Gold.Version>
5.8.1

> <Gold.Id.Protein>
6NUR|6NUR_protein|mol2

> <Gold.PLP.Fitness>
46.0339

> <Gold.PLP.PLP>
-37.1662

> <Gold.PLP.part.hbond>
-2.0000

> <Gold.PLP.part.metal>
0.0000

> <Gold.PLP.part.buried>
-2.5326

> <Gold.PLP.part.nonpolar>
-33.7585

> <Gold.PLP.part.repulsive>
0.7822

> <Gold.PLP.ligand.clash>
0.0000

> <Gold.PLP.ligand.torsion>
0.1277

> <Gold.PLP.Chemscore.Hbond>
3.0000

> <Gold.PLP.Chemscore.CHOScore>
0.0000

> <Gold.PLP.Chemscore.Metal>
0.0000

> <Gold.Chemscore.Hbonds>
donor molecule, donor type, donor heavy atom, donor atom, acceptor molecule, acceptor atom, score
      L1  H    13    44       P1  7948  2.00
      P1  H  7989  7998       L1     9  1.00

> <Gold.PLP.Chemscore.Internal.Correction>
0.1231

> <Gold.Rescore>
     Score         DG    S(hbond)    S(metal)    S(lipo)     H(rot)  DE(clash)    DE(int)     intcor
     17.58     -18.85       1.84        0.00     101.62       1.82       0.19       1.08       ----

> <Gold.Chemscore.Fitness>
17.5762

> <Gold.Chemscore.DG>
-18.8478

> <Gold.Chemscore.ZeroCoef>
-5.4800

> <Gold.Chemscore.Hbond>
1.8390

> <Gold.Chemscore.Metal>
0.0000

> <Gold.Chemscore.Lipo>
101.6165

> <Gold.Chemscore.Internal_Hbond>
0.0000

> <Gold.Chemscore.DEClash>
0.1885

> <Gold.Chemscore.DEInternal>
1.0831

> <Gold.Chemscore.Rot>
1.8217

> <Gold.Chemscore.Internal.Correction>
   9.000000E+99

> <Gold.Chemscore.Hbonds>
donor molecule, donor type, donor heavy atom, donor atom, acceptor molecule, acceptor atom, score
      L1  H    13    44       P1  7948  1.00
      P1  H  7989  7998       L1     9  0.74

> <Gold.Chemscore.Hbond.Weighted>
-6.1422

> <Gold.Chemscore.Metal.Weighted>
-0.0000

> <Gold.Chemscore.Lipo.Weighted>
-11.8891

> <Gold.Chemscore.Internal_Hbond.Weighted>
0.0000

> <Gold.Chemscore.DEClash.Weighted>
0.1885

> <Gold.Chemscore.DEInternal.Weighted>
1.0831

> <Gold.Chemscore.Rot.Weighted>
4.6635

> <Gold.Chemscore.Internal.Correction.Weighted>
   9.000000E+99

> <Gold.Protein.RotatedTorsions>
[ 6907 6896 6895 6894 ] final   95.05 input  -60.11 | X-H torsion
[ 7974 7965 7964 7962 ] final  -58.43 input  175.53 | X-H torsion
[ 8008 7997 7996 7995 ] final   33.97 input   59.86 | X-H torsion
[ 10167 10162 10161 10158 ] final -157.14 input  -65.29 | X-H torsion
[ 10718 10713 10712 10709 ] final   24.42 input   66.30 | X-H torsion
[ 10763 10752 10751 10750 ] final -134.01 input  -60.55 | X-H torsion
[ 11005 11000 10999 10996 ] final  -60.72 input  -57.11 | X-H torsion

> <Gold.Protein.ActiveResidues>
 VAL166  LYS551  ARG553  GLY616  TRP617  ASP618  TYR619  PRO620  LYS621  CYS622 
 ASP623  PHE694  ASN695  SER759  ASP760  ASP761  ALA762  ILE779  LEU786  VAL792 
 PHE793  MET794  SER795  GLU796  ALA797  LYS798  CYS799  TRP800  GLU811  SER814 

> <Gold.Protein.RotatedAtoms>
  152.5446  134.1099  159.8353 H   0  0  0  0  0  0  0  0  0  0  0  0  # atno 6907 bound_to 6896
  151.1166  133.5126  159.2611 H   0  0  0  0  0  0  0  0  0  0  0  0  # atno 6908 bound_to 6896
  151.1825  135.0376  159.8853 H   0  0  0  0  0  0  0  0  0  0  0  0  # atno 6909 bound_to 6896
  145.8394  140.8427  143.0042 H   0  0  0  0  0  0  0  0  0  0  0  0  # atno 7974 bound_to 7965
  155.1472  140.3271  155.4439 H   0  0  0  0  0  0  0  0  0  0  0  0  # atno 8008 bound_to 7997
  156.2586  140.1983  156.6535 H   0  0  0  0  0  0  0  0  0  0  0  0  # atno 8009 bound_to 7997
  154.6500  140.0559  156.9930 H   0  0  0  0  0  0  0  0  0  0  0  0  # atno 8010 bound_to 7997
  139.6794  143.9607  152.2328 H   0  0  0  0  0  0  0  0  0  0  0  0  # atno 10167 bound_to 10162
  157.1795  130.6796  149.6108 H   0  0  0  0  0  0  0  0  0  0  0  0  # atno 10718 bound_to 10713
  154.8725  135.3748  154.4667 H   0  0  0  0  0  0  0  0  0  0  0  0  # atno 10763 bound_to 10752
  153.5330  135.7027  153.5679 H   0  0  0  0  0  0  0  0  0  0  0  0  # atno 10764 bound_to 10752
  153.3874  135.3981  155.1865 H   0  0  0  0  0  0  0  0  0  0  0  0  # atno 10765 bound_to 10752
  141.1298  133.6624  156.5266 H   0  0  0  0  0  0  0  0  0  0  0  0  # atno 11005 bound_to 11000
  144.6734  140.0789  143.7470 LP  0  0  0  0  0  0  0  0  0  0  0  0  # atno 17320 bound_to 7965
  145.9482  139.2715  143.1228 LP  0  0  0  0  0  0  0  0  0  0  0  0  # atno 17321 bound_to 7965
  139.9393  144.6692  150.8283 LP  0  0  0  0  0  0  0  0  0  0  0  0  # atno 17342 bound_to 10162
  140.7647  143.3255  151.2525 LP  0  0  0  0  0  0  0  0  0  0  0  0  # atno 17343 bound_to 10162
  155.9726  130.4651  150.6243 LP  0  0  0  0  0  0  0  0  0  0  0  0  # atno 17370 bound_to 10713
  157.3966  131.0803  151.1346 LP  0  0  0  0  0  0  0  0  0  0  0  0  # atno 17371 bound_to 10713
  140.4249  134.7154  157.4910 LP  0  0  0  0  0  0  0  0  0  0  0  0  # atno 17394 bound_to 11000
  140.0334  134.6373  155.9076 LP  0  0  0  0  0  0  0  0  0  0  0  0  # atno 17395 bound_to 11000

$$$$
