#       Name:                AV-unprocessed.smi:809
#       Creating user name   scv26
#       Creation time:       Fri Mar 27 01:24:38 2020


#       File generated by GOLD software.
#

@<TRIPOS>MOLECULE
AV-unprocessed.smi:809
    45    46     1
SMALL
NO_CHARGES


@<TRIPOS>ATOM
      1 ****        -5.0124   4.1846   0.3657 C.3            1 S1                 0.0000
      2 ****        -4.4643   3.2401   1.3890 C.2            1 S1                 0.0000
      3 ****        -4.5929   3.3399   2.7497 C.2            1 S1                 0.0000
      4 ****        -3.8025   2.0232   3.5685 S.3            1 S1                 0.0000
      5 ****        -3.3035   1.3669   2.0078 C.2            1 S1                 0.0000
      6 ****        -2.5905   0.2419   1.8369 N.pl3          1 S1                -1.0000
      7 ****        -1.2447   0.2689   1.9649 C.2            1 S1                 0.0000
      8 ****        -0.5561   1.2502   2.2526 O.2            1 S1                 0.0000
      9 ****        -0.6622  -0.9159   1.7362 N.am           1 S1                 0.0000
     10 ****         0.7732  -1.1866   1.7452 C.3            1 S1                 0.0000
     11 ****         1.4732  -0.8992   0.3889 C.3            1 S1                 0.0000
     12 ****         1.8155   0.4755   0.3788 O.3            1 S1                 0.0000
     13 ****         2.7969  -1.6925   0.3034 C.3            1 S1                 0.0000
     14 ****         3.5022  -1.5364  -1.0561 C.3            1 S1                 0.0000
     15 ****         2.5975  -1.9067  -2.1708 N.4            1 S1                 1.0000
     16 ****         3.2840  -1.8955  -3.4805 C.3            1 S1                 0.0000
     17 ****         1.3630  -1.0861  -2.1734 C.3            1 S1                 0.0000
     18 ****         0.5981  -1.2281  -0.8456 C.3            1 S1                 0.0000
     19 ****        -3.7373   2.1163   0.9880 N.2            1 S1                 0.0000
     20 ****        -6.1008   4.2217   0.4108 H              1 S1                 0.0000
     21 ****        -4.7349   3.8890  -0.6467 H              1 S1                 0.0000
     22 ****        -4.6395   5.1961   0.5269 H              1 S1                 0.0000
     23 ****        -5.1027   4.1028   3.3183 H              1 S1                 0.0000
     24 ****        -1.2704  -1.6901   1.5138 H              1 S1                 0.0000
     25 ****         1.2664  -0.6672   2.5691 H              1 S1                 0.0000
     26 ****         0.8605  -2.2484   1.9765 H              1 S1                 0.0000
     27 ****         2.2026   0.6913  -0.4549 H              1 S1                 0.0000
     28 ****         3.4716  -1.3920   1.1065 H              1 S1                 0.0000
     29 ****         2.5935  -2.7523   0.4637 H              1 S1                 0.0000
     30 ****         3.8508  -0.5112  -1.1903 H              1 S1                 0.0000
     31 ****         4.3868  -2.1742  -1.0785 H              1 S1                 0.0000
     32 ****         3.6342  -0.8931  -3.7302 H              1 S1                 0.0000
     33 ****         2.6117  -2.2302  -4.2709 H              1 S1                 0.0000
     34 ****         4.1439  -2.5661  -3.4703 H              1 S1                 0.0000
     35 ****         1.6174  -0.0408  -2.3553 H              1 S1                 0.0000
     36 ****         0.7184  -1.4001  -2.9954 H              1 S1                 0.0000
     37 ****         0.2256  -2.2498  -0.7600 H              1 S1                 0.0000
     38 ****        -0.2824  -0.5849  -0.8772 H              1 S1                 0.0000
     39 ****         2.3087  -2.8606  -2.0062 H              1 S1                 0.0000
     40 ****        -3.0547  -0.6156   1.6151 LP             1 S1                 0.0000
     41 ****        -0.9911   2.1356   2.4166 LP             1 S1                 0.0000
     42 ****         0.4375   1.1608   2.3220 LP             1 S1                 0.0000
     43 ****         2.4706   0.6629   1.1108 LP             1 S1                 0.0000
     44 ****         0.9928   1.0265   0.5187 LP             1 S1                 0.0000
     45 ****        -3.5582   1.8933   0.0298 LP             1 S1                 0.0000
@<TRIPOS>BOND
    1    1    2 1     
    2    1   20 1     
    3    1   21 1     
    4    1   22 1     
    5    2   19 1     
    6    2    3 2     
    7    3    4 1     
    8    3   23 1     
    9    4    5 1     
   10    5    6 1     
   11    5   19 2     
   12    6    7 1     
   13    7    8 2     
   14    7    9 am    
   15    9   10 1     
   16    9   24 1     
   17   10   11 1     
   18   10   25 1     
   19   10   26 1     
   20   11   18 1     
   21   11   12 1     
   22   11   13 1     
   23   12   27 1     
   24   13   14 1     
   25   13   28 1     
   26   13   29 1     
   27   14   15 1     
   28   14   30 1     
   29   14   31 1     
   30   15   16 1     
   31   15   17 1     
   32   15   39 1     
   33   16   32 1     
   34   16   33 1     
   35   16   34 1     
   36   17   18 1     
   37   17   35 1     
   38   17   36 1     
   39   18   37 1     
   40   18   38 1     
   41    6   40 1     
   42    8   41 1     
   43    8   42 1     
   44   12   43 1     
   45   12   44 1     
   46   19   45 1     
@<TRIPOS>SUBSTRUCTURE
      1 S1             1
@<TRIPOS>SET
LONE_PAIRS      STATIC     ATOMS    <user>   **** ""
6 40 41 42 43 44 45
DONOR_HYDROGENS      STATIC     ATOMS    <user>   **** ""
3 24 27 39
ATOM$BLUE        STATIC     ATOMS    COLORGROUP SYSTEM
6 40 41 42 43 44 45
ATOM$RED        STATIC     ATOMS    COLORGROUP SYSTEM
3 24 27 39
