AV-unprocessed.smi:3331|AV-procd|sdf|12819|dock7
  -GOLD-   2272019193D 1   1.00000     0.00000
 Structure written by MMmdl.
 47 48  0  0  0  0  0  0  0  0  2 V2000
  150.3806  144.6149  160.1066 C   0  0  0  0  0  0  0  0  0  0  0  0
  151.7318  144.4968  159.3792 C   0  0  1  0  0  0  0  0  0  0  0  0
  152.8034  143.8011  160.2477 C   0  0  0  0  0  0  0  0  0  0  0  0
  152.6206  142.2680  160.3147 C   0  0  2  0  0  0  0  0  0  0  0  0
  153.7750  141.5981  161.0726 C   0  0  0  0  0  0  0  0  0  0  0  0
  152.4595  141.6862  158.8949 C   0  0  0  0  0  0  0  0  0  0  0  0
  151.3353  142.3532  158.2230 N   0  0  0  0  0  0  0  0  0  0  0  0
  150.1792  141.7075  157.9220 C   0  0  0  0  0  0  0  0  0  0  0  0
  150.0320  140.5039  158.1400 O   0  0  0  0  0  0  0  0  0  0  0  0
  149.0166  142.4806  157.2667 C   0  0  2  0  0  0  0  0  0  0  0  0
  147.7119  142.3636  158.0833 C   0  0  0  0  0  0  0  0  0  0  0  0
  148.8224  141.9962  155.8816 N   0  3  0  0  0  0  0  0  0  0  0  0
  148.4707  140.5676  155.7523 C   0  0  0  0  0  0  0  0  0  0  0  0
  148.9573  140.0077  154.4079 C   0  0  0  0  0  0  0  0  0  0  0  0
  150.2239  139.3135  154.5370 N   0  0  0  0  0  0  0  0  0  0  0  0
  150.4935  137.9768  154.3316 C   0  0  0  0  0  0  0  0  0  0  0  0
  151.8225  137.7880  154.5808 C   0  0  0  0  0  0  0  0  0  0  0  0
  152.2863  139.0834  154.9433 C   0  0  0  0  0  0  0  0  0  0  0  0
  151.3261  139.9941  154.9184 N   0  0  0  0  0  0  0  0  0  0  0  0
  151.6139  143.7828  158.0149 C   0  0  0  0  0  0  0  0  0  0  0  0
  149.9525  143.6395  160.3370 H   0  0  0  0  0  0  0  0  0  0  0  0
  149.6569  145.1589  159.4993 H   0  0  0  0  0  0  0  0  0  0  0  0
  150.4899  145.1563  161.0468 H   0  0  0  0  0  0  0  0  0  0  0  0
  152.0733  145.5155  159.1914 H   0  0  0  0  0  0  0  0  0  0  0  0
  153.7850  144.0181  159.8234 H   0  0  0  0  0  0  0  0  0  0  0  0
  152.8114  144.2263  161.2521 H   0  0  0  0  0  0  0  0  0  0  0  0
  151.7050  142.0579  160.8692 H   0  0  0  0  0  0  0  0  0  0  0  0
  154.7277  141.7551  160.5658 H   0  0  0  0  0  0  0  0  0  0  0  0
  153.6165  140.5227  161.1582 H   0  0  0  0  0  0  0  0  0  0  0  0
  153.8650  141.9986  162.0828 H   0  0  0  0  0  0  0  0  0  0  0  0
  153.3707  141.8447  158.3158 H   0  0  0  0  0  0  0  0  0  0  0  0
  152.3357  140.6038  158.9522 H   0  0  0  0  0  0  0  0  0  0  0  0
  149.2800  143.5379  157.2475 H   0  0  0  0  0  0  0  0  0  0  0  0
  147.8711  142.6462  159.1248 H   0  0  0  0  0  0  0  0  0  0  0  0
  147.3167  141.3471  158.0703 H   0  0  0  0  0  0  0  0  0  0  0  0
  146.9365  143.0237  157.6951 H   0  0  0  0  0  0  0  0  0  0  0  0
  148.0642  142.5294  155.4805 H   0  0  0  0  0  0  0  0  0  0  0  0
  148.9183  140.0025  156.5700 H   0  0  0  0  0  0  0  0  0  0  0  0
  147.3885  140.4550  155.8335 H   0  0  0  0  0  0  0  0  0  0  0  0
  148.2235  139.3148  153.9934 H   0  0  0  0  0  0  0  0  0  0  0  0
  149.0778  140.8139  153.6830 H   0  0  0  0  0  0  0  0  0  0  0  0
  149.7274  137.2786  154.0277 H   0  0  0  0  0  0  0  0  0  0  0  0
  152.3784  136.8642  154.5166 H   0  0  0  0  0  0  0  0  0  0  0  0
  153.2846  139.3865  155.2223 H   0  0  0  0  0  0  0  0  0  0  0  0
  150.8869  144.2930  157.3864 H   0  0  0  0  0  0  0  0  0  0  0  0
  152.5577  143.8758  157.4753 H   0  0  0  0  0  0  0  0  0  0  0  0
  149.6601  142.1851  155.3498 H   0  0  0  0  0  0  0  0  0  0  0  0
  1  2  1  0  0  0  0
  1 21  1  0  0  0  0
  1 22  1  0  0  0  0
  1 23  1  0  0  0  0
  2 20  1  0  0  0  0
  2  3  1  0  0  0  0
  2 24  1  0  0  0  0
  3  4  1  0  0  0  0
  3 25  1  0  0  0  0
  3 26  1  0  0  0  0
  4  5  1  0  0  0  0
  4  6  1  0  0  0  0
  4 27  1  0  0  0  0
  5 28  1  0  0  0  0
  5 29  1  0  0  0  0
  5 30  1  0  0  0  0
  6  7  1  0  0  0  0
  6 31  1  0  0  0  0
  6 32  1  0  0  0  0
  7  8  1  0  0  0  0
  7 20  1  0  0  0  0
  8  9  2  0  0  0  0
  8 10  1  0  0  0  0
 10 11  1  0  0  0  0
 10 12  1  0  0  0  0
 10 33  1  0  0  0  0
 11 34  1  0  0  0  0
 11 35  1  0  0  0  0
 11 36  1  0  0  0  0
 12 13  1  0  0  0  0
 12 37  1  0  0  0  0
 12 47  1  0  0  0  0
 13 14  1  0  0  0  0
 13 38  1  0  0  0  0
 13 39  1  0  0  0  0
 14 15  1  0  0  0  0
 14 40  1  0  0  0  0
 14 41  1  0  0  0  0
 15 19  1  0  0  0  0
 15 16  1  0  0  0  0
 16 17  2  0  0  0  0
 16 42  1  0  0  0  0
 17 18  1  0  0  0  0
 17 43  1  0  0  0  0
 18 19  2  0  0  0  0
 18 44  1  0  0  0  0
 20 45  1  0  0  0  0
 20 46  1  0  0  0  0
M  CHG  1  12   1
M  END
> <s_m_source_file>
AV-unprocessed.smi

> <i_m_source_file_index>
3331

> <i_lp_mmshare_version>
43012

> <i_f3d_flags>
0

> <s_epik_input>
W0NIM11bQ0BASF0xW0NIMl1bQ0BASF0oW0NIM10pW0NIMl1OKFtDSDJdMSlDKD1PKVtDQEhdKFtDSDNdKVtOSF1bQ0gyXVtDSDJdbjJbY0hdW2NIXVtjSF1uMg==

> <s_epik_cmdline>
J2VwaWtfcHl0aG9uJywgJy1waCcsICc3LjAnLCAnLXRuJywgJzgnLCAnLW1hJywgJzIwMCcsICctbWV0YWxfYmluZGluZycsICctaW1hZScsICc8aW5maWxlLm1hZT4nLCAnLW9tYWUnLCAnPG91dGZpbGUubWFlPic=

> <r_lp_tautomer_probability>
1

> <r_epik_Ionization_Penalty>
0.189706

> <r_epik_Ionization_Penalty_Charging>
0.189703

> <r_epik_Ionization_Penalty_Neutral>
2.45875e-06

> <r_epik_State_Penalty>
0.179341

> <r_epik_Charging_Adjusted_Penalty>
0.369044

> <i_epik_Tot_Q>
1

> <i_epik_Tot_abs_Q>
1

> <r_epik_Metal_State_Penalty>
0.179578

> <b_epik_Metal_Only>
0

> <s_lp_Force_Field>
OPLS_2005

> <r_lp_Energy>
29.8768

> <b_lp_Chiralities_Consistent>
1

> <s_lp_Variant>
AV-unprocessed.smi:3331-3

> <Gold.Version>
5.8.1

> <Gold.Id.Protein>
6NUR|6NUR_protein|mol2

> <Gold.PLP.Fitness>
49.2276

> <Gold.PLP.PLP>
-44.0916

> <Gold.PLP.part.hbond>
-2.0000

> <Gold.PLP.part.metal>
0.0000

> <Gold.PLP.part.buried>
-3.3686

> <Gold.PLP.part.nonpolar>
-40.0646

> <Gold.PLP.part.repulsive>
0.1450

> <Gold.PLP.ligand.clash>
0.0000

> <Gold.PLP.ligand.torsion>
0.5167

> <Gold.PLP.Chemscore.Hbond>
1.0354

> <Gold.PLP.Chemscore.CHOScore>
1.0000

> <Gold.PLP.Chemscore.Metal>
0.0000

> <Gold.Chemscore.Hbonds>
donor molecule, donor type, donor heavy atom, donor atom, acceptor molecule, acceptor atom, score
      L1  H    12    37       P1  8028  0.02
      P1  H  7989  7998       L1    19  1.00
      L1  C    16    42       P1  7948  1.00

> <Gold.PLP.Chemscore.Internal.Correction>
0.0633

> <Gold.Rescore>
     Score         DG    S(hbond)    S(metal)    S(lipo)     H(rot)  DE(clash)    DE(int)     intcor
     15.15     -18.46       1.26        0.00     112.67       1.73       1.35       1.96       ----

> <Gold.Chemscore.Fitness>
15.1510

> <Gold.Chemscore.DG>
-18.4601

> <Gold.Chemscore.ZeroCoef>
-5.4800

> <Gold.Chemscore.Hbond>
1.2619

> <Gold.Chemscore.Metal>
0.0000

> <Gold.Chemscore.Lipo>
112.6707

> <Gold.Chemscore.Internal_Hbond>
0.0000

> <Gold.Chemscore.DEClash>
1.3459

> <Gold.Chemscore.DEInternal>
1.9632

> <Gold.Chemscore.Rot>
1.7254

> <Gold.Chemscore.Internal.Correction>
   9.000000E+99

> <Gold.Chemscore.Hbonds>
donor molecule, donor type, donor heavy atom, donor atom, acceptor molecule, acceptor atom, score
      L1  H    12    37       P1  8028  0.02
      P1  H  7989  7998       L1    19  0.10

> <Gold.Chemscore.Hbond.Weighted>
-4.2147

> <Gold.Chemscore.Metal.Weighted>
-0.0000

> <Gold.Chemscore.Lipo.Weighted>
-13.1825

> <Gold.Chemscore.Internal_Hbond.Weighted>
0.0000

> <Gold.Chemscore.DEClash.Weighted>
1.3459

> <Gold.Chemscore.DEInternal.Weighted>
1.9632

> <Gold.Chemscore.Rot.Weighted>
4.4170

> <Gold.Chemscore.Internal.Correction.Weighted>
   9.000000E+99

> <Gold.Protein.RotatedTorsions>
[ 6907 6896 6895 6894 ] final   96.61 input  -60.11 | X-H torsion
[ 7974 7965 7964 7962 ] final   77.25 input  175.53 | X-H torsion
[ 8008 7997 7996 7995 ] final  -77.22 input   59.86 | X-H torsion
[ 10167 10162 10161 10158 ] final  161.49 input  -65.29 | X-H torsion
[ 10718 10713 10712 10709 ] final -143.90 input   66.30 | X-H torsion
[ 10763 10752 10751 10750 ] final  -63.18 input  -60.55 | X-H torsion
[ 11005 11000 10999 10996 ] final  116.69 input  -57.11 | X-H torsion

> <Gold.Protein.ActiveResidues>
 VAL166  LYS551  ARG553  GLY616  TRP617  ASP618  TYR619  PRO620  LYS621  CYS622 
 ASP623  PHE694  ASN695  SER759  ASP760  ASP761  ALA762  ILE779  LEU786  VAL792 
 PHE793  MET794  SER795  GLU796  ALA797  LYS798  CYS799  TRP800  GLU811  SER814 

> <Gold.Protein.RotatedAtoms>
  152.5433  134.0860  159.8255 H   0  0  0  0  0  0  0  0  0  0  0  0  # atno 6907 bound_to 6896
  151.0956  133.5275  159.2620 H   0  0  0  0  0  0  0  0  0  0  0  0  # atno 6908 bound_to 6896
  151.2050  135.0467  159.8942 H   0  0  0  0  0  0  0  0  0  0  0  0  # atno 6909 bound_to 6896
  145.6925  139.2557  143.1752 H   0  0  0  0  0  0  0  0  0  0  0  0  # atno 7974 bound_to 7965
  154.5576  140.0714  156.8769 H   0  0  0  0  0  0  0  0  0  0  0  0  # atno 8008 bound_to 7997
  155.2872  140.3375  155.4236 H   0  0  0  0  0  0  0  0  0  0  0  0  # atno 8009 bound_to 7997
  156.2015  140.1724  156.7874 H   0  0  0  0  0  0  0  0  0  0  0  0  # atno 8010 bound_to 7997
  139.4850  144.4531  151.8804 H   0  0  0  0  0  0  0  0  0  0  0  0  # atno 10167 bound_to 10162
  156.3635  130.7751  151.1922 H   0  0  0  0  0  0  0  0  0  0  0  0  # atno 10718 bound_to 10713
  154.3112  135.6215  153.5466 H   0  0  0  0  0  0  0  0  0  0  0  0  # atno 10763 bound_to 10752
  152.9829  135.5701  154.5175 H   0  0  0  0  0  0  0  0  0  0  0  0  # atno 10764 bound_to 10752
  154.4825  135.2864  155.1536 H   0  0  0  0  0  0  0  0  0  0  0  0  # atno 10765 bound_to 10752
  139.9050  134.9601  156.7237 H   0  0  0  0  0  0  0  0  0  0  0  0  # atno 11005 bound_to 11000
  146.0869  140.7700  142.9614 LP  0  0  0  0  0  0  0  0  0  0  0  0  # atno 17320 bound_to 7965
  144.6992  140.3577  143.7170 LP  0  0  0  0  0  0  0  0  0  0  0  0  # atno 17321 bound_to 7965
  140.3989  144.2519  150.5894 LP  0  0  0  0  0  0  0  0  0  0  0  0  # atno 17342 bound_to 10162
  140.5076  143.2300  151.8584 LP  0  0  0  0  0  0  0  0  0  0  0  0  # atno 17343 bound_to 10162
  157.7476  131.0393  150.4544 LP  0  0  0  0  0  0  0  0  0  0  0  0  # atno 17370 bound_to 10713
  156.4758  130.4063  149.6490 LP  0  0  0  0  0  0  0  0  0  0  0  0  # atno 17371 bound_to 10713
  140.6980  133.9331  155.8006 LP  0  0  0  0  0  0  0  0  0  0  0  0  # atno 17394 bound_to 11000
  141.0393  134.0645  157.3922 LP  0  0  0  0  0  0  0  0  0  0  0  0  # atno 17395 bound_to 11000

$$$$
