AV-unprocessed.smi:284|AV-procd|sdf|2159|dock5
  -GOLD-   2262021513D 1   1.00000     0.00000
 Structure written by MMmdl.
 60 62  0  0  0  0  0  0  0  0  1 V2000
  154.3873  137.7565  158.8263 C   0  0  0  0  0  0  0  0  0  0  0  0
  153.1822  138.3928  158.1509 C   0  0  0  0  0  0  0  0  0  0  0  0
  152.6665  139.5735  158.5631 C   0  0  0  0  0  0  0  0  0  0  0  0
  151.5679  140.1754  157.9803 N   0  0  0  0  0  0  0  0  0  0  0  0
  151.0880  141.5120  158.5049 C   0  0  2  0  0  0  0  0  0  0  0  0
  151.4890  142.6996  157.6180 C   0  0  0  0  0  0  0  0  0  0  0  0
  151.6272  143.8017  158.6487 C   0  0  2  0  0  0  0  0  0  0  0  0
  152.5170  144.8040  158.2014 O   0  0  0  0  0  0  0  0  0  0  0  0
  152.1735  143.0325  159.8592 C   0  0  1  0  0  0  0  0  0  0  0  0
  151.9152  143.6446  161.2474 C   0  0  0  0  0  0  0  0  0  0  0  0
  151.8951  142.6617  162.2623 O   0  0  0  0  0  0  0  0  0  0  0  0
  151.6267  141.7186  159.7774 O   0  0  0  0  0  0  0  0  0  0  0  0
  150.9556  139.5708  156.8598 C   0  0  0  0  0  0  0  0  0  0  0  0
  149.9993  140.1018  156.2920 O   0  0  0  0  0  0  0  0  0  0  0  0
  151.4701  138.3357  156.4043 N   0  0  0  0  0  0  0  0  0  0  0  0
  150.8090  137.6672  155.2606 C   0  0  0  0  0  0  0  0  0  0  0  0
  150.4325  136.2033  155.5406 C   0  0  0  0  0  0  0  0  0  0  0  0
  150.6427  135.7043  156.6472 O   0  0  0  0  0  0  0  0  0  0  0  0
  149.8458  135.5577  154.5161 N   0  0  0  0  0  0  0  0  0  0  0  0
  149.4055  134.2077  154.4592 C   0  0  0  0  0  0  0  0  0  0  0  0
  148.3648  133.8994  153.5619 C   0  0  0  0  0  0  0  0  0  0  0  0
  147.8869  132.5804  153.4411 C   0  0  0  0  0  0  0  0  0  0  0  0
  148.4484  131.5314  154.2105 C   0  0  0  0  0  0  0  0  0  0  0  0
  147.9504  130.0765  154.1123 C   0  0  0  0  0  0  0  0  0  0  0  0
  149.1173  129.1565  153.6975 C   0  0  0  0  0  0  0  0  0  0  0  0
  146.8185  129.8948  153.0759 C   0  0  0  0  0  0  0  0  0  0  0  0
  147.4062  129.6218  155.4829 C   0  0  0  0  0  0  0  0  0  0  0  0
  149.5082  131.8471  155.0930 C   0  0  0  0  0  0  0  0  0  0  0  0
  149.9876  133.1649  155.2154 C   0  0  0  0  0  0  0  0  0  0  0  0
  152.5737  137.6930  157.0175 C   0  0  0  0  0  0  0  0  0  0  0  0
  152.9764  136.6045  156.6024 O   0  0  0  0  0  0  0  0  0  0  0  0
  154.7460  138.3551  159.6641 H   0  0  0  0  0  0  0  0  0  0  0  0
  155.2087  137.6479  158.1172 H   0  0  0  0  0  0  0  0  0  0  0  0
  154.1325  136.7677  159.2099 H   0  0  0  0  0  0  0  0  0  0  0  0
  153.1387  140.0669  159.4007 H   0  0  0  0  0  0  0  0  0  0  0  0
  150.0053  141.4348  158.6080 H   0  0  0  0  0  0  0  0  0  0  0  0
  152.4362  142.5137  157.1127 H   0  0  0  0  0  0  0  0  0  0  0  0
  150.7279  142.8991  156.8633 H   0  0  0  0  0  0  0  0  0  0  0  0
  150.6468  144.2333  158.8525 H   0  0  0  0  0  0  0  0  0  0  0  0
  152.2754  145.6227  158.6075 H   0  0  0  0  0  0  0  0  0  0  0  0
  153.2505  142.9073  159.7372 H   0  0  0  0  0  0  0  0  0  0  0  0
  152.6695  144.3962  161.4818 H   0  0  0  0  0  0  0  0  0  0  0  0
  150.9489  144.1493  161.2517 H   0  0  0  0  0  0  0  0  0  0  0  0
  152.6892  142.7367  162.7691 H   0  0  0  0  0  0  0  0  0  0  0  0
  149.9072  138.2003  154.9555 H   0  0  0  0  0  0  0  0  0  0  0  0
  151.4447  137.7018  154.3741 H   0  0  0  0  0  0  0  0  0  0  0  0
  149.6363  136.1174  153.7024 H   0  0  0  0  0  0  0  0  0  0  0  0
  147.9191  134.6801  152.9624 H   0  0  0  0  0  0  0  0  0  0  0  0
  147.0822  132.4037  152.7448 H   0  0  0  0  0  0  0  0  0  0  0  0
  148.7904  128.1205  153.6014 H   0  0  0  0  0  0  0  0  0  0  0  0
  149.9290  129.1679  154.4252 H   0  0  0  0  0  0  0  0  0  0  0  0
  149.5346  129.4583  152.7361 H   0  0  0  0  0  0  0  0  0  0  0  0
  147.1441  130.1659  152.0708 H   0  0  0  0  0  0  0  0  0  0  0  0
  145.9437  130.4974  153.3235 H   0  0  0  0  0  0  0  0  0  0  0  0
  146.4866  128.8569  153.0320 H   0  0  0  0  0  0  0  0  0  0  0  0
  147.0256  128.6006  155.4401 H   0  0  0  0  0  0  0  0  0  0  0  0
  146.5877  130.2622  155.8141 H   0  0  0  0  0  0  0  0  0  0  0  0
  148.1731  129.6431  156.2571 H   0  0  0  0  0  0  0  0  0  0  0  0
  149.9712  131.0742  155.6879 H   0  0  0  0  0  0  0  0  0  0  0  0
  150.8122  133.3491  155.8869 H   0  0  0  0  0  0  0  0  0  0  0  0
  1  2  1  0  0  0  0
  1 32  1  0  0  0  0
  1 33  1  0  0  0  0
  1 34  1  0  0  0  0
  2 30  1  0  0  0  0
  2  3  2  0  0  0  0
  3  4  1  0  0  0  0
  3 35  1  0  0  0  0
  4  5  1  0  0  0  0
  4 13  1  0  0  0  0
  5 12  1  0  0  0  0
  5  6  1  0  0  0  0
  5 36  1  0  0  0  0
  6  7  1  0  0  0  0
  6 37  1  0  0  0  0
  6 38  1  0  0  0  0
  7  8  1  0  0  0  0
  7  9  1  0  0  0  0
  7 39  1  0  0  0  0
  8 40  1  0  0  0  0
  9 10  1  0  0  0  0
  9 12  1  0  0  0  0
  9 41  1  0  0  0  0
 10 11  1  0  0  0  0
 10 42  1  0  0  0  0
 10 43  1  0  0  0  0
 11 44  1  0  0  0  0
 13 14  2  0  0  0  0
 13 15  1  0  0  0  0
 15 16  1  0  0  0  0
 15 30  1  0  0  0  0
 16 17  1  0  0  0  0
 16 45  1  0  0  0  0
 16 46  1  0  0  0  0
 17 18  2  0  0  0  0
 17 19  1  0  0  0  0
 19 20  1  0  0  0  0
 19 47  1  0  0  0  0
 20 29  1  0  0  0  0
 20 21  2  0  0  0  0
 21 22  1  0  0  0  0
 21 48  1  0  0  0  0
 22 23  2  0  0  0  0
 22 49  1  0  0  0  0
 23 24  1  0  0  0  0
 23 28  1  0  0  0  0
 24 25  1  0  0  0  0
 24 26  1  0  0  0  0
 24 27  1  0  0  0  0
 25 50  1  0  0  0  0
 25 51  1  0  0  0  0
 25 52  1  0  0  0  0
 26 53  1  0  0  0  0
 26 54  1  0  0  0  0
 26 55  1  0  0  0  0
 27 56  1  0  0  0  0
 27 57  1  0  0  0  0
 27 58  1  0  0  0  0
 28 29  2  0  0  0  0
 28 59  1  0  0  0  0
 29 60  1  0  0  0  0
 30 31  2  0  0  0  0
M  END
> <s_m_source_file>
AV-unprocessed.smi

> <i_m_source_file_index>
284

> <i_lp_mmshare_version>
43012

> <i_f3d_flags>
0

> <s_epik_input>
W09IXVtDSDJdW0NAQEhdKE8xKVtDQEhdKFtPSF0pW0NIMl1bQ0BIXTFuKFtjSF1jMltDSDNdKWMoPU8pbihjMj1PKVtDSDJdQyg9TylbTkhdYzNbY0hdW2NIXWMoQyhbQ0gzXSkoW0NIM10pW0NIM10pW2NIXVtjSF0z

> <s_epik_cmdline>
J2VwaWtfcHl0aG9uJywgJy1waCcsICc3LjAnLCAnLXRuJywgJzgnLCAnLW1hJywgJzIwMCcsICctbWV0YWxfYmluZGluZycsICctaW1hZScsICc8aW5maWxlLm1hZT4nLCAnLW9tYWUnLCAnPG91dGZpbGUubWFlPic=

> <r_lp_tautomer_probability>
1

> <r_epik_Ionization_Penalty>
4.92358e-06

> <r_epik_Ionization_Penalty_Charging>
1.29777e-07

> <r_epik_Ionization_Penalty_Neutral>
4.79381e-06

> <r_epik_State_Penalty>
-0

> <r_epik_Charging_Adjusted_Penalty>
1.29777e-07

> <i_epik_Tot_Q>
0

> <i_epik_Tot_abs_Q>
0

> <r_epik_Metal_State_Penalty>
-0

> <b_epik_Metal_Only>
0

> <s_epik_Chemistry_Notes>
This compound contains an acetal/aminal-like group ( X-CH(R)-Y where X, Y are N, S, or O) that may be acid/base labile, releasing an aldehyde.

> <s_lp_Force_Field>
OPLS_2005

> <r_lp_Energy>
37.3901

> <b_lp_Chiralities_Consistent>
1

> <s_lp_Variant>
AV-unprocessed.smi:284-3

> <Gold.Version>
5.8.1

> <Gold.Id.Protein>
6NUR|6NUR_protein|mol2

> <Gold.PLP.Fitness>
55.9241

> <Gold.PLP.PLP>
-48.8427

> <Gold.PLP.part.hbond>
-4.7504

> <Gold.PLP.part.metal>
0.0000

> <Gold.PLP.part.buried>
-6.8307

> <Gold.PLP.part.nonpolar>
-38.6789

> <Gold.PLP.part.repulsive>
0.0637

> <Gold.PLP.ligand.clash>
0.0000

> <Gold.PLP.ligand.torsion>
0.9650

> <Gold.PLP.Chemscore.Hbond>
2.9920

> <Gold.PLP.Chemscore.CHOScore>
0.0000

> <Gold.PLP.Chemscore.Metal>
0.0000

> <Gold.Chemscore.Hbonds>
donor molecule, donor type, donor heavy atom, donor atom, acceptor molecule, acceptor atom, score
      L1  H    19    47       P1  7948  0.98
      P1  H  6933  6945       L1    11  0.94
      P1  H 10752 10763       L1    31  1.00

> <Gold.PLP.Chemscore.Internal.Correction>
0.0353

> <Gold.Rescore>
     Score         DG    S(hbond)    S(metal)    S(lipo)     H(rot)  DE(clash)    DE(int)     intcor
      9.30     -16.33       1.97        0.00     108.14       3.27       0.57       6.46       ----

> <Gold.Chemscore.Fitness>
9.3049

> <Gold.Chemscore.DG>
-16.3322

> <Gold.Chemscore.ZeroCoef>
-5.4800

> <Gold.Chemscore.Hbond>
1.9699

> <Gold.Chemscore.Metal>
0.0000

> <Gold.Chemscore.Lipo>
108.1438

> <Gold.Chemscore.Internal_Hbond>
0.0000

> <Gold.Chemscore.DEClash>
0.5680

> <Gold.Chemscore.DEInternal>
6.4593

> <Gold.Chemscore.Rot>
3.2735

> <Gold.Chemscore.Internal.Correction>
   9.000000E+99

> <Gold.Chemscore.Hbonds>
donor molecule, donor type, donor heavy atom, donor atom, acceptor molecule, acceptor atom, score
      L1  H    19    47       P1  7948  0.37
      P1  H  6933  6945       L1    11  0.56
      P1  H 10752 10763       L1    31  0.94

> <Gold.Chemscore.Hbond.Weighted>
-6.5795

> <Gold.Chemscore.Metal.Weighted>
-0.0000

> <Gold.Chemscore.Lipo.Weighted>
-12.6528

> <Gold.Chemscore.Internal_Hbond.Weighted>
0.0000

> <Gold.Chemscore.DEClash.Weighted>
0.5680

> <Gold.Chemscore.DEInternal.Weighted>
6.4593

> <Gold.Chemscore.Rot.Weighted>
8.3801

> <Gold.Chemscore.Internal.Correction.Weighted>
   9.000000E+99

> <Gold.Protein.RotatedTorsions>
[ 6907 6896 6895 6894 ] final  -50.11 input  -60.11 | X-H torsion
[ 7974 7965 7964 7962 ] final  -29.61 input  175.53 | X-H torsion
[ 8008 7997 7996 7995 ] final -122.96 input   59.86 | X-H torsion
[ 10167 10162 10161 10158 ] final   11.67 input  -65.29 | X-H torsion
[ 10718 10713 10712 10709 ] final -141.68 input   66.30 | X-H torsion
[ 10763 10752 10751 10750 ] final  116.60 input  -60.55 | X-H torsion
[ 11005 11000 10999 10996 ] final   84.93 input  -57.11 | X-H torsion

> <Gold.Protein.ActiveResidues>
 VAL166  LYS551  ARG553  GLY616  TRP617  ASP618  TYR619  PRO620  LYS621  CYS622 
 ASP623  PHE694  ASN695  SER759  ASP760  ASP761  ALA762  ILE779  LEU786  VAL792 
 PHE793  MET794  SER795  GLU796  ALA797  LYS798  CYS799  TRP800  GLU811  SER814 

> <Gold.Protein.RotatedAtoms>
  150.8739  134.8119  159.7175 H   0  0  0  0  0  0  0  0  0  0  0  0  # atno 6907 bound_to 6896
  152.4733  134.4902  159.9703 H   0  0  0  0  0  0  0  0  0  0  0  0  # atno 6908 bound_to 6896
  151.4986  133.3470  159.2901 H   0  0  0  0  0  0  0  0  0  0  0  0  # atno 6909 bound_to 6896
  146.1204  140.5434  142.8738 H   0  0  0  0  0  0  0  0  0  0  0  0  # atno 7974 bound_to 7965
  155.1727  140.0408  157.2866 H   0  0  0  0  0  0  0  0  0  0  0  0  # atno 8008 bound_to 7997
  154.6258  140.2512  155.7466 H   0  0  0  0  0  0  0  0  0  0  0  0  # atno 8009 bound_to 7997
  156.2458  140.2885  156.0588 H   0  0  0  0  0  0  0  0  0  0  0  0  # atno 8010 bound_to 7997
  140.6117  143.8394  150.7072 H   0  0  0  0  0  0  0  0  0  0  0  0  # atno 10167 bound_to 10162
  156.3369  130.7616  151.1745 H   0  0  0  0  0  0  0  0  0  0  0  0  # atno 10718 bound_to 10713
  153.5397  135.3561  155.2713 H   0  0  0  0  0  0  0  0  0  0  0  0  # atno 10763 bound_to 10752
  154.8718  135.4088  154.3058 H   0  0  0  0  0  0  0  0  0  0  0  0  # atno 10764 bound_to 10752
  153.3763  135.7066  153.6667 H   0  0  0  0  0  0  0  0  0  0  0  0  # atno 10765 bound_to 10752
  139.8986  134.8251  156.2513 H   0  0  0  0  0  0  0  0  0  0  0  0  # atno 11005 bound_to 11000
  144.7592  140.5380  143.6748 LP  0  0  0  0  0  0  0  0  0  0  0  0  # atno 17320 bound_to 7965
  145.5478  139.1476  143.3411 LP  0  0  0  0  0  0  0  0  0  0  0  0  # atno 17321 bound_to 7965
  140.1964  143.3995  152.1825 LP  0  0  0  0  0  0  0  0  0  0  0  0  # atno 17342 bound_to 10162
  139.5366  144.7216  151.4872 LP  0  0  0  0  0  0  0  0  0  0  0  0  # atno 17343 bound_to 10162
  157.7440  131.0465  150.4898 LP  0  0  0  0  0  0  0  0  0  0  0  0  # atno 17370 bound_to 10713
  156.5073  130.4131  149.6320 LP  0  0  0  0  0  0  0  0  0  0  0  0  # atno 17371 bound_to 10713
  141.0222  133.7035  156.1287 LP  0  0  0  0  0  0  0  0  0  0  0  0  # atno 17394 bound_to 11000
  140.7217  134.4351  157.5574 LP  0  0  0  0  0  0  0  0  0  0  0  0  # atno 17395 bound_to 11000

$$$$
