#       Name:                AV-unprocessed.smi:286
#       Creating user name   scv26
#       Creation time:       Thu Mar 26 21:53:48 2020


#       File generated by GOLD software.
#

@<TRIPOS>MOLECULE
AV-unprocessed.smi:286
    54    56     1
SMALL
NO_CHARGES


@<TRIPOS>ATOM
      1 ****        -1.2143   0.1022  -2.6505 O.2            1 S1                 0.0000
      2 ****        -1.4488   0.8413  -1.6928 C.2            1 S1                 0.0000
      3 ****        -1.9526   2.2024  -1.8348 C.2            1 S1                 0.0000
      4 ****        -2.2233   2.6873  -3.0585 F              1 S1                 0.0000
      5 ****        -2.1549   2.9866  -0.7541 C.2            1 S1                 0.0000
      6 ****        -1.8939   2.5765   0.5410 N.am           1 S1                 0.0000
      7 ****        -2.1843   3.5289   1.6808 C.3            1 S1                 0.0000
      8 ****        -0.9508   3.8758   2.5281 C.3            1 S1                 0.0000
      9 ****        -1.5653   3.9973   3.9058 C.3            1 S1                 0.0000
     10 ****        -2.6571   2.9334   3.8627 C.3            1 S1                 0.0000
     11 ****        -3.1437   2.9585   2.5233 O.3            1 S1                 0.0000
     12 ****        -1.4425   1.2561   0.7770 C.2            1 S1                 0.0000
     13 ****        -1.2318   0.8478   1.9201 O.2            1 S1                 0.0000
     14 ****        -1.2373   0.4297  -0.3538 N.am           1 S1                 0.0000
     15 ****        -0.7310  -0.9157  -0.1341 C.3            1 S1                 0.0000
     16 ****         0.8147  -1.0004  -0.2201 C.3            1 S1                 0.0000
     17 ****         1.2902  -0.8525   1.1049 O.3            1 S1                 0.0000
     18 ****         1.3464  -2.3451  -0.7886 C.3            1 S1                 0.0000
     19 ****         2.8860  -2.4664  -0.6498 C.3            1 S1                 0.0000
     20 ****         3.4231  -3.7884  -1.2219 C.3            1 S1                 0.0000
     21 ****         3.0230  -3.9600  -2.6922 C.3            1 S1                 0.0000
     22 ****         1.5010  -3.8596  -2.8527 C.3            1 S1                 0.0000
     23 ****         0.9645  -2.5384  -2.2782 C.3            1 S1                 0.0000
     24 ****        -2.5327   3.9849  -0.9199 H              1 S1                 0.0000
     25 ****        -2.6239   4.4177   1.2265 H              1 S1                 0.0000
     26 ****        -0.2100   3.0776   2.5069 H              1 S1                 0.0000
     27 ****        -0.4824   4.7956   2.1771 H              1 S1                 0.0000
     28 ****        -0.8473   3.8401   4.7111 H              1 S1                 0.0000
     29 ****        -2.0104   4.9851   4.0312 H              1 S1                 0.0000
     30 ****        -2.2421   1.9491   4.0803 H              1 S1                 0.0000
     31 ****        -3.4565   3.1258   4.5785 H              1 S1                 0.0000
     32 ****        -1.1206  -1.2860   0.8162 H              1 S1                 0.0000
     33 ****        -1.2319  -1.5489  -0.8645 H              1 S1                 0.0000
     34 ****         1.2130  -0.1816  -0.8212 H              1 S1                 0.0000
     35 ****         0.9580  -0.0391   1.4538 H              1 S1                 0.0000
     36 ****         0.8948  -3.1560  -0.2146 H              1 S1                 0.0000
     37 ****         3.3668  -1.6295  -1.1580 H              1 S1                 0.0000
     38 ****         3.1864  -2.4021   0.3961 H              1 S1                 0.0000
     39 ****         4.5088  -3.8210  -1.1267 H              1 S1                 0.0000
     40 ****         3.0364  -4.6237  -0.6368 H              1 S1                 0.0000
     41 ****         3.5075  -3.1923  -3.2969 H              1 S1                 0.0000
     42 ****         3.3765  -4.9210  -3.0669 H              1 S1                 0.0000
     43 ****         1.2334  -3.9417  -3.9065 H              1 S1                 0.0000
     44 ****         1.0230  -4.6990  -2.3463 H              1 S1                 0.0000
     45 ****        -0.1150  -2.5287  -2.4146 H              1 S1                 0.0000
     46 ****         1.3511  -1.7047  -2.8661 H              1 S1                 0.0000
     47 ****        -0.8630  -0.8210  -2.4953 LP             1 S1                 0.0000
     48 ****        -1.3753   0.4257  -3.5829 LP             1 S1                 0.0000
     49 ****        -3.3362   2.0245   2.2226 LP             1 S1                 0.0000
     50 ****        -3.9832   3.5006   2.4853 LP             1 S1                 0.0000
     51 ****        -1.3795   1.4530   2.7024 LP             1 S1                 0.0000
     52 ****        -0.9131  -0.0887   2.0657 LP             1 S1                 0.0000
     53 ****         2.2901  -0.8360   1.1046 LP             1 S1                 0.0000
     54 ****         0.9696  -1.6159   1.6655 LP             1 S1                 0.0000
@<TRIPOS>BOND
    1    1    2 2     
    2    2   14 am    
    3    2    3 1     
    4    3    4 1     
    5    3    5 2     
    6    5    6 1     
    7    5   24 1     
    8    6    7 1     
    9    6   12 am    
   10    7   11 1     
   11    7    8 1     
   12    7   25 1     
   13    8    9 1     
   14    8   26 1     
   15    8   27 1     
   16    9   10 1     
   17    9   28 1     
   18    9   29 1     
   19   10   11 1     
   20   10   30 1     
   21   10   31 1     
   22   12   13 2     
   23   12   14 am    
   24   14   15 1     
   25   15   16 1     
   26   15   32 1     
   27   15   33 1     
   28   16   17 1     
   29   16   18 1     
   30   16   34 1     
   31   17   35 1     
   32   18   23 1     
   33   18   19 1     
   34   18   36 1     
   35   19   20 1     
   36   19   37 1     
   37   19   38 1     
   38   20   21 1     
   39   20   39 1     
   40   20   40 1     
   41   21   22 1     
   42   21   41 1     
   43   21   42 1     
   44   22   23 1     
   45   22   43 1     
   46   22   44 1     
   47   23   45 1     
   48   23   46 1     
   49    1   47 1     
   50    1   48 1     
   51   11   49 1     
   52   11   50 1     
   53   13   51 1     
   54   13   52 1     
   55   17   53 1     
   56   17   54 1     
@<TRIPOS>SUBSTRUCTURE
      1 S1             1
@<TRIPOS>SET
LONE_PAIRS      STATIC     ATOMS    <user>   **** ""
8 47 48 49 50 51 52 53 54
DONOR_HYDROGENS      STATIC     ATOMS    <user>   **** ""
1 35
ATOM$BLUE        STATIC     ATOMS    COLORGROUP SYSTEM
8 47 48 49 50 51 52 53 54
ATOM$RED        STATIC     ATOMS    COLORGROUP SYSTEM
1 35
