#       Name:                AV-unprocessed.smi:802
#       Creating user name   scv26
#       Creation time:       Fri Mar 27 01:22:55 2020


#       File generated by GOLD software.
#

@<TRIPOS>MOLECULE
AV-unprocessed.smi:802
    41    42     1
SMALL
NO_CHARGES


@<TRIPOS>ATOM
      1 ****        -4.0378   6.1452  -0.9269 C.3            1 S1                 0.0000
      2 ****        -3.6437   4.7698  -0.4772 C.2            1 S1                 0.0000
      3 ****        -2.8767   3.7967  -1.1740 C.2            1 S1                 0.0000
      4 ****        -2.8185   2.7462  -0.3022 C.2            1 S1                 0.0000
      5 ****        -2.1822   1.3983  -0.3720 C.3            1 S1                 0.0000
      6 ****        -0.3581   1.5503  -0.1594 S.o2           1 S1                 0.0000
      7 ****         0.1233   2.3304  -1.3115 O.2            1 S1                 0.0000
      8 ****        -0.1508   2.1357   1.1755 O.2            1 S1                 0.0000
      9 ****         0.0798  -0.0078  -0.2338 N.pl3          1 S1                -1.0000
     10 ****         1.4850  -0.3570  -0.1088 C.3            1 S1                 0.0000
     11 ****         1.6606  -1.9003  -0.0681 C.3            1 S1                 0.0000
     12 ****         1.0625  -2.5567   1.2075 C.3            1 S1                 0.0000
     13 ****         1.2198  -4.0863   1.1859 C.3            1 S1                 0.0000
     14 ****         2.6897  -4.4952   1.0177 C.3            1 S1                 0.0000
     15 ****         3.2970  -3.8567  -0.2394 C.3            1 S1                 0.0000
     16 ****         3.1454  -2.3264  -0.2190 C.3            1 S1                 0.0000
     17 ****        -3.5016   3.0433   0.8336 O.3            1 S1                 0.0000
     18 ****        -4.0249   4.3355   0.7125 N.2            1 S1                 0.0000
     19 ****        -3.5986   6.3831  -1.8958 H              1 S1                 0.0000
     20 ****        -3.7032   6.9019  -0.2170 H              1 S1                 0.0000
     21 ****        -5.1204   6.2312  -1.0227 H              1 S1                 0.0000
     22 ****        -2.4300   3.8596  -2.1552 H              1 S1                 0.0000
     23 ****        -2.5660   0.7459   0.4123 H              1 S1                 0.0000
     24 ****        -2.3815   0.9258  -1.3334 H              1 S1                 0.0000
     25 ****         2.0586   0.0399  -0.9470 H              1 S1                 0.0000
     26 ****         1.9356   0.0740   0.7859 H              1 S1                 0.0000
     27 ****         1.1285  -2.3084  -0.9295 H              1 S1                 0.0000
     28 ****         1.5485  -2.1665   2.1045 H              1 S1                 0.0000
     29 ****         0.0001  -2.3273   1.3109 H              1 S1                 0.0000
     30 ****         0.8200  -4.5128   2.1063 H              1 S1                 0.0000
     31 ****         0.6281  -4.5027   0.3698 H              1 S1                 0.0000
     32 ****         3.2583  -4.1879   1.8963 H              1 S1                 0.0000
     33 ****         2.7694  -5.5811   0.9603 H              1 S1                 0.0000
     34 ****         4.3512  -4.1237  -0.3183 H              1 S1                 0.0000
     35 ****         2.8085  -4.2598  -1.1274 H              1 S1                 0.0000
     36 ****         3.5771  -1.9292  -1.1403 H              1 S1                 0.0000
     37 ****         3.7470  -1.9268   0.6005 H              1 S1                 0.0000
     38 ****        -0.6089  -0.7210  -0.3642 LP             1 S1                 0.0000
     39 ****        -2.8841   3.0018   1.6191 LP             1 S1                 0.0000
     40 ****        -4.2465   2.3883   0.9602 LP             1 S1                 0.0000
     41 ****        -4.5741   4.8291   1.3868 LP             1 S1                 0.0000
@<TRIPOS>BOND
    1    1    2 1     
    2    1   19 1     
    3    1   20 1     
    4    1   21 1     
    5    2   18 2     
    6    2    3 1     
    7    3    4 2     
    8    3   22 1     
    9    4    5 1     
   10    4   17 1     
   11    5    6 1     
   12    5   23 1     
   13    5   24 1     
   14    6    7 2     
   15    6    8 2     
   16    6    9 1     
   17    9   10 1     
   18   10   11 1     
   19   10   25 1     
   20   10   26 1     
   21   11   16 1     
   22   11   12 1     
   23   11   27 1     
   24   12   13 1     
   25   12   28 1     
   26   12   29 1     
   27   13   14 1     
   28   13   30 1     
   29   13   31 1     
   30   14   15 1     
   31   14   32 1     
   32   14   33 1     
   33   15   16 1     
   34   15   34 1     
   35   15   35 1     
   36   16   36 1     
   37   16   37 1     
   38   17   18 1     
   39    9   38 1     
   40   17   39 1     
   41   17   40 1     
   42   18   41 1     
@<TRIPOS>SUBSTRUCTURE
      1 S1             1
@<TRIPOS>SET
LONE_PAIRS      STATIC     ATOMS    <user>   **** ""
6 7 8 38 39 40 41
ATOM$BLUE        STATIC     ATOMS    COLORGROUP SYSTEM
6 7 8 38 39 40 41
