AV-unprocessed.smi:2151|AV-procd|sdf|8761|dock9
  -GOLD-   2272011543D 1   1.00000     0.00000
 Structure written by MMmdl.
 39 40  0  0  0  0  0  0  0  0  1 V2000
  149.2888  136.6351  155.2111 C   0  0  0  0  0  0  0  0  0  0  0  0
  149.4660  135.6850  156.4057 C   0  0  1  0  0  0  0  0  0  0  0  0
  148.6599  136.1821  157.5188 N   0  0  0  0  0  0  0  0  0  0  0  0
  149.1371  136.6268  158.6918 C   0  0  0  0  0  0  0  0  0  0  0  0
  150.3392  136.6753  158.9573 O   0  0  0  0  0  0  0  0  0  0  0  0
  148.0819  137.0628  159.7185 C   0  0  0  0  0  0  0  0  0  0  0  0
  147.6323  135.9694  160.5964 N   0  0  0  0  0  0  0  0  0  0  0  0
  147.3652  134.7287  159.9848 C   0  0  0  0  0  0  0  0  0  0  0  0
  146.9483  133.6475  160.6710 C   0  0  0  0  0  0  0  0  0  0  0  0
  146.7337  132.3037  159.9916 C   0  0  0  0  0  0  0  0  0  0  0  0
  146.2810  131.3949  160.8558 F   0  0  0  0  0  0  0  0  0  0  0  0
  145.8379  132.4294  159.0135 F   0  0  0  0  0  0  0  0  0  0  0  0
  147.8678  131.8468  159.4590 F   0  0  0  0  0  0  0  0  0  0  0  0
  146.8089  133.8085  162.1051 C   0  0  0  0  0  0  0  0  0  0  0  0
  147.0748  134.9839  162.7078 C   0  0  0  0  0  0  0  0  0  0  0  0
  147.5153  136.1545  161.9454 C   0  0  0  0  0  0  0  0  0  0  0  0
  147.7647  137.2324  162.4856 O   0  0  0  0  0  0  0  0  0  0  0  0
  149.0590  134.2348  156.0680 C   0  0  1  0  0  0  0  0  0  0  0  0
  149.5581  133.7317  154.7130 C   0  0  0  0  0  0  0  0  0  0  0  0
  149.5194  132.2335  154.9095 C   0  0  0  0  0  0  0  0  0  0  0  0
  149.9657  132.0920  156.3620 C   0  0  0  0  0  0  0  0  0  0  0  0
  149.6212  133.3169  157.0041 O   0  0  0  0  0  0  0  0  0  0  0  0
  149.9229  136.3439  154.3736 H   0  0  0  0  0  0  0  0  0  0  0  0
  149.5584  137.6570  155.4805 H   0  0  0  0  0  0  0  0  0  0  0  0
  148.2563  136.6444  154.8600 H   0  0  0  0  0  0  0  0  0  0  0  0
  150.5217  135.6984  156.6830 H   0  0  0  0  0  0  0  0  0  0  0  0
  147.6584  136.1730  157.3912 H   0  0  0  0  0  0  0  0  0  0  0  0
  148.4805  137.8901  160.3088 H   0  0  0  0  0  0  0  0  0  0  0  0
  147.2320  137.4832  159.1785 H   0  0  0  0  0  0  0  0  0  0  0  0
  147.5365  134.7094  158.9181 H   0  0  0  0  0  0  0  0  0  0  0  0
  146.4834  132.9732  162.7074 H   0  0  0  0  0  0  0  0  0  0  0  0
  146.9592  135.0677  163.7785 H   0  0  0  0  0  0  0  0  0  0  0  0
  147.9736  134.1279  156.1104 H   0  0  0  0  0  0  0  0  0  0  0  0
  148.9409  134.0663  153.8789 H   0  0  0  0  0  0  0  0  0  0  0  0
  150.5837  134.0585  154.5348 H   0  0  0  0  0  0  0  0  0  0  0  0
  148.4977  131.8691  154.7938 H   0  0  0  0  0  0  0  0  0  0  0  0
  150.1574  131.6904  154.2118 H   0  0  0  0  0  0  0  0  0  0  0  0
  149.4959  131.2410  156.8552 H   0  0  0  0  0  0  0  0  0  0  0  0
  151.0468  131.9634  156.4222 H   0  0  0  0  0  0  0  0  0  0  0  0
  1  2  1  0  0  0  0
  1 23  1  0  0  0  0
  1 24  1  0  0  0  0
  1 25  1  0  0  0  0
  2  3  1  0  0  0  0
  2 18  1  0  0  0  0
  2 26  1  0  0  0  0
  3  4  1  0  0  0  0
  3 27  1  0  0  0  0
  4  5  2  0  0  0  0
  4  6  1  0  0  0  0
  6  7  1  0  0  0  0
  6 28  1  0  0  0  0
  6 29  1  0  0  0  0
  7 16  1  0  0  0  0
  7  8  1  0  0  0  0
  8  9  2  0  0  0  0
  8 30  1  0  0  0  0
  9 10  1  0  0  0  0
  9 14  1  0  0  0  0
 10 11  1  0  0  0  0
 10 12  1  0  0  0  0
 10 13  1  0  0  0  0
 14 15  2  0  0  0  0
 14 31  1  0  0  0  0
 15 16  1  0  0  0  0
 15 32  1  0  0  0  0
 16 17  2  0  0  0  0
 18 22  1  0  0  0  0
 18 19  1  0  0  0  0
 18 33  1  0  0  0  0
 19 20  1  0  0  0  0
 19 34  1  0  0  0  0
 19 35  1  0  0  0  0
 20 21  1  0  0  0  0
 20 36  1  0  0  0  0
 20 37  1  0  0  0  0
 21 22  1  0  0  0  0
 21 38  1  0  0  0  0
 21 39  1  0  0  0  0
M  END
> <s_m_source_file>
AV-unprocessed.smi

> <i_m_source_file_index>
2151

> <i_lp_mmshare_version>
43012

> <i_f3d_flags>
0

> <s_epik_input>
TzFbQ0gyXVtDSDJdW0NIMl1bQ0BIXTFbQ0BIXShbQ0gzXSlbTkhdQyg9TylbQ0gyXW4yW2NIXWMoQyhGKShGKUYpW2NIXVtjSF1jMj1P

> <s_epik_cmdline>
J2VwaWtfcHl0aG9uJywgJy1waCcsICc3LjAnLCAnLXRuJywgJzgnLCAnLW1hJywgJzIwMCcsICctbWV0YWxfYmluZGluZycsICctaW1hZScsICc8aW5maWxlLm1hZT4nLCAnLW9tYWUnLCAnPG91dGZpbGUubWFlPic=

> <r_lp_tautomer_probability>
1

> <r_epik_Ionization_Penalty>
4.20109e-08

> <r_epik_Ionization_Penalty_Charging>
1.89977e-08

> <r_epik_Ionization_Penalty_Neutral>
2.30132e-08

> <r_epik_State_Penalty>
-0

> <r_epik_Charging_Adjusted_Penalty>
1.89977e-08

> <i_epik_Tot_Q>
0

> <i_epik_Tot_abs_Q>
0

> <r_epik_Metal_State_Penalty>
-0

> <b_epik_Metal_Only>
0

> <s_lp_Force_Field>
OPLS_2005

> <r_lp_Energy>
30.384

> <b_lp_Chiralities_Consistent>
1

> <s_lp_Variant>
AV-unprocessed.smi:2151-4

> <Gold.Version>
5.8.1

> <Gold.Id.Protein>
6NUR|6NUR_protein|mol2

> <Gold.PLP.Fitness>
44.2687

> <Gold.PLP.PLP>
-36.2046

> <Gold.PLP.part.hbond>
-4.0000

> <Gold.PLP.part.metal>
0.0000

> <Gold.PLP.part.buried>
-3.5686

> <Gold.PLP.part.nonpolar>
-28.8446

> <Gold.PLP.part.repulsive>
0.0607

> <Gold.PLP.ligand.clash>
0.0000

> <Gold.PLP.ligand.torsion>
0.9221

> <Gold.PLP.Chemscore.Hbond>
3.2824

> <Gold.PLP.Chemscore.CHOScore>
0.0000

> <Gold.PLP.Chemscore.Metal>
0.0000

> <Gold.Chemscore.Hbonds>
donor molecule, donor type, donor heavy atom, donor atom, acceptor molecule, acceptor atom, score
      P1  H  6896  6907       L1     5  1.00
      P1  H  6931  6943       L1    17  0.86
      P1  H  6934  6947       L1    17  0.01

> <Gold.PLP.Chemscore.Internal.Correction>
0.0610

> <Gold.Rescore>
     Score         DG    S(hbond)    S(metal)    S(lipo)     H(rot)  DE(clash)    DE(int)     intcor
     16.68     -17.36       2.72        0.00      63.79       1.82       0.02       0.66       ----

> <Gold.Chemscore.Fitness>
16.6804

> <Gold.Chemscore.DG>
-17.3622

> <Gold.Chemscore.ZeroCoef>
-5.4800

> <Gold.Chemscore.Hbond>
2.7201

> <Gold.Chemscore.Metal>
0.0000

> <Gold.Chemscore.Lipo>
63.7923

> <Gold.Chemscore.Internal_Hbond>
0.0000

> <Gold.Chemscore.DEClash>
0.0234

> <Gold.Chemscore.DEInternal>
0.6584

> <Gold.Chemscore.Rot>
1.8228

> <Gold.Chemscore.Internal.Correction>
   9.000000E+99

> <Gold.Chemscore.Hbonds>
donor molecule, donor type, donor heavy atom, donor atom, acceptor molecule, acceptor atom, score
      P1  H  6896  6907       L1     5  0.86
      P1  H  6931  6943       L1    17  0.84
      P1  H  6934  6947       L1    17  0.03

> <Gold.Chemscore.Hbond.Weighted>
-9.0850

> <Gold.Chemscore.Metal.Weighted>
-0.0000

> <Gold.Chemscore.Lipo.Weighted>
-7.4637

> <Gold.Chemscore.Internal_Hbond.Weighted>
0.0000

> <Gold.Chemscore.DEClash.Weighted>
0.0234

> <Gold.Chemscore.DEInternal.Weighted>
0.6584

> <Gold.Chemscore.Rot.Weighted>
4.6665

> <Gold.Chemscore.Internal.Correction.Weighted>
   9.000000E+99

> <Gold.Protein.RotatedTorsions>
[ 6907 6896 6895 6894 ] final  -32.99 input  -60.11 | X-H torsion
[ 7974 7965 7964 7962 ] final -118.07 input  175.53 | X-H torsion
[ 8008 7997 7996 7995 ] final  127.40 input   59.86 | X-H torsion
[ 10167 10162 10161 10158 ] final   96.48 input  -65.29 | X-H torsion
[ 10718 10713 10712 10709 ] final  -84.57 input   66.30 | X-H torsion
[ 10763 10752 10751 10750 ] final  142.60 input  -60.55 | X-H torsion
[ 11005 11000 10999 10996 ] final   51.16 input  -57.11 | X-H torsion

> <Gold.Protein.ActiveResidues>
 VAL166  LYS551  ARG553  GLY616  TRP617  ASP618  TYR619  PRO620  LYS621  CYS622 
 ASP623  PHE694  ASN695  SER759  ASP760  ASP761  ALA762  ILE779  LEU786  VAL792 
 PHE793  MET794  SER795  GLU796  ALA797  LYS798  CYS799  TRP800  GLU811  SER814 

> <Gold.Protein.RotatedAtoms>
  151.0714  134.9801  159.8310 H   0  0  0  0  0  0  0  0  0  0  0  0  # atno 6907 bound_to 6896
  152.5409  134.2294  159.8829 H   0  0  0  0  0  0  0  0  0  0  0  0  # atno 6908 bound_to 6896
  151.2319  133.4402  159.2637 H   0  0  0  0  0  0  0  0  0  0  0  0  # atno 6909 bound_to 6896
  145.0781  140.8406  143.4056 H   0  0  0  0  0  0  0  0  0  0  0  0  # atno 7974 bound_to 7965
  156.2890  140.2670  156.2267 H   0  0  0  0  0  0  0  0  0  0  0  0  # atno 8008 bound_to 7997
  155.0114  140.0387  157.2419 H   0  0  0  0  0  0  0  0  0  0  0  0  # atno 8009 bound_to 7997
  154.7515  140.2744  155.6294 H   0  0  0  0  0  0  0  0  0  0  0  0  # atno 8010 bound_to 7997
  139.7890  144.6859  150.9918 H   0  0  0  0  0  0  0  0  0  0  0  0  # atno 10167 bound_to 10162
  156.0005  130.4702  150.4430 H   0  0  0  0  0  0  0  0  0  0  0  0  # atno 10718 bound_to 10713
  153.9586  135.2962  155.3435 H   0  0  0  0  0  0  0  0  0  0  0  0  # atno 10763 bound_to 10752
  154.7387  135.5034  153.9089 H   0  0  0  0  0  0  0  0  0  0  0  0  # atno 10764 bound_to 10752
  153.0958  135.6720  153.9876 H   0  0  0  0  0  0  0  0  0  0  0  0  # atno 10765 bound_to 10752
  140.0956  134.5150  155.8810 H   0  0  0  0  0  0  0  0  0  0  0  0  # atno 11005 bound_to 11000
  145.1212  139.2692  143.5587 LP  0  0  0  0  0  0  0  0  0  0  0  0  # atno 17320 bound_to 7965
  146.3530  140.0836  142.8616 LP  0  0  0  0  0  0  0  0  0  0  0  0  # atno 17321 bound_to 7965
  140.7820  143.4401  151.0564 LP  0  0  0  0  0  0  0  0  0  0  0  0  # atno 17342 bound_to 10162
  139.8079  143.7993  152.3169 LP  0  0  0  0  0  0  0  0  0  0  0  0  # atno 17343 bound_to 10162
  157.2470  131.0538  151.2402 LP  0  0  0  0  0  0  0  0  0  0  0  0  # atno 17370 bound_to 10713
  157.3565  130.7109  149.6474 LP  0  0  0  0  0  0  0  0  0  0  0  0  # atno 17371 bound_to 10713
  141.2091  133.6680  156.6415 LP  0  0  0  0  0  0  0  0  0  0  0  0  # atno 17394 bound_to 11000
  140.3291  134.7944  157.4312 LP  0  0  0  0  0  0  0  0  0  0  0  0  # atno 17395 bound_to 11000

$$$$
