AV-unprocessed.smi:967|AV-procd|sdf|4287|dock3
  -GOLD-   22720 2193D 1   1.00000     0.00000
 Structure written by MMmdl.
 42 43  0  0  0  0  0  0  0  0  1 V2000
  153.7866  132.5731  157.3966 C   0  0  0  0  0  0  0  0  0  0  0  0
  152.3955  132.2409  157.6633 N   0  0  0  0  0  0  0  0  0  0  0  0
  152.1147  130.8504  157.9850 C   0  0  0  0  0  0  0  0  0  0  0  0
  151.5121  132.7672  156.7120 C   0  0  0  0  0  0  0  0  0  0  0  0
  151.4707  134.1523  156.4336 C   0  0  0  0  0  0  0  0  0  0  0  0
  150.5628  134.6227  155.4654 C   0  0  0  0  0  0  0  0  0  0  0  0
  149.7296  133.6918  154.8006 C   0  0  0  0  0  0  0  0  0  0  0  0
  148.7590  134.0419  153.8240 N   0  0  0  0  0  0  0  0  0  0  0  0
  147.6398  133.3811  153.4821 C   0  0  0  0  0  0  0  0  0  0  0  0
  147.2429  132.3389  154.0025 O   0  0  0  0  0  0  0  0  0  0  0  0
  146.9863  134.0210  152.5016 N   0  0  0  0  0  0  0  0  0  0  0  0
  145.7226  133.6070  151.8979 C   0  0  2  0  0  0  0  0  0  0  0  0
  145.8596  132.1779  151.3380 C   0  0  0  0  0  0  0  0  0  0  0  0
  144.5843  131.7351  150.6028 C   0  0  0  0  0  0  0  0  0  0  0  0
  144.2142  132.7299  149.4896 C   0  0  1  0  0  0  0  0  0  0  0  0
  143.0073  132.3271  148.8776 O   0  0  0  0  0  0  0  0  0  0  0  0
  144.0571  134.1533  150.0512 C   0  0  0  0  0  0  0  0  0  0  0  0
  145.3296  134.6012  150.7879 C   0  0  0  0  0  0  0  0  0  0  0  0
  149.8423  132.3339  155.1636 C   0  0  0  0  0  0  0  0  0  0  0  0
  150.7116  131.8758  156.0888 N   0  0  0  0  0  0  0  0  0  0  0  0
  153.8966  133.6368  157.1820 H   0  0  0  0  0  0  0  0  0  0  0  0
  154.1693  132.0076  156.5463 H   0  0  0  0  0  0  0  0  0  0  0  0
  154.4018  132.3403  158.2659 H   0  0  0  0  0  0  0  0  0  0  0  0
  151.0498  130.7004  158.1671 H   0  0  0  0  0  0  0  0  0  0  0  0
  152.6542  130.5568  158.8857 H   0  0  0  0  0  0  0  0  0  0  0  0
  152.4219  130.1913  157.1724 H   0  0  0  0  0  0  0  0  0  0  0  0
  152.1172  134.8447  156.9526 H   0  0  0  0  0  0  0  0  0  0  0  0
  150.5144  135.6818  155.2656 H   0  0  0  0  0  0  0  0  0  0  0  0
  148.9063  134.9305  153.3679 H   0  0  0  0  0  0  0  0  0  0  0  0
  147.3930  134.8740  152.1466 H   0  0  0  0  0  0  0  0  0  0  0  0
  144.9275  133.6003  152.6458 H   0  0  0  0  0  0  0  0  0  0  0  0
  146.7057  132.1284  150.6507 H   0  0  0  0  0  0  0  0  0  0  0  0
  146.0778  131.4790  152.1466 H   0  0  0  0  0  0  0  0  0  0  0  0
  144.7278  130.7387  150.1834 H   0  0  0  0  0  0  0  0  0  0  0  0
  143.7643  131.6557  151.3180 H   0  0  0  0  0  0  0  0  0  0  0  0
  144.9945  132.7262  148.7272 H   0  0  0  0  0  0  0  0  0  0  0  0
  142.3254  132.9300  149.1320 H   0  0  0  0  0  0  0  0  0  0  0  0
  143.8336  134.8525  149.2445 H   0  0  0  0  0  0  0  0  0  0  0  0
  143.2104  134.1906  150.7383 H   0  0  0  0  0  0  0  0  0  0  0  0
  145.1772  135.5940  151.2128 H   0  0  0  0  0  0  0  0  0  0  0  0
  146.1455  134.6946  150.0696 H   0  0  0  0  0  0  0  0  0  0  0  0
  149.2184  131.5876  154.6939 H   0  0  0  0  0  0  0  0  0  0  0  0
  1  2  1  0  0  0  0
  1 21  1  0  0  0  0
  1 22  1  0  0  0  0
  1 23  1  0  0  0  0
  2  3  1  0  0  0  0
  2  4  1  0  0  0  0
  3 24  1  0  0  0  0
  3 25  1  0  0  0  0
  3 26  1  0  0  0  0
  4 20  1  0  0  0  0
  4  5  2  0  0  0  0
  5  6  1  0  0  0  0
  5 27  1  0  0  0  0
  6  7  2  0  0  0  0
  6 28  1  0  0  0  0
  7  8  1  0  0  0  0
  7 19  1  0  0  0  0
  8  9  1  0  0  0  0
  8 29  1  0  0  0  0
  9 10  2  0  0  0  0
  9 11  1  0  0  0  0
 11 12  1  0  0  0  0
 11 30  1  0  0  0  0
 12 18  1  0  0  0  0
 12 13  1  0  0  0  0
 12 31  1  0  0  0  0
 13 14  1  0  0  0  0
 13 32  1  0  0  0  0
 13 33  1  0  0  0  0
 14 15  1  0  0  0  0
 14 34  1  0  0  0  0
 14 35  1  0  0  0  0
 15 16  1  0  0  0  0
 15 17  1  0  0  0  0
 15 36  1  0  0  0  0
 16 37  1  0  0  0  0
 17 18  1  0  0  0  0
 17 38  1  0  0  0  0
 17 39  1  0  0  0  0
 18 40  1  0  0  0  0
 18 41  1  0  0  0  0
 19 20  2  0  0  0  0
 19 42  1  0  0  0  0
M  END
> <s_m_source_file>
AV-unprocessed.smi

> <i_m_source_file_index>
967

> <i_lp_mmshare_version>
43012

> <i_f3d_flags>
0

> <s_epik_input>
W0NIM11OKFtDSDNdKWMxW2NIXVtjSF1jKFtjSF1uMSlbTkhdQyg9TylbTkhdW0NAQEhdMltDSDJdW0NIMl1bQ0BASF0oW09IXSlbQ0gyXVtDSDJdMg==

> <s_epik_cmdline>
J2VwaWtfcHl0aG9uJywgJy1waCcsICc3LjAnLCAnLXRuJywgJzgnLCAnLW1hJywgJzIwMCcsICctbWV0YWxfYmluZGluZycsICctaW1hZScsICc8aW5maWxlLm1hZT4nLCAnLW9tYWUnLCAnPG91dGZpbGUubWFlPic=

> <r_lp_tautomer_probability>
1

> <r_epik_Ionization_Penalty>
0.629464

> <r_epik_Ionization_Penalty_Charging>
0

> <r_epik_Ionization_Penalty_Neutral>
0.629464

> <r_epik_State_Penalty>
0.645019

> <r_epik_Charging_Adjusted_Penalty>
0.645019

> <i_epik_Tot_Q>
0

> <i_epik_Tot_abs_Q>
0

> <r_epik_Metal_State_Penalty>
0.308581

> <b_epik_Metal_Only>
0

> <s_lp_Force_Field>
OPLS_2005

> <r_lp_Energy>
16.3049

> <b_lp_Chiralities_Consistent>
1

> <s_lp_Variant>
AV-unprocessed.smi:967-3

> <Gold.Version>
5.8.1

> <Gold.Id.Protein>
6NUR|6NUR_protein|mol2

> <Gold.PLP.Fitness>
47.9152

> <Gold.PLP.PLP>
-34.9650

> <Gold.PLP.part.hbond>
-5.2769

> <Gold.PLP.part.metal>
0.0000

> <Gold.PLP.part.buried>
-4.0161

> <Gold.PLP.part.nonpolar>
-26.1152

> <Gold.PLP.part.repulsive>
0.0775

> <Gold.PLP.ligand.clash>
0.0000

> <Gold.PLP.ligand.torsion>
0.2593

> <Gold.PLP.Chemscore.Hbond>
4.4187

> <Gold.PLP.Chemscore.CHOScore>
0.0000

> <Gold.PLP.Chemscore.Metal>
0.0000

> <Gold.Chemscore.Hbonds>
donor molecule, donor type, donor heavy atom, donor atom, acceptor molecule, acceptor atom, score
      L1  H     8    29       P1  7948  1.00
      L1  H    11    30       P1  7948  0.96
      L1  H    16    37       P1 10186  1.00
      P1  H  6896  6909       L1     2  0.89
      P1  H 10785 10796       L1    16  0.59

> <Gold.PLP.Chemscore.Internal.Correction>
0.2127

> <Gold.Rescore>
     Score         DG    S(hbond)    S(metal)    S(lipo)     H(rot)  DE(clash)    DE(int)     intcor
     16.29     -18.44       2.67        0.00      71.83       1.71       0.56       1.59       ----

> <Gold.Chemscore.Fitness>
16.2862

> <Gold.Chemscore.DG>
-18.4408

> <Gold.Chemscore.ZeroCoef>
-5.4800

> <Gold.Chemscore.Hbond>
2.6739

> <Gold.Chemscore.Metal>
0.0000

> <Gold.Chemscore.Lipo>
71.8254

> <Gold.Chemscore.Internal_Hbond>
0.0000

> <Gold.Chemscore.DEClash>
0.5604

> <Gold.Chemscore.DEInternal>
1.5942

> <Gold.Chemscore.Rot>
1.7084

> <Gold.Chemscore.Internal.Correction>
   9.000000E+99

> <Gold.Chemscore.Hbonds>
donor molecule, donor type, donor heavy atom, donor atom, acceptor molecule, acceptor atom, score
      L1  H     8    29       P1  7948  0.34
      L1  H    11    30       P1  7948  0.82
      L1  H    16    37       P1 10186  0.93
      P1  H  6896  6909       L1     2  0.06
      P1  H 10785 10796       L1    16  0.25

> <Gold.Chemscore.Hbond.Weighted>
-8.9308

> <Gold.Chemscore.Metal.Weighted>
-0.0000

> <Gold.Chemscore.Lipo.Weighted>
-8.4036

> <Gold.Chemscore.Internal_Hbond.Weighted>
0.0000

> <Gold.Chemscore.DEClash.Weighted>
0.5604

> <Gold.Chemscore.DEInternal.Weighted>
1.5942

> <Gold.Chemscore.Rot.Weighted>
4.3735

> <Gold.Chemscore.Internal.Correction.Weighted>
   9.000000E+99

> <Gold.Protein.RotatedTorsions>
[ 6907 6896 6895 6894 ] final  -63.60 input  -60.11 | X-H torsion
[ 7974 7965 7964 7962 ] final -176.09 input  175.53 | X-H torsion
[ 8008 7997 7996 7995 ] final   49.56 input   59.86 | X-H torsion
[ 10167 10162 10161 10158 ] final -100.02 input  -65.29 | X-H torsion
[ 10718 10713 10712 10709 ] final -137.38 input   66.30 | X-H torsion
[ 10763 10752 10751 10750 ] final   -8.78 input  -60.55 | X-H torsion
[ 11005 11000 10999 10996 ] final   13.78 input  -57.11 | X-H torsion

> <Gold.Protein.ActiveResidues>
 VAL166  LYS551  ARG553  GLY616  TRP617  ASP618  TYR619  PRO620  LYS621  CYS622 
 ASP623  PHE694  ASN695  SER759  ASP760  ASP761  ALA762  ILE779  LEU786  VAL792 
 PHE793  MET794  SER795  GLU796  ALA797  LYS798  CYS799  TRP800  GLU811  SER814 

> <Gold.Protein.RotatedAtoms>
  150.7639  134.6413  159.6238 H   0  0  0  0  0  0  0  0  0  0  0  0  # atno 6907 bound_to 6896
  152.3661  134.6799  160.0200 H   0  0  0  0  0  0  0  0  0  0  0  0  # atno 6908 bound_to 6896
  151.7174  133.3277  159.3343 H   0  0  0  0  0  0  0  0  0  0  0  0  # atno 6909 bound_to 6896
  144.7127  140.1223  143.6404 H   0  0  0  0  0  0  0  0  0  0  0  0  # atno 7974 bound_to 7965
  155.4042  140.3439  155.4259 H   0  0  0  0  0  0  0  0  0  0  0  0  # atno 8008 bound_to 7997
  156.1486  140.1564  156.8838 H   0  0  0  0  0  0  0  0  0  0  0  0  # atno 8009 bound_to 7997
  154.5032  140.0809  156.7823 H   0  0  0  0  0  0  0  0  0  0  0  0  # atno 8010 bound_to 7997
  140.2564  143.3437  152.0667 H   0  0  0  0  0  0  0  0  0  0  0  0  # atno 10167 bound_to 10162
  156.2875  130.7356  151.1371 H   0  0  0  0  0  0  0  0  0  0  0  0  # atno 10718 bound_to 10713
  153.4454  135.7014  153.6142 H   0  0  0  0  0  0  0  0  0  0  0  0  # atno 10763 bound_to 10752
  153.4499  135.3760  155.2278 H   0  0  0  0  0  0  0  0  0  0  0  0  # atno 10764 bound_to 10752
  154.8728  135.3994  154.3859 H   0  0  0  0  0  0  0  0  0  0  0  0  # atno 10765 bound_to 10752
  140.4768  134.0975  155.7743 H   0  0  0  0  0  0  0  0  0  0  0  0  # atno 11005 bound_to 11000
  145.9360  139.2637  143.1297 LP  0  0  0  0  0  0  0  0  0  0  0  0  # atno 17320 bound_to 7965
  145.9473  140.8935  143.0277 LP  0  0  0  0  0  0  0  0  0  0  0  0  # atno 17321 bound_to 7965
  139.5030  144.6747  151.6158 LP  0  0  0  0  0  0  0  0  0  0  0  0  # atno 17342 bound_to 10162
  140.6001  143.9626  150.6380 LP  0  0  0  0  0  0  0  0  0  0  0  0  # atno 17343 bound_to 10162
  157.7333  131.0592  150.5586 LP  0  0  0  0  0  0  0  0  0  0  0  0  # atno 17370 bound_to 10713
  156.5698  130.4277  149.6024 LP  0  0  0  0  0  0  0  0  0  0  0  0  # atno 17371 bound_to 10713
  141.1550  133.8899  157.2000 LP  0  0  0  0  0  0  0  0  0  0  0  0  # atno 17394 bound_to 11000
  139.9851  135.0085  156.9842 LP  0  0  0  0  0  0  0  0  0  0  0  0  # atno 17395 bound_to 11000

$$$$
