AV-unprocessed.smi:1194|AV-procd|sdf|4993|dock9
  -GOLD-   22720 3593D 1   1.00000     0.00000
 Structure written by MMmdl.
 48 49  0  0  0  0  0  0  0  0  2 V2000
  153.2724  131.8988  156.7131 C   0  0  0  0  0  0  0  0  0  0  0  0
  152.2716  131.0596  155.9107 C   0  0  0  0  0  0  0  0  0  0  0  0
  150.9144  130.9202  156.6268 C   0  0  0  0  0  0  0  0  0  0  0  0
  150.1854  132.2572  156.8576 C   0  0  0  0  0  0  0  0  0  0  0  0
  149.8403  132.5472  158.0044 O   0  0  0  0  0  0  0  0  0  0  0  0
  149.9568  133.0826  155.8017 N   0  0  0  0  0  0  0  0  0  0  0  0
  150.2981  132.7498  154.4027 C   0  0  0  0  0  0  0  0  0  0  0  0
  149.0084  132.5992  153.5770 C   0  0  0  0  0  0  0  0  0  0  0  0
  148.1334  133.8594  153.6825 C   0  0  0  0  0  0  0  0  0  0  0  0
  147.8872  134.2287  155.1562 C   0  0  0  0  0  0  0  0  0  0  0  0
  149.2081  134.3541  155.9553 C   0  0  2  0  0  0  0  0  0  0  0  0
  150.0376  135.6141  155.6251 C   0  0  0  0  0  0  0  0  0  0  0  0
  151.2030  135.5096  155.2419 O   0  0  0  0  0  0  0  0  0  0  0  0
  149.4296  136.8027  155.7658 N   0  0  0  0  0  0  0  0  0  0  0  0
  150.0584  138.0870  155.4977 C   0  0  0  0  0  0  0  0  0  0  0  0
  149.6130  138.6315  154.1346 C   0  0  0  0  0  0  0  0  0  0  0  0
  148.7646  139.8809  154.2704 C   0  0  0  0  0  0  0  0  0  0  0  0
  147.4685  139.9324  153.7112 C   0  0  0  0  0  0  0  0  0  0  0  0
  146.7037  141.1100  153.8454 C   0  0  0  0  0  0  0  0  0  0  0  0
  147.2530  142.2100  154.5352 C   0  0  0  0  0  0  0  0  0  0  0  0
  148.4968  142.1242  155.0564 N   0  3  0  0  0  0  0  0  0  0  0  0
  149.2607  141.0147  154.9496 C   0  0  0  0  0  0  0  0  0  0  0  0
  154.2200  131.9861  156.1811 H   0  0  0  0  0  0  0  0  0  0  0  0
  153.4765  131.4463  157.6839 H   0  0  0  0  0  0  0  0  0  0  0  0
  152.8934  132.9065  156.8849 H   0  0  0  0  0  0  0  0  0  0  0  0
  152.1296  131.5192  154.9315 H   0  0  0  0  0  0  0  0  0  0  0  0
  152.7016  130.0730  155.7319 H   0  0  0  0  0  0  0  0  0  0  0  0
  150.2702  130.2690  156.0347 H   0  0  0  0  0  0  0  0  0  0  0  0
  151.0724  130.4363  157.5916 H   0  0  0  0  0  0  0  0  0  0  0  0
  150.9114  133.5436  153.9760 H   0  0  0  0  0  0  0  0  0  0  0  0
  150.8975  131.8491  154.2888 H   0  0  0  0  0  0  0  0  0  0  0  0
  149.2524  132.4014  152.5330 H   0  0  0  0  0  0  0  0  0  0  0  0
  148.4477  131.7342  153.9337 H   0  0  0  0  0  0  0  0  0  0  0  0
  148.6221  134.6884  153.1694 H   0  0  0  0  0  0  0  0  0  0  0  0
  147.1829  133.6996  153.1729 H   0  0  0  0  0  0  0  0  0  0  0  0
  147.3052  135.1491  155.2180 H   0  0  0  0  0  0  0  0  0  0  0  0
  147.2675  133.4573  155.6157 H   0  0  0  0  0  0  0  0  0  0  0  0
  148.9095  134.5123  156.9921 H   0  0  0  0  0  0  0  0  0  0  0  0
  148.4689  136.8121  156.0766 H   0  0  0  0  0  0  0  0  0  0  0  0
  149.7930  138.7893  156.2896 H   0  0  0  0  0  0  0  0  0  0  0  0
  151.1433  137.9700  155.5181 H   0  0  0  0  0  0  0  0  0  0  0  0
  150.4850  138.8606  153.5202 H   0  0  0  0  0  0  0  0  0  0  0  0
  149.0463  137.8718  153.5943 H   0  0  0  0  0  0  0  0  0  0  0  0
  147.0648  139.0807  153.1828 H   0  0  0  0  0  0  0  0  0  0  0  0
  145.7109  141.1686  153.4236 H   0  0  0  0  0  0  0  0  0  0  0  0
  146.7395  143.1489  154.6841 H   0  0  0  0  0  0  0  0  0  0  0  0
  150.2388  141.0691  155.4054 H   0  0  0  0  0  0  0  0  0  0  0  0
  148.8757  142.9323  155.5511 H   0  0  0  0  0  0  0  0  0  0  0  0
  1  2  1  0  0  0  0
  1 23  1  0  0  0  0
  1 24  1  0  0  0  0
  1 25  1  0  0  0  0
  2  3  1  0  0  0  0
  2 26  1  0  0  0  0
  2 27  1  0  0  0  0
  3  4  1  0  0  0  0
  3 28  1  0  0  0  0
  3 29  1  0  0  0  0
  4  5  2  0  0  0  0
  4  6  1  0  0  0  0
  6 11  1  0  0  0  0
  6  7  1  0  0  0  0
  7  8  1  0  0  0  0
  7 30  1  0  0  0  0
  7 31  1  0  0  0  0
  8  9  1  0  0  0  0
  8 32  1  0  0  0  0
  8 33  1  0  0  0  0
  9 10  1  0  0  0  0
  9 34  1  0  0  0  0
  9 35  1  0  0  0  0
 10 11  1  0  0  0  0
 10 36  1  0  0  0  0
 10 37  1  0  0  0  0
 11 12  1  0  0  0  0
 11 38  1  0  0  0  0
 12 13  2  0  0  0  0
 12 14  1  0  0  0  0
 14 15  1  0  0  0  0
 14 39  1  0  0  0  0
 15 16  1  0  0  0  0
 15 40  1  0  0  0  0
 15 41  1  0  0  0  0
 16 17  1  0  0  0  0
 16 42  1  0  0  0  0
 16 43  1  0  0  0  0
 17 22  1  0  0  0  0
 17 18  2  0  0  0  0
 18 19  1  0  0  0  0
 18 44  1  0  0  0  0
 19 20  2  0  0  0  0
 19 45  1  0  0  0  0
 20 21  1  0  0  0  0
 20 46  1  0  0  0  0
 21 22  2  0  0  0  0
 21 48  1  0  0  0  0
 22 47  1  0  0  0  0
M  CHG  1  21   1
M  END
> <s_m_source_file>
AV-unprocessed.smi

> <i_m_source_file_index>
1194

> <i_lp_mmshare_version>
43012

> <i_f3d_flags>
0

> <s_epik_input>
W0NIM11bQ0gyXVtDSDJdQyg9TylOMVtDSDJdW0NIMl1bQ0gyXVtDSDJdW0NASF0xQyg9TylbTkhdW0NIMl1bQ0gyXWMyW2NIXVtjSF1bY0hdbltjSF0y

> <s_epik_cmdline>
J2VwaWtfcHl0aG9uJywgJy1waCcsICc3LjAnLCAnLXRuJywgJzgnLCAnLW1hJywgJzIwMCcsICctbWV0YWxfYmluZGluZycsICctaW1hZScsICc8aW5maWxlLm1hZT4nLCAnLW9tYWUnLCAnPG91dGZpbGUubWFlPic=

> <r_epik_Ionization_Penalty>
2.26523

> <r_epik_Ionization_Penalty_Charging>
2.26523

> <r_epik_Ionization_Penalty_Neutral>
5.33649e-08

> <r_epik_State_Penalty>
2.41338

> <r_epik_Charging_Adjusted_Penalty>
4.67861

> <i_epik_Tot_Q>
1

> <i_epik_Tot_abs_Q>
1

> <r_epik_Metal_State_Penalty>
2.42628

> <b_epik_Metal_Only>
0

> <s_lp_Force_Field>
OPLS_2005

> <r_lp_Energy>
33.0292

> <b_lp_Chiralities_Consistent>
1

> <s_lp_Variant>
AV-unprocessed.smi:1194-4

> <Gold.Version>
5.8.1

> <Gold.Id.Protein>
6NUR|6NUR_protein|mol2

> <Gold.PLP.Fitness>
43.3409

> <Gold.PLP.PLP>
-32.3772

> <Gold.PLP.part.hbond>
-3.0000

> <Gold.PLP.part.metal>
0.0000

> <Gold.PLP.part.buried>
-0.4998

> <Gold.PLP.part.nonpolar>
-28.8753

> <Gold.PLP.part.repulsive>
0.3156

> <Gold.PLP.ligand.clash>
0.0000

> <Gold.PLP.ligand.torsion>
0.5531

> <Gold.PLP.Chemscore.Hbond>
4.0000

> <Gold.PLP.Chemscore.CHOScore>
0.0000

> <Gold.PLP.Chemscore.Metal>
0.0000

> <Gold.Chemscore.Hbonds>
donor molecule, donor type, donor heavy atom, donor atom, acceptor molecule, acceptor atom, score
      L1  H    21    48       P1  8028  1.76
      P1  H  6896  6909       L1     5  1.00
      P1  H 10752 10764       L1    13  1.00

> <Gold.PLP.Chemscore.Internal.Correction>
0.0700

> <Gold.Rescore>
     Score         DG    S(hbond)    S(metal)    S(lipo)     H(rot)  DE(clash)    DE(int)     intcor
     18.67     -20.17       2.96        0.00      80.51       1.80       0.03       1.46       ----

> <Gold.Chemscore.Fitness>
18.6734

> <Gold.Chemscore.DG>
-20.1706

> <Gold.Chemscore.ZeroCoef>
-5.4800

> <Gold.Chemscore.Hbond>
2.9566

> <Gold.Chemscore.Metal>
0.0000

> <Gold.Chemscore.Lipo>
80.5108

> <Gold.Chemscore.Internal_Hbond>
0.0000

> <Gold.Chemscore.DEClash>
0.0338

> <Gold.Chemscore.DEInternal>
1.4634

> <Gold.Chemscore.Rot>
1.7985

> <Gold.Chemscore.Internal.Correction>
   9.000000E+99

> <Gold.Chemscore.Hbonds>
donor molecule, donor type, donor heavy atom, donor atom, acceptor molecule, acceptor atom, score
      L1  H    21    48       P1  8028  0.87
      P1  H  6896  6909       L1     5  0.98
      P1  H 10752 10764       L1    13  0.99

> <Gold.Chemscore.Hbond.Weighted>
-9.8750

> <Gold.Chemscore.Metal.Weighted>
-0.0000

> <Gold.Chemscore.Lipo.Weighted>
-9.4198

> <Gold.Chemscore.Internal_Hbond.Weighted>
0.0000

> <Gold.Chemscore.DEClash.Weighted>
0.0338

> <Gold.Chemscore.DEInternal.Weighted>
1.4634

> <Gold.Chemscore.Rot.Weighted>
4.6041

> <Gold.Chemscore.Internal.Correction.Weighted>
   9.000000E+99

> <Gold.Protein.RotatedTorsions>
[ 6907 6896 6895 6894 ] final  -13.11 input  -60.11 | X-H torsion
[ 7974 7965 7964 7962 ] final  -40.98 input  175.53 | X-H torsion
[ 8008 7997 7996 7995 ] final  -97.71 input   59.86 | X-H torsion
[ 10167 10162 10161 10158 ] final  -28.49 input  -65.29 | X-H torsion
[ 10718 10713 10712 10709 ] final  111.57 input   66.30 | X-H torsion
[ 10763 10752 10751 10750 ] final  -46.04 input  -60.55 | X-H torsion
[ 11005 11000 10999 10996 ] final  -89.96 input  -57.11 | X-H torsion

> <Gold.Protein.ActiveResidues>
 VAL166  LYS551  ARG553  GLY616  TRP617  ASP618  TYR619  PRO620  LYS621  CYS622 
 ASP623  PHE694  ASN695  SER759  ASP760  ASP761  ALA762  ILE779  LEU786  VAL792 
 PHE793  MET794  SER795  GLU796  ALA797  LYS798  CYS799  TRP800  GLU811  SER814 

> <Gold.Protein.RotatedAtoms>
  151.3600  135.0902  159.9431 H   0  0  0  0  0  0  0  0  0  0  0  0  # atno 6907 bound_to 6896
  152.5164  133.9267  159.7571 H   0  0  0  0  0  0  0  0  0  0  0  0  # atno 6908 bound_to 6896
  150.9660  133.6340  159.2775 H   0  0  0  0  0  0  0  0  0  0  0  0  # atno 6909 bound_to 6896
  146.0254  140.6798  142.9158 H   0  0  0  0  0  0  0  0  0  0  0  0  # atno 7974 bound_to 7965
  154.7914  140.0461  157.1203 H   0  0  0  0  0  0  0  0  0  0  0  0  # atno 8008 bound_to 7997
  154.9587  140.3074  155.5021 H   0  0  0  0  0  0  0  0  0  0  0  0  # atno 8009 bound_to 7997
  156.2950  140.2274  156.4670 H   0  0  0  0  0  0  0  0  0  0  0  0  # atno 8010 bound_to 7997
  140.7269  143.4006  151.1272 H   0  0  0  0  0  0  0  0  0  0  0  0  # atno 10167 bound_to 10162
  157.6437  131.0953  150.6769 H   0  0  0  0  0  0  0  0  0  0  0  0  # atno 10718 bound_to 10713
  154.0384  135.6647  153.4787 H   0  0  0  0  0  0  0  0  0  0  0  0  # atno 10763 bound_to 10752
  153.0511  135.5084  154.7865 H   0  0  0  0  0  0  0  0  0  0  0  0  # atno 10764 bound_to 10752
  154.6833  135.3049  154.9548 H   0  0  0  0  0  0  0  0  0  0  0  0  # atno 10765 bound_to 10752
  141.1575  133.7663  156.9670 H   0  0  0  0  0  0  0  0  0  0  0  0  # atno 11005 bound_to 11000
  144.7007  140.3640  143.7158 LP  0  0  0  0  0  0  0  0  0  0  0  0  # atno 17320 bound_to 7965
  145.7127  139.1689  143.2530 LP  0  0  0  0  0  0  0  0  0  0  0  0  # atno 17321 bound_to 7965
  139.7625  143.8614  152.3103 LP  0  0  0  0  0  0  0  0  0  0  0  0  # atno 17342 bound_to 10162
  139.8505  144.7166  150.9220 LP  0  0  0  0  0  0  0  0  0  0  0  0  # atno 17343 bound_to 10162
  156.7089  130.4646  149.5552 LP  0  0  0  0  0  0  0  0  0  0  0  0  # atno 17370 bound_to 10713
  156.1744  130.6458  151.0876 LP  0  0  0  0  0  0  0  0  0  0  0  0  # atno 17371 bound_to 10713
  140.1155  134.9450  157.2127 LP  0  0  0  0  0  0  0  0  0  0  0  0  # atno 17394 bound_to 11000
  140.3139  134.2992  155.7260 LP  0  0  0  0  0  0  0  0  0  0  0  0  # atno 17395 bound_to 11000

$$$$
