AV-unprocessed.smi:2696|AV-procd|sdf|10413|dock2
  -GOLD-   2272014453D 1   1.00000     0.00000
 Structure written by MMmdl.
 43 44  0  0  0  0  0  0  0  0  1 V2000
  151.0306  132.7424  155.8608 C   0  0  0  0  0  0  0  0  0  0  0  0
  150.0291  133.8995  155.7259 C   0  0  0  0  0  0  0  0  0  0  0  0
  149.7489  134.2398  154.2534 C   0  0  0  0  0  0  0  0  0  0  0  0
  150.4823  135.1249  156.5083 C   0  0  0  0  0  0  0  0  0  0  0  0
  149.8136  135.5807  157.5946 C   0  0  0  0  0  0  0  0  0  0  0  0
  150.2926  136.7478  158.3346 C   0  0  0  0  0  0  0  0  0  0  0  0
  149.6935  137.2030  159.3085 O   0  0  0  0  0  0  0  0  0  0  0  0
  151.4583  137.2857  157.8706 N   0  0  0  0  0  0  0  0  0  0  0  0
  152.1007  138.4226  158.5641 C   0  0  0  0  0  0  0  0  0  0  0  0
  151.6642  139.8309  158.0535 C   0  0  1  0  0  0  0  0  0  0  0  0
  152.2198  140.0740  156.6340 C   0  0  0  0  0  0  0  0  0  0  0  0
  150.2664  139.7734  157.8290 O   0  0  0  0  0  0  0  0  0  0  0  0
  152.0617  140.9677  159.0087 C   0  0  0  0  0  0  0  0  0  0  0  0
  152.8285  140.7120  160.1703 C   0  0  0  0  0  0  0  0  0  0  0  0
  153.2209  141.7668  161.0151 C   0  0  0  0  0  0  0  0  0  0  0  0
  152.8561  143.0899  160.7079 C   0  0  0  0  0  0  0  0  0  0  0  0
  152.0989  143.3672  159.5517 C   0  0  0  0  0  0  0  0  0  0  0  0
  151.7215  144.8054  159.2284 C   0  0  0  0  0  0  0  0  0  0  0  0
  152.0771  145.6438  160.2027 F   0  0  0  0  0  0  0  0  0  0  0  0
  152.3298  145.1778  158.1030 F   0  0  0  0  0  0  0  0  0  0  0  0
  150.4030  144.8999  159.0559 F   0  0  0  0  0  0  0  0  0  0  0  0
  151.7019  142.3032  158.7125 C   0  0  0  0  0  0  0  0  0  0  0  0
  152.0937  136.7963  156.7101 C   0  0  0  0  0  0  0  0  0  0  0  0
  151.6403  135.7706  156.0632 N   0  0  0  0  0  0  0  0  0  0  0  0
  151.1946  132.4877  156.9084 H   0  0  0  0  0  0  0  0  0  0  0  0
  151.9971  132.9939  155.4231 H   0  0  0  0  0  0  0  0  0  0  0  0
  150.6634  131.8470  155.3586 H   0  0  0  0  0  0  0  0  0  0  0  0
  149.0867  133.5627  156.1612 H   0  0  0  0  0  0  0  0  0  0  0  0
  149.0235  135.0499  154.1703 H   0  0  0  0  0  0  0  0  0  0  0  0
  149.3414  133.3781  153.7241 H   0  0  0  0  0  0  0  0  0  0  0  0
  150.6548  134.5485  153.7311 H   0  0  0  0  0  0  0  0  0  0  0  0
  148.9199  135.0765  157.9321 H   0  0  0  0  0  0  0  0  0  0  0  0
  151.8612  138.3609  159.6276 H   0  0  0  0  0  0  0  0  0  0  0  0
  153.1878  138.3207  158.5432 H   0  0  0  0  0  0  0  0  0  0  0  0
  153.3093  140.0730  156.6105 H   0  0  0  0  0  0  0  0  0  0  0  0
  151.8852  141.0331  156.2359 H   0  0  0  0  0  0  0  0  0  0  0  0
  151.8922  139.2983  155.9403 H   0  0  0  0  0  0  0  0  0  0  0  0
  150.0873  140.0887  156.9564 H   0  0  0  0  0  0  0  0  0  0  0  0
  153.1376  139.7085  160.4219 H   0  0  0  0  0  0  0  0  0  0  0  0
  153.8081  141.5603  161.8976 H   0  0  0  0  0  0  0  0  0  0  0  0
  153.1635  143.8947  161.3594 H   0  0  0  0  0  0  0  0  0  0  0  0
  151.1346  142.5165  157.8196 H   0  0  0  0  0  0  0  0  0  0  0  0
  152.9951  137.3301  156.4050 H   0  0  0  0  0  0  0  0  0  0  0  0
  1  2  1  0  0  0  0
  1 25  1  0  0  0  0
  1 26  1  0  0  0  0
  1 27  1  0  0  0  0
  2  3  1  0  0  0  0
  2  4  1  0  0  0  0
  2 28  1  0  0  0  0
  3 29  1  0  0  0  0
  3 30  1  0  0  0  0
  3 31  1  0  0  0  0
  4 24  1  0  0  0  0
  4  5  2  0  0  0  0
  5  6  1  0  0  0  0
  5 32  1  0  0  0  0
  6  7  2  0  0  0  0
  6  8  1  0  0  0  0
  8  9  1  0  0  0  0
  8 23  1  0  0  0  0
  9 10  1  0  0  0  0
  9 33  1  0  0  0  0
  9 34  1  0  0  0  0
 10 11  1  0  0  0  0
 10 12  1  0  0  0  0
 10 13  1  0  0  0  0
 11 35  1  0  0  0  0
 11 36  1  0  0  0  0
 11 37  1  0  0  0  0
 12 38  1  0  0  0  0
 13 22  1  0  0  0  0
 13 14  2  0  0  0  0
 14 15  1  0  0  0  0
 14 39  1  0  0  0  0
 15 16  2  0  0  0  0
 15 40  1  0  0  0  0
 16 17  1  0  0  0  0
 16 41  1  0  0  0  0
 17 18  1  0  0  0  0
 17 22  2  0  0  0  0
 18 19  1  0  0  0  0
 18 20  1  0  0  0  0
 18 21  1  0  0  0  0
 22 42  1  0  0  0  0
 23 24  2  0  0  0  0
 23 43  1  0  0  0  0
M  END
> <s_m_source_file>
AV-unprocessed.smi

> <i_m_source_file_index>
2696

> <i_lp_mmshare_version>
43012

> <i_f3d_flags>
0

> <s_epik_input>
W0NIM11bQ0hdKFtDSDNdKWMxW2NIXWMoPU8pbihbY0hdbjEpW0NIMl1bQ0BAXShbQ0gzXSkoW09IXSljMltjSF1bY0hdW2NIXWMoQyhGKShGKUYpW2NIXTI=

> <s_epik_cmdline>
J2VwaWtfcHl0aG9uJywgJy1waCcsICc3LjAnLCAnLXRuJywgJzgnLCAnLW1hJywgJzIwMCcsICctbWV0YWxfYmluZGluZycsICctaW1hZScsICc8aW5maWxlLm1hZT4nLCAnLW9tYWUnLCAnPG91dGZpbGUubWFlPic=

> <r_lp_tautomer_probability>
1

> <r_epik_Ionization_Penalty>
2.71388e-05

> <r_epik_Ionization_Penalty_Charging>
4.19927e-06

> <r_epik_Ionization_Penalty_Neutral>
2.29395e-05

> <r_epik_State_Penalty>
-0

> <r_epik_Charging_Adjusted_Penalty>
4.19927e-06

> <i_epik_Tot_Q>
0

> <i_epik_Tot_abs_Q>
0

> <r_epik_Metal_State_Penalty>
-0

> <b_epik_Metal_Only>
0

> <s_lp_Force_Field>
OPLS_2005

> <r_lp_Energy>
19.4026

> <b_lp_Chiralities_Consistent>
1

> <s_lp_Variant>
AV-unprocessed.smi:2696-1

> <Gold.Version>
5.8.1

> <Gold.Id.Protein>
6NUR|6NUR_protein|mol2

> <Gold.PLP.Fitness>
45.4924

> <Gold.PLP.PLP>
-44.8474

> <Gold.PLP.part.hbond>
-1.2233

> <Gold.PLP.part.metal>
0.0000

> <Gold.PLP.part.buried>
-4.6243

> <Gold.PLP.part.nonpolar>
-38.2571

> <Gold.PLP.part.repulsive>
0.0341

> <Gold.PLP.ligand.clash>
1.1760

> <Gold.PLP.ligand.torsion>
0.7227

> <Gold.PLP.Chemscore.Hbond>
0.9675

> <Gold.PLP.Chemscore.CHOScore>
0.0000

> <Gold.PLP.Chemscore.Metal>
0.0000

> <Gold.Chemscore.Hbonds>
donor molecule, donor type, donor heavy atom, donor atom, acceptor molecule, acceptor atom, score
      P1  H 10752 10765       L1    24  0.85

> <Gold.PLP.Chemscore.Internal.Correction>
0.3639

> <Gold.Rescore>
     Score         DG    S(hbond)    S(metal)    S(lipo)     H(rot)  DE(clash)    DE(int)     intcor
     11.01     -11.71       0.00        0.00     102.09       2.23       0.02       0.68       ----

> <Gold.Chemscore.Fitness>
11.0128

> <Gold.Chemscore.DG>
-11.7127

> <Gold.Chemscore.ZeroCoef>
-5.4800

> <Gold.Chemscore.Hbond>
0.0000

> <Gold.Chemscore.Metal>
0.0000

> <Gold.Chemscore.Lipo>
102.0900

> <Gold.Chemscore.Internal_Hbond>
0.0000

> <Gold.Chemscore.DEClash>
0.0213

> <Gold.Chemscore.DEInternal>
0.6786

> <Gold.Chemscore.Rot>
2.2312

> <Gold.Chemscore.Internal.Correction>
   9.000000E+99

> <Gold.Chemscore.Hbonds>
donor molecule, donor type, donor heavy atom, donor atom, acceptor molecule, acceptor atom, score
      P1  H 10752 10765       L1    24  0.28

> <Gold.Chemscore.Hbond.Weighted>
-0.0000

> <Gold.Chemscore.Metal.Weighted>
-0.0000

> <Gold.Chemscore.Lipo.Weighted>
-11.9445

> <Gold.Chemscore.Internal_Hbond.Weighted>
0.0000

> <Gold.Chemscore.DEClash.Weighted>
0.0213

> <Gold.Chemscore.DEInternal.Weighted>
0.6786

> <Gold.Chemscore.Rot.Weighted>
5.7118

> <Gold.Chemscore.Internal.Correction.Weighted>
   9.000000E+99

> <Gold.Protein.RotatedTorsions>
[ 6907 6896 6895 6894 ] final   74.16 input  -60.11 | X-H torsion
[ 7974 7965 7964 7962 ] final -144.20 input  175.53 | X-H torsion
[ 8008 7997 7996 7995 ] final -136.74 input   59.86 | X-H torsion
[ 10167 10162 10161 10158 ] final  112.97 input  -65.29 | X-H torsion
[ 10718 10713 10712 10709 ] final   33.76 input   66.30 | X-H torsion
[ 10763 10752 10751 10750 ] final  178.76 input  -60.55 | X-H torsion
[ 11005 11000 10999 10996 ] final  164.58 input  -57.11 | X-H torsion

> <Gold.Protein.ActiveResidues>
 VAL166  LYS551  ARG553  GLY616  TRP617  ASP618  TYR619  PRO620  LYS621  CYS622 
 ASP623  PHE694  ASN695  SER759  ASP760  ASP761  ALA762  ILE779  LEU786  VAL792 
 PHE793  MET794  SER795  GLU796  ALA797  LYS798  CYS799  TRP800  GLU811  SER814 

> <Gold.Protein.RotatedAtoms>
  152.4961  134.4313  159.9512 H   0  0  0  0  0  0  0  0  0  0  0  0  # atno 6907 bound_to 6896
  151.4291  133.3669  159.2774 H   0  0  0  0  0  0  0  0  0  0  0  0  # atno 6908 bound_to 6896
  150.9167  134.8608  159.7521 H   0  0  0  0  0  0  0  0  0  0  0  0  # atno 6909 bound_to 6896
  144.8315  140.5740  143.5512 H   0  0  0  0  0  0  0  0  0  0  0  0  # atno 7974 bound_to 7965
  155.4003  140.0505  157.3037 H   0  0  0  0  0  0  0  0  0  0  0  0  # atno 8008 bound_to 7997
  154.4994  140.2151  155.9339 H   0  0  0  0  0  0  0  0  0  0  0  0  # atno 8009 bound_to 7997
  156.1447  140.3147  155.8557 H   0  0  0  0  0  0  0  0  0  0  0  0  # atno 8010 bound_to 7997
  139.6496  144.7128  151.2074 H   0  0  0  0  0  0  0  0  0  0  0  0  # atno 10167 bound_to 10162
  157.3019  130.7355  149.6672 H   0  0  0  0  0  0  0  0  0  0  0  0  # atno 10718 bound_to 10713
  154.5118  135.2789  155.1336 H   0  0  0  0  0  0  0  0  0  0  0  0  # atno 10763 bound_to 10752
  154.2928  135.6263  153.5396 H   0  0  0  0  0  0  0  0  0  0  0  0  # atno 10764 bound_to 10752
  152.9920  135.5678  154.5586 H   0  0  0  0  0  0  0  0  0  0  0  0  # atno 10765 bound_to 10752
  140.2474  134.8003  157.3469 H   0  0  0  0  0  0  0  0  0  0  0  0  # atno 11005 bound_to 11000
  145.4886  139.1490  143.3722 LP  0  0  0  0  0  0  0  0  0  0  0  0  # atno 17320 bound_to 7965
  146.2617  140.5024  142.8851 LP  0  0  0  0  0  0  0  0  0  0  0  0  # atno 17321 bound_to 7965
  140.7531  143.6172  150.8548 LP  0  0  0  0  0  0  0  0  0  0  0  0  # atno 17342 bound_to 10162
  139.9819  143.5942  152.2940 LP  0  0  0  0  0  0  0  0  0  0  0  0  # atno 17343 bound_to 10162
  155.9672  130.4277  150.4756 LP  0  0  0  0  0  0  0  0  0  0  0  0  # atno 17370 bound_to 10713
  157.2739  131.0593  151.2242 LP  0  0  0  0  0  0  0  0  0  0  0  0  # atno 17371 bound_to 10713
  140.1592  134.4750  155.7906 LP  0  0  0  0  0  0  0  0  0  0  0  0  # atno 17394 bound_to 11000
  141.2205  133.6894  156.7514 LP  0  0  0  0  0  0  0  0  0  0  0  0  # atno 17395 bound_to 11000

$$$$
