AV-unprocessed.smi:189|AV-procd|sdf|1485|dock5
  -GOLD-   2262019303D 1   1.00000     0.00000
 Structure written by MMmdl.
 53 57  0  0  0  0  0  0  0  0  1 V2000
  151.8858  139.1018  159.6133 C   0  0  0  0  0  0  0  0  0  0  0  0
  152.8587  140.2785  159.3903 C   0  0  2  0  0  0  0  0  0  0  0  0
  152.9699  141.1497  160.6658 C   0  0  0  0  0  0  0  0  0  0  0  0
  152.8966  142.5778  160.1341 C   0  0  2  0  0  0  0  0  0  0  0  0
  152.3959  143.6873  161.0666 C   0  0  0  0  0  0  0  0  0  0  0  0
  152.3361  145.0144  160.2814 C   0  0  0  0  0  0  0  0  0  0  0  0
  151.5225  144.8888  158.9727 C   0  0  0  0  0  0  0  0  0  0  0  0
  151.9886  143.7062  158.0972 C   0  0  0  0  0  0  0  0  0  0  0  0
  151.9659  142.4182  158.9415 C   0  0  1  0  0  0  0  0  0  0  0  0
  152.4577  141.1998  158.3168 N   0  0  0  0  0  0  0  0  0  0  0  0
  151.9131  140.6963  157.1804 C   0  0  0  0  0  0  0  0  0  0  0  0
  152.5845  139.7566  156.4646 N   0  0  0  0  0  0  0  0  0  0  0  0
  152.0624  139.2693  155.3355 C   0  0  0  0  0  0  0  0  0  0  0  0
  150.9039  139.5792  154.7501 N   0  0  0  0  0  0  0  0  0  0  0  0
  150.2251  140.5221  155.4643 C   0  0  0  0  0  0  0  0  0  0  0  0
  150.6546  141.1294  156.6780 C   0  0  0  0  0  0  0  0  0  0  0  0
  149.7031  142.0439  157.1131 N   0  0  0  0  0  0  0  0  0  0  0  0
  148.7665  141.9835  156.2063 C   0  0  0  0  0  0  0  0  0  0  0  0
  148.9952  141.0911  155.1831 N   0  0  0  0  0  0  0  0  0  0  0  0
  148.1219  140.8245  154.0505 C   0  0  0  0  0  0  0  0  0  0  0  0
  147.7197  139.3368  153.9213 C   0  0  2  0  0  0  0  0  0  0  0  0
  148.8740  138.5704  153.6216 O   0  0  0  0  0  0  0  0  0  0  0  0
  146.6655  139.0666  152.8516 C   0  0  0  0  0  0  0  0  0  0  0  0
  145.8967  137.8838  153.4234 C   0  0  0  0  0  0  0  0  0  0  0  0
  145.8302  138.1980  154.8038 O   0  0  0  0  0  0  0  0  0  0  0  0
  147.0754  138.7645  155.1998 C   0  0  0  0  0  0  0  0  0  0  0  0
  152.1886  138.5088  160.4764 H   0  0  0  0  0  0  0  0  0  0  0  0
  151.8589  138.4278  158.7573 H   0  0  0  0  0  0  0  0  0  0  0  0
  150.8696  139.4546  159.7934 H   0  0  0  0  0  0  0  0  0  0  0  0
  153.8472  139.8915  159.1418 H   0  0  0  0  0  0  0  0  0  0  0  0
  152.1295  140.9659  161.3371 H   0  0  0  0  0  0  0  0  0  0  0  0
  153.8873  140.9594  161.2234 H   0  0  0  0  0  0  0  0  0  0  0  0
  153.8924  142.8478  159.7757 H   0  0  0  0  0  0  0  0  0  0  0  0
  151.4072  143.4374  161.4535 H   0  0  0  0  0  0  0  0  0  0  0  0
  153.0571  143.7870  161.9277 H   0  0  0  0  0  0  0  0  0  0  0  0
  151.9114  145.7983  160.9088 H   0  0  0  0  0  0  0  0  0  0  0  0
  153.3510  145.3330  160.0399 H   0  0  0  0  0  0  0  0  0  0  0  0
  150.4686  144.7544  159.2202 H   0  0  0  0  0  0  0  0  0  0  0  0
  151.5869  145.8179  158.4058 H   0  0  0  0  0  0  0  0  0  0  0  0
  151.3410  143.6226  157.2251 H   0  0  0  0  0  0  0  0  0  0  0  0
  152.9953  143.8931  157.7216 H   0  0  0  0  0  0  0  0  0  0  0  0
  150.9478  142.2328  159.2894 H   0  0  0  0  0  0  0  0  0  0  0  0
  152.6592  138.5257  154.8283 H   0  0  0  0  0  0  0  0  0  0  0  0
  147.8734  142.5890  156.2614 H   0  0  0  0  0  0  0  0  0  0  0  0
  147.2334  141.4498  154.1474 H   0  0  0  0  0  0  0  0  0  0  0  0
  148.6292  141.1556  153.1434 H   0  0  0  0  0  0  0  0  0  0  0  0
  149.3742  139.0278  152.9630 H   0  0  0  0  0  0  0  0  0  0  0  0
  145.9851  139.9150  152.7696 H   0  0  0  0  0  0  0  0  0  0  0  0
  147.0793  138.8760  151.8605 H   0  0  0  0  0  0  0  0  0  0  0  0
  144.9040  137.7735  152.9865 H   0  0  0  0  0  0  0  0  0  0  0  0
  146.4450  136.9512  153.2815 H   0  0  0  0  0  0  0  0  0  0  0  0
  147.6954  137.9956  155.6638 H   0  0  0  0  0  0  0  0  0  0  0  0
  146.8933  139.5324  155.9525 H   0  0  0  0  0  0  0  0  0  0  0  0
  1  2  1  0  0  0  0
  1 27  1  0  0  0  0
  1 28  1  0  0  0  0
  1 29  1  0  0  0  0
  2 10  1  0  0  0  0
  2  3  1  0  0  0  0
  2 30  1  0  0  0  0
  3  4  1  0  0  0  0
  3 31  1  0  0  0  0
  3 32  1  0  0  0  0
  4  9  1  0  0  0  0
  4  5  1  0  0  0  0
  4 33  1  0  0  0  0
  5  6  1  0  0  0  0
  5 34  1  0  0  0  0
  5 35  1  0  0  0  0
  6  7  1  0  0  0  0
  6 36  1  0  0  0  0
  6 37  1  0  0  0  0
  7  8  1  0  0  0  0
  7 38  1  0  0  0  0
  7 39  1  0  0  0  0
  8  9  1  0  0  0  0
  8 40  1  0  0  0  0
  8 41  1  0  0  0  0
  9 10  1  0  0  0  0
  9 42  1  0  0  0  0
 10 11  1  0  0  0  0
 11 16  1  0  0  0  0
 11 12  2  0  0  0  0
 12 13  1  0  0  0  0
 13 14  2  0  0  0  0
 13 43  1  0  0  0  0
 14 15  1  0  0  0  0
 15 19  1  0  0  0  0
 15 16  2  0  0  0  0
 16 17  1  0  0  0  0
 17 18  2  0  0  0  0
 18 19  1  0  0  0  0
 18 44  1  0  0  0  0
 19 20  1  0  0  0  0
 20 21  1  0  0  0  0
 20 45  1  0  0  0  0
 20 46  1  0  0  0  0
 21 26  1  0  0  0  0
 21 22  1  0  0  0  0
 21 23  1  0  0  0  0
 22 47  1  0  0  0  0
 23 24  1  0  0  0  0
 23 48  1  0  0  0  0
 23 49  1  0  0  0  0
 24 25  1  0  0  0  0
 24 50  1  0  0  0  0
 24 51  1  0  0  0  0
 25 26  1  0  0  0  0
 26 52  1  0  0  0  0
 26 53  1  0  0  0  0
M  END
> <s_m_source_file>
AV-unprocessed.smi

> <i_m_source_file_index>
189

> <i_lp_mmshare_version>
43012

> <i_f3d_flags>
0

> <s_epik_input>
W0NIMl0xW0NIMl1bQ0gyXVtDSDJdW0NASF0oW0NASF0xMilOKFtDQEhdKFtDSDNdKVtDSDJdMiljKG5bY0hdbjMpYyhjMzQpbltjSF1uNFtDSDJdW0NAQF01KFtPSF0pW0NIMl1bQ0gyXU9bQ0gyXTU=

> <s_epik_cmdline>
J2VwaWtfcHl0aG9uJywgJy1waCcsICc3LjAnLCAnLXRuJywgJzgnLCAnLW1hJywgJzIwMCcsICctbWV0YWxfYmluZGluZycsICctaW1hZScsICc8aW5maWxlLm1hZT4nLCAnLW9tYWUnLCAnPG91dGZpbGUubWFlPic=

> <r_lp_tautomer_probability>
1

> <r_epik_Ionization_Penalty>
0.00594261

> <r_epik_Ionization_Penalty_Charging>
0

> <r_epik_Ionization_Penalty_Neutral>
0.00594261

> <r_epik_State_Penalty>
0.00429776

> <r_epik_Charging_Adjusted_Penalty>
0.00429776

> <i_epik_Tot_Q>
0

> <i_epik_Tot_abs_Q>
0

> <r_epik_Metal_State_Penalty>
-0

> <b_epik_Metal_Only>
0

> <s_lp_Force_Field>
OPLS_2005

> <r_lp_Energy>
58.6518

> <b_lp_Chiralities_Consistent>
1

> <s_lp_Variant>
AV-unprocessed.smi:189-11

> <Gold.Version>
5.8.1

> <Gold.Id.Protein>
6NUR|6NUR_protein|mol2

> <Gold.PLP.Fitness>
58.6015

> <Gold.PLP.PLP>
-49.5818

> <Gold.PLP.part.hbond>
-4.0000

> <Gold.PLP.part.metal>
0.0000

> <Gold.PLP.part.buried>
-1.6609

> <Gold.PLP.part.nonpolar>
-43.1517

> <Gold.PLP.part.repulsive>
0.2936

> <Gold.PLP.ligand.clash>
0.0000

> <Gold.PLP.ligand.torsion>
0.2522

> <Gold.PLP.Chemscore.Hbond>
2.7225

> <Gold.PLP.Chemscore.CHOScore>
0.3265

> <Gold.PLP.Chemscore.Metal>
0.0000

> <Gold.Chemscore.Hbonds>
donor molecule, donor type, donor heavy atom, donor atom, acceptor molecule, acceptor atom, score
      L1  H    22    47       P1  7957  0.89
      P1  H  7989  7998       L1    14  0.56
      P1  H  7997  8010       L1    12  1.00
      L1  C    18    44       P1  8028  0.38

> <Gold.PLP.Chemscore.Internal.Correction>
0.3772

> <Gold.Rescore>
     Score         DG    S(hbond)    S(metal)    S(lipo)     H(rot)  DE(clash)    DE(int)     intcor
     18.62     -20.36       1.85        0.00     118.68       2.03       0.11       1.63       ----

> <Gold.Chemscore.Fitness>
18.6155

> <Gold.Chemscore.DG>
-20.3596

> <Gold.Chemscore.ZeroCoef>
-5.4800

> <Gold.Chemscore.Hbond>
1.8534

> <Gold.Chemscore.Metal>
0.0000

> <Gold.Chemscore.Lipo>
118.6770

> <Gold.Chemscore.Internal_Hbond>
0.0000

> <Gold.Chemscore.DEClash>
0.1109

> <Gold.Chemscore.DEInternal>
1.6333

> <Gold.Chemscore.Rot>
2.0297

> <Gold.Chemscore.Internal.Correction>
   9.000000E+99

> <Gold.Chemscore.Hbonds>
donor molecule, donor type, donor heavy atom, donor atom, acceptor molecule, acceptor atom, score
      L1  H    22    47       P1  7957  0.84
      P1  H  7989  7998       L1    14  0.01
      P1  H  7997  8010       L1    12  0.70

> <Gold.Chemscore.Hbond.Weighted>
-6.1904

> <Gold.Chemscore.Metal.Weighted>
-0.0000

> <Gold.Chemscore.Lipo.Weighted>
-13.8852

> <Gold.Chemscore.Internal_Hbond.Weighted>
0.0000

> <Gold.Chemscore.DEClash.Weighted>
0.1109

> <Gold.Chemscore.DEInternal.Weighted>
1.6333

> <Gold.Chemscore.Rot.Weighted>
5.1960

> <Gold.Chemscore.Internal.Correction.Weighted>
   9.000000E+99

> <Gold.Protein.RotatedTorsions>
[ 6907 6896 6895 6894 ] final   42.12 input  -60.11 | X-H torsion
[ 7974 7965 7964 7962 ] final -109.57 input  175.53 | X-H torsion
[ 8008 7997 7996 7995 ] final   81.88 input   59.86 | X-H torsion
[ 10167 10162 10161 10158 ] final  124.40 input  -65.29 | X-H torsion
[ 10718 10713 10712 10709 ] final   42.77 input   66.30 | X-H torsion
[ 10763 10752 10751 10750 ] final   68.43 input  -60.55 | X-H torsion
[ 11005 11000 10999 10996 ] final    5.98 input  -57.11 | X-H torsion

> <Gold.Protein.ActiveResidues>
 VAL166  LYS551  ARG553  GLY616  TRP617  ASP618  TYR619  PRO620  LYS621  CYS622 
 ASP623  PHE694  ASN695  SER759  ASP760  ASP761  ALA762  ILE779  LEU786  VAL792 
 PHE793  MET794  SER795  GLU796  ALA797  LYS798  CYS799  TRP800  GLU811  SER814 

> <Gold.Protein.RotatedAtoms>
  152.2038  134.8564  160.0504 H   0  0  0  0  0  0  0  0  0  0  0  0  # atno 6907 bound_to 6896
  151.9407  133.3632  159.3972 H   0  0  0  0  0  0  0  0  0  0  0  0  # atno 6908 bound_to 6896
  150.6960  134.4366  159.5317 H   0  0  0  0  0  0  0  0  0  0  0  0  # atno 6909 bound_to 6896
  145.1789  140.8962  143.3491 H   0  0  0  0  0  0  0  0  0  0  0  0  # atno 7974 bound_to 7965
  155.9031  140.3432  155.6042 H   0  0  0  0  0  0  0  0  0  0  0  0  # atno 8008 bound_to 7997
  155.7476  140.0816  157.2235 H   0  0  0  0  0  0  0  0  0  0  0  0  # atno 8009 bound_to 7997
  154.4046  140.1559  156.2674 H   0  0  0  0  0  0  0  0  0  0  0  0  # atno 8010 bound_to 7997
  139.5744  144.6955  151.3693 H   0  0  0  0  0  0  0  0  0  0  0  0  # atno 10167 bound_to 10162
  157.4085  130.7901  149.7410 H   0  0  0  0  0  0  0  0  0  0  0  0  # atno 10718 bound_to 10713
  153.0235  135.5247  154.7133 H   0  0  0  0  0  0  0  0  0  0  0  0  # atno 10763 bound_to 10752
  154.6209  135.2889  155.0329 H   0  0  0  0  0  0  0  0  0  0  0  0  # atno 10764 bound_to 10752
  154.1316  135.6592  153.4975 H   0  0  0  0  0  0  0  0  0  0  0  0  # atno 10765 bound_to 10752
  140.5647  134.0159  155.7985 H   0  0  0  0  0  0  0  0  0  0  0  0  # atno 11005 bound_to 11000
  145.0156  139.3470  143.6098 LP  0  0  0  0  0  0  0  0  0  0  0  0  # atno 17320 bound_to 7965
  146.3456  139.9436  142.8738 LP  0  0  0  0  0  0  0  0  0  0  0  0  # atno 17321 bound_to 7965
  140.7027  143.7592  150.7429 LP  0  0  0  0  0  0  0  0  0  0  0  0  # atno 17342 bound_to 10162
  140.1107  143.4702  152.2372 LP  0  0  0  0  0  0  0  0  0  0  0  0  # atno 17343 bound_to 10162
  155.9843  130.3992  150.3316 LP  0  0  0  0  0  0  0  0  0  0  0  0  # atno 17370 bound_to 10713
  157.1451  131.0306  151.2910 LP  0  0  0  0  0  0  0  0  0  0  0  0  # atno 17371 bound_to 10713
  141.1093  133.9642  157.2939 LP  0  0  0  0  0  0  0  0  0  0  0  0  # atno 17394 bound_to 11000
  139.9391  135.0193  156.8650 LP  0  0  0  0  0  0  0  0  0  0  0  0  # atno 17395 bound_to 11000

$$$$
