AV-unprocessed.smi:2145|AV-procd|sdf|8736|dock2
  -GOLD-   2272011503D 1   1.00000     0.00000
 Structure written by MMmdl.
 45 47  0  0  0  0  0  0  0  0  2 V2000
  150.2443  130.5138  154.1687 C   0  0  0  0  0  0  0  0  0  0  0  0
  151.0320  131.1785  155.2962 C   0  0  0  0  0  0  0  0  0  0  0  0
  151.6913  130.4685  156.0549 O   0  0  0  0  0  0  0  0  0  0  0  0
  150.9567  132.6624  155.4164 C   0  0  0  0  0  0  0  0  0  0  0  0
  151.7638  133.3239  156.3686 C   0  0  0  0  0  0  0  0  0  0  0  0
  151.7115  134.7241  156.5026 C   0  0  0  0  0  0  0  0  0  0  0  0
  150.8545  135.4963  155.6944 C   0  0  0  0  0  0  0  0  0  0  0  0
  150.8658  136.8598  155.8947 O   0  0  0  0  0  0  0  0  0  0  0  0
  152.0446  137.4555  156.4202 C   0  0  0  0  0  0  0  0  0  0  0  0
  151.9617  138.9743  156.2046 C   0  0  2  0  0  0  0  0  0  0  0  0
  153.1725  139.4081  155.6174 O   0  0  0  0  0  0  0  0  0  0  0  0
  151.7392  139.7346  157.5273 C   0  0  0  0  0  0  0  0  0  0  0  0
  151.2891  141.1207  157.3196 N   0  0  0  0  0  0  0  0  0  0  0  0
  150.4819  141.6396  156.3509 C   0  0  0  0  0  0  0  0  0  0  0  0
  149.8394  140.8912  155.2319 C   0  0  0  0  0  0  0  0  0  0  0  0
  150.3667  142.9758  156.5924 N   0  3  0  0  0  0  0  0  0  0  0  0
  151.1077  143.3162  157.7250 C   0  0  0  0  0  0  0  0  0  0  0  0
  151.2970  144.5434  158.3533 C   0  0  0  0  0  0  0  0  0  0  0  0
  152.1225  144.5478  159.4968 C   0  0  0  0  0  0  0  0  0  0  0  0
  152.7230  143.3644  159.9731 C   0  0  0  0  0  0  0  0  0  0  0  0
  152.5231  142.1262  159.3278 C   0  0  0  0  0  0  0  0  0  0  0  0
  151.7043  142.1292  158.1983 C   0  0  0  0  0  0  0  0  0  0  0  0
  150.0454  134.8361  154.7374 C   0  0  0  0  0  0  0  0  0  0  0  0
  150.0972  133.4349  154.6009 C   0  0  0  0  0  0  0  0  0  0  0  0
  150.5860  130.8753  153.1987 H   0  0  0  0  0  0  0  0  0  0  0  0
  149.1798  130.7268  154.2692 H   0  0  0  0  0  0  0  0  0  0  0  0
  150.3788  129.4322  154.1957 H   0  0  0  0  0  0  0  0  0  0  0  0
  152.4325  132.7650  157.0076 H   0  0  0  0  0  0  0  0  0  0  0  0
  152.3366  135.2112  157.2369 H   0  0  0  0  0  0  0  0  0  0  0  0
  152.0894  137.2444  157.4900 H   0  0  0  0  0  0  0  0  0  0  0  0
  152.9459  137.0463  155.9597 H   0  0  0  0  0  0  0  0  0  0  0  0
  151.1394  139.1994  155.5241 H   0  0  0  0  0  0  0  0  0  0  0  0
  153.3183  138.9057  154.8298 H   0  0  0  0  0  0  0  0  0  0  0  0
  150.9694  139.2353  158.1167 H   0  0  0  0  0  0  0  0  0  0  0  0
  152.6384  139.7325  158.1439 H   0  0  0  0  0  0  0  0  0  0  0  0
  149.2886  141.5708  154.5813 H   0  0  0  0  0  0  0  0  0  0  0  0
  149.1450  140.1494  155.6266 H   0  0  0  0  0  0  0  0  0  0  0  0
  150.5959  140.3794  154.6370 H   0  0  0  0  0  0  0  0  0  0  0  0
  150.8399  145.4515  157.9886 H   0  0  0  0  0  0  0  0  0  0  0  0
  152.3002  145.4775  160.0178 H   0  0  0  0  0  0  0  0  0  0  0  0
  153.3518  143.4069  160.8506 H   0  0  0  0  0  0  0  0  0  0  0  0
  152.9944  141.2279  159.6980 H   0  0  0  0  0  0  0  0  0  0  0  0
  149.3749  135.3826  154.0919 H   0  0  0  0  0  0  0  0  0  0  0  0
  149.4641  132.9724  153.8586 H   0  0  0  0  0  0  0  0  0  0  0  0
  149.8207  143.6076  156.0210 H   0  0  0  0  0  0  0  0  0  0  0  0
  1  2  1  0  0  0  0
  1 25  1  0  0  0  0
  1 26  1  0  0  0  0
  1 27  1  0  0  0  0
  2  3  2  0  0  0  0
  2  4  1  0  0  0  0
  4 24  1  0  0  0  0
  4  5  2  0  0  0  0
  5  6  1  0  0  0  0
  5 28  1  0  0  0  0
  6  7  2  0  0  0  0
  6 29  1  0  0  0  0
  7  8  1  0  0  0  0
  7 23  1  0  0  0  0
  8  9  1  0  0  0  0
  9 10  1  0  0  0  0
  9 30  1  0  0  0  0
  9 31  1  0  0  0  0
 10 11  1  0  0  0  0
 10 12  1  0  0  0  0
 10 32  1  0  0  0  0
 11 33  1  0  0  0  0
 12 13  1  0  0  0  0
 12 34  1  0  0  0  0
 12 35  1  0  0  0  0
 13 22  1  0  0  0  0
 13 14  1  0  0  0  0
 14 15  1  0  0  0  0
 14 16  2  0  0  0  0
 15 36  1  0  0  0  0
 15 37  1  0  0  0  0
 15 38  1  0  0  0  0
 16 17  1  0  0  0  0
 16 45  1  0  0  0  0
 17 22  2  0  0  0  0
 17 18  1  0  0  0  0
 18 19  2  0  0  0  0
 18 39  1  0  0  0  0
 19 20  1  0  0  0  0
 19 40  1  0  0  0  0
 20 21  2  0  0  0  0
 20 41  1  0  0  0  0
 21 22  1  0  0  0  0
 21 42  1  0  0  0  0
 23 24  2  0  0  0  0
 23 43  1  0  0  0  0
 24 44  1  0  0  0  0
M  CHG  1  16   1
M  END
> <s_m_source_file>
AV-unprocessed.smi

> <i_m_source_file_index>
2145

> <i_lp_mmshare_version>
43012

> <i_f3d_flags>
0

> <s_epik_input>
W0NIM11DKD1PKWMxW2NIXVtjSF1jKFtjSF1bY0hdMSlPW0NIMl1bQ0BIXShbT0hdKVtDSDJdbihjKG4yKVtDSDNdKWMoYzIzKVtjSF1bY0hdW2NIXVtjSF0z

> <s_epik_cmdline>
J2VwaWtfcHl0aG9uJywgJy1waCcsICc3LjAnLCAnLXRuJywgJzgnLCAnLW1hJywgJzIwMCcsICctbWV0YWxfYmluZGluZycsICctaW1hZScsICc8aW5maWxlLm1hZT4nLCAnLW9tYWUnLCAnPG91dGZpbGUubWFlPic=

> <r_lp_tautomer_probability>
0.99995

> <r_epik_Ionization_Penalty>
1.05477

> <r_epik_Ionization_Penalty_Charging>
1.05477

> <r_epik_Ionization_Penalty_Neutral>
2.3993e-06

> <r_epik_State_Penalty>
1.10796

> <r_epik_Charging_Adjusted_Penalty>
2.16273

> <i_epik_Tot_Q>
1

> <i_epik_Tot_abs_Q>
1

> <r_epik_Metal_State_Penalty>
5.10164

> <b_epik_Metal_Only>
0

> <s_lp_Force_Field>
OPLS_2005

> <r_lp_Energy>
25.5273

> <b_lp_Chiralities_Consistent>
1

> <s_lp_Variant>
AV-unprocessed.smi:2145-3

> <Gold.Version>
5.8.1

> <Gold.Id.Protein>
6NUR|6NUR_protein|mol2

> <Gold.PLP.Fitness>
56.3563

> <Gold.PLP.PLP>
-50.3766

> <Gold.PLP.part.hbond>
-2.0000

> <Gold.PLP.part.metal>
0.0000

> <Gold.PLP.part.buried>
-5.5662

> <Gold.PLP.part.nonpolar>
-42.9476

> <Gold.PLP.part.repulsive>
0.1161

> <Gold.PLP.ligand.clash>
0.0000

> <Gold.PLP.ligand.torsion>
1.5987

> <Gold.PLP.Chemscore.Hbond>
3.0000

> <Gold.PLP.Chemscore.CHOScore>
0.0000

> <Gold.PLP.Chemscore.Metal>
0.0000

> <Gold.Chemscore.Hbonds>
donor molecule, donor type, donor heavy atom, donor atom, acceptor molecule, acceptor atom, score
      L1  H    16    45       P1  8028  1.82
      P1  H  7997  8009       L1    11  0.91

> <Gold.PLP.Chemscore.Internal.Correction>
0.1773

> <Gold.Rescore>
     Score         DG    S(hbond)    S(metal)    S(lipo)     H(rot)  DE(clash)    DE(int)     intcor
     18.83     -21.14       1.97        0.00     127.99       2.30       0.01       2.29       ----

> <Gold.Chemscore.Fitness>
18.8335

> <Gold.Chemscore.DG>
-21.1399

> <Gold.Chemscore.ZeroCoef>
-5.4800

> <Gold.Chemscore.Hbond>
1.9667

> <Gold.Chemscore.Metal>
0.0000

> <Gold.Chemscore.Lipo>
127.9907

> <Gold.Chemscore.Internal_Hbond>
0.0000

> <Gold.Chemscore.DEClash>
0.0128

> <Gold.Chemscore.DEInternal>
2.2936

> <Gold.Chemscore.Rot>
2.2984

> <Gold.Chemscore.Internal.Correction>
   9.000000E+99

> <Gold.Chemscore.Hbonds>
donor molecule, donor type, donor heavy atom, donor atom, acceptor molecule, acceptor atom, score
      L1  H    16    45       P1  8028  0.87
      P1  H  7997  8009       L1    11  0.68

> <Gold.Chemscore.Hbond.Weighted>
-6.5689

> <Gold.Chemscore.Metal.Weighted>
-0.0000

> <Gold.Chemscore.Lipo.Weighted>
-14.9749

> <Gold.Chemscore.Internal_Hbond.Weighted>
0.0000

> <Gold.Chemscore.DEClash.Weighted>
0.0128

> <Gold.Chemscore.DEInternal.Weighted>
2.2936

> <Gold.Chemscore.Rot.Weighted>
5.8839

> <Gold.Chemscore.Internal.Correction.Weighted>
   9.000000E+99

> <Gold.Protein.RotatedTorsions>
[ 6907 6896 6895 6894 ] final  -70.15 input  -60.11 | X-H torsion
[ 7974 7965 7964 7962 ] final  -24.01 input  175.53 | X-H torsion
[ 8008 7997 7996 7995 ] final -143.27 input   59.86 | X-H torsion
[ 10167 10162 10161 10158 ] final   97.57 input  -65.29 | X-H torsion
[ 10718 10713 10712 10709 ] final   86.02 input   66.30 | X-H torsion
[ 10763 10752 10751 10750 ] final -165.09 input  -60.55 | X-H torsion
[ 11005 11000 10999 10996 ] final -156.39 input  -57.11 | X-H torsion

> <Gold.Protein.ActiveResidues>
 VAL166  LYS551  ARG553  GLY616  TRP617  ASP618  TYR619  PRO620  LYS621  CYS622 
 ASP623  PHE694  ASN695  SER759  ASP760  ASP761  ALA762  ILE779  LEU786  VAL792 
 PHE793  MET794  SER795  GLU796  ALA797  LYS798  CYS799  TRP800  GLU811  SER814 

> <Gold.Protein.RotatedAtoms>
  150.7271  134.5494  159.5786 H   0  0  0  0  0  0  0  0  0  0  0  0  # atno 6907 bound_to 6896
  152.2985  134.7636  160.0372 H   0  0  0  0  0  0  0  0  0  0  0  0  # atno 6908 bound_to 6896
  151.8224  133.3361  159.3625 H   0  0  0  0  0  0  0  0  0  0  0  0  # atno 6909 bound_to 6896
  146.1581  140.4693  142.8583 H   0  0  0  0  0  0  0  0  0  0  0  0  # atno 7974 bound_to 7965
  155.5078  140.0581  157.2928 H   0  0  0  0  0  0  0  0  0  0  0  0  # atno 8008 bound_to 7997
  154.4563  140.1974  156.0320 H   0  0  0  0  0  0  0  0  0  0  0  0  # atno 8009 bound_to 7997
  156.0805  140.3247  155.7691 H   0  0  0  0  0  0  0  0  0  0  0  0  # atno 8010 bound_to 7997
  139.7788  144.6896  151.0051 H   0  0  0  0  0  0  0  0  0  0  0  0  # atno 10167 bound_to 10162
  157.6923  131.0198  150.2909 H   0  0  0  0  0  0  0  0  0  0  0  0  # atno 10718 bound_to 10713
  154.6966  135.2980  154.9402 H   0  0  0  0  0  0  0  0  0  0  0  0  # atno 10763 bound_to 10752
  154.0348  135.6665  153.4788 H   0  0  0  0  0  0  0  0  0  0  0  0  # atno 10764 bound_to 10752
  153.0650  135.5093  154.8087 H   0  0  0  0  0  0  0  0  0  0  0  0  # atno 10765 bound_to 10752
  140.6760  134.4196  157.5229 H   0  0  0  0  0  0  0  0  0  0  0  0  # atno 11005 bound_to 11000
  144.7990  140.6178  143.6490 LP  0  0  0  0  0  0  0  0  0  0  0  0  # atno 17320 bound_to 7965
  145.4657  139.1508  143.3842 LP  0  0  0  0  0  0  0  0  0  0  0  0  # atno 17321 bound_to 7965
  140.7817  143.4506  151.0419 LP  0  0  0  0  0  0  0  0  0  0  0  0  # atno 17342 bound_to 10162
  139.8187  143.7850  152.3176 LP  0  0  0  0  0  0  0  0  0  0  0  0  # atno 17343 bound_to 10162
  156.3440  130.3820  149.7384 LP  0  0  0  0  0  0  0  0  0  0  0  0  # atno 17370 bound_to 10713
  156.4884  130.8073  151.3084 LP  0  0  0  0  0  0  0  0  0  0  0  0  # atno 17371 bound_to 10713
  139.8966  134.8655  156.2079 LP  0  0  0  0  0  0  0  0  0  0  0  0  # atno 17394 bound_to 11000
  141.0355  133.6966  156.1504 LP  0  0  0  0  0  0  0  0  0  0  0  0  # atno 17395 bound_to 11000

$$$$
