AV-unprocessed.smi:3185|AV-procd|sdf|12168|dock3
  -GOLD-   2272018 03D 1   1.00000     0.00000
 Structure written by MMmdl.
 38 39  0  0  0  0  0  0  0  0  2 V2000
  146.5362  142.9134  154.4195 N   0  0  0  0  0  0  0  0  0  0  0  0
  147.1889  142.0217  154.7609 C   0  0  0  0  0  0  0  0  0  0  0  0
  148.0158  140.8856  155.1980 C   0  0  0  0  0  0  0  0  0  0  0  0
  148.2028  140.8266  156.7205 C   0  0  0  0  0  0  0  0  0  0  0  0
  148.7522  142.1345  157.3067 C   0  0  0  0  0  0  0  0  0  0  0  0
  149.9824  142.5566  156.6047 N   0  3  0  0  0  0  0  0  0  0  0  0
  151.2358  142.4438  157.3881 C   0  0  1  0  0  0  0  0  0  0  0  0
  151.1024  143.3076  158.6584 C   0  0  0  0  0  0  0  0  0  0  0  0
  152.3430  143.2074  159.5577 C   0  0  0  0  0  0  0  0  0  0  0  0
  152.6241  141.7492  159.9426 C   0  0  0  0  0  0  0  0  0  0  0  0
  152.7828  140.8758  158.6904 C   0  0  0  0  0  0  0  0  0  0  0  0
  151.5470  140.9683  157.7675 C   0  0  2  0  0  0  0  0  0  0  0  0
  151.7173  140.1139  156.5985 N   0  0  0  0  0  0  0  0  0  0  0  0
  150.8068  139.8508  155.5955 C   0  0  0  0  0  0  0  0  0  0  0  0
  151.4126  139.0155  154.7016 C   0  0  0  0  0  0  0  0  0  0  0  0
  152.7096  138.8153  155.2502 C   0  0  0  0  0  0  0  0  0  0  0  0
  152.8897  139.4742  156.3833 N   0  0  0  0  0  0  0  0  0  0  0  0
  147.5448  139.9713  154.8366 H   0  0  0  0  0  0  0  0  0  0  0  0
  148.9830  140.9672  154.7015 H   0  0  0  0  0  0  0  0  0  0  0  0
  147.2492  140.5849  157.1915 H   0  0  0  0  0  0  0  0  0  0  0  0
  148.8816  140.0072  156.9604 H   0  0  0  0  0  0  0  0  0  0  0  0
  147.9979  142.9142  157.2284 H   0  0  0  0  0  0  0  0  0  0  0  0
  148.9682  142.0051  158.3679 H   0  0  0  0  0  0  0  0  0  0  0  0
  150.0767  141.9649  155.7917 H   0  0  0  0  0  0  0  0  0  0  0  0
  152.0616  142.8505  156.8010 H   0  0  0  0  0  0  0  0  0  0  0  0
  150.9384  144.3503  158.3834 H   0  0  0  0  0  0  0  0  0  0  0  0
  150.2234  142.9980  159.2260 H   0  0  0  0  0  0  0  0  0  0  0  0
  153.2079  143.6246  159.0401 H   0  0  0  0  0  0  0  0  0  0  0  0
  152.2005  143.8078  160.4567 H   0  0  0  0  0  0  0  0  0  0  0  0
  153.5265  141.6924  160.5523 H   0  0  0  0  0  0  0  0  0  0  0  0
  151.8092  141.3662  160.5584 H   0  0  0  0  0  0  0  0  0  0  0  0
  153.6791  141.1896  158.1533 H   0  0  0  0  0  0  0  0  0  0  0  0
  152.9496  139.8396  158.9870 H   0  0  0  0  0  0  0  0  0  0  0  0
  150.6935  140.5774  158.3244 H   0  0  0  0  0  0  0  0  0  0  0  0
  149.8144  140.2774  155.5982 H   0  0  0  0  0  0  0  0  0  0  0  0
  150.9934  138.6079  153.7936 H   0  0  0  0  0  0  0  0  0  0  0  0
  153.5205  138.2180  154.8602 H   0  0  0  0  0  0  0  0  0  0  0  0
  149.8809  143.5118  156.2930 H   0  0  0  0  0  0  0  0  0  0  0  0
  1  2  3  0  0  0  0
  2  3  1  0  0  0  0
  3  4  1  0  0  0  0
  3 18  1  0  0  0  0
  3 19  1  0  0  0  0
  4  5  1  0  0  0  0
  4 20  1  0  0  0  0
  4 21  1  0  0  0  0
  5  6  1  0  0  0  0
  5 22  1  0  0  0  0
  5 23  1  0  0  0  0
  6  7  1  0  0  0  0
  6 24  1  0  0  0  0
  6 38  1  0  0  0  0
  7 12  1  0  0  0  0
  7  8  1  0  0  0  0
  7 25  1  0  0  0  0
  8  9  1  0  0  0  0
  8 26  1  0  0  0  0
  8 27  1  0  0  0  0
  9 10  1  0  0  0  0
  9 28  1  0  0  0  0
  9 29  1  0  0  0  0
 10 11  1  0  0  0  0
 10 30  1  0  0  0  0
 10 31  1  0  0  0  0
 11 12  1  0  0  0  0
 11 32  1  0  0  0  0
 11 33  1  0  0  0  0
 12 13  1  0  0  0  0
 12 34  1  0  0  0  0
 13 17  1  0  0  0  0
 13 14  1  0  0  0  0
 14 15  2  0  0  0  0
 14 35  1  0  0  0  0
 15 16  1  0  0  0  0
 15 36  1  0  0  0  0
 16 17  2  0  0  0  0
 16 37  1  0  0  0  0
M  CHG  1   6   1
M  END
> <s_m_source_file>
AV-unprocessed.smi

> <i_m_source_file_index>
3185

> <i_lp_mmshare_version>
43012

> <i_f3d_flags>
0

> <s_epik_input>
TiNDW0NIMl1bQ0gyXVtDSDJdW05IXVtDQEBIXTFbQ0gyXVtDSDJdW0NIMl1bQ0gyXVtDQEhdMW4yW2NIXVtjSF1bY0hdbjI=

> <s_epik_cmdline>
J2VwaWtfcHl0aG9uJywgJy1waCcsICc3LjAnLCAnLXRuJywgJzgnLCAnLW1hJywgJzIwMCcsICctbWV0YWxfYmluZGluZycsICctaW1hZScsICc8aW5maWxlLm1hZT4nLCAnLW9tYWUnLCAnPG91dGZpbGUubWFlPic=

> <r_lp_tautomer_probability>
1

> <r_epik_Ionization_Penalty>
0.0143465

> <r_epik_Ionization_Penalty_Charging>
0.0143338

> <r_epik_Ionization_Penalty_Neutral>
1.27047e-05

> <r_epik_State_Penalty>
0.0112058

> <r_epik_Charging_Adjusted_Penalty>
0.0255397

> <i_epik_Tot_Q>
1

> <i_epik_Tot_abs_Q>
1

> <r_epik_Metal_State_Penalty>
0.0112253

> <b_epik_Metal_Only>
0

> <s_lp_Force_Field>
OPLS_2005

> <r_lp_Energy>
15.0666

> <b_lp_Chiralities_Consistent>
1

> <s_lp_Variant>
AV-unprocessed.smi:3185-4

> <Gold.Version>
5.8.1

> <Gold.Id.Protein>
6NUR|6NUR_protein|mol2

> <Gold.PLP.Fitness>
42.3650

> <Gold.PLP.PLP>
-34.0551

> <Gold.PLP.part.hbond>
-2.0000

> <Gold.PLP.part.metal>
0.0000

> <Gold.PLP.part.buried>
-3.4160

> <Gold.PLP.part.nonpolar>
-28.7980

> <Gold.PLP.part.repulsive>
0.2484

> <Gold.PLP.ligand.clash>
0.0092

> <Gold.PLP.ligand.torsion>
0.4036

> <Gold.PLP.Chemscore.Hbond>
3.0000

> <Gold.PLP.Chemscore.CHOScore>
0.0000

> <Gold.PLP.Chemscore.Metal>
0.0000

> <Gold.Chemscore.Hbonds>
donor molecule, donor type, donor heavy atom, donor atom, acceptor molecule, acceptor atom, score
      L1  H     6    38       P1  8028  1.95
      P1  H  7997  8008       L1    17  1.00

> <Gold.PLP.Chemscore.Internal.Correction>
0.1262

> <Gold.Rescore>
     Score         DG    S(hbond)    S(metal)    S(lipo)     H(rot)  DE(clash)    DE(int)     intcor
     15.97     -17.51       1.96        0.00      88.09       1.88       0.15       1.39       ----

> <Gold.Chemscore.Fitness>
15.9721

> <Gold.Chemscore.DG>
-17.5125

> <Gold.Chemscore.ZeroCoef>
-5.4800

> <Gold.Chemscore.Hbond>
1.9553

> <Gold.Chemscore.Metal>
0.0000

> <Gold.Chemscore.Lipo>
88.0919

> <Gold.Chemscore.Internal_Hbond>
0.0000

> <Gold.Chemscore.DEClash>
0.1543

> <Gold.Chemscore.DEInternal>
1.3861

> <Gold.Chemscore.Rot>
1.8769

> <Gold.Chemscore.Internal.Correction>
   9.000000E+99

> <Gold.Chemscore.Hbonds>
donor molecule, donor type, donor heavy atom, donor atom, acceptor molecule, acceptor atom, score
      L1  H     6    38       P1  8028  0.93
      P1  H  7997  8008       L1    17  0.44

> <Gold.Chemscore.Hbond.Weighted>
-6.5307

> <Gold.Chemscore.Metal.Weighted>
-0.0000

> <Gold.Chemscore.Lipo.Weighted>
-10.3067

> <Gold.Chemscore.Internal_Hbond.Weighted>
0.0000

> <Gold.Chemscore.DEClash.Weighted>
0.1543

> <Gold.Chemscore.DEInternal.Weighted>
1.3861

> <Gold.Chemscore.Rot.Weighted>
4.8049

> <Gold.Chemscore.Internal.Correction.Weighted>
   9.000000E+99

> <Gold.Protein.RotatedTorsions>
[ 6907 6896 6895 6894 ] final   21.50 input  -60.11 | X-H torsion
[ 7974 7965 7964 7962 ] final  155.70 input  175.53 | X-H torsion
[ 8008 7997 7996 7995 ] final  -35.02 input   59.86 | X-H torsion
[ 10167 10162 10161 10158 ] final   33.37 input  -65.29 | X-H torsion
[ 10718 10713 10712 10709 ] final -158.65 input   66.30 | X-H torsion
[ 10763 10752 10751 10750 ] final  168.84 input  -60.55 | X-H torsion
[ 11005 11000 10999 10996 ] final  144.89 input  -57.11 | X-H torsion

> <Gold.Protein.ActiveResidues>
 VAL166  LYS551  ARG553  GLY616  TRP617  ASP618  TYR619  PRO620  LYS621  CYS622 
 ASP623  PHE694  ASN695  SER759  ASP760  ASP761  ALA762  ILE779  LEU786  VAL792 
 PHE793  MET794  SER795  GLU796  ALA797  LYS798  CYS799  TRP800  GLU811  SER814 

> <Gold.Protein.RotatedAtoms>
  151.9127  135.0332  160.0515 H   0  0  0  0  0  0  0  0  0  0  0  0  # atno 6907 bound_to 6896
  152.2266  133.5020  159.5200 H   0  0  0  0  0  0  0  0  0  0  0  0  # atno 6908 bound_to 6896
  150.7014  134.1189  159.4070 H   0  0  0  0  0  0  0  0  0  0  0  0  # atno 6909 bound_to 6896
  144.8009  139.7103  143.6182 H   0  0  0  0  0  0  0  0  0  0  0  0  # atno 7974 bound_to 7965
  154.4106  140.1668  156.2144 H   0  0  0  0  0  0  0  0  0  0  0  0  # atno 8008 bound_to 7997
  155.9417  140.3407  155.6310 H   0  0  0  0  0  0  0  0  0  0  0  0  # atno 8009 bound_to 7997
  155.6981  140.0742  157.2412 H   0  0  0  0  0  0  0  0  0  0  0  0  # atno 8010 bound_to 7997
  140.4414  144.1182  150.6174 H   0  0  0  0  0  0  0  0  0  0  0  0  # atno 10167 bound_to 10162
  156.5571  130.8631  151.2798 H   0  0  0  0  0  0  0  0  0  0  0  0  # atno 10718 bound_to 10713
  154.3745  135.2753  155.2247 H   0  0  0  0  0  0  0  0  0  0  0  0  # atno 10763 bound_to 10752
  154.4380  135.5961  153.6115 H   0  0  0  0  0  0  0  0  0  0  0  0  # atno 10764 bound_to 10752
  152.9837  135.6012  154.3980 H   0  0  0  0  0  0  0  0  0  0  0  0  # atno 10765 bound_to 10752
  140.0668  134.9174  157.1278 H   0  0  0  0  0  0  0  0  0  0  0  0  # atno 11005 bound_to 11000
  146.2290  139.5777  142.9568 LP  0  0  0  0  0  0  0  0  0  0  0  0  # atno 17320 bound_to 7965
  145.5556  141.0409  143.2254 LP  0  0  0  0  0  0  0  0  0  0  0  0  # atno 17321 bound_to 7965
  140.4314  143.2566  151.9590 LP  0  0  0  0  0  0  0  0  0  0  0  0  # atno 17342 bound_to 10162
  139.4790  144.5740  151.8042 LP  0  0  0  0  0  0  0  0  0  0  0  0  # atno 17343 bound_to 10162
  157.7376  130.9798  150.2202 LP  0  0  0  0  0  0  0  0  0  0  0  0  # atno 17370 bound_to 10713
  156.2832  130.3736  149.7914 LP  0  0  0  0  0  0  0  0  0  0  0  0  # atno 17371 bound_to 10713
  140.3687  134.2414  155.7180 LP  0  0  0  0  0  0  0  0  0  0  0  0  # atno 17394 bound_to 11000
  141.1996  133.8008  157.0529 LP  0  0  0  0  0  0  0  0  0  0  0  0  # atno 17395 bound_to 11000

$$$$
