AV-unprocessed.smi:1578|AV-procd|sdf|6352|dock2
  -GOLD-   22720 6573D 1   1.00000     0.00000
 Structure written by MMmdl.
 45 46  0  0  0  0  0  0  0  0  2 V2000
  146.4771  139.4765  153.1806 C   0  0  0  0  0  0  0  0  0  0  0  0
  147.1747  138.5600  154.1942 C   0  0  2  0  0  0  0  0  0  0  0  0
  146.4359  137.2122  154.3485 C   0  0  0  0  0  0  0  0  0  0  0  0
  146.3023  136.4817  153.0623 N   0  3  0  0  0  0  0  0  0  0  0  0
  146.2879  135.0096  153.2243 C   0  0  0  0  0  0  0  0  0  0  0  0
  146.2377  134.3259  151.8472 C   0  0  0  0  0  0  0  0  0  0  0  0
  145.0989  134.7823  151.1271 O   0  0  0  0  0  0  0  0  0  0  0  0
  145.1387  136.1857  150.8973 C   0  0  0  0  0  0  0  0  0  0  0  0
  145.1494  136.9274  152.2440 C   0  0  0  0  0  0  0  0  0  0  0  0
  147.2598  139.2410  155.4851 N   0  0  0  0  0  0  0  0  0  0  0  0
  147.9217  140.3831  155.7433 C   0  0  0  0  0  0  0  0  0  0  0  0
  148.5078  141.0267  154.8742 O   0  0  0  0  0  0  0  0  0  0  0  0
  147.9904  140.8649  157.2022 C   0  0  0  0  0  0  0  0  0  0  0  0
  149.3578  140.9778  157.7402 N   0  0  0  0  0  0  0  0  0  0  0  0
  149.8039  142.2766  158.0556 C   0  0  0  0  0  0  0  0  0  0  0  0
  151.0329  142.5323  158.5422 C   0  0  0  0  0  0  0  0  0  0  0  0
  151.5086  143.9536  158.7994 C   0  0  0  0  0  0  0  0  0  0  0  0
  150.8291  144.5143  159.7997 F   0  0  0  0  0  0  0  0  0  0  0  0
  152.8054  143.9755  159.1109 F   0  0  0  0  0  0  0  0  0  0  0  0
  151.3318  144.6959  157.7077 F   0  0  0  0  0  0  0  0  0  0  0  0
  151.9088  141.3897  158.7126 C   0  0  0  0  0  0  0  0  0  0  0  0
  151.5037  140.1429  158.4007 C   0  0  0  0  0  0  0  0  0  0  0  0
  150.1621  139.8810  157.8745 C   0  0  0  0  0  0  0  0  0  0  0  0
  149.7893  138.7506  157.5618 O   0  0  0  0  0  0  0  0  0  0  0  0
  146.4148  139.0015  152.2011 H   0  0  0  0  0  0  0  0  0  0  0  0
  147.0230  140.4124  153.0574 H   0  0  0  0  0  0  0  0  0  0  0  0
  145.4624  139.7223  153.4965 H   0  0  0  0  0  0  0  0  0  0  0  0
  148.1775  138.3677  153.8106 H   0  0  0  0  0  0  0  0  0  0  0  0
  147.0060  136.5941  155.0441 H   0  0  0  0  0  0  0  0  0  0  0  0
  145.4543  137.3544  154.8028 H   0  0  0  0  0  0  0  0  0  0  0  0
  147.1811  134.6860  153.7598 H   0  0  0  0  0  0  0  0  0  0  0  0
  145.4259  134.7143  153.8246 H   0  0  0  0  0  0  0  0  0  0  0  0
  147.1465  134.5296  151.2784 H   0  0  0  0  0  0  0  0  0  0  0  0
  146.1722  133.2443  151.9660 H   0  0  0  0  0  0  0  0  0  0  0  0
  146.0162  136.4458  150.3027 H   0  0  0  0  0  0  0  0  0  0  0  0
  144.2630  136.4744  150.3160 H   0  0  0  0  0  0  0  0  0  0  0  0
  144.2200  136.7374  152.7828 H   0  0  0  0  0  0  0  0  0  0  0  0
  145.2022  138.0012  152.0667 H   0  0  0  0  0  0  0  0  0  0  0  0
  146.7973  138.7880  156.2604 H   0  0  0  0  0  0  0  0  0  0  0  0
  147.4973  141.8363  157.2656 H   0  0  0  0  0  0  0  0  0  0  0  0
  147.3773  140.2004  157.8131 H   0  0  0  0  0  0  0  0  0  0  0  0
  149.0822  143.0567  157.8585 H   0  0  0  0  0  0  0  0  0  0  0  0
  152.9057  141.5340  159.1025 H   0  0  0  0  0  0  0  0  0  0  0  0
  152.1829  139.3149  158.5434 H   0  0  0  0  0  0  0  0  0  0  0  0
  147.1351  136.6950  152.5320 H   0  0  0  0  0  0  0  0  0  0  0  0
  1  2  1  0  0  0  0
  1 25  1  0  0  0  0
  1 26  1  0  0  0  0
  1 27  1  0  0  0  0
  2  3  1  0  0  0  0
  2 10  1  0  0  0  0
  2 28  1  0  0  0  0
  3  4  1  0  0  0  0
  3 29  1  0  0  0  0
  3 30  1  0  0  0  0
  4  9  1  0  0  0  0
  4  5  1  0  0  0  0
  4 45  1  0  0  0  0
  5  6  1  0  0  0  0
  5 31  1  0  0  0  0
  5 32  1  0  0  0  0
  6  7  1  0  0  0  0
  6 33  1  0  0  0  0
  6 34  1  0  0  0  0
  7  8  1  0  0  0  0
  8  9  1  0  0  0  0
  8 35  1  0  0  0  0
  8 36  1  0  0  0  0
  9 37  1  0  0  0  0
  9 38  1  0  0  0  0
 10 11  1  0  0  0  0
 10 39  1  0  0  0  0
 11 12  2  0  0  0  0
 11 13  1  0  0  0  0
 13 14  1  0  0  0  0
 13 40  1  0  0  0  0
 13 41  1  0  0  0  0
 14 23  1  0  0  0  0
 14 15  1  0  0  0  0
 15 16  2  0  0  0  0
 15 42  1  0  0  0  0
 16 17  1  0  0  0  0
 16 21  1  0  0  0  0
 17 18  1  0  0  0  0
 17 19  1  0  0  0  0
 17 20  1  0  0  0  0
 21 22  2  0  0  0  0
 21 43  1  0  0  0  0
 22 23  1  0  0  0  0
 22 44  1  0  0  0  0
 23 24  2  0  0  0  0
M  CHG  1   4   1
M  END
> <s_m_source_file>
AV-unprocessed.smi

> <i_m_source_file_index>
1578

> <i_lp_mmshare_version>
43012

> <i_f3d_flags>
0

> <s_epik_input>
W0NIMl0xW0NIMl1PW0NIMl1bQ0gyXU4xW0NIMl1bQ0BASF0oW0NIM10pW05IXUMoPU8pW0NIMl1uMltjSF1jKEMoRikoRilGKVtjSF1bY0hdYzI9Tw==

> <s_epik_cmdline>
J2VwaWtfcHl0aG9uJywgJy1waCcsICc3LjAnLCAnLXRuJywgJzgnLCAnLW1hJywgJzIwMCcsICctbWV0YWxfYmluZGluZycsICctaW1hZScsICc8aW5maWxlLm1hZT4nLCAnLW9tYWUnLCAnPG91dGZpbGUubWFlPic=

> <r_lp_tautomer_probability>
1

> <r_epik_Ionization_Penalty>
0.656654

> <r_epik_Ionization_Penalty_Charging>
0.656653

> <r_epik_Ionization_Penalty_Neutral>
9.12373e-08

> <r_epik_State_Penalty>
0.675641

> <r_epik_Charging_Adjusted_Penalty>
1.33229

> <i_epik_Tot_Q>
1

> <i_epik_Tot_abs_Q>
1

> <r_epik_Metal_State_Penalty>
0.675695

> <b_epik_Metal_Only>
0

> <s_lp_Force_Field>
OPLS_2005

> <r_lp_Energy>
34.2523

> <b_lp_Chiralities_Consistent>
1

> <s_lp_Variant>
AV-unprocessed.smi:1578-3

> <Gold.Version>
5.8.1

> <Gold.Id.Protein>
6NUR|6NUR_protein|mol2

> <Gold.PLP.Fitness>
47.8098

> <Gold.PLP.PLP>
-39.5220

> <Gold.PLP.part.hbond>
-1.0000

> <Gold.PLP.part.metal>
0.0000

> <Gold.PLP.part.buried>
-6.5554

> <Gold.PLP.part.nonpolar>
-32.2487

> <Gold.PLP.part.repulsive>
0.2949

> <Gold.PLP.ligand.clash>
0.0000

> <Gold.PLP.ligand.torsion>
0.4651

> <Gold.PLP.Chemscore.Hbond>
2.0000

> <Gold.PLP.Chemscore.CHOScore>
1.0000

> <Gold.PLP.Chemscore.Metal>
0.0000

> <Gold.Chemscore.Hbonds>
donor molecule, donor type, donor heavy atom, donor atom, acceptor molecule, acceptor atom, score
      L1  H     4    45       P1  7948  2.00
      L1  C    15    42       P1  8028  0.45

> <Gold.PLP.Chemscore.Internal.Correction>
0.2180

> <Gold.Rescore>
     Score         DG    S(hbond)    S(metal)    S(lipo)     H(rot)  DE(clash)    DE(int)     intcor
     10.62     -11.61       1.00        0.00      71.39       2.17       0.16       0.83       ----

> <Gold.Chemscore.Fitness>
10.6236

> <Gold.Chemscore.DG>
-11.6140

> <Gold.Chemscore.ZeroCoef>
-5.4800

> <Gold.Chemscore.Hbond>
1.0000

> <Gold.Chemscore.Metal>
0.0000

> <Gold.Chemscore.Lipo>
71.3949

> <Gold.Chemscore.Internal_Hbond>
0.0000

> <Gold.Chemscore.DEClash>
0.1562

> <Gold.Chemscore.DEInternal>
0.8343

> <Gold.Chemscore.Rot>
2.1716

> <Gold.Chemscore.Internal.Correction>
   9.000000E+99

> <Gold.Chemscore.Hbonds>
donor molecule, donor type, donor heavy atom, donor atom, acceptor molecule, acceptor atom, score
      L1  H     4    45       P1  7948  0.94

> <Gold.Chemscore.Hbond.Weighted>
-3.3400

> <Gold.Chemscore.Metal.Weighted>
-0.0000

> <Gold.Chemscore.Lipo.Weighted>
-8.3532

> <Gold.Chemscore.Internal_Hbond.Weighted>
0.0000

> <Gold.Chemscore.DEClash.Weighted>
0.1562

> <Gold.Chemscore.DEInternal.Weighted>
0.8343

> <Gold.Chemscore.Rot.Weighted>
5.5592

> <Gold.Chemscore.Internal.Correction.Weighted>
   9.000000E+99

> <Gold.Protein.RotatedTorsions>
[ 6907 6896 6895 6894 ] final   -9.77 input  -60.11 | X-H torsion
[ 7974 7965 7964 7962 ] final  107.93 input  175.53 | X-H torsion
[ 8008 7997 7996 7995 ] final  168.05 input   59.86 | X-H torsion
[ 10167 10162 10161 10158 ] final   -1.93 input  -65.29 | X-H torsion
[ 10718 10713 10712 10709 ] final -121.32 input   66.30 | X-H torsion
[ 10763 10752 10751 10750 ] final -144.27 input  -60.55 | X-H torsion
[ 11005 11000 10999 10996 ] final -104.31 input  -57.11 | X-H torsion

> <Gold.Protein.ActiveResidues>
 VAL166  LYS551  ARG553  GLY616  TRP617  ASP618  TYR619  PRO620  LYS621  CYS622 
 ASP623  PHE694  ASN695  SER759  ASP760  ASP761  ALA762  ILE779  LEU786  VAL792 
 PHE793  MET794  SER795  GLU796  ALA797  LYS798  CYS799  TRP800  GLU811  SER814 

> <Gold.Protein.RotatedAtoms>
  151.4125  135.0987  159.9589 H   0  0  0  0  0  0  0  0  0  0  0  0  # atno 6907 bound_to 6896
  152.5015  133.8784  159.7344 H   0  0  0  0  0  0  0  0  0  0  0  0  # atno 6908 bound_to 6896
  150.9282  133.6741  159.2845 H   0  0  0  0  0  0  0  0  0  0  0  0  # atno 6909 bound_to 6896
  145.2873  139.2612  143.3884 H   0  0  0  0  0  0  0  0  0  0  0  0  # atno 7974 bound_to 7965
  156.1581  140.1601  156.8659 H   0  0  0  0  0  0  0  0  0  0  0  0  # atno 8008 bound_to 7997
  154.5134  140.0795  156.8070 H   0  0  0  0  0  0  0  0  0  0  0  0  # atno 8009 bound_to 7997
  155.3763  140.3403  155.4247 H   0  0  0  0  0  0  0  0  0  0  0  0  # atno 8010 bound_to 7997
  140.6830  143.6717  150.8179 H   0  0  0  0  0  0  0  0  0  0  0  0  # atno 10167 bound_to 10162
  156.1328  130.6408  150.9648 H   0  0  0  0  0  0  0  0  0  0  0  0  # atno 10718 bound_to 10713
  154.8435  135.3445  154.6319 H   0  0  0  0  0  0  0  0  0  0  0  0  # atno 10763 bound_to 10752
  153.6929  135.6974  153.5089 H   0  0  0  0  0  0  0  0  0  0  0  0  # atno 10764 bound_to 10752
  153.2581  135.4331  155.0821 H   0  0  0  0  0  0  0  0  0  0  0  0  # atno 10765 bound_to 10752
  141.1106  133.8713  157.1595 H   0  0  0  0  0  0  0  0  0  0  0  0  # atno 11005 bound_to 11000
  146.3197  140.3355  142.8644 LP  0  0  0  0  0  0  0  0  0  0  0  0  # atno 17320 bound_to 7965
  144.9203  140.7860  143.5753 LP  0  0  0  0  0  0  0  0  0  0  0  0  # atno 17321 bound_to 7965
  140.0420  143.5336  152.2713 LP  0  0  0  0  0  0  0  0  0  0  0  0  # atno 17342 bound_to 10162
  139.6167  144.7621  151.2831 LP  0  0  0  0  0  0  0  0  0  0  0  0  # atno 17343 bound_to 10162
  157.6504  131.0898  150.8063 LP  0  0  0  0  0  0  0  0  0  0  0  0  # atno 17370 bound_to 10713
  156.8146  130.4964  149.5351 LP  0  0  0  0  0  0  0  0  0  0  0  0  # atno 17371 bound_to 10713
  139.9998  135.0032  157.0164 LP  0  0  0  0  0  0  0  0  0  0  0  0  # atno 17394 bound_to 11000
  140.4785  134.1314  155.7213 LP  0  0  0  0  0  0  0  0  0  0  0  0  # atno 17395 bound_to 11000

$$$$
