AV-unprocessed.smi:34|AV-procd|sdf|222|dock4
  -GOLD-   2262015543D 1   1.00000     0.00000
 Structure written by MMmdl.
 55 59  0  0  0  0  0  0  0  0  1 V2000
  152.7219  140.1128  159.3144 O   0  0  0  0  0  0  0  0  0  0  0  0
  152.4006  141.0703  158.6099 C   0  0  0  0  0  0  0  0  0  0  0  0
  152.0951  140.9226  157.1985 N   0  0  0  0  0  0  0  0  0  0  0  0
  152.1898  139.8066  156.4390 C   0  0  0  0  0  0  0  0  0  0  0  0
  152.7470  139.8146  155.1991 N   0  0  0  0  0  0  0  0  0  0  0  0
  152.8133  138.6874  154.4836 C   0  0  0  0  0  0  0  0  0  0  0  0
  152.3873  137.4649  154.8106 N   0  0  0  0  0  0  0  0  0  0  0  0
  151.8220  137.4534  156.0519 C   0  0  0  0  0  0  0  0  0  0  0  0
  151.6820  138.5716  156.9188 C   0  0  0  0  0  0  0  0  0  0  0  0
  151.0541  138.1783  158.0935 N   0  0  0  0  0  0  0  0  0  0  0  0
  150.8440  136.8995  157.9277 C   0  0  0  0  0  0  0  0  0  0  0  0
  151.2726  136.3832  156.7220 N   0  0  0  0  0  0  0  0  0  0  0  0
  151.2068  134.9768  156.2057 C   0  0  1  0  0  0  0  0  0  0  0  0
  150.7482  134.1494  157.2329 O   0  0  0  0  0  0  0  0  0  0  0  0
  149.3652  133.8860  157.0354 C   0  0  2  0  0  0  0  0  0  0  0  0
  148.9211  132.6547  157.8324 C   0  0  0  0  0  0  0  0  0  0  0  0
  148.2678  133.0897  159.0134 O   0  0  0  0  0  0  0  0  0  0  0  0
  147.0082  133.5618  158.9547 C   0  0  0  0  0  0  0  0  0  0  0  0
  146.3411  133.5992  157.9188 O   0  0  0  0  0  0  0  0  0  0  0  0
  146.5055  134.0372  160.2760 C   0  0  0  0  0  0  0  0  0  0  0  0
  147.4313  134.3383  161.3022 C   0  0  0  0  0  0  0  0  0  0  0  0
  146.9864  134.7873  162.5608 C   0  0  0  0  0  0  0  0  0  0  0  0
  145.6099  134.9404  162.8090 C   0  0  0  0  0  0  0  0  0  0  0  0
  144.6785  134.6448  161.7965 C   0  0  0  0  0  0  0  0  0  0  0  0
  145.1216  134.1962  160.5367 C   0  0  0  0  0  0  0  0  0  0  0  0
  149.2797  133.7324  155.5184 C   0  0  2  0  0  0  0  0  0  0  0  0
  149.7441  132.5388  155.1424 F   0  0  0  0  0  0  0  0  0  0  0  0
  150.2200  134.8212  155.0216 C   0  0  1  0  0  0  0  0  0  0  0  0
  149.4855  135.9906  154.7015 O   0  0  0  0  0  0  0  0  0  0  0  0
  152.2051  142.4430  159.1835 C   0  0  0  0  0  0  0  0  0  0  0  0
  151.7742  143.5016  158.3530 C   0  0  0  0  0  0  0  0  0  0  0  0
  151.5771  144.7906  158.8859 C   0  0  0  0  0  0  0  0  0  0  0  0
  151.7997  145.0290  160.2554 C   0  0  0  0  0  0  0  0  0  0  0  0
  152.2154  143.9767  161.0927 C   0  0  0  0  0  0  0  0  0  0  0  0
  152.4150  142.6876  160.5605 C   0  0  0  0  0  0  0  0  0  0  0  0
  151.7652  141.7524  156.7277 H   0  0  0  0  0  0  0  0  0  0  0  0
  153.2735  138.7788  153.5106 H   0  0  0  0  0  0  0  0  0  0  0  0
  150.3719  136.3004  158.6924 H   0  0  0  0  0  0  0  0  0  0  0  0
  152.2388  134.7288  155.9541 H   0  0  0  0  0  0  0  0  0  0  0  0
  148.7775  134.7554  157.3347 H   0  0  0  0  0  0  0  0  0  0  0  0
  148.2235  132.0604  157.2408 H   0  0  0  0  0  0  0  0  0  0  0  0
  149.7765  132.0216  158.0735 H   0  0  0  0  0  0  0  0  0  0  0  0
  148.4935  134.2283  161.1355 H   0  0  0  0  0  0  0  0  0  0  0  0
  147.7030  135.0139  163.3366 H   0  0  0  0  0  0  0  0  0  0  0  0
  145.2687  135.2840  163.7743 H   0  0  0  0  0  0  0  0  0  0  0  0
  143.6215  134.7615  161.9858 H   0  0  0  0  0  0  0  0  0  0  0  0
  144.3799  133.9783  159.7822 H   0  0  0  0  0  0  0  0  0  0  0  0
  148.2627  133.8174  155.1331 H   0  0  0  0  0  0  0  0  0  0  0  0
  150.7662  134.5037  154.1324 H   0  0  0  0  0  0  0  0  0  0  0  0
  149.5005  136.1039  153.7628 H   0  0  0  0  0  0  0  0  0  0  0  0
  151.5980  143.3343  157.2999 H   0  0  0  0  0  0  0  0  0  0  0  0
  151.2542  145.5964  158.2437 H   0  0  0  0  0  0  0  0  0  0  0  0
  151.6479  146.0174  160.6637 H   0  0  0  0  0  0  0  0  0  0  0  0
  152.3794  144.1572  162.1448 H   0  0  0  0  0  0  0  0  0  0  0  0
  152.7256  141.8916  161.2218 H   0  0  0  0  0  0  0  0  0  0  0  0
  1  2  2  0  0  0  0
  2  3  1  0  0  0  0
  2 30  1  0  0  0  0
  3  4  1  0  0  0  0
  3 36  1  0  0  0  0
  4  9  1  0  0  0  0
  4  5  2  0  0  0  0
  5  6  1  0  0  0  0
  6  7  2  0  0  0  0
  6 37  1  0  0  0  0
  7  8  1  0  0  0  0
  8 12  1  0  0  0  0
  8  9  2  0  0  0  0
  9 10  1  0  0  0  0
 10 11  2  0  0  0  0
 11 12  1  0  0  0  0
 11 38  1  0  0  0  0
 12 13  1  0  0  0  0
 13 28  1  0  0  0  0
 13 14  1  0  0  0  0
 13 39  1  0  0  0  0
 14 15  1  0  0  0  0
 15 16  1  0  0  0  0
 15 26  1  0  0  0  0
 15 40  1  0  0  0  0
 16 17  1  0  0  0  0
 16 41  1  0  0  0  0
 16 42  1  0  0  0  0
 17 18  1  0  0  0  0
 18 19  2  0  0  0  0
 18 20  1  0  0  0  0
 20 25  1  0  0  0  0
 20 21  2  0  0  0  0
 21 22  1  0  0  0  0
 21 43  1  0  0  0  0
 22 23  2  0  0  0  0
 22 44  1  0  0  0  0
 23 24  1  0  0  0  0
 23 45  1  0  0  0  0
 24 25  2  0  0  0  0
 24 46  1  0  0  0  0
 25 47  1  0  0  0  0
 26 27  1  0  0  0  0
 26 28  1  0  0  0  0
 26 48  1  0  0  0  0
 28 29  1  0  0  0  0
 28 49  1  0  0  0  0
 29 50  1  0  0  0  0
 30 35  1  0  0  0  0
 30 31  2  0  0  0  0
 31 32  1  0  0  0  0
 31 51  1  0  0  0  0
 32 33  2  0  0  0  0
 32 52  1  0  0  0  0
 33 34  1  0  0  0  0
 33 53  1  0  0  0  0
 34 35  2  0  0  0  0
 34 54  1  0  0  0  0
 35 55  1  0  0  0  0
M  END
> <s_m_source_file>
AV-unprocessed.smi

> <i_m_source_file_index>
34

> <i_lp_mmshare_version>
43012

> <i_f3d_flags>
0

> <s_epik_input>
W2NIXTFbY0hdW2NIXVtjSF1bY0hdYzFDKD1PKVtOSF1jKG5bY0hdbjIpYyhjMjMpbltjSF1uM1tDQEBIXTRPW0NASF0oW0NAQEhdKEYpW0NASF00W09IXSlbQ0gyXU9DKD1PKWM1W2NIXVtjSF1bY0hdW2NIXVtjSF01

> <s_epik_cmdline>
J2VwaWtfcHl0aG9uJywgJy1waCcsICc3LjAnLCAnLXRuJywgJzgnLCAnLW1hJywgJzIwMCcsICctbWV0YWxfYmluZGluZycsICctaW1hZScsICc8aW5maWxlLm1hZT4nLCAnLW9tYWUnLCAnPG91dGZpbGUubWFlPic=

> <r_lp_tautomer_probability>
1

> <r_epik_Ionization_Penalty>
0.00257489

> <r_epik_Ionization_Penalty_Charging>
0

> <r_epik_Ionization_Penalty_Neutral>
0.00257489

> <r_epik_State_Penalty>
0.00519398

> <r_epik_Charging_Adjusted_Penalty>
0.00519398

> <i_epik_Tot_Q>
0

> <i_epik_Tot_abs_Q>
0

> <r_epik_Metal_State_Penalty>
0.335891

> <b_epik_Metal_Only>
0

> <s_epik_Chemistry_Notes>
This compound has an ester and may undergo hydrolysis at high or low pH. This compound contains an acetal/aminal-like group ( X-CH(R)-Y where X, Y are N, S, or O) that may be acid/base labile, releasing an aldehyde.

> <s_lp_Force_Field>
OPLS_2005

> <r_lp_Energy>
48.7075

> <b_lp_Chiralities_Consistent>
1

> <s_lp_Variant>
AV-unprocessed.smi:34-8

> <Gold.Version>
5.8.1

> <Gold.Id.Protein>
6NUR|6NUR_protein|mol2

> <Gold.PLP.Fitness>
65.3046

> <Gold.PLP.PLP>
-57.4718

> <Gold.PLP.part.hbond>
-5.0000

> <Gold.PLP.part.metal>
0.0000

> <Gold.PLP.part.buried>
-5.6043

> <Gold.PLP.part.nonpolar>
-46.6055

> <Gold.PLP.part.repulsive>
0.2092

> <Gold.PLP.ligand.clash>
0.0000

> <Gold.PLP.ligand.torsion>
1.2727

> <Gold.PLP.Chemscore.Hbond>
3.3033

> <Gold.PLP.Chemscore.CHOScore>
0.0000

> <Gold.PLP.Chemscore.Metal>
0.0000

> <Gold.Chemscore.Hbonds>
donor molecule, donor type, donor heavy atom, donor atom, acceptor molecule, acceptor atom, score
      L1  H    29    50       P1  7948  1.00
      P1  H  6896  6908       L1    14  0.54
      P1  H  7989  7998       L1     5  0.12
      P1  H  7997  8010       L1     5  0.95
      P1  H 10752 10765       L1     7  0.62

> <Gold.PLP.Chemscore.Internal.Correction>
0.4682

> <Gold.Rescore>
     Score         DG    S(hbond)    S(metal)    S(lipo)     H(rot)  DE(clash)    DE(int)     intcor
     20.16     -21.85       2.74        0.00     121.25       2.72       0.01       1.68       ----

> <Gold.Chemscore.Fitness>
20.1624

> <Gold.Chemscore.DG>
-21.8515

> <Gold.Chemscore.ZeroCoef>
-5.4800

> <Gold.Chemscore.Hbond>
2.7403

> <Gold.Chemscore.Metal>
0.0000

> <Gold.Chemscore.Lipo>
121.2485

> <Gold.Chemscore.Internal_Hbond>
0.0000

> <Gold.Chemscore.DEClash>
0.0088

> <Gold.Chemscore.DEInternal>
1.6803

> <Gold.Chemscore.Rot>
2.7215

> <Gold.Chemscore.Internal.Correction>
   9.000000E+99

> <Gold.Chemscore.Hbonds>
donor molecule, donor type, donor heavy atom, donor atom, acceptor molecule, acceptor atom, score
      L1  H    29    50       P1  7948  0.60
      P1  H  6896  6908       L1    14  0.12
      P1  H  7989  7998       L1     5  0.01
      P1  H  7997  8010       L1     5  0.11
      P1  H 10752 10765       L1     7  0.50

> <Gold.Chemscore.Hbond.Weighted>
-9.1525

> <Gold.Chemscore.Metal.Weighted>
-0.0000

> <Gold.Chemscore.Lipo.Weighted>
-14.1861

> <Gold.Chemscore.Internal_Hbond.Weighted>
0.0000

> <Gold.Chemscore.DEClash.Weighted>
0.0088

> <Gold.Chemscore.DEInternal.Weighted>
1.6803

> <Gold.Chemscore.Rot.Weighted>
6.9670

> <Gold.Chemscore.Internal.Correction.Weighted>
   9.000000E+99

> <Gold.Protein.RotatedTorsions>
[ 6907 6896 6895 6894 ] final  115.36 input  -60.11 | X-H torsion
[ 7974 7965 7964 7962 ] final  -75.58 input  175.53 | X-H torsion
[ 8008 7997 7996 7995 ] final  119.39 input   59.86 | X-H torsion
[ 10167 10162 10161 10158 ] final   50.26 input  -65.29 | X-H torsion
[ 10718 10713 10712 10709 ] final   16.90 input   66.30 | X-H torsion
[ 10763 10752 10751 10750 ] final  158.67 input  -60.55 | X-H torsion
[ 11005 11000 10999 10996 ] final  -21.81 input  -57.11 | X-H torsion

> <Gold.Protein.ActiveResidues>
 VAL166  LYS551  ARG553  GLY616  TRP617  ASP618  TYR619  PRO620  LYS621  CYS622 
 ASP623  PHE694  ASN695  SER759  ASP760  ASP761  ALA762  ILE779  LEU786  VAL792 
 PHE793  MET794  SER795  GLU796  ALA797  LYS798  CYS799  TRP800  GLU811  SER814 

> <Gold.Protein.RotatedAtoms>
  152.4746  133.8109  159.7002 H   0  0  0  0  0  0  0  0  0  0  0  0  # atno 6907 bound_to 6896
  150.8755  133.7435  159.2954 H   0  0  0  0  0  0  0  0  0  0  0  0  # atno 6908 bound_to 6896
  151.4956  135.1063  159.9867 H   0  0  0  0  0  0  0  0  0  0  0  0  # atno 6909 bound_to 6896
  145.6241  140.9355  143.1122 H   0  0  0  0  0  0  0  0  0  0  0  0  # atno 7974 bound_to 7965
  156.2593  140.2854  156.0983 H   0  0  0  0  0  0  0  0  0  0  0  0  # atno 8008 bound_to 7997
  155.1387  140.0395  157.2810 H   0  0  0  0  0  0  0  0  0  0  0  0  # atno 8009 bound_to 7997
  154.6546  140.2552  155.7182 H   0  0  0  0  0  0  0  0  0  0  0  0  # atno 8010 bound_to 7997
  140.2743  144.3229  150.6281 H   0  0  0  0  0  0  0  0  0  0  0  0  # atno 10167 bound_to 10162
  157.0744  130.6361  149.5812 H   0  0  0  0  0  0  0  0  0  0  0  0  # atno 10718 bound_to 10713
  154.2196  135.2782  155.2929 H   0  0  0  0  0  0  0  0  0  0  0  0  # atno 10763 bound_to 10752
  154.5712  135.5618  153.7100 H   0  0  0  0  0  0  0  0  0  0  0  0  # atno 10764 bound_to 10752
  153.0045  135.6322  154.2336 H   0  0  0  0  0  0  0  0  0  0  0  0  # atno 10765 bound_to 10752
  140.8597  133.7797  156.0060 H   0  0  0  0  0  0  0  0  0  0  0  0  # atno 11005 bound_to 11000
  144.7219  139.8001  143.7379 LP  0  0  0  0  0  0  0  0  0  0  0  0  # atno 17320 bound_to 7965
  146.1408  139.4464  143.0110 LP  0  0  0  0  0  0  0  0  0  0  0  0  # atno 17321 bound_to 7965
  140.5864  143.2170  151.7334 LP  0  0  0  0  0  0  0  0  0  0  0  0  # atno 17342 bound_to 10162
  139.4980  144.4005  152.0186 LP  0  0  0  0  0  0  0  0  0  0  0  0  # atno 17343 bound_to 10162
  155.9941  130.5004  150.7407 LP  0  0  0  0  0  0  0  0  0  0  0  0  # atno 17370 bound_to 10713
  157.4851  131.0906  151.0491 LP  0  0  0  0  0  0  0  0  0  0  0  0  # atno 17371 bound_to 10713
  140.8697  134.2742  157.5197 LP  0  0  0  0  0  0  0  0  0  0  0  0  # atno 17394 bound_to 11000
  139.8706  134.9560  156.4226 LP  0  0  0  0  0  0  0  0  0  0  0  0  # atno 17395 bound_to 11000

$$$$
