#       Name:                AV-unprocessed.smi:3010
#       Creating user name   scv26
#       Creation time:       Fri Mar 27 16:39:03 2020


#       File generated by GOLD software.
#

@<TRIPOS>MOLECULE
AV-unprocessed.smi:3010
    45    47     1
SMALL
NO_CHARGES


@<TRIPOS>ATOM
      1 ****        -2.3395   3.7796   0.6527 C.3            1 S1                 0.0000
      2 ****        -2.4632   2.3097   0.6332 N.am           1 S1                 0.0000
      3 ****        -1.3146   1.5631   0.5994 C.2            1 S1                 0.0000
      4 ****        -0.1746   2.0282   0.5707 O.2            1 S1                 0.0000
      5 ****        -1.5479   0.1150   0.6011 C.2            1 S1                 0.0000
      6 ****        -2.7881  -0.4307   0.6155 C.2            1 S1                 0.0000
      7 ****        -2.7317  -1.8199   0.6064 N.2            1 S1                 0.0000
      8 ****        -1.4172  -2.0437   0.5868 C.2            1 S1                 0.0000
      9 ****        -0.6387  -0.9426   0.5818 N.pl3          1 S1                 0.0000
     10 ****         0.8167  -0.9237   0.5587 C.3            1 S1                 0.0000
     11 ****         1.3933  -1.0555  -0.8654 C.3            1 S1                 0.0000
     12 ****         0.8635  -0.0521  -1.7108 O.3            1 S1                 0.0000
     13 ****         2.9139  -1.0456  -0.8432 C.ar           1 S1                 0.0000
     14 ****         3.6238   0.1721  -0.7467 C.ar           1 S1                 0.0000
     15 ****         5.0319   0.1726  -0.7174 C.ar           1 S1                 0.0000
     16 ****         5.7383  -1.0437  -0.7810 C.ar           1 S1                 0.0000
     17 ****         5.0359  -2.2606  -0.8724 C.ar           1 S1                 0.0000
     18 ****         3.6276  -2.2618  -0.9025 C.ar           1 S1                 0.0000
     19 ****        -3.9113   0.4326   0.6360 N.am           1 S1                 0.0000
     20 ****        -5.2366  -0.1940   0.6405 C.3            1 S1                 0.0000
     21 ****        -3.7496   1.7971   0.6489 C.2            1 S1                 0.0000
     22 ****        -4.7295   2.5470   0.6738 O.2            1 S1                 0.0000
     23 ****        -1.3158   4.1554   0.6568 H              1 S1                 0.0000
     24 ****        -2.8209   4.1899   1.5420 H              1 S1                 0.0000
     25 ****        -2.8262   4.2134  -0.2223 H              1 S1                 0.0000
     26 ****        -1.0055  -3.0423   0.5738 H              1 S1                 0.0000
     27 ****         1.1764  -0.0183   1.0453 H              1 S1                 0.0000
     28 ****         1.1730  -1.7508   1.1741 H              1 S1                 0.0000
     29 ****         1.0663  -2.0088  -1.2834 H              1 S1                 0.0000
     30 ****         1.1610  -0.2165  -2.5925 H              1 S1                 0.0000
     31 ****         3.0907   1.1102  -0.6921 H              1 S1                 0.0000
     32 ****         5.5698   1.1065  -0.6445 H              1 S1                 0.0000
     33 ****         6.8182  -1.0434  -0.7577 H              1 S1                 0.0000
     34 ****         5.5772  -3.1942  -0.9182 H              1 S1                 0.0000
     35 ****         3.0981  -3.2010  -0.9693 H              1 S1                 0.0000
     36 ****        -6.0683   0.5092   0.6895 H              1 S1                 0.0000
     37 ****        -5.3298  -0.8626   1.4968 H              1 S1                 0.0000
     38 ****        -5.3677  -0.7892  -0.2637 H              1 S1                 0.0000
     39 ****        -0.0386   3.0189   0.5710 LP             1 S1                 0.0000
     40 ****         0.6151   1.4151   0.5470 LP             1 S1                 0.0000
     41 ****        -3.4825  -2.4804   0.6129 LP             1 S1                 0.0000
     42 ****         1.1822   0.8464  -1.4090 LP             1 S1                 0.0000
     43 ****        -0.1357  -0.0787  -1.6812 LP             1 S1                 0.0000
     44 ****        -4.6002   3.5385   0.6829 LP             1 S1                 0.0000
     45 ****        -5.6528   2.1630   0.6849 LP             1 S1                 0.0000
@<TRIPOS>BOND
    1    1    2 1     
    2    1   23 1     
    3    1   24 1     
    4    1   25 1     
    5    2   21 am    
    6    2    3 am    
    7    3    4 2     
    8    3    5 1     
    9    5    9 1     
   10    5    6 2     
   11    6    7 1     
   12    6   19 1     
   13    7    8 2     
   14    8    9 1     
   15    8   26 1     
   16    9   10 1     
   17   10   11 1     
   18   10   27 1     
   19   10   28 1     
   20   11   12 1     
   21   11   13 1     
   22   11   29 1     
   23   12   30 1     
   24   13   18 ar    
   25   13   14 ar    
   26   14   15 ar    
   27   14   31 1     
   28   15   16 ar    
   29   15   32 1     
   30   16   17 ar    
   31   16   33 1     
   32   17   18 ar    
   33   17   34 1     
   34   18   35 1     
   35   19   20 1     
   36   19   21 am    
   37   20   36 1     
   38   20   37 1     
   39   20   38 1     
   40   21   22 2     
   41    4   39 1     
   42    4   40 1     
   43    7   41 1     
   44   12   42 1     
   45   12   43 1     
   46   22   44 1     
   47   22   45 1     
@<TRIPOS>SUBSTRUCTURE
      1 S1             1
@<TRIPOS>SET
LONE_PAIRS      STATIC     ATOMS    <user>   **** ""
7 39 40 41 42 43 44 45
DONOR_HYDROGENS      STATIC     ATOMS    <user>   **** ""
1 30
ATOM$BLUE        STATIC     ATOMS    COLORGROUP SYSTEM
7 39 40 41 42 43 44 45
ATOM$RED        STATIC     ATOMS    COLORGROUP SYSTEM
1 30
