AV-unprocessed.smi:574|AV-procd|sdf|2975|dock10
  -GOLD-   2262023483D 1   1.00000     0.00000
 Structure written by MMmdl.
 40 41  0  0  0  0  0  0  0  0  1 V2000
  145.0359  132.1724  149.5018 C   0  0  0  0  0  0  0  0  0  0  0  0
  145.3182  132.5622  150.9486 C   0  0  0  0  0  0  0  0  0  0  0  0
  144.5330  133.2878  151.5579 O   0  0  0  0  0  0  0  0  0  0  0  0
  146.4463  132.0741  151.4852 N   0  0  0  0  0  0  0  0  0  0  0  0
  146.9014  132.3233  152.8475 C   0  0  0  0  0  0  0  0  0  0  0  0
  146.6647  133.7861  153.2631 C   0  0  0  0  0  0  0  0  0  0  0  0
  147.8583  134.3702  153.8612 N   0  0  0  0  0  0  0  0  0  0  0  0
  148.5193  133.8671  154.9158 C   0  0  0  0  0  0  0  0  0  0  0  0
  148.2091  132.8142  155.4743 O   0  0  0  0  0  0  0  0  0  0  0  0
  149.7372  134.6332  155.3463 C   0  0  0  0  0  0  0  0  0  0  0  0
  149.9524  135.8148  154.7238 N   0  0  0  0  0  0  0  0  0  0  0  0
  151.0302  136.5323  155.0632 C   0  0  0  0  0  0  0  0  0  0  0  0
  151.2303  137.7517  154.4030 N   0  0  0  0  0  0  0  0  0  0  0  0
  152.4535  138.5338  154.5802 C   0  0  0  0  0  0  0  0  0  0  0  0
  152.2310  139.5923  155.6758 C   0  0  0  0  0  0  0  0  0  0  0  0
  151.1281  140.4228  155.3173 O   0  0  0  0  0  0  0  0  0  0  0  0
  149.9192  139.6859  155.1446 C   0  0  0  0  0  0  0  0  0  0  0  0
  150.1158  138.6279  154.0435 C   0  0  0  0  0  0  0  0  0  0  0  0
  151.9297  136.1697  155.9857 N   0  0  0  0  0  0  0  0  0  0  0  0
  151.7456  134.9890  156.6115 C   0  0  0  0  0  0  0  0  0  0  0  0
  150.6478  134.1549  156.3245 C   0  0  0  0  0  0  0  0  0  0  0  0
  150.4959  132.6285  157.1267 Cl  0  0  0  0  0  0  0  0  0  0  0  0
  145.0648  131.0890  149.3838 H   0  0  0  0  0  0  0  0  0  0  0  0
  145.7805  132.6130  148.8385 H   0  0  0  0  0  0  0  0  0  0  0  0
  144.0515  132.5228  149.1904 H   0  0  0  0  0  0  0  0  0  0  0  0
  147.0305  131.4860  150.9084 H   0  0  0  0  0  0  0  0  0  0  0  0
  146.4040  131.6422  153.5404 H   0  0  0  0  0  0  0  0  0  0  0  0
  147.9648  132.0864  152.8912 H   0  0  0  0  0  0  0  0  0  0  0  0
  146.3448  134.3827  152.4071 H   0  0  0  0  0  0  0  0  0  0  0  0
  145.8622  133.8430  153.9989 H   0  0  0  0  0  0  0  0  0  0  0  0
  148.2005  135.2291  153.4548 H   0  0  0  0  0  0  0  0  0  0  0  0
  153.3183  137.9147  154.8169 H   0  0  0  0  0  0  0  0  0  0  0  0
  152.6911  139.0266  153.6368 H   0  0  0  0  0  0  0  0  0  0  0  0
  152.0461  139.1198  156.6419 H   0  0  0  0  0  0  0  0  0  0  0  0
  153.1201  140.2131  155.7871 H   0  0  0  0  0  0  0  0  0  0  0  0
  149.6268  139.2189  156.0865 H   0  0  0  0  0  0  0  0  0  0  0  0
  149.1214  140.3747  154.8672 H   0  0  0  0  0  0  0  0  0  0  0  0
  150.3517  139.1207  153.0998 H   0  0  0  0  0  0  0  0  0  0  0  0
  149.1904  138.0802  153.8686 H   0  0  0  0  0  0  0  0  0  0  0  0
  152.4887  134.7029  157.3410 H   0  0  0  0  0  0  0  0  0  0  0  0
  1  2  1  0  0  0  0
  1 23  1  0  0  0  0
  1 24  1  0  0  0  0
  1 25  1  0  0  0  0
  2  3  2  0  0  0  0
  2  4  1  0  0  0  0
  4  5  1  0  0  0  0
  4 26  1  0  0  0  0
  5  6  1  0  0  0  0
  5 27  1  0  0  0  0
  5 28  1  0  0  0  0
  6  7  1  0  0  0  0
  6 29  1  0  0  0  0
  6 30  1  0  0  0  0
  7  8  1  0  0  0  0
  7 31  1  0  0  0  0
  8  9  2  0  0  0  0
  8 10  1  0  0  0  0
 10 21  1  0  0  0  0
 10 11  2  0  0  0  0
 11 12  1  0  0  0  0
 12 13  1  0  0  0  0
 12 19  2  0  0  0  0
 13 18  1  0  0  0  0
 13 14  1  0  0  0  0
 14 15  1  0  0  0  0
 14 32  1  0  0  0  0
 14 33  1  0  0  0  0
 15 16  1  0  0  0  0
 15 34  1  0  0  0  0
 15 35  1  0  0  0  0
 16 17  1  0  0  0  0
 17 18  1  0  0  0  0
 17 36  1  0  0  0  0
 17 37  1  0  0  0  0
 18 38  1  0  0  0  0
 18 39  1  0  0  0  0
 19 20  1  0  0  0  0
 20 21  2  0  0  0  0
 20 40  1  0  0  0  0
 21 22  1  0  0  0  0
M  END
> <s_m_source_file>
AV-unprocessed.smi

> <i_m_source_file_index>
574

> <i_lp_mmshare_version>
43012

> <i_f3d_flags>
0

> <s_epik_input>
W0NIM11DKD1PKVtOSF1bQ0gyXVtDSDJdW05IXUMoPU8pYzFuYyhuW2NIXWMxQ2wpTjJbQ0gyXVtDSDJdT1tDSDJdW0NIMl0y

> <s_epik_cmdline>
J2VwaWtfcHl0aG9uJywgJy1waCcsICc3LjAnLCAnLXRuJywgJzgnLCAnLW1hJywgJzIwMCcsICctbWV0YWxfYmluZGluZycsICctaW1hZScsICc8aW5maWxlLm1hZT4nLCAnLW9tYWUnLCAnPG91dGZpbGUubWFlPic=

> <r_lp_tautomer_probability>
1

> <r_epik_Ionization_Penalty>
4.61473e-05

> <r_epik_Ionization_Penalty_Charging>
0

> <r_epik_Ionization_Penalty_Neutral>
4.61473e-05

> <r_epik_State_Penalty>
-0

> <r_epik_Charging_Adjusted_Penalty>
0

> <i_epik_Tot_Q>
0

> <i_epik_Tot_abs_Q>
0

> <r_epik_Metal_State_Penalty>
0.0410325

> <b_epik_Metal_Only>
0

> <s_lp_Force_Field>
OPLS_2005

> <r_lp_Energy>
11.2452

> <b_lp_Chiralities_Consistent>
1

> <s_lp_Variant>
AV-unprocessed.smi:574-1

> <Gold.Version>
5.8.1

> <Gold.Id.Protein>
6NUR|6NUR_protein|mol2

> <Gold.PLP.Fitness>
44.6924

> <Gold.PLP.PLP>
-35.9996

> <Gold.PLP.part.hbond>
-4.0000

> <Gold.PLP.part.metal>
0.0000

> <Gold.PLP.part.buried>
-3.3933

> <Gold.PLP.part.nonpolar>
-30.4692

> <Gold.PLP.part.repulsive>
1.0135

> <Gold.PLP.ligand.clash>
0.0000

> <Gold.PLP.ligand.torsion>
0.7935

> <Gold.PLP.Chemscore.Hbond>
3.3590

> <Gold.PLP.Chemscore.CHOScore>
0.0000

> <Gold.PLP.Chemscore.Metal>
0.0000

> <Gold.Chemscore.Hbonds>
donor molecule, donor type, donor heavy atom, donor atom, acceptor molecule, acceptor atom, score
      L1  H     4    26       P1 10747  0.73
      L1  H     7    31       P1  7948  0.98
      P1  H  7989  7998       L1    16  0.98
      P1  H 10752 10763       L1    19  0.49

> <Gold.PLP.Chemscore.Internal.Correction>
0.2029

> <Gold.Rescore>
     Score         DG    S(hbond)    S(metal)    S(lipo)     H(rot)  DE(clash)    DE(int)     intcor
     12.64     -16.09       1.96        0.00      71.77       1.70       0.20       3.24       ----

> <Gold.Chemscore.Fitness>
12.6430

> <Gold.Chemscore.DG>
-16.0866

> <Gold.Chemscore.ZeroCoef>
-5.4800

> <Gold.Chemscore.Hbond>
1.9613

> <Gold.Chemscore.Metal>
0.0000

> <Gold.Chemscore.Lipo>
71.7676

> <Gold.Chemscore.Internal_Hbond>
0.0000

> <Gold.Chemscore.DEClash>
0.2032

> <Gold.Chemscore.DEInternal>
3.2404

> <Gold.Chemscore.Rot>
1.6957

> <Gold.Chemscore.Internal.Correction>
   9.000000E+99

> <Gold.Chemscore.Hbonds>
donor molecule, donor type, donor heavy atom, donor atom, acceptor molecule, acceptor atom, score
      L1  H     4    26       P1 10747  0.69
      L1  H     7    31       P1  7948  0.87
      P1  H  7989  7998       L1    16  0.11
      P1  H 10752 10763       L1    19  0.01

> <Gold.Chemscore.Hbond.Weighted>
-6.5508

> <Gold.Chemscore.Metal.Weighted>
-0.0000

> <Gold.Chemscore.Lipo.Weighted>
-8.3968

> <Gold.Chemscore.Internal_Hbond.Weighted>
0.0000

> <Gold.Chemscore.DEClash.Weighted>
0.2032

> <Gold.Chemscore.DEInternal.Weighted>
3.2404

> <Gold.Chemscore.Rot.Weighted>
4.3410

> <Gold.Chemscore.Internal.Correction.Weighted>
   9.000000E+99

> <Gold.Protein.RotatedTorsions>
[ 6907 6896 6895 6894 ] final  -57.09 input  -60.11 | X-H torsion
[ 7974 7965 7964 7962 ] final  -74.89 input  175.53 | X-H torsion
[ 8008 7997 7996 7995 ] final  -71.95 input   59.86 | X-H torsion
[ 10167 10162 10161 10158 ] final   83.95 input  -65.29 | X-H torsion
[ 10718 10713 10712 10709 ] final   90.85 input   66.30 | X-H torsion
[ 10763 10752 10751 10750 ] final   74.09 input  -60.55 | X-H torsion
[ 11005 11000 10999 10996 ] final  -85.15 input  -57.11 | X-H torsion

> <Gold.Protein.ActiveResidues>
 VAL166  LYS551  ARG553  GLY616  TRP617  ASP618  TYR619  PRO620  LYS621  CYS622 
 ASP623  PHE694  ASN695  SER759  ASP760  ASP761  ALA762  ILE779  LEU786  VAL792 
 PHE793  MET794  SER795  GLU796  ALA797  LYS798  CYS799  TRP800  GLU811  SER814 

> <Gold.Protein.RotatedAtoms>
  150.8114  134.7271  159.6691 H   0  0  0  0  0  0  0  0  0  0  0  0  # atno 6907 bound_to 6896
  152.4234  134.5910  159.9984 H   0  0  0  0  0  0  0  0  0  0  0  0  # atno 6908 bound_to 6896
  151.6118  133.3309  159.3105 H   0  0  0  0  0  0  0  0  0  0  0  0  # atno 6909 bound_to 6896
  145.6332  140.9332  143.1076 H   0  0  0  0  0  0  0  0  0  0  0  0  # atno 7974 bound_to 7965
  154.5128  140.0806  156.8023 H   0  0  0  0  0  0  0  0  0  0  0  0  # atno 8008 bound_to 7997
  155.3747  140.3425  155.4226 H   0  0  0  0  0  0  0  0  0  0  0  0  # atno 8009 bound_to 7997
  156.1593  140.1583  156.8627 H   0  0  0  0  0  0  0  0  0  0  0  0  # atno 8010 bound_to 7997
  139.9131  144.6259  150.8517 H   0  0  0  0  0  0  0  0  0  0  0  0  # atno 10167 bound_to 10162
  157.6959  131.0386  150.3640 H   0  0  0  0  0  0  0  0  0  0  0  0  # atno 10718 bound_to 10713
  153.0564  135.5039  154.7990 H   0  0  0  0  0  0  0  0  0  0  0  0  # atno 10763 bound_to 10752
  154.6813  135.2969  154.9611 H   0  0  0  0  0  0  0  0  0  0  0  0  # atno 10764 bound_to 10752
  154.0397  135.6718  153.4841 H   0  0  0  0  0  0  0  0  0  0  0  0  # atno 10765 bound_to 10752
  141.1644  133.7384  156.8972 H   0  0  0  0  0  0  0  0  0  0  0  0  # atno 11005 bound_to 11000
  144.7186  139.8110  143.7390 LP  0  0  0  0  0  0  0  0  0  0  0  0  # atno 17320 bound_to 7965
  146.1340  139.4382  143.0150 LP  0  0  0  0  0  0  0  0  0  0  0  0  # atno 17321 bound_to 7965
  140.7680  143.3351  151.2326 LP  0  0  0  0  0  0  0  0  0  0  0  0  # atno 17342 bound_to 10162
  139.6925  143.9668  152.2866 LP  0  0  0  0  0  0  0  0  0  0  0  0  # atno 17343 bound_to 10162
  156.4073  130.3927  149.6916 LP  0  0  0  0  0  0  0  0  0  0  0  0  # atno 17370 bound_to 10713
  156.4213  130.7770  151.2787 LP  0  0  0  0  0  0  0  0  0  0  0  0  # atno 17371 bound_to 10713
  140.1607  134.9167  157.2711 LP  0  0  0  0  0  0  0  0  0  0  0  0  # atno 17394 bound_to 11000
  140.2614  134.3567  155.7405 LP  0  0  0  0  0  0  0  0  0  0  0  0  # atno 17395 bound_to 11000

$$$$
