AV-unprocessed.smi:2095|AV-procd|sdf|8558|dock10
  -GOLD-   2272011283D 1   1.00000     0.00000
 Structure written by MMmdl.
 42 43  0  0  0  0  0  0  0  0  2 V2000
  144.2614  135.3453  150.4738 C   0  0  0  0  0  0  0  0  0  0  0  0
  145.5940  134.9339  151.1155 C   0  0  2  0  0  0  0  0  0  0  0  0
  145.8641  133.4340  150.9281 C   0  0  0  0  0  0  0  0  0  0  0  0
  147.1899  133.0549  151.5940 C   0  0  0  0  0  0  0  0  0  0  0  0
  147.2095  133.4674  153.0752 C   0  0  0  0  0  0  0  0  0  0  0  0
  146.9391  134.9255  153.2401 N   0  3  2  0  0  0  0  0  0  0  0  0
  147.0657  135.4705  154.6326 C   0  0  1  0  0  0  0  0  0  0  0  0
  148.2965  134.9426  155.4103 C   0  0  0  0  0  0  0  0  0  0  0  0
  147.0820  137.0175  154.5850 C   0  0  0  0  0  0  0  0  0  0  0  0
  148.3394  137.5394  154.0629 N   0  0  0  0  0  0  0  0  0  0  0  0
  149.1766  138.3304  154.7497 C   0  0  0  0  0  0  0  0  0  0  0  0
  148.9654  138.6981  155.9049 O   0  0  0  0  0  0  0  0  0  0  0  0
  150.4479  138.7726  154.0252 C   0  0  0  0  0  0  0  0  0  0  0  0
  151.6006  138.6787  154.9001 N   0  0  0  0  0  0  0  0  0  0  0  0
  151.9648  139.4128  155.9534 C   0  0  0  0  0  0  0  0  0  0  0  0
  153.0955  138.9748  156.4862 N   0  0  0  0  0  0  0  0  0  0  0  0
  153.4253  137.8958  155.6830 N   0  0  0  0  0  0  0  0  0  0  0  0
  152.5416  137.7145  154.7405 N   0  0  0  0  0  0  0  0  0  0  0  0
  145.6365  135.2938  152.6137 C   0  0  0  0  0  0  0  0  0  0  0  0
  143.4212  134.8250  150.9346 H   0  0  0  0  0  0  0  0  0  0  0  0
  144.2515  135.1140  149.4083 H   0  0  0  0  0  0  0  0  0  0  0  0
  144.0878  136.4166  150.5788 H   0  0  0  0  0  0  0  0  0  0  0  0
  146.3863  135.4891  150.6108 H   0  0  0  0  0  0  0  0  0  0  0  0
  145.0529  132.8493  151.3644 H   0  0  0  0  0  0  0  0  0  0  0  0
  145.8955  133.1830  149.8671 H   0  0  0  0  0  0  0  0  0  0  0  0
  147.3564  131.9809  151.5045 H   0  0  0  0  0  0  0  0  0  0  0  0
  148.0143  133.5391  151.0684 H   0  0  0  0  0  0  0  0  0  0  0  0
  146.4744  132.8907  153.6391 H   0  0  0  0  0  0  0  0  0  0  0  0
  148.1943  133.2071  153.4614 H   0  0  0  0  0  0  0  0  0  0  0  0
  146.1871  135.1505  155.1957 H   0  0  0  0  0  0  0  0  0  0  0  0
  148.3510  135.3645  156.4137 H   0  0  0  0  0  0  0  0  0  0  0  0
  149.2285  135.1944  154.9029 H   0  0  0  0  0  0  0  0  0  0  0  0
  148.2605  133.8617  155.5479 H   0  0  0  0  0  0  0  0  0  0  0  0
  146.2582  137.3722  153.9626 H   0  0  0  0  0  0  0  0  0  0  0  0
  146.9320  137.4486  155.5744 H   0  0  0  0  0  0  0  0  0  0  0  0
  148.5926  137.2802  153.1202 H   0  0  0  0  0  0  0  0  0  0  0  0
  150.6140  138.1593  153.1380 H   0  0  0  0  0  0  0  0  0  0  0  0
  150.3454  139.8051  153.6888 H   0  0  0  0  0  0  0  0  0  0  0  0
  151.4046  140.2565  156.3285 H   0  0  0  0  0  0  0  0  0  0  0  0
  145.4506  136.3617  152.7209 H   0  0  0  0  0  0  0  0  0  0  0  0
  144.8273  134.7865  153.1423 H   0  0  0  0  0  0  0  0  0  0  0  0
  147.6580  135.3890  152.7030 H   0  0  0  0  0  0  0  0  0  0  0  0
  1  2  1  0  0  0  0
  1 20  1  0  0  0  0
  1 21  1  0  0  0  0
  1 22  1  0  0  0  0
  2 19  1  0  0  0  0
  2  3  1  0  0  0  0
  2 23  1  0  0  0  0
  3  4  1  0  0  0  0
  3 24  1  0  0  0  0
  3 25  1  0  0  0  0
  4  5  1  0  0  0  0
  4 26  1  0  0  0  0
  4 27  1  0  0  0  0
  5  6  1  0  0  0  0
  5 28  1  0  0  0  0
  5 29  1  0  0  0  0
  6  7  1  0  0  0  0
  6 19  1  0  0  0  0
  6 42  1  0  0  0  0
  7  8  1  0  0  0  0
  7  9  1  0  0  0  0
  7 30  1  0  0  0  0
  8 31  1  0  0  0  0
  8 32  1  0  0  0  0
  8 33  1  0  0  0  0
  9 10  1  0  0  0  0
  9 34  1  0  0  0  0
  9 35  1  0  0  0  0
 10 11  1  0  0  0  0
 10 36  1  0  0  0  0
 11 12  2  0  0  0  0
 11 13  1  0  0  0  0
 13 14  1  0  0  0  0
 13 37  1  0  0  0  0
 13 38  1  0  0  0  0
 14 18  1  0  0  0  0
 14 15  1  0  0  0  0
 15 16  2  0  0  0  0
 15 39  1  0  0  0  0
 16 17  1  0  0  0  0
 17 18  2  0  0  0  0
 19 40  1  0  0  0  0
 19 41  1  0  0  0  0
M  CHG  1   6   1
M  END
> <s_m_source_file>
AV-unprocessed.smi

> <i_m_source_file_index>
2095

> <i_lp_mmshare_version>
43012

> <i_f3d_flags>
0

> <s_epik_input>
W0NIM11bQ0BASF0xW0NIMl1bQ0gyXVtDSDJdTihbQ0gyXTEpW0NASF0oW0NIM10pW0NIMl1bTkhdQyg9TylbQ0gyXW4yW2NIXW5ubjI=

> <s_epik_cmdline>
J2VwaWtfcHl0aG9uJywgJy1waCcsICc3LjAnLCAnLXRuJywgJzgnLCAnLW1hJywgJzIwMCcsICctbWV0YWxfYmluZGluZycsICctaW1hZScsICc8aW5maWxlLm1hZT4nLCAnLW9tYWUnLCAnPG91dGZpbGUubWFlPic=

> <r_lp_tautomer_probability>
1

> <r_epik_Ionization_Penalty>
0.00268321

> <r_epik_Ionization_Penalty_Charging>
0.00267875

> <r_epik_Ionization_Penalty_Neutral>
4.46125e-06

> <r_epik_State_Penalty>
0.00186642

> <r_epik_Charging_Adjusted_Penalty>
0.00454517

> <i_epik_Tot_Q>
1

> <i_epik_Tot_abs_Q>
1

> <r_epik_Metal_State_Penalty>
-0

> <b_epik_Metal_Only>
0

> <s_lp_Force_Field>
OPLS_2005

> <r_lp_Energy>
25.5327

> <b_lp_Chiralities_Consistent>
1

> <s_lp_Variant>
AV-unprocessed.smi:2095-5

> <Gold.Version>
5.8.1

> <Gold.Id.Protein>
6NUR|6NUR_protein|mol2

> <Gold.PLP.Fitness>
42.0309

> <Gold.PLP.PLP>
-29.5353

> <Gold.PLP.part.hbond>
-5.1295

> <Gold.PLP.part.metal>
0.0000

> <Gold.PLP.part.buried>
-3.7345

> <Gold.PLP.part.nonpolar>
-21.4642

> <Gold.PLP.part.repulsive>
0.0944

> <Gold.PLP.ligand.clash>
0.0000

> <Gold.PLP.ligand.torsion>
0.5453

> <Gold.PLP.Chemscore.Hbond>
4.5075

> <Gold.PLP.Chemscore.CHOScore>
0.0000

> <Gold.PLP.Chemscore.Metal>
0.0000

> <Gold.Chemscore.Hbonds>
donor molecule, donor type, donor heavy atom, donor atom, acceptor molecule, acceptor atom, score
      L1  H     6    42       P1  7948  2.00
      L1  H    10    36       P1  7948  1.00
      P1  H  7997  8010       L1    16  1.00
      P1  H 10752 10763       L1    18  0.37

> <Gold.PLP.Chemscore.Internal.Correction>
0.0635

> <Gold.Rescore>
     Score         DG    S(hbond)    S(metal)    S(lipo)     H(rot)  DE(clash)    DE(int)     intcor
     13.24     -13.88       2.94        0.00      45.69       2.64       0.01       0.63       ----

> <Gold.Chemscore.Fitness>
13.2358

> <Gold.Chemscore.DG>
-13.8804

> <Gold.Chemscore.ZeroCoef>
-5.4800

> <Gold.Chemscore.Hbond>
2.9409

> <Gold.Chemscore.Metal>
0.0000

> <Gold.Chemscore.Lipo>
45.6948

> <Gold.Chemscore.Internal_Hbond>
0.0000

> <Gold.Chemscore.DEClash>
0.0106

> <Gold.Chemscore.DEInternal>
0.6340

> <Gold.Chemscore.Rot>
2.6439

> <Gold.Chemscore.Internal.Correction>
   9.000000E+99

> <Gold.Chemscore.Hbonds>
donor molecule, donor type, donor heavy atom, donor atom, acceptor molecule, acceptor atom, score
      L1  H     6    42       P1  7948  1.00
      L1  H    10    36       P1  7948  0.99
      P1  H  7997  8010       L1    16  0.45
      P1  H 10752 10763       L1    18  0.08

> <Gold.Chemscore.Hbond.Weighted>
-9.8225

> <Gold.Chemscore.Metal.Weighted>
-0.0000

> <Gold.Chemscore.Lipo.Weighted>
-5.3463

> <Gold.Chemscore.Internal_Hbond.Weighted>
0.0000

> <Gold.Chemscore.DEClash.Weighted>
0.0106

> <Gold.Chemscore.DEInternal.Weighted>
0.6340

> <Gold.Chemscore.Rot.Weighted>
6.7685

> <Gold.Chemscore.Internal.Correction.Weighted>
   9.000000E+99

> <Gold.Protein.RotatedTorsions>
[ 6907 6896 6895 6894 ] final  167.63 input  -60.11 | X-H torsion
[ 7974 7965 7964 7962 ] final   61.49 input  175.53 | X-H torsion
[ 8008 7997 7996 7995 ] final   79.32 input   59.86 | X-H torsion
[ 10167 10162 10161 10158 ] final -115.37 input  -65.29 | X-H torsion
[ 10718 10713 10712 10709 ] final  -95.90 input   66.30 | X-H torsion
[ 10763 10752 10751 10750 ] final   37.54 input  -60.55 | X-H torsion
[ 11005 11000 10999 10996 ] final  -18.55 input  -57.11 | X-H torsion

> <Gold.Protein.ActiveResidues>
 VAL166  LYS551  ARG553  GLY616  TRP617  ASP618  TYR619  PRO620  LYS621  CYS622 
 ASP623  PHE694  ASN695  SER759  ASP760  ASP761  ALA762  ILE779  LEU786  VAL792 
 PHE793  MET794  SER795  GLU796  ALA797  LYS798  CYS799  TRP800  GLU811  SER814 

> <Gold.Protein.RotatedAtoms>
  151.8603  133.3456  159.3701 H   0  0  0  0  0  0  0  0  0  0  0  0  # atno 6907 bound_to 6896
  150.7181  134.5213  159.5664 H   0  0  0  0  0  0  0  0  0  0  0  0  # atno 6908 bound_to 6896
  152.2725  134.7918  160.0462 H   0  0  0  0  0  0  0  0  0  0  0  0  # atno 6909 bound_to 6896
  145.8842  139.3465  143.0688 H   0  0  0  0  0  0  0  0  0  0  0  0  # atno 7974 bound_to 7965
  155.8681  140.3450  155.5802 H   0  0  0  0  0  0  0  0  0  0  0  0  # atno 8008 bound_to 7997
  155.7859  140.0865  157.2054 H   0  0  0  0  0  0  0  0  0  0  0  0  # atno 8009 bound_to 7997
  154.4015  140.1492  156.3093 H   0  0  0  0  0  0  0  0  0  0  0  0  # atno 8010 bound_to 7997
  140.0908  143.4701  152.1871 H   0  0  0  0  0  0  0  0  0  0  0  0  # atno 10167 bound_to 10162
  156.0052  130.5129  150.6146 H   0  0  0  0  0  0  0  0  0  0  0  0  # atno 10718 bound_to 10713
  153.0034  135.6275  154.2161 H   0  0  0  0  0  0  0  0  0  0  0  0  # atno 10763 bound_to 10752
  154.1904  135.2809  155.3025 H   0  0  0  0  0  0  0  0  0  0  0  0  # atno 10764 bound_to 10752
  154.5764  135.5661  153.7203 H   0  0  0  0  0  0  0  0  0  0  0  0  # atno 10765 bound_to 10752
  140.8279  133.8019  155.9727 H   0  0  0  0  0  0  0  0  0  0  0  0  # atno 11005 bound_to 11000
  145.8987  140.9257  143.0514 LP  0  0  0  0  0  0  0  0  0  0  0  0  # atno 17320 bound_to 7965
  144.6728  140.1003  143.7461 LP  0  0  0  0  0  0  0  0  0  0  0  0  # atno 17321 bound_to 7965
  139.5726  144.7471  151.3850 LP  0  0  0  0  0  0  0  0  0  0  0  0  # atno 17342 bound_to 10162
  140.7029  143.7586  150.7434 LP  0  0  0  0  0  0  0  0  0  0  0  0  # atno 17343 bound_to 10162
  157.3972  131.0804  151.1341 LP  0  0  0  0  0  0  0  0  0  0  0  0  # atno 17370 bound_to 10713
  157.2013  130.6396  149.5740 LP  0  0  0  0  0  0  0  0  0  0  0  0  # atno 17371 bound_to 10713
  140.9030  134.2355  157.5031 LP  0  0  0  0  0  0  0  0  0  0  0  0  # atno 17394 bound_to 11000
  139.8706  134.9715  156.4739 LP  0  0  0  0  0  0  0  0  0  0  0  0  # atno 17395 bound_to 11000

$$$$
