AV-unprocessed.smi:234|AV-procd|sdf|1790|dock5
  -GOLD-   2262020353D 1   1.00000     0.00000
 Structure written by MMmdl.
 59 62  0  0  0  0  0  0  0  0  1 V2000
  151.4680  141.6843  159.0336 C   0  0  0  0  0  0  0  0  0  0  0  0
  150.8765  142.1666  157.7073 C   0  0  0  0  0  0  0  0  0  0  0  0
  150.9996  141.1307  156.7476 O   0  0  0  0  0  0  0  0  0  0  0  0
  149.8797  141.0446  155.8802 C   0  0  1  0  0  0  0  0  0  0  0  0
  149.8705  139.8119  154.9721 C   0  0  0  0  0  0  0  0  0  0  0  0
  148.3576  139.7946  155.2061 C   0  0  1  0  0  0  0  0  0  0  0  0
  147.7881  138.4473  155.2907 N   0  0  0  0  0  0  0  0  0  0  0  0
  148.6759  137.3969  155.7724 C   0  0  0  0  0  0  0  0  0  0  0  0
  147.1127  138.0303  154.1943 C   0  0  0  0  0  0  0  0  0  0  0  0
  147.1753  138.7436  153.0384 N   0  0  0  0  0  0  0  0  0  0  0  0
  146.5055  138.3282  151.9592 C   0  0  0  0  0  0  0  0  0  0  0  0
  145.7325  137.2486  151.8202 N   0  0  0  0  0  0  0  0  0  0  0  0
  145.6755  136.5284  152.9774 C   0  0  0  0  0  0  0  0  0  0  0  0
  146.3364  136.8414  154.1974 C   0  0  0  0  0  0  0  0  0  0  0  0
  146.0496  135.8788  155.1568 N   0  0  0  0  0  0  0  0  0  0  0  0
  145.2583  135.0445  154.5393 C   0  0  0  0  0  0  0  0  0  0  0  0
  144.9748  135.3624  153.2295 N   0  0  0  0  0  0  0  0  0  0  0  0
  144.1228  134.6190  152.3156 C   0  0  0  0  0  0  0  0  0  0  0  0
  144.9063  133.8901  151.1977 C   0  0  2  0  0  0  0  0  0  0  0  0
  145.6148  134.8537  150.4339 O   0  0  0  0  0  0  0  0  0  0  0  0
  144.0287  133.0864  150.2489 C   0  0  0  0  0  0  0  0  0  0  0  0
  144.9964  132.0388  149.7137 C   0  0  0  0  0  0  0  0  0  0  0  0
  145.8125  131.7088  150.8287 O   0  0  0  0  0  0  0  0  0  0  0  0
  145.8629  132.8040  151.7422 C   0  0  1  0  0  0  0  0  0  0  0  0
  147.3164  133.2337  151.9990 C   0  0  0  0  0  0  0  0  0  0  0  0
  148.6062  140.4989  156.5725 C   0  0  0  0  0  0  0  0  0  0  0  0
  148.8552  139.6067  157.8029 C   0  0  0  0  0  0  0  0  0  0  0  0
  147.5839  141.5573  156.9860 C   0  0  0  0  0  0  0  0  0  0  0  0
  151.3957  142.4591  159.7968 H   0  0  0  0  0  0  0  0  0  0  0  0
  152.5203  141.4229  158.9201 H   0  0  0  0  0  0  0  0  0  0  0  0
  150.9408  140.8031  159.4001 H   0  0  0  0  0  0  0  0  0  0  0  0
  149.8268  142.4310  157.8417 H   0  0  0  0  0  0  0  0  0  0  0  0
  151.4025  143.0610  157.3710 H   0  0  0  0  0  0  0  0  0  0  0  0
  149.6877  141.9721  155.3349 H   0  0  0  0  0  0  0  0  0  0  0  0
  150.1703  140.0032  153.9416 H   0  0  0  0  0  0  0  0  0  0  0  0
  150.3982  138.9564  155.3971 H   0  0  0  0  0  0  0  0  0  0  0  0
  147.8456  140.4451  154.4936 H   0  0  0  0  0  0  0  0  0  0  0  0
  148.1616  136.4367  155.8302 H   0  0  0  0  0  0  0  0  0  0  0  0
  149.0423  137.6333  156.7713 H   0  0  0  0  0  0  0  0  0  0  0  0
  149.5360  137.2868  155.1111 H   0  0  0  0  0  0  0  0  0  0  0  0
  146.6011  138.9508  151.0820 H   0  0  0  0  0  0  0  0  0  0  0  0
  144.8518  134.1709  155.0277 H   0  0  0  0  0  0  0  0  0  0  0  0
  143.5362  133.9039  152.8938 H   0  0  0  0  0  0  0  0  0  0  0  0
  143.4073  135.3182  151.8808 H   0  0  0  0  0  0  0  0  0  0  0  0
  145.6131  134.5806  149.5292 H   0  0  0  0  0  0  0  0  0  0  0  0
  143.2320  132.5874  150.8023 H   0  0  0  0  0  0  0  0  0  0  0  0
  143.5666  133.6845  149.4624 H   0  0  0  0  0  0  0  0  0  0  0  0
  144.4890  131.1605  149.3145 H   0  0  0  0  0  0  0  0  0  0  0  0
  145.6233  132.4586  148.9258 H   0  0  0  0  0  0  0  0  0  0  0  0
  145.4564  132.4163  152.6773 H   0  0  0  0  0  0  0  0  0  0  0  0
  147.3603  134.0765  152.6892 H   0  0  0  0  0  0  0  0  0  0  0  0
  147.8203  133.5235  151.0766 H   0  0  0  0  0  0  0  0  0  0  0  0
  147.8873  132.4157  152.4388 H   0  0  0  0  0  0  0  0  0  0  0  0
  147.9299  139.1749  158.1846 H   0  0  0  0  0  0  0  0  0  0  0  0
  149.3033  140.1731  158.6198 H   0  0  0  0  0  0  0  0  0  0  0  0
  149.5278  138.7779  157.5823 H   0  0  0  0  0  0  0  0  0  0  0  0
  146.6656  141.1056  157.3624 H   0  0  0  0  0  0  0  0  0  0  0  0
  147.3079  142.1958  156.1466 H   0  0  0  0  0  0  0  0  0  0  0  0
  147.9770  142.2045  157.7707 H   0  0  0  0  0  0  0  0  0  0  0  0
  1  2  1  0  0  0  0
  1 29  1  0  0  0  0
  1 30  1  0  0  0  0
  1 31  1  0  0  0  0
  2  3  1  0  0  0  0
  2 32  1  0  0  0  0
  2 33  1  0  0  0  0
  3  4  1  0  0  0  0
  4 26  1  0  0  0  0
  4  5  1  0  0  0  0
  4 34  1  0  0  0  0
  5  6  1  0  0  0  0
  5 35  1  0  0  0  0
  5 36  1  0  0  0  0
  6  7  1  0  0  0  0
  6 26  1  0  0  0  0
  6 37  1  0  0  0  0
  7  8  1  0  0  0  0
  7  9  1  0  0  0  0
  8 38  1  0  0  0  0
  8 39  1  0  0  0  0
  8 40  1  0  0  0  0
  9 14  1  0  0  0  0
  9 10  2  0  0  0  0
 10 11  1  0  0  0  0
 11 12  2  0  0  0  0
 11 41  1  0  0  0  0
 12 13  1  0  0  0  0
 13 17  1  0  0  0  0
 13 14  2  0  0  0  0
 14 15  1  0  0  0  0
 15 16  2  0  0  0  0
 16 17  1  0  0  0  0
 16 42  1  0  0  0  0
 17 18  1  0  0  0  0
 18 19  1  0  0  0  0
 18 43  1  0  0  0  0
 18 44  1  0  0  0  0
 19 24  1  0  0  0  0
 19 20  1  0  0  0  0
 19 21  1  0  0  0  0
 20 45  1  0  0  0  0
 21 22  1  0  0  0  0
 21 46  1  0  0  0  0
 21 47  1  0  0  0  0
 22 23  1  0  0  0  0
 22 48  1  0  0  0  0
 22 49  1  0  0  0  0
 23 24  1  0  0  0  0
 24 25  1  0  0  0  0
 24 50  1  0  0  0  0
 25 51  1  0  0  0  0
 25 52  1  0  0  0  0
 25 53  1  0  0  0  0
 26 27  1  0  0  0  0
 26 28  1  0  0  0  0
 27 54  1  0  0  0  0
 27 55  1  0  0  0  0
 27 56  1  0  0  0  0
 28 57  1  0  0  0  0
 28 58  1  0  0  0  0
 28 59  1  0  0  0  0
M  END
> <s_m_source_file>
AV-unprocessed.smi

> <i_m_source_file_index>
234

> <i_lp_mmshare_version>
43012

> <i_f3d_flags>
0

> <s_epik_input>
W0NIM11bQ0gyXU9bQ0BASF0oQzEoW0NIM10pW0NIM10pW0NIMl1bQ0BIXTFOKFtDSDNdKWMobltjSF1uMiljKGMyMyluW2NIXW4zW0NIMl1bQ0BAXTQoW09IXSlbQ0gyXVtDSDJdT1tDQEhdNFtDSDNd

> <s_epik_cmdline>
J2VwaWtfcHl0aG9uJywgJy1waCcsICc3LjAnLCAnLXRuJywgJzgnLCAnLW1hJywgJzIwMCcsICctbWV0YWxfYmluZGluZycsICctaW1hZScsICc8aW5maWxlLm1hZT4nLCAnLW9tYWUnLCAnPG91dGZpbGUubWFlPic=

> <r_lp_tautomer_probability>
1

> <r_epik_Ionization_Penalty>
0.00349132

> <r_epik_Ionization_Penalty_Charging>
0

> <r_epik_Ionization_Penalty_Neutral>
0.00349132

> <r_epik_State_Penalty>
0.00242418

> <r_epik_Charging_Adjusted_Penalty>
0.00242418

> <i_epik_Tot_Q>
0

> <i_epik_Tot_abs_Q>
0

> <r_epik_Metal_State_Penalty>
-0

> <b_epik_Metal_Only>
0

> <s_lp_Force_Field>
OPLS_2005

> <r_lp_Energy>
47.69

> <b_lp_Chiralities_Consistent>
1

> <s_lp_Variant>
AV-unprocessed.smi:234-6

> <Gold.Version>
5.8.1

> <Gold.Id.Protein>
6NUR|6NUR_protein|mol2

> <Gold.PLP.Fitness>
37.0144

> <Gold.PLP.PLP>
-35.6909

> <Gold.PLP.part.hbond>
-1.0000

> <Gold.PLP.part.metal>
0.0000

> <Gold.PLP.part.buried>
-6.1995

> <Gold.PLP.part.nonpolar>
-29.9128

> <Gold.PLP.part.repulsive>
1.8732

> <Gold.PLP.ligand.clash>
0.0000

> <Gold.PLP.ligand.torsion>
1.2279

> <Gold.PLP.Chemscore.Hbond>
1.0000

> <Gold.PLP.Chemscore.CHOScore>
0.0000

> <Gold.PLP.Chemscore.Metal>
0.0000

> <Gold.Chemscore.Hbonds>
donor molecule, donor type, donor heavy atom, donor atom, acceptor molecule, acceptor atom, score
      L1  H    20    45       P1  7921  1.00

> <Gold.PLP.Chemscore.Internal.Correction>
0.7794

> <Gold.Rescore>
     Score         DG    S(hbond)    S(metal)    S(lipo)     H(rot)  DE(clash)    DE(int)     intcor
     10.59     -12.09       0.95        0.00      86.80       2.62       0.28       1.21       ----

> <Gold.Chemscore.Fitness>
10.5918

> <Gold.Chemscore.DG>
-12.0883

> <Gold.Chemscore.ZeroCoef>
-5.4800

> <Gold.Chemscore.Hbond>
0.9474

> <Gold.Chemscore.Metal>
0.0000

> <Gold.Chemscore.Lipo>
86.8042

> <Gold.Chemscore.Internal_Hbond>
0.0000

> <Gold.Chemscore.DEClash>
0.2845

> <Gold.Chemscore.DEInternal>
1.2120

> <Gold.Chemscore.Rot>
2.6219

> <Gold.Chemscore.Internal.Correction>
   9.000000E+99

> <Gold.Chemscore.Hbonds>
donor molecule, donor type, donor heavy atom, donor atom, acceptor molecule, acceptor atom, score
      L1  H    20    45       P1  7921  0.87

> <Gold.Chemscore.Hbond.Weighted>
-3.1643

> <Gold.Chemscore.Metal.Weighted>
-0.0000

> <Gold.Chemscore.Lipo.Weighted>
-10.1561

> <Gold.Chemscore.Internal_Hbond.Weighted>
0.0000

> <Gold.Chemscore.DEClash.Weighted>
0.2845

> <Gold.Chemscore.DEInternal.Weighted>
1.2120

> <Gold.Chemscore.Rot.Weighted>
6.7121

> <Gold.Chemscore.Internal.Correction.Weighted>
   9.000000E+99

> <Gold.Protein.RotatedTorsions>
[ 6907 6896 6895 6894 ] final  142.63 input  -60.11 | X-H torsion
[ 7974 7965 7964 7962 ] final   31.01 input  175.53 | X-H torsion
[ 8008 7997 7996 7995 ] final   32.27 input   59.86 | X-H torsion
[ 10167 10162 10161 10158 ] final  -67.21 input  -65.29 | X-H torsion
[ 10718 10713 10712 10709 ] final   31.41 input   66.30 | X-H torsion
[ 10763 10752 10751 10750 ] final  113.54 input  -60.55 | X-H torsion
[ 11005 11000 10999 10996 ] final   83.21 input  -57.11 | X-H torsion

> <Gold.Protein.ActiveResidues>
 VAL166  LYS551  ARG553  GLY616  TRP617  ASP618  TYR619  PRO620  LYS621  CYS622 
 ASP623  PHE694  ASN695  SER759  ASP760  ASP761  ALA762  ILE779  LEU786  VAL792 
 PHE793  MET794  SER795  GLU796  ALA797  LYS798  CYS799  TRP800  GLU811  SER814 

> <Gold.Protein.RotatedAtoms>
  152.2163  133.4949  159.5137 H   0  0  0  0  0  0  0  0  0  0  0  0  # atno 6907 bound_to 6896
  150.7002  134.1401  159.4111 H   0  0  0  0  0  0  0  0  0  0  0  0  # atno 6908 bound_to 6896
  151.9322  135.0251  160.0580 H   0  0  0  0  0  0  0  0  0  0  0  0  # atno 6909 bound_to 6896
  146.1577  139.6713  142.9055 H   0  0  0  0  0  0  0  0  0  0  0  0  # atno 7974 bound_to 7965
  155.1199  140.3247  155.4500 H   0  0  0  0  0  0  0  0  0  0  0  0  # atno 8008 bound_to 7997
  156.2666  140.2029  156.6269 H   0  0  0  0  0  0  0  0  0  0  0  0  # atno 8009 bound_to 7997
  154.6692  140.0538  157.0134 H   0  0  0  0  0  0  0  0  0  0  0  0  # atno 8010 bound_to 7997
  140.5600  143.2312  151.6747 H   0  0  0  0  0  0  0  0  0  0  0  0  # atno 10167 bound_to 10162
  157.2721  130.7213  149.6510 H   0  0  0  0  0  0  0  0  0  0  0  0  # atno 10718 bound_to 10713
  153.4940  135.3652  155.2506 H   0  0  0  0  0  0  0  0  0  0  0  0  # atno 10763 bound_to 10752
  154.8751  135.3984  154.3556 H   0  0  0  0  0  0  0  0  0  0  0  0  # atno 10764 bound_to 10752
  153.4180  135.7079  153.6379 H   0  0  0  0  0  0  0  0  0  0  0  0  # atno 10765 bound_to 10752
  139.9038  134.8128  156.2278 H   0  0  0  0  0  0  0  0  0  0  0  0  # atno 11005 bound_to 11000
  145.4668  141.0435  143.2721 LP  0  0  0  0  0  0  0  0  0  0  0  0  # atno 17320 bound_to 7965
  144.7985  139.6188  143.7082 LP  0  0  0  0  0  0  0  0  0  0  0  0  # atno 17321 bound_to 7965
  139.5065  144.3678  152.0500 LP  0  0  0  0  0  0  0  0  0  0  0  0  # atno 17342 bound_to 10162
  140.2803  144.3867  150.6121 LP  0  0  0  0  0  0  0  0  0  0  0  0  # atno 17343 bound_to 10162
  155.9663  130.4364  150.5133 LP  0  0  0  0  0  0  0  0  0  0  0  0  # atno 17370 bound_to 10713
  157.3060  131.0654  151.2035 LP  0  0  0  0  0  0  0  0  0  0  0  0  # atno 17371 bound_to 10713
  141.0365  133.6960  156.1521 LP  0  0  0  0  0  0  0  0  0  0  0  0  # atno 17394 bound_to 11000
  140.7020  134.4554  157.5586 LP  0  0  0  0  0  0  0  0  0  0  0  0  # atno 17395 bound_to 11000

$$$$
