AV-unprocessed.smi:1802|AV-procd|sdf|7271|dock10
  -GOLD-   22720 8533D 1   1.00000     0.00000
 Structure written by MMmdl.
 41 42  0  0  0  0  0  0  0  0  2 V2000
  147.6138  132.7479  152.6361 C   0  0  0  0  0  0  0  0  0  0  0  0
  146.0877  132.6100  152.5406 C   0  0  2  0  0  0  0  0  0  0  0  0
  145.6370  132.3584  151.0920 C   0  0  0  0  0  0  0  0  0  0  0  0
  144.1093  132.2465  151.0243 C   0  0  0  0  0  0  0  0  0  0  0  0
  143.4416  133.4889  151.6337 C   0  0  0  0  0  0  0  0  0  0  0  0
  143.8897  133.7076  153.0336 N   0  3  2  0  0  0  0  0  0  0  0  0
  143.1558  134.8232  153.6837 C   0  0  0  0  0  0  0  0  0  0  0  0
  142.9614  136.0315  152.7511 C   0  0  0  0  0  0  0  0  0  0  0  0
  144.2571  136.4056  152.0120 C   0  0  0  0  0  0  0  0  0  0  0  0
  144.6892  137.7629  152.3257 N   0  0  0  0  0  0  0  0  0  0  0  0
  145.8502  138.0800  152.9171 C   0  0  0  0  0  0  0  0  0  0  0  0
  146.6714  137.2404  153.2873 O   0  0  0  0  0  0  0  0  0  0  0  0
  145.9860  139.4118  153.0448 N   0  0  0  0  0  0  0  0  0  0  0  0
  147.0796  140.1356  153.5900 C   0  0  0  0  0  0  0  0  0  0  0  0
  148.2557  139.5753  153.9136 N   0  0  0  0  0  0  0  0  0  0  0  0
  149.1518  140.5060  154.4230 N   0  0  0  0  0  0  0  0  0  0  0  0
  148.6169  141.7295  154.4644 C   0  0  0  0  0  0  0  0  0  0  0  0
  146.9657  141.8648  153.8849 S   0  0  0  0  0  0  0  0  0  0  0  0
  145.3693  133.8474  153.1173 C   0  0  0  0  0  0  0  0  0  0  0  0
  147.9732  133.5981  152.0555 H   0  0  0  0  0  0  0  0  0  0  0  0
  148.1124  131.8538  152.2607 H   0  0  0  0  0  0  0  0  0  0  0  0
  147.9321  132.8917  153.6690 H   0  0  0  0  0  0  0  0  0  0  0  0
  145.7994  131.7443  153.1390 H   0  0  0  0  0  0  0  0  0  0  0  0
  145.9741  133.1730  150.4492 H   0  0  0  0  0  0  0  0  0  0  0  0
  146.0932  131.4464  150.7052 H   0  0  0  0  0  0  0  0  0  0  0  0
  143.7906  132.1222  149.9889 H   0  0  0  0  0  0  0  0  0  0  0  0
  143.7816  131.3536  151.5586 H   0  0  0  0  0  0  0  0  0  0  0  0
  143.6698  134.3723  151.0350 H   0  0  0  0  0  0  0  0  0  0  0  0
  142.3589  133.3591  151.6073 H   0  0  0  0  0  0  0  0  0  0  0  0
  142.1964  134.4663  154.0617 H   0  0  0  0  0  0  0  0  0  0  0  0
  143.7215  135.1612  154.5532 H   0  0  0  0  0  0  0  0  0  0  0  0
  142.1809  135.8081  152.0224 H   0  0  0  0  0  0  0  0  0  0  0  0
  142.6153  136.8936  153.3204 H   0  0  0  0  0  0  0  0  0  0  0  0
  145.0527  135.6982  152.2532 H   0  0  0  0  0  0  0  0  0  0  0  0
  144.1028  136.3419  150.9346 H   0  0  0  0  0  0  0  0  0  0  0  0
  144.0712  138.5136  152.0531 H   0  0  0  0  0  0  0  0  0  0  0  0
  145.2245  139.9764  152.6983 H   0  0  0  0  0  0  0  0  0  0  0  0
  149.1991  142.5583  154.8390 H   0  0  0  0  0  0  0  0  0  0  0  0
  145.6748  133.9774  154.1549 H   0  0  0  0  0  0  0  0  0  0  0  0
  145.6794  134.7472  152.5837 H   0  0  0  0  0  0  0  0  0  0  0  0
  143.6439  132.8694  153.5407 H   0  0  0  0  0  0  0  0  0  0  0  0
  1  2  1  0  0  0  0
  1 20  1  0  0  0  0
  1 21  1  0  0  0  0
  1 22  1  0  0  0  0
  2 19  1  0  0  0  0
  2  3  1  0  0  0  0
  2 23  1  0  0  0  0
  3  4  1  0  0  0  0
  3 24  1  0  0  0  0
  3 25  1  0  0  0  0
  4  5  1  0  0  0  0
  4 26  1  0  0  0  0
  4 27  1  0  0  0  0
  5  6  1  0  0  0  0
  5 28  1  0  0  0  0
  5 29  1  0  0  0  0
  6  7  1  0  0  0  0
  6 19  1  0  0  0  0
  6 41  1  0  0  0  0
  7  8  1  0  0  0  0
  7 30  1  0  0  0  0
  7 31  1  0  0  0  0
  8  9  1  0  0  0  0
  8 32  1  0  0  0  0
  8 33  1  0  0  0  0
  9 10  1  0  0  0  0
  9 34  1  0  0  0  0
  9 35  1  0  0  0  0
 10 11  1  0  0  0  0
 10 36  1  0  0  0  0
 11 12  2  0  0  0  0
 11 13  1  0  0  0  0
 13 14  1  0  0  0  0
 13 37  1  0  0  0  0
 14 18  1  0  0  0  0
 14 15  2  0  0  0  0
 15 16  1  0  0  0  0
 16 17  2  0  0  0  0
 17 18  1  0  0  0  0
 17 38  1  0  0  0  0
 19 39  1  0  0  0  0
 19 40  1  0  0  0  0
M  CHG  1   6   1
M  END
> <s_m_source_file>
AV-unprocessed.smi

> <i_m_source_file_index>
1802

> <i_lp_mmshare_version>
43012

> <i_f3d_flags>
0

> <s_epik_input>
W0NIM11bQ0BASF0xW0NIMl1bQ0gyXVtDSDJdTihbQ0gyXTEpW0NIMl1bQ0gyXVtDSDJdW05IXUMoPU8pW05IXWMybm5bY0hdczI=

> <s_epik_cmdline>
J2VwaWtfcHl0aG9uJywgJy1waCcsICc3LjAnLCAnLXRuJywgJzgnLCAnLW1hJywgJzIwMCcsICctbWV0YWxfYmluZGluZycsICctaW1hZScsICc8aW5maWxlLm1hZT4nLCAnLW9tYWUnLCAnPG91dGZpbGUubWFlPic=

> <r_lp_tautomer_probability>
1

> <r_epik_Ionization_Penalty>
0.00272894

> <r_epik_Ionization_Penalty_Charging>
0.000288442

> <r_epik_Ionization_Penalty_Neutral>
0.0024405

> <r_epik_State_Penalty>
-0

> <r_epik_Charging_Adjusted_Penalty>
0.000288442

> <i_epik_Tot_Q>
1

> <i_epik_Tot_abs_Q>
1

> <r_epik_Metal_State_Penalty>
0.350525

> <b_epik_Metal_Only>
0

> <s_lp_Force_Field>
OPLS_2005

> <r_lp_Energy>
15.5864

> <b_lp_Chiralities_Consistent>
1

> <s_lp_Variant>
AV-unprocessed.smi:1802-1

> <Gold.Version>
5.8.1

> <Gold.Id.Protein>
6NUR|6NUR_protein|mol2

> <Gold.PLP.Fitness>
44.5666

> <Gold.PLP.PLP>
-31.2269

> <Gold.PLP.part.hbond>
-4.0000

> <Gold.PLP.part.metal>
0.0000

> <Gold.PLP.part.buried>
-4.5668

> <Gold.PLP.part.nonpolar>
-24.8074

> <Gold.PLP.part.repulsive>
2.9645

> <Gold.PLP.ligand.clash>
0.0000

> <Gold.PLP.ligand.torsion>
0.6642

> <Gold.PLP.Chemscore.Hbond>
3.8640

> <Gold.PLP.Chemscore.CHOScore>
1.0000

> <Gold.PLP.Chemscore.Metal>
0.0000

> <Gold.Chemscore.Hbonds>
donor molecule, donor type, donor heavy atom, donor atom, acceptor molecule, acceptor atom, score
      L1  H     6    41       P1 10957  2.00
      L1  H    10    36       P1 10175  0.85
      L1  H    13    37       P1 10175  1.00
      L1  C    17    38       P1  8028  1.00

> <Gold.PLP.Chemscore.Internal.Correction>
0.0761

> <Gold.Rescore>
     Score         DG    S(hbond)    S(metal)    S(lipo)     H(rot)  DE(clash)    DE(int)     intcor
     13.94     -16.92       2.92        0.00      57.77       1.98       0.04       2.94       ----

> <Gold.Chemscore.Fitness>
13.9362

> <Gold.Chemscore.DG>
-16.9162

> <Gold.Chemscore.ZeroCoef>
-5.4800

> <Gold.Chemscore.Hbond>
2.9173

> <Gold.Chemscore.Metal>
0.0000

> <Gold.Chemscore.Lipo>
57.7726

> <Gold.Chemscore.Internal_Hbond>
0.0000

> <Gold.Chemscore.DEClash>
0.0414

> <Gold.Chemscore.DEInternal>
2.9386

> <Gold.Chemscore.Rot>
1.9793

> <Gold.Chemscore.Internal.Correction>
   9.000000E+99

> <Gold.Chemscore.Hbonds>
donor molecule, donor type, donor heavy atom, donor atom, acceptor molecule, acceptor atom, score
      L1  H     6    41       P1 10957  0.77
      L1  H    10    36       P1 10175  0.82
      L1  H    13    37       P1 10175  0.98

> <Gold.Chemscore.Hbond.Weighted>
-9.7437

> <Gold.Chemscore.Metal.Weighted>
-0.0000

> <Gold.Chemscore.Lipo.Weighted>
-6.7594

> <Gold.Chemscore.Internal_Hbond.Weighted>
0.0000

> <Gold.Chemscore.DEClash.Weighted>
0.0414

> <Gold.Chemscore.DEInternal.Weighted>
2.9386

> <Gold.Chemscore.Rot.Weighted>
5.0670

> <Gold.Chemscore.Internal.Correction.Weighted>
   9.000000E+99

> <Gold.Protein.RotatedTorsions>
[ 6907 6896 6895 6894 ] final  -55.21 input  -60.11 | X-H torsion
[ 7974 7965 7964 7962 ] final   27.90 input  175.53 | X-H torsion
[ 8008 7997 7996 7995 ] final  170.79 input   59.86 | X-H torsion
[ 10167 10162 10161 10158 ] final   54.90 input  -65.29 | X-H torsion
[ 10718 10713 10712 10709 ] final  157.55 input   66.30 | X-H torsion
[ 10763 10752 10751 10750 ] final  -57.43 input  -60.55 | X-H torsion
[ 11005 11000 10999 10996 ] final -170.92 input  -57.11 | X-H torsion

> <Gold.Protein.ActiveResidues>
 VAL166  LYS551  ARG553  GLY616  TRP617  ASP618  TYR619  PRO620  LYS621  CYS622 
 ASP623  PHE694  ASN695  SER759  ASP760  ASP761  ALA762  ILE779  LEU786  VAL792 
 PHE793  MET794  SER795  GLU796  ALA797  LYS798  CYS799  TRP800  GLU811  SER814 

> <Gold.Protein.RotatedAtoms>
  150.8271  134.7507  159.6821 H   0  0  0  0  0  0  0  0  0  0  0  0  # atno 6907 bound_to 6896
  152.4380  134.5644  159.9913 H   0  0  0  0  0  0  0  0  0  0  0  0  # atno 6908 bound_to 6896
  151.5813  133.3340  159.3045 H   0  0  0  0  0  0  0  0  0  0  0  0  # atno 6909 bound_to 6896
  146.1759  139.7129  142.8935 H   0  0  0  0  0  0  0  0  0  0  0  0  # atno 7974 bound_to 7965
  156.1332  140.1528  156.9034 H   0  0  0  0  0  0  0  0  0  0  0  0  # atno 8008 bound_to 7997
  154.4926  140.0847  156.7667 H   0  0  0  0  0  0  0  0  0  0  0  0  # atno 8009 bound_to 7997
  155.4217  140.3423  155.4274 H   0  0  0  0  0  0  0  0  0  0  0  0  # atno 8010 bound_to 7997
  140.2252  144.3746  150.6435 H   0  0  0  0  0  0  0  0  0  0  0  0  # atno 10167 bound_to 10162
  157.1899  131.0652  151.2085 H   0  0  0  0  0  0  0  0  0  0  0  0  # atno 10718 bound_to 10713
  154.2222  135.6375  153.5148 H   0  0  0  0  0  0  0  0  0  0  0  0  # atno 10763 bound_to 10752
  152.9966  135.5499  154.6101 H   0  0  0  0  0  0  0  0  0  0  0  0  # atno 10764 bound_to 10752
  154.5564  135.2905  155.0934 H   0  0  0  0  0  0  0  0  0  0  0  0  # atno 10765 bound_to 10752
  140.5141  134.5773  157.5028 H   0  0  0  0  0  0  0  0  0  0  0  0  # atno 11005 bound_to 11000
  145.4214  141.0407  143.2962 LP  0  0  0  0  0  0  0  0  0  0  0  0  # atno 17320 bound_to 7965
  144.8235  139.5750  143.6976 LP  0  0  0  0  0  0  0  0  0  0  0  0  # atno 17321 bound_to 7965
  140.6225  143.2178  151.6664 LP  0  0  0  0  0  0  0  0  0  0  0  0  # atno 17342 bound_to 10162
  139.5129  144.3459  152.0697 LP  0  0  0  0  0  0  0  0  0  0  0  0  # atno 17343 bound_to 10162
  157.3871  130.7262  149.6671 LP  0  0  0  0  0  0  0  0  0  0  0  0  # atno 17370 bound_to 10713
  155.9713  130.4156  150.4192 LP  0  0  0  0  0  0  0  0  0  0  0  0  # atno 17371 bound_to 10713
  139.9642  134.7401  156.0173 LP  0  0  0  0  0  0  0  0  0  0  0  0  # atno 17394 bound_to 11000
  141.1370  133.6573  156.3621 LP  0  0  0  0  0  0  0  0  0  0  0  0  # atno 17395 bound_to 11000

$$$$
