AV-unprocessed.smi:356|AV-procd|sdf|2413|dock2
  -GOLD-   2262022343D 1   1.00000     0.00000
 Structure written by MMmdl.
 42 44  0  0  0  0  0  0  0  0  2 V2000
  149.6926  141.3547  155.0049 C   0  0  0  0  0  0  0  0  0  0  0  0
  150.4681  141.7342  156.2215 C   0  0  0  0  0  0  0  0  0  0  0  0
  150.4283  142.9414  156.8533 N   0  3  0  0  0  0  0  0  0  0  0  0
  151.2874  142.9272  157.9534 C   0  0  0  0  0  0  0  0  0  0  0  0
  151.5841  143.9108  158.8921 C   0  0  0  0  0  0  0  0  0  0  0  0
  152.5128  143.5671  159.8966 C   0  0  0  0  0  0  0  0  0  0  0  0
  153.1071  142.2890  159.9415 C   0  0  0  0  0  0  0  0  0  0  0  0
  152.7987  141.3001  158.9841 C   0  0  0  0  0  0  0  0  0  0  0  0
  151.8795  141.6484  157.9951 C   0  0  0  0  0  0  0  0  0  0  0  0
  151.3437  140.9471  156.9100 N   0  0  0  0  0  0  0  0  0  0  0  0
  151.7624  139.5566  156.6753 C   0  0  0  0  0  0  0  0  0  0  0  0
  151.9371  139.2259  155.1799 C   0  0  1  0  0  0  0  0  0  0  0  0
  153.2472  139.5731  154.7776 O   0  0  0  0  0  0  0  0  0  0  0  0
  151.7226  137.7242  154.9069 C   0  0  0  0  0  0  0  0  0  0  0  0
  150.4345  137.1800  155.3415 N   0  0  0  0  0  0  0  0  0  0  0  0
  150.2864  135.7570  155.0390 C   0  0  0  0  0  0  0  0  0  0  0  0
  148.9128  135.2165  155.4742 C   0  0  0  0  0  0  0  0  0  0  0  0
  147.8800  135.9769  154.8564 O   0  0  0  0  0  0  0  0  0  0  0  0
  147.9608  137.3639  155.1666 C   0  0  0  0  0  0  0  0  0  0  0  0
  149.3300  137.9095  154.7264 C   0  0  0  0  0  0  0  0  0  0  0  0
  149.0535  142.1779  154.6849 H   0  0  0  0  0  0  0  0  0  0  0  0
  149.0640  140.4889  155.2130 H   0  0  0  0  0  0  0  0  0  0  0  0
  150.3711  141.1046  154.1891 H   0  0  0  0  0  0  0  0  0  0  0  0
  151.1302  144.8904  158.8598 H   0  0  0  0  0  0  0  0  0  0  0  0
  152.7745  144.2982  160.6478 H   0  0  0  0  0  0  0  0  0  0  0  0
  153.8142  142.0624  160.7264 H   0  0  0  0  0  0  0  0  0  0  0  0
  153.2586  140.3238  159.0266 H   0  0  0  0  0  0  0  0  0  0  0  0
  152.6994  139.3974  157.2104 H   0  0  0  0  0  0  0  0  0  0  0  0
  151.0301  138.8939  157.1383 H   0  0  0  0  0  0  0  0  0  0  0  0
  151.2322  139.8266  154.6072 H   0  0  0  0  0  0  0  0  0  0  0  0
  153.3446  139.3514  153.8636 H   0  0  0  0  0  0  0  0  0  0  0  0
  151.8384  137.5589  153.8345 H   0  0  0  0  0  0  0  0  0  0  0  0
  152.5257  137.1571  155.3802 H   0  0  0  0  0  0  0  0  0  0  0  0
  150.4159  135.5904  153.9686 H   0  0  0  0  0  0  0  0  0  0  0  0
  151.0584  135.1768  155.5421 H   0  0  0  0  0  0  0  0  0  0  0  0
  148.8075  134.1709  155.1845 H   0  0  0  0  0  0  0  0  0  0  0  0
  148.8064  135.2604  156.5593 H   0  0  0  0  0  0  0  0  0  0  0  0
  147.1583  137.8920  154.6514 H   0  0  0  0  0  0  0  0  0  0  0  0
  147.8100  137.5152  156.2366 H   0  0  0  0  0  0  0  0  0  0  0  0
  149.3940  138.9665  154.9865 H   0  0  0  0  0  0  0  0  0  0  0  0
  149.4076  137.8509  153.6395 H   0  0  0  0  0  0  0  0  0  0  0  0
  149.8529  143.7172  156.5517 H   0  0  0  0  0  0  0  0  0  0  0  0
  1  2  1  0  0  0  0
  1 21  1  0  0  0  0
  1 22  1  0  0  0  0
  1 23  1  0  0  0  0
  2 10  1  0  0  0  0
  2  3  2  0  0  0  0
  3  4  1  0  0  0  0
  3 42  1  0  0  0  0
  4  9  2  0  0  0  0
  4  5  1  0  0  0  0
  5  6  2  0  0  0  0
  5 24  1  0  0  0  0
  6  7  1  0  0  0  0
  6 25  1  0  0  0  0
  7  8  2  0  0  0  0
  7 26  1  0  0  0  0
  8  9  1  0  0  0  0
  8 27  1  0  0  0  0
  9 10  1  0  0  0  0
 10 11  1  0  0  0  0
 11 12  1  0  0  0  0
 11 28  1  0  0  0  0
 11 29  1  0  0  0  0
 12 13  1  0  0  0  0
 12 14  1  0  0  0  0
 12 30  1  0  0  0  0
 13 31  1  0  0  0  0
 14 15  1  0  0  0  0
 14 32  1  0  0  0  0
 14 33  1  0  0  0  0
 15 20  1  0  0  0  0
 15 16  1  0  0  0  0
 16 17  1  0  0  0  0
 16 34  1  0  0  0  0
 16 35  1  0  0  0  0
 17 18  1  0  0  0  0
 17 36  1  0  0  0  0
 17 37  1  0  0  0  0
 18 19  1  0  0  0  0
 19 20  1  0  0  0  0
 19 38  1  0  0  0  0
 19 39  1  0  0  0  0
 20 40  1  0  0  0  0
 20 41  1  0  0  0  0
M  CHG  1   3   1
M  END
> <s_m_source_file>
AV-unprocessed.smi

> <i_m_source_file_index>
356

> <i_lp_mmshare_version>
43012

> <i_f3d_flags>
0

> <s_epik_input>
W2NIXTFbY0hdW2NIXVtjSF1jKGMxMiluKGMobjIpW0NIM10pW0NIMl1bQ0BIXShbT0hdKVtDSDJdTjNbQ0gyXVtDSDJdT1tDSDJdW0NIMl0z

> <s_epik_cmdline>
J2VwaWtfcHl0aG9uJywgJy1waCcsICc3LjAnLCAnLXRuJywgJzgnLCAnLW1hJywgJzIwMCcsICctbWV0YWxfYmluZGluZycsICctaW1hZScsICc8aW5maWxlLm1hZT4nLCAnLW9tYWUnLCAnPG91dGZpbGUubWFlPic=

> <r_epik_Ionization_Penalty>
1.35865

> <r_epik_Ionization_Penalty_Charging>
1.14429

> <r_epik_Ionization_Penalty_Neutral>
0.214359

> <r_epik_State_Penalty>
1.39809

> <r_epik_Charging_Adjusted_Penalty>
2.54238

> <i_epik_Tot_Q>
1

> <i_epik_Tot_abs_Q>
1

> <r_epik_Metal_State_Penalty>
5.40564

> <b_epik_Metal_Only>
0

> <s_lp_Force_Field>
OPLS_2005

> <r_lp_Energy>
32.3817

> <b_lp_Chiralities_Consistent>
1

> <s_lp_Variant>
AV-unprocessed.smi:356-6

> <Gold.Version>
5.8.1

> <Gold.Id.Protein>
6NUR|6NUR_protein|mol2

> <Gold.PLP.Fitness>
48.5203

> <Gold.PLP.PLP>
-40.7104

> <Gold.PLP.part.hbond>
-3.0000

> <Gold.PLP.part.metal>
0.0000

> <Gold.PLP.part.buried>
-3.9289

> <Gold.PLP.part.nonpolar>
-33.9876

> <Gold.PLP.part.repulsive>
0.2585

> <Gold.PLP.ligand.clash>
0.0000

> <Gold.PLP.ligand.torsion>
0.6168

> <Gold.PLP.Chemscore.Hbond>
3.0000

> <Gold.PLP.Chemscore.CHOScore>
0.0000

> <Gold.PLP.Chemscore.Metal>
0.0000

> <Gold.Chemscore.Hbonds>
donor molecule, donor type, donor heavy atom, donor atom, acceptor molecule, acceptor atom, score
      L1  H     3    42       P1  8028  2.00
      P1  H  7997  8010       L1    13  1.00

> <Gold.PLP.Chemscore.Internal.Correction>
0.0435

> <Gold.Rescore>
     Score         DG    S(hbond)    S(metal)    S(lipo)     H(rot)  DE(clash)    DE(int)     intcor
     18.94     -19.62       1.99        0.00     108.92       2.05       0.18       0.50       ----

> <Gold.Chemscore.Fitness>
18.9444

> <Gold.Chemscore.DG>
-19.6243

> <Gold.Chemscore.ZeroCoef>
-5.4800

> <Gold.Chemscore.Hbond>
1.9936

> <Gold.Chemscore.Metal>
0.0000

> <Gold.Chemscore.Lipo>
108.9199

> <Gold.Chemscore.Internal_Hbond>
0.0000

> <Gold.Chemscore.DEClash>
0.1822

> <Gold.Chemscore.DEInternal>
0.4977

> <Gold.Chemscore.Rot>
2.0539

> <Gold.Chemscore.Internal.Correction>
   9.000000E+99

> <Gold.Chemscore.Hbonds>
donor molecule, donor type, donor heavy atom, donor atom, acceptor molecule, acceptor atom, score
      L1  H     3    42       P1  8028  1.00
      P1  H  7997  8010       L1    13  1.00

> <Gold.Chemscore.Hbond.Weighted>
-6.6586

> <Gold.Chemscore.Metal.Weighted>
-0.0000

> <Gold.Chemscore.Lipo.Weighted>
-12.7436

> <Gold.Chemscore.Internal_Hbond.Weighted>
0.0000

> <Gold.Chemscore.DEClash.Weighted>
0.1822

> <Gold.Chemscore.DEInternal.Weighted>
0.4977

> <Gold.Chemscore.Rot.Weighted>
5.2579

> <Gold.Chemscore.Internal.Correction.Weighted>
   9.000000E+99

> <Gold.Protein.RotatedTorsions>
[ 6907 6896 6895 6894 ] final -106.71 input  -60.11 | X-H torsion
[ 7974 7965 7964 7962 ] final  136.23 input  175.53 | X-H torsion
[ 8008 7997 7996 7995 ] final  113.20 input   59.86 | X-H torsion
[ 10167 10162 10161 10158 ] final  -99.74 input  -65.29 | X-H torsion
[ 10718 10713 10712 10709 ] final  -18.56 input   66.30 | X-H torsion
[ 10763 10752 10751 10750 ] final -102.81 input  -60.55 | X-H torsion
[ 11005 11000 10999 10996 ] final  141.52 input  -57.11 | X-H torsion

> <Gold.Protein.ActiveResidues>
 VAL166  LYS551  ARG553  GLY616  TRP617  ASP618  TYR619  PRO620  LYS621  CYS622 
 ASP623  PHE694  ASN695  SER759  ASP760  ASP761  ALA762  ILE779  LEU786  VAL792 
 PHE793  MET794  SER795  GLU796  ALA797  LYS798  CYS799  TRP800  GLU811  SER814 

> <Gold.Protein.RotatedAtoms>
  150.7404  133.9935  159.3614 H   0  0  0  0  0  0  0  0  0  0  0  0  # atno 6907 bound_to 6896
  151.7884  135.0740  160.0393 H   0  0  0  0  0  0  0  0  0  0  0  0  # atno 6908 bound_to 6896
  152.3225  133.5832  159.5790 H   0  0  0  0  0  0  0  0  0  0  0  0  # atno 6909 bound_to 6896
  144.9585  139.4737  143.5491 H   0  0  0  0  0  0  0  0  0  0  0  0  # atno 7974 bound_to 7965
  156.2243  140.2984  156.0028 H   0  0  0  0  0  0  0  0  0  0  0  0  # atno 8008 bound_to 7997
  155.2399  140.0422  157.2990 H   0  0  0  0  0  0  0  0  0  0  0  0  # atno 8009 bound_to 7997
  154.5890  140.2396  155.7955 H   0  0  0  0  0  0  0  0  0  0  0  0  # atno 8010 bound_to 7997
  140.2593  143.3418  152.0641 H   0  0  0  0  0  0  0  0  0  0  0  0  # atno 10167 bound_to 10162
  156.5578  130.4718  149.6421 H   0  0  0  0  0  0  0  0  0  0  0  0  # atno 10718 bound_to 10713
  154.7761  135.4846  153.9748 H   0  0  0  0  0  0  0  0  0  0  0  0  # atno 10763 bound_to 10752
  153.1431  135.6776  153.9003 H   0  0  0  0  0  0  0  0  0  0  0  0  # atno 10764 bound_to 10752
  153.8671  135.3148  155.3419 H   0  0  0  0  0  0  0  0  0  0  0  0  # atno 10765 bound_to 10752
  140.0407  134.9306  157.0838 H   0  0  0  0  0  0  0  0  0  0  0  0  # atno 11005 bound_to 11000
  146.3345  139.8719  142.8838 LP  0  0  0  0  0  0  0  0  0  0  0  0  # atno 17320 bound_to 7965
  145.2736  141.0116  143.3758 LP  0  0  0  0  0  0  0  0  0  0  0  0  # atno 17321 bound_to 7965
  139.5022  144.6729  151.6199 LP  0  0  0  0  0  0  0  0  0  0  0  0  # atno 17342 bound_to 10162
  140.5978  143.9664  150.6366 LP  0  0  0  0  0  0  0  0  0  0  0  0  # atno 17343 bound_to 10162
  156.2826  130.7079  151.1907 LP  0  0  0  0  0  0  0  0  0  0  0  0  # atno 17370 bound_to 10713
  157.7374  131.0551  150.5354 LP  0  0  0  0  0  0  0  0  0  0  0  0  # atno 17371 bound_to 10713
  140.4073  134.2018  155.7163 LP  0  0  0  0  0  0  0  0  0  0  0  0  # atno 17394 bound_to 11000
  141.1881  133.8266  157.1005 LP  0  0  0  0  0  0  0  0  0  0  0  0  # atno 17395 bound_to 11000

$$$$
