AV-unprocessed.smi:239|AV-procd|sdf|1822|dock2
  -GOLD-   2262020413D 1   1.00000     0.00000
 Structure written by MMmdl.
 54 58  0  0  0  0  0  0  0  0  1 V2000
  153.8548  140.6001  160.5530 C   0  0  0  0  0  0  0  0  0  0  0  0
  152.5679  140.8762  159.7687 C   0  0  2  0  0  0  0  0  0  0  0  0
  152.5030  140.0661  158.4603 C   0  0  0  0  0  0  0  0  0  0  0  0
  151.3225  140.4450  157.6872 N   0  0  0  0  0  0  0  0  0  0  0  0
  150.9765  139.6707  156.6267 C   0  0  0  0  0  0  0  0  0  0  0  0
  150.6051  140.2522  155.4541 N   0  0  0  0  0  0  0  0  0  0  0  0
  150.2519  139.5004  154.4075 C   0  0  0  0  0  0  0  0  0  0  0  0
  150.2038  138.1706  154.3140 N   0  0  0  0  0  0  0  0  0  0  0  0
  150.5863  137.5793  155.4817 C   0  0  0  0  0  0  0  0  0  0  0  0
  150.9823  138.2471  156.6755 C   0  0  0  0  0  0  0  0  0  0  0  0
  151.3072  137.3119  157.6515 N   0  0  0  0  0  0  0  0  0  0  0  0
  151.1015  136.1603  157.0732 C   0  0  0  0  0  0  0  0  0  0  0  0
  150.6811  136.2276  155.7642 N   0  0  0  0  0  0  0  0  0  0  0  0
  150.3814  135.1077  154.8854 C   0  0  0  0  0  0  0  0  0  0  0  0
  150.1214  133.7666  155.6180 C   0  0  0  0  0  0  0  0  0  0  0  0
  149.7031  132.8653  154.6086 O   0  0  0  0  0  0  0  0  0  0  0  0
  151.3846  133.1904  156.2939 C   0  0  0  0  0  0  0  0  0  0  0  0
  151.0756  131.9079  157.0874 C   0  0  0  0  0  0  0  0  0  0  0  0
  150.0526  132.1616  158.0436 O   0  0  0  0  0  0  0  0  0  0  0  0
  148.8200  132.5481  157.4470 C   0  0  0  0  0  0  0  0  0  0  0  0
  148.9990  133.8672  156.6735 C   0  0  0  0  0  0  0  0  0  0  0  0
  151.2297  141.8829  157.4573 C   0  0  0  0  0  0  0  0  0  0  0  0
  151.3181  142.6381  158.7951 C   0  0  2  0  0  0  0  0  0  0  0  0
  151.3282  144.1397  158.5951 C   0  0  0  0  0  0  0  0  0  0  0  0
  152.5222  144.8283  157.9759 C   0  0  0  0  0  0  0  0  0  0  0  0
  152.2148  145.0239  159.4410 C   0  0  0  0  0  0  0  0  0  0  0  0
  152.5223  142.2665  159.4597 O   0  0  0  0  0  0  0  0  0  0  0  0
  153.9270  139.5484  160.8309 H   0  0  0  0  0  0  0  0  0  0  0  0
  153.8861  141.1896  161.4696 H   0  0  0  0  0  0  0  0  0  0  0  0
  154.7372  140.8527  159.9642 H   0  0  0  0  0  0  0  0  0  0  0  0
  151.7147  140.6233  160.4005 H   0  0  0  0  0  0  0  0  0  0  0  0
  153.3985  140.2466  157.8634 H   0  0  0  0  0  0  0  0  0  0  0  0
  152.4729  139.0001  158.6907 H   0  0  0  0  0  0  0  0  0  0  0  0
  149.9658  140.0428  153.5185 H   0  0  0  0  0  0  0  0  0  0  0  0
  151.2606  135.2232  157.5867 H   0  0  0  0  0  0  0  0  0  0  0  0
  149.5145  135.3784  154.2806 H   0  0  0  0  0  0  0  0  0  0  0  0
  151.2128  134.9973  154.1872 H   0  0  0  0  0  0  0  0  0  0  0  0
  149.3992  132.0714  155.0215 H   0  0  0  0  0  0  0  0  0  0  0  0
  152.1628  132.9987  155.5542 H   0  0  0  0  0  0  0  0  0  0  0  0
  151.7972  133.9196  156.9910 H   0  0  0  0  0  0  0  0  0  0  0  0
  150.7762  131.0950  156.4243 H   0  0  0  0  0  0  0  0  0  0  0  0
  151.9692  131.5710  157.6129 H   0  0  0  0  0  0  0  0  0  0  0  0
  148.4531  131.7540  156.7951 H   0  0  0  0  0  0  0  0  0  0  0  0
  148.0765  132.6767  158.2337 H   0  0  0  0  0  0  0  0  0  0  0  0
  149.2388  134.6458  157.3972 H   0  0  0  0  0  0  0  0  0  0  0  0
  148.0582  134.1606  156.2062 H   0  0  0  0  0  0  0  0  0  0  0  0
  152.0451  142.1874  156.7995 H   0  0  0  0  0  0  0  0  0  0  0  0
  150.3024  142.1496  156.9526 H   0  0  0  0  0  0  0  0  0  0  0  0
  150.4635  142.3770  159.4223 H   0  0  0  0  0  0  0  0  0  0  0  0
  150.3546  144.5540  158.3394 H   0  0  0  0  0  0  0  0  0  0  0  0
  153.3856  144.2165  157.7213 H   0  0  0  0  0  0  0  0  0  0  0  0
  152.3271  145.6613  157.3039 H   0  0  0  0  0  0  0  0  0  0  0  0
  151.8163  145.9891  159.7468 H   0  0  0  0  0  0  0  0  0  0  0  0
  152.8732  144.5412  160.1609 H   0  0  0  0  0  0  0  0  0  0  0  0
  1  2  1  0  0  0  0
  1 28  1  0  0  0  0
  1 29  1  0  0  0  0
  1 30  1  0  0  0  0
  2 27  1  0  0  0  0
  2  3  1  0  0  0  0
  2 31  1  0  0  0  0
  3  4  1  0  0  0  0
  3 32  1  0  0  0  0
  3 33  1  0  0  0  0
  4  5  1  0  0  0  0
  4 22  1  0  0  0  0
  5 10  1  0  0  0  0
  5  6  2  0  0  0  0
  6  7  1  0  0  0  0
  7  8  2  0  0  0  0
  7 34  1  0  0  0  0
  8  9  1  0  0  0  0
  9 13  1  0  0  0  0
  9 10  2  0  0  0  0
 10 11  1  0  0  0  0
 11 12  2  0  0  0  0
 12 13  1  0  0  0  0
 12 35  1  0  0  0  0
 13 14  1  0  0  0  0
 14 15  1  0  0  0  0
 14 36  1  0  0  0  0
 14 37  1  0  0  0  0
 15 21  1  0  0  0  0
 15 16  1  0  0  0  0
 15 17  1  0  0  0  0
 16 38  1  0  0  0  0
 17 18  1  0  0  0  0
 17 39  1  0  0  0  0
 17 40  1  0  0  0  0
 18 19  1  0  0  0  0
 18 41  1  0  0  0  0
 18 42  1  0  0  0  0
 19 20  1  0  0  0  0
 20 21  1  0  0  0  0
 20 43  1  0  0  0  0
 20 44  1  0  0  0  0
 21 45  1  0  0  0  0
 21 46  1  0  0  0  0
 22 23  1  0  0  0  0
 22 47  1  0  0  0  0
 22 48  1  0  0  0  0
 23 24  1  0  0  0  0
 23 27  1  0  0  0  0
 23 49  1  0  0  0  0
 24 26  1  0  0  0  0
 24 25  1  0  0  0  0
 24 50  1  0  0  0  0
 25 26  1  0  0  0  0
 25 51  1  0  0  0  0
 25 52  1  0  0  0  0
 26 53  1  0  0  0  0
 26 54  1  0  0  0  0
M  END
> <s_m_source_file>
AV-unprocessed.smi

> <i_m_source_file_index>
239

> <i_lp_mmshare_version>
43012

> <i_f3d_flags>
0

> <s_epik_input>
W0NIMl0xW0NIMl1bQ0hdMVtDQEBIXShPMilbQ0gyXU4oW0NIMl1bQ0BIXTJbQ0gzXSljKG5bY0hdbjMpYyhjMzQpbltjSF1uNFtDSDJdQzUoW09IXSlbQ0gyXVtDSDJdT1tDSDJdW0NIMl01

> <s_epik_cmdline>
J2VwaWtfcHl0aG9uJywgJy1waCcsICc3LjAnLCAnLXRuJywgJzgnLCAnLW1hJywgJzIwMCcsICctbWV0YWxfYmluZGluZycsICctaW1hZScsICc8aW5maWxlLm1hZT4nLCAnLW9tYWUnLCAnPG91dGZpbGUubWFlPic=

> <r_lp_tautomer_probability>
1

> <r_epik_Ionization_Penalty>
9.13091e-05

> <r_epik_Ionization_Penalty_Charging>
0

> <r_epik_Ionization_Penalty_Neutral>
9.13091e-05

> <r_epik_State_Penalty>
-0

> <r_epik_Charging_Adjusted_Penalty>
0

> <i_epik_Tot_Q>
0

> <i_epik_Tot_abs_Q>
0

> <r_epik_Metal_State_Penalty>
-0

> <b_epik_Metal_Only>
0

> <s_lp_Force_Field>
OPLS_2005

> <r_lp_Energy>
38.8789

> <b_lp_Chiralities_Consistent>
1

> <s_lp_Variant>
AV-unprocessed.smi:239-3

> <Gold.Version>
5.8.1

> <Gold.Id.Protein>
6NUR|6NUR_protein|mol2

> <Gold.PLP.Fitness>
46.9223

> <Gold.PLP.PLP>
-41.7688

> <Gold.PLP.part.hbond>
-1.2933

> <Gold.PLP.part.metal>
0.0000

> <Gold.PLP.part.buried>
-7.8434

> <Gold.PLP.part.nonpolar>
-33.2154

> <Gold.PLP.part.repulsive>
0.2620

> <Gold.PLP.ligand.clash>
0.0000

> <Gold.PLP.ligand.torsion>
1.1133

> <Gold.PLP.Chemscore.Hbond>
1.0000

> <Gold.PLP.Chemscore.CHOScore>
1.0000

> <Gold.PLP.Chemscore.Metal>
0.0000

> <Gold.Chemscore.Hbonds>
donor molecule, donor type, donor heavy atom, donor atom, acceptor molecule, acceptor atom, score
      P1  H  6896  6909       L1    19  0.94
      L1  C     7    34       P1  7957  1.00

> <Gold.PLP.Chemscore.Internal.Correction>
1.3801

> <Gold.Rescore>
     Score         DG    S(hbond)    S(metal)    S(lipo)     H(rot)  DE(clash)    DE(int)     intcor
     13.07     -14.34       0.57        0.00     108.38       2.24       0.11       1.15       ----

> <Gold.Chemscore.Fitness>
13.0728

> <Gold.Chemscore.DG>
-14.3370

> <Gold.Chemscore.ZeroCoef>
-5.4800

> <Gold.Chemscore.Hbond>
0.5712

> <Gold.Chemscore.Metal>
0.0000

> <Gold.Chemscore.Lipo>
108.3795

> <Gold.Chemscore.Internal_Hbond>
0.0000

> <Gold.Chemscore.DEClash>
0.1107

> <Gold.Chemscore.DEInternal>
1.1536

> <Gold.Chemscore.Rot>
2.2387

> <Gold.Chemscore.Internal.Correction>
   9.000000E+99

> <Gold.Chemscore.Hbonds>
donor molecule, donor type, donor heavy atom, donor atom, acceptor molecule, acceptor atom, score
      P1  H  6896  6909       L1    19  0.19

> <Gold.Chemscore.Hbond.Weighted>
-1.9078

> <Gold.Chemscore.Metal.Weighted>
-0.0000

> <Gold.Chemscore.Lipo.Weighted>
-12.6804

> <Gold.Chemscore.Internal_Hbond.Weighted>
0.0000

> <Gold.Chemscore.DEClash.Weighted>
0.1107

> <Gold.Chemscore.DEInternal.Weighted>
1.1536

> <Gold.Chemscore.Rot.Weighted>
5.7311

> <Gold.Chemscore.Internal.Correction.Weighted>
   9.000000E+99

> <Gold.Protein.RotatedTorsions>
[ 6907 6896 6895 6894 ] final  -22.42 input  -60.11 | X-H torsion
[ 7974 7965 7964 7962 ] final   66.81 input  175.53 | X-H torsion
[ 8008 7997 7996 7995 ] final -139.07 input   59.86 | X-H torsion
[ 10167 10162 10161 10158 ] final   14.94 input  -65.29 | X-H torsion
[ 10718 10713 10712 10709 ] final -149.12 input   66.30 | X-H torsion
[ 10763 10752 10751 10750 ] final  -24.41 input  -60.55 | X-H torsion
[ 11005 11000 10999 10996 ] final   87.55 input  -57.11 | X-H torsion

> <Gold.Protein.ActiveResidues>
 VAL166  LYS551  ARG553  GLY616  TRP617  ASP618  TYR619  PRO620  LYS621  CYS622 
 ASP623  PHE694  ASN695  SER759  ASP760  ASP761  ALA762  ILE779  LEU786  VAL792 
 PHE793  MET794  SER795  GLU796  ALA797  LYS798  CYS799  TRP800  GLU811  SER814 

> <Gold.Protein.RotatedAtoms>
  151.2189  135.0510  159.8941 H   0  0  0  0  0  0  0  0  0  0  0  0  # atno 6907 bound_to 6896
  152.5417  134.0663  159.8184 H   0  0  0  0  0  0  0  0  0  0  0  0  # atno 6908 bound_to 6896
  151.0826  133.5330  159.2651 H   0  0  0  0  0  0  0  0  0  0  0  0  # atno 6909 bound_to 6896
  145.8221  139.3091  143.1037 H   0  0  0  0  0  0  0  0  0  0  0  0  # atno 7974 bound_to 7965
  155.4389  140.0530  157.3012 H   0  0  0  0  0  0  0  0  0  0  0  0  # atno 8008 bound_to 7997
  154.4827  140.2088  155.9684 H   0  0  0  0  0  0  0  0  0  0  0  0  # atno 8009 bound_to 7997
  156.1229  140.3185  155.8240 H   0  0  0  0  0  0  0  0  0  0  0  0  # atno 8010 bound_to 7997
  140.5901  143.8811  150.6866 H   0  0  0  0  0  0  0  0  0  0  0  0  # atno 10167 bound_to 10162
  156.4291  130.8066  151.2293 H   0  0  0  0  0  0  0  0  0  0  0  0  # atno 10718 bound_to 10713
  153.6833  135.6965  153.5111 H   0  0  0  0  0  0  0  0  0  0  0  0  # atno 10763 bound_to 10752
  153.2468  135.4288  155.0755 H   0  0  0  0  0  0  0  0  0  0  0  0  # atno 10764 bound_to 10752
  154.8394  135.3521  154.6376 H   0  0  0  0  0  0  0  0  0  0  0  0  # atno 10765 bound_to 10752
  139.8917  134.8429  156.2875 H   0  0  0  0  0  0  0  0  0  0  0  0  # atno 11005 bound_to 11000
  145.9663  140.8796  143.0185 LP  0  0  0  0  0  0  0  0  0  0  0  0  # atno 17320 bound_to 7965
  144.6747  140.1883  143.7399 LP  0  0  0  0  0  0  0  0  0  0  0  0  # atno 17321 bound_to 7965
  140.2332  143.3719  152.1548 LP  0  0  0  0  0  0  0  0  0  0  0  0  # atno 17342 bound_to 10162
  139.5222  144.7056  151.5364 LP  0  0  0  0  0  0  0  0  0  0  0  0  # atno 17343 bound_to 10162
  157.7508  131.0204  150.3707 LP  0  0  0  0  0  0  0  0  0  0  0  0  # atno 17370 bound_to 10713
  156.4040  130.3921  149.6939 LP  0  0  0  0  0  0  0  0  0  0  0  0  # atno 17371 bound_to 10713
  140.9998  133.7158  156.0942 LP  0  0  0  0  0  0  0  0  0  0  0  0  # atno 17394 bound_to 11000
  140.7513  134.4042  157.5541 LP  0  0  0  0  0  0  0  0  0  0  0  0  # atno 17395 bound_to 11000

$$$$
