AV-unprocessed.smi:480|AV-procd|sdf|2677|dock1
  -GOLD-   2262023 93D 1   1.00000     0.00000
 Structure written by MMmdl.
 46 48  0  0  0  0  0  0  0  0  1 V2000
  151.4472  137.6218  159.0247 C   0  0  0  0  0  0  0  0  0  0  0  0
  152.1973  138.5109  158.0264 C   0  0  0  0  0  0  0  0  0  0  0  0
  152.1445  139.9633  158.3943 C   0  0  0  0  0  0  0  0  0  0  0  0
  152.6000  140.4030  159.5680 N   0  0  0  0  0  0  0  0  0  0  0  0
  152.3857  141.7649  159.4878 C   0  0  0  0  0  0  0  0  0  0  0  0
  152.6526  142.7937  160.4194 C   0  0  0  0  0  0  0  0  0  0  0  0
  152.3469  144.1350  160.1086 C   0  0  0  0  0  0  0  0  0  0  0  0
  151.7718  144.4662  158.8646 C   0  0  0  0  0  0  0  0  0  0  0  0
  151.4975  143.4563  157.9224 C   0  0  0  0  0  0  0  0  0  0  0  0
  151.8033  142.1189  158.2383 C   0  0  0  0  0  0  0  0  0  0  0  0
  151.6645  140.9159  157.5537 N   0  0  0  0  0  0  0  0  0  0  0  0
  151.1223  140.7604  156.2100 C   0  0  0  0  0  0  0  0  0  0  0  0
  149.7197  141.3827  156.0519 C   0  0  1  0  0  0  0  0  0  0  0  0
  149.8120  142.3640  155.0400 O   0  0  0  0  0  0  0  0  0  0  0  0
  148.6279  140.3750  155.6501 C   0  0  0  0  0  0  0  0  0  0  0  0
  147.4327  140.6981  156.3479 O   0  0  0  0  0  0  0  0  0  0  0  0
  146.6299  141.6966  155.8397 C   0  0  0  0  0  0  0  0  0  0  0  0
  145.5314  142.0968  156.6280 C   0  0  0  0  0  0  0  0  0  0  0  0
  144.6606  143.1125  156.1899 C   0  0  0  0  0  0  0  0  0  0  0  0
  144.8784  143.7426  154.9495 C   0  0  0  0  0  0  0  0  0  0  0  0
  143.9457  144.8398  154.4809 C   0  0  0  0  0  0  0  0  0  0  0  0
  144.4929  145.5717  153.3286 C   0  0  0  0  0  0  0  0  0  0  0  0
  144.9237  146.1474  152.4221 N   0  0  0  0  0  0  0  0  0  0  0  0
  145.9706  143.3494  154.1514 C   0  0  0  0  0  0  0  0  0  0  0  0
  146.8418  142.3335  154.5907 C   0  0  0  0  0  0  0  0  0  0  0  0
  151.4951  136.5748  158.7251 H   0  0  0  0  0  0  0  0  0  0  0  0
  150.3955  137.9029  159.0875 H   0  0  0  0  0  0  0  0  0  0  0  0
  151.8751  137.7018  160.0242 H   0  0  0  0  0  0  0  0  0  0  0  0
  153.2329  138.1866  157.9296 H   0  0  0  0  0  0  0  0  0  0  0  0
  151.7569  138.3893  157.0360 H   0  0  0  0  0  0  0  0  0  0  0  0
  153.0942  142.5507  161.3746 H   0  0  0  0  0  0  0  0  0  0  0  0
  152.5560  144.9134  160.8277 H   0  0  0  0  0  0  0  0  0  0  0  0
  151.5420  145.4960  158.6335 H   0  0  0  0  0  0  0  0  0  0  0  0
  151.0577  143.7064  156.9685 H   0  0  0  0  0  0  0  0  0  0  0  0
  151.8169  141.2361  155.5162 H   0  0  0  0  0  0  0  0  0  0  0  0
  151.1081  139.7059  155.9367 H   0  0  0  0  0  0  0  0  0  0  0  0
  149.4394  141.8704  156.9865 H   0  0  0  0  0  0  0  0  0  0  0  0
  149.4562  143.1727  155.3761 H   0  0  0  0  0  0  0  0  0  0  0  0
  148.4793  140.3789  154.5687 H   0  0  0  0  0  0  0  0  0  0  0  0
  148.9223  139.3673  155.9438 H   0  0  0  0  0  0  0  0  0  0  0  0
  145.3562  141.6212  157.5819 H   0  0  0  0  0  0  0  0  0  0  0  0
  143.8268  143.4091  156.8092 H   0  0  0  0  0  0  0  0  0  0  0  0
  142.9800  144.4208  154.1969 H   0  0  0  0  0  0  0  0  0  0  0  0
  143.7705  145.5495  155.2896 H   0  0  0  0  0  0  0  0  0  0  0  0
  146.1455  143.8283  153.1991 H   0  0  0  0  0  0  0  0  0  0  0  0
  147.6666  142.0616  153.9496 H   0  0  0  0  0  0  0  0  0  0  0  0
  1  2  1  0  0  0  0
  1 26  1  0  0  0  0
  1 27  1  0  0  0  0
  1 28  1  0  0  0  0
  2  3  1  0  0  0  0
  2 29  1  0  0  0  0
  2 30  1  0  0  0  0
  3 11  1  0  0  0  0
  3  4  2  0  0  0  0
  4  5  1  0  0  0  0
  5 10  2  0  0  0  0
  5  6  1  0  0  0  0
  6  7  2  0  0  0  0
  6 31  1  0  0  0  0
  7  8  1  0  0  0  0
  7 32  1  0  0  0  0
  8  9  2  0  0  0  0
  8 33  1  0  0  0  0
  9 10  1  0  0  0  0
  9 34  1  0  0  0  0
 10 11  1  0  0  0  0
 11 12  1  0  0  0  0
 12 13  1  0  0  0  0
 12 35  1  0  0  0  0
 12 36  1  0  0  0  0
 13 14  1  0  0  0  0
 13 15  1  0  0  0  0
 13 37  1  0  0  0  0
 14 38  1  0  0  0  0
 15 16  1  0  0  0  0
 15 39  1  0  0  0  0
 15 40  1  0  0  0  0
 16 17  1  0  0  0  0
 17 25  1  0  0  0  0
 17 18  2  0  0  0  0
 18 19  1  0  0  0  0
 18 41  1  0  0  0  0
 19 20  2  0  0  0  0
 19 42  1  0  0  0  0
 20 21  1  0  0  0  0
 20 24  1  0  0  0  0
 21 22  1  0  0  0  0
 21 43  1  0  0  0  0
 21 44  1  0  0  0  0
 22 23  3  0  0  0  0
 24 25  2  0  0  0  0
 24 45  1  0  0  0  0
 25 46  1  0  0  0  0
M  END
> <s_m_source_file>
AV-unprocessed.smi

> <i_m_source_file_index>
480

> <i_lp_mmshare_version>
43012

> <i_f3d_flags>
0

> <s_epik_input>
W2NIXTFbY0hdW2NIXVtjSF1jKGMxMiluKGMobjIpW0NIMl1bQ0gzXSlbQ0gyXVtDQEhdKFtPSF0pW0NIMl1PYzNbY0hdW2NIXWMoW0NIMl1DI04pW2NIXVtjSF0z

> <s_epik_cmdline>
J2VwaWtfcHl0aG9uJywgJy1waCcsICc3LjAnLCAnLXRuJywgJzgnLCAnLW1hJywgJzIwMCcsICctbWV0YWxfYmluZGluZycsICctaW1hZScsICc8aW5maWxlLm1hZT4nLCAnLW9tYWUnLCAnPG91dGZpbGUubWFlPic=

> <r_lp_tautomer_probability>
1

> <r_epik_Ionization_Penalty>
0.114213

> <r_epik_Ionization_Penalty_Charging>
0

> <r_epik_Ionization_Penalty_Neutral>
0.114213

> <r_epik_State_Penalty>
0.103875

> <r_epik_Charging_Adjusted_Penalty>
0.103875

> <i_epik_Tot_Q>
0

> <i_epik_Tot_abs_Q>
0

> <r_epik_Metal_State_Penalty>
0.000113526

> <b_epik_Metal_Only>
0

> <s_lp_Force_Field>
OPLS_2005

> <r_lp_Energy>
15.7981

> <b_lp_Chiralities_Consistent>
1

> <s_lp_Variant>
AV-unprocessed.smi:480-2

> <Gold.Version>
5.8.1

> <Gold.Id.Protein>
6NUR|6NUR_protein|mol2

> <Gold.PLP.Fitness>
53.1749

> <Gold.PLP.PLP>
-53.3106

> <Gold.PLP.part.hbond>
-4.2428

> <Gold.PLP.part.metal>
0.0000

> <Gold.PLP.part.buried>
-4.9761

> <Gold.PLP.part.nonpolar>
-44.2700

> <Gold.PLP.part.repulsive>
0.2112

> <Gold.PLP.ligand.clash>
0.0000

> <Gold.PLP.ligand.torsion>
1.6367

> <Gold.PLP.Chemscore.Hbond>
1.0000

> <Gold.PLP.Chemscore.CHOScore>
0.0000

> <Gold.PLP.Chemscore.Metal>
0.0000

> <Gold.Chemscore.Hbonds>
donor molecule, donor type, donor heavy atom, donor atom, acceptor molecule, acceptor atom, score
      L1  H    14    38       P1  8028  1.00

> <Gold.PLP.Chemscore.Internal.Correction>
0.1377

> <Gold.Rescore>
     Score         DG    S(hbond)    S(metal)    S(lipo)     H(rot)  DE(clash)    DE(int)     intcor
     12.72     -15.91       0.96        0.00     118.15       2.58       1.59       1.60       ----

> <Gold.Chemscore.Fitness>
12.7165

> <Gold.Chemscore.DG>
-15.9082

> <Gold.Chemscore.ZeroCoef>
-5.4800

> <Gold.Chemscore.Hbond>
0.9577

> <Gold.Chemscore.Metal>
0.0000

> <Gold.Chemscore.Lipo>
118.1529

> <Gold.Chemscore.Internal_Hbond>
0.0000

> <Gold.Chemscore.DEClash>
1.5916

> <Gold.Chemscore.DEInternal>
1.6001

> <Gold.Chemscore.Rot>
2.5759

> <Gold.Chemscore.Internal.Correction>
   9.000000E+99

> <Gold.Chemscore.Hbonds>
donor molecule, donor type, donor heavy atom, donor atom, acceptor molecule, acceptor atom, score
      L1  H    14    38       P1  8028  1.00

> <Gold.Chemscore.Hbond.Weighted>
-3.1987

> <Gold.Chemscore.Metal.Weighted>
-0.0000

> <Gold.Chemscore.Lipo.Weighted>
-13.8239

> <Gold.Chemscore.Internal_Hbond.Weighted>
0.0000

> <Gold.Chemscore.DEClash.Weighted>
1.5916

> <Gold.Chemscore.DEInternal.Weighted>
1.6001

> <Gold.Chemscore.Rot.Weighted>
6.5943

> <Gold.Chemscore.Internal.Correction.Weighted>
   9.000000E+99

> <Gold.Protein.RotatedTorsions>
[ 6907 6896 6895 6894 ] final -168.14 input  -60.11 | X-H torsion
[ 7974 7965 7964 7962 ] final  -31.59 input  175.53 | X-H torsion
[ 8008 7997 7996 7995 ] final   40.74 input   59.86 | X-H torsion
[ 10167 10162 10161 10158 ] final  177.12 input  -65.29 | X-H torsion
[ 10718 10713 10712 10709 ] final  -93.54 input   66.30 | X-H torsion
[ 10763 10752 10751 10750 ] final   23.61 input  -60.55 | X-H torsion
[ 11005 11000 10999 10996 ] final   20.94 input  -57.11 | X-H torsion

> <Gold.Protein.ActiveResidues>
 VAL166  LYS551  ARG553  GLY616  TRP617  ASP618  TYR619  PRO620  LYS621  CYS622 
 ASP623  PHE694  ASN695  SER759  ASP760  ASP761  ALA762  ILE779  LEU786  VAL792 
 PHE793  MET794  SER795  GLU796  ALA797  LYS798  CYS799  TRP800  GLU811  SER814 

> <Gold.Protein.RotatedAtoms>
  151.4708  133.3569  159.2822 H   0  0  0  0  0  0  0  0  0  0  0  0  # atno 6907 bound_to 6896
  150.8962  134.8373  159.7339 H   0  0  0  0  0  0  0  0  0  0  0  0  # atno 6908 bound_to 6896
  152.4853  134.4623  159.9661 H   0  0  0  0  0  0  0  0  0  0  0  0  # atno 6909 bound_to 6896
  146.1055  140.5687  142.8801 H   0  0  0  0  0  0  0  0  0  0  0  0  # atno 7974 bound_to 7965
  155.2582  140.3357  155.4275 H   0  0  0  0  0  0  0  0  0  0  0  0  # atno 8008 bound_to 7997
  156.2186  140.1799  156.7573 H   0  0  0  0  0  0  0  0  0  0  0  0  # atno 8009 bound_to 7997
  154.5791  140.0657  156.9062 H   0  0  0  0  0  0  0  0  0  0  0  0  # atno 8010 bound_to 7997
  139.5241  144.2835  152.0526 H   0  0  0  0  0  0  0  0  0  0  0  0  # atno 10167 bound_to 10162
  156.0015  130.5031  150.5792 H   0  0  0  0  0  0  0  0  0  0  0  0  # atno 10718 bound_to 10713
  153.0825  135.6623  154.0016 H   0  0  0  0  0  0  0  0  0  0  0  0  # atno 10763 bound_to 10752
  153.9634  135.2972  155.3433 H   0  0  0  0  0  0  0  0  0  0  0  0  # atno 10764 bound_to 10752
  154.7227  135.5157  153.8909 H   0  0  0  0  0  0  0  0  0  0  0  0  # atno 10765 bound_to 10752
  140.3971  134.1758  155.7663 H   0  0  0  0  0  0  0  0  0  0  0  0  # atno 11005 bound_to 11000
  144.7467  140.5087  143.6830 LP  0  0  0  0  0  0  0  0  0  0  0  0  # atno 17320 bound_to 7965
  145.5769  139.1486  143.3257 LP  0  0  0  0  0  0  0  0  0  0  0  0  # atno 17321 bound_to 7965
  140.2289  144.4389  150.6308 LP  0  0  0  0  0  0  0  0  0  0  0  0  # atno 17342 bound_to 10162
  140.6368  143.2196  151.6376 LP  0  0  0  0  0  0  0  0  0  0  0  0  # atno 17343 bound_to 10162
  157.3675  131.0760  151.1586 LP  0  0  0  0  0  0  0  0  0  0  0  0  # atno 17370 bound_to 10713
  157.2350  130.6543  149.5865 LP  0  0  0  0  0  0  0  0  0  0  0  0  # atno 17371 bound_to 10713
  141.1870  133.8290  157.1047 LP  0  0  0  0  0  0  0  0  0  0  0  0  # atno 17394 bound_to 11000
  140.0364  134.9876  157.0878 LP  0  0  0  0  0  0  0  0  0  0  0  0  # atno 17395 bound_to 11000

$$$$
