AV-unprocessed.smi:2518|AV-procd|sdf|9902|dock5
  -GOLD-   2272013543D 1   1.00000     0.00000
 Structure written by MMmdl.
 41 43  0  0  0  0  0  0  0  0  1 V2000
  145.6528  142.9765  154.2677 C   0  0  0  0  0  0  0  0  0  0  0  0
  146.6464  141.8398  154.3910 C   0  0  0  0  0  0  0  0  0  0  0  0
  146.2084  140.5460  154.7361 C   0  0  0  0  0  0  0  0  0  0  0  0
  147.1366  139.4936  154.8518 C   0  0  0  0  0  0  0  0  0  0  0  0
  148.5110  139.7137  154.6266 C   0  0  0  0  0  0  0  0  0  0  0  0
  149.3484  138.6270  154.7615 O   0  0  0  0  0  0  0  0  0  0  0  0
  150.7432  138.8278  154.5782 C   0  0  0  0  0  0  0  0  0  0  0  0
  151.4046  139.0457  155.9514 C   0  0  1  0  0  0  0  0  0  0  0  0
  152.5304  139.8824  155.7775 O   0  0  0  0  0  0  0  0  0  0  0  0
  150.4871  139.7302  156.9854 C   0  0  0  0  0  0  0  0  0  0  0  0
  150.9559  141.0509  157.3783 N   0  0  0  0  0  0  0  0  0  0  0  0
  150.5189  142.1424  156.6993 N   0  0  0  0  0  0  0  0  0  0  0  0
  151.1043  143.1890  157.2778 C   0  0  0  0  0  0  0  0  0  0  0  0
  151.9454  142.8001  158.3562 C   0  0  0  0  0  0  0  0  0  0  0  0
  152.8014  143.5041  159.3060 C   0  0  0  0  0  0  0  0  0  0  0  0
  153.4505  142.8037  160.1826 N   0  0  0  0  0  0  0  0  0  0  0  0
  153.3417  141.4089  160.2244 N   0  0  0  0  0  0  0  0  0  0  0  0
  154.1421  140.7637  161.2625 C   0  0  0  0  0  0  0  0  0  0  0  0
  152.5757  140.6560  159.3788 C   0  0  0  0  0  0  0  0  0  0  0  0
  152.5106  139.4274  159.4182 O   0  0  0  0  0  0  0  0  0  0  0  0
  151.8206  141.4501  158.3794 C   0  0  0  0  0  0  0  0  0  0  0  0
  148.9455  141.0190  154.2814 C   0  0  0  0  0  0  0  0  0  0  0  0
  148.0176  142.0723  154.1660 C   0  0  0  0  0  0  0  0  0  0  0  0
  144.6433  142.6000  154.0989 H   0  0  0  0  0  0  0  0  0  0  0  0
  145.9142  143.6266  153.4322 H   0  0  0  0  0  0  0  0  0  0  0  0
  145.6485  143.5733  155.1800 H   0  0  0  0  0  0  0  0  0  0  0  0
  145.1601  140.3552  154.9138 H   0  0  0  0  0  0  0  0  0  0  0  0
  146.7898  138.5056  155.1169 H   0  0  0  0  0  0  0  0  0  0  0  0
  151.2066  137.9896  154.0548 H   0  0  0  0  0  0  0  0  0  0  0  0
  150.8672  139.7169  153.9607 H   0  0  0  0  0  0  0  0  0  0  0  0
  151.7385  138.0882  156.3536 H   0  0  0  0  0  0  0  0  0  0  0  0
  152.2586  140.6589  155.3125 H   0  0  0  0  0  0  0  0  0  0  0  0
  149.4829  139.8395  156.5726 H   0  0  0  0  0  0  0  0  0  0  0  0
  150.3775  139.1100  157.8744 H   0  0  0  0  0  0  0  0  0  0  0  0
  150.9021  144.1802  156.8996 H   0  0  0  0  0  0  0  0  0  0  0  0
  152.8883  144.5901  159.2744 H   0  0  0  0  0  0  0  0  0  0  0  0
  153.5107  140.1625  161.9187 H   0  0  0  0  0  0  0  0  0  0  0  0
  154.6665  141.4898  161.8859 H   0  0  0  0  0  0  0  0  0  0  0  0
  154.8914  140.1091  160.8150 H   0  0  0  0  0  0  0  0  0  0  0  0
  149.9865  141.2398  154.1006 H   0  0  0  0  0  0  0  0  0  0  0  0
  148.3632  143.0615  153.9033 H   0  0  0  0  0  0  0  0  0  0  0  0
  1  2  1  0  0  0  0
  1 24  1  0  0  0  0
  1 25  1  0  0  0  0
  1 26  1  0  0  0  0
  2 23  1  0  0  0  0
  2  3  2  0  0  0  0
  3  4  1  0  0  0  0
  3 27  1  0  0  0  0
  4  5  2  0  0  0  0
  4 28  1  0  0  0  0
  5  6  1  0  0  0  0
  5 22  1  0  0  0  0
  6  7  1  0  0  0  0
  7  8  1  0  0  0  0
  7 29  1  0  0  0  0
  7 30  1  0  0  0  0
  8  9  1  0  0  0  0
  8 10  1  0  0  0  0
  8 31  1  0  0  0  0
  9 32  1  0  0  0  0
 10 11  1  0  0  0  0
 10 33  1  0  0  0  0
 10 34  1  0  0  0  0
 11 21  1  0  0  0  0
 11 12  1  0  0  0  0
 12 13  2  0  0  0  0
 13 14  1  0  0  0  0
 13 35  1  0  0  0  0
 14 21  2  0  0  0  0
 14 15  1  0  0  0  0
 15 16  2  0  0  0  0
 15 36  1  0  0  0  0
 16 17  1  0  0  0  0
 17 18  1  0  0  0  0
 17 19  1  0  0  0  0
 18 37  1  0  0  0  0
 18 38  1  0  0  0  0
 18 39  1  0  0  0  0
 19 20  2  0  0  0  0
 19 21  1  0  0  0  0
 22 23  2  0  0  0  0
 22 40  1  0  0  0  0
 23 41  1  0  0  0  0
M  END
> <s_m_source_file>
AV-unprocessed.smi

> <i_m_source_file_index>
2518

> <i_lp_mmshare_version>
43012

> <i_f3d_flags>
0

> <s_epik_input>
W0NIM11jMVtjSF1bY0hdYyhbY0hdW2NIXTEpT1tDSDJdW0NASF0oW09IXSlbQ0gyXW4obltjSF0yKWMoYzIzKWMoPU8pbihbQ0gzXSluW2NIXTM=

> <s_epik_cmdline>
J2VwaWtfcHl0aG9uJywgJy1waCcsICc3LjAnLCAnLXRuJywgJzgnLCAnLW1hJywgJzIwMCcsICctbWV0YWxfYmluZGluZycsICctaW1hZScsICc8aW5maWxlLm1hZT4nLCAnLW9tYWUnLCAnPG91dGZpbGUubWFlPic=

> <r_lp_tautomer_probability>
1

> <r_epik_Ionization_Penalty>
2.246e-06

> <r_epik_Ionization_Penalty_Charging>
1.41975e-10

> <r_epik_Ionization_Penalty_Neutral>
2.24586e-06

> <r_epik_State_Penalty>
-0

> <r_epik_Charging_Adjusted_Penalty>
1.41975e-10

> <i_epik_Tot_Q>
0

> <i_epik_Tot_abs_Q>
0

> <r_epik_Metal_State_Penalty>
-0

> <b_epik_Metal_Only>
0

> <s_lp_Force_Field>
OPLS_2005

> <r_lp_Energy>
31.8709

> <b_lp_Chiralities_Consistent>
1

> <s_lp_Variant>
AV-unprocessed.smi:2518-2

> <Gold.Version>
5.8.1

> <Gold.Id.Protein>
6NUR|6NUR_protein|mol2

> <Gold.PLP.Fitness>
45.5988

> <Gold.PLP.PLP>
-43.3197

> <Gold.PLP.part.hbond>
-1.0000

> <Gold.PLP.part.metal>
0.0000

> <Gold.PLP.part.buried>
-4.1862

> <Gold.PLP.part.nonpolar>
-39.2295

> <Gold.PLP.part.repulsive>
0.2593

> <Gold.PLP.ligand.clash>
0.0000

> <Gold.PLP.ligand.torsion>
1.7170

> <Gold.PLP.Chemscore.Hbond>
1.0000

> <Gold.PLP.Chemscore.CHOScore>
0.8924

> <Gold.PLP.Chemscore.Metal>
0.0000

> <Gold.Chemscore.Hbonds>
donor molecule, donor type, donor heavy atom, donor atom, acceptor molecule, acceptor atom, score
      P1  H  7997  8009       L1     9  1.00
      L1  C    13    35       P1  8028  0.88

> <Gold.PLP.Chemscore.Internal.Correction>
0.0357

> <Gold.Rescore>
     Score         DG    S(hbond)    S(metal)    S(lipo)     H(rot)  DE(clash)    DE(int)     intcor
     13.05     -15.11       0.88        0.00     108.54       2.35       0.34       1.72       ----

> <Gold.Chemscore.Fitness>
13.0541

> <Gold.Chemscore.DG>
-15.1149

> <Gold.Chemscore.ZeroCoef>
-5.4800

> <Gold.Chemscore.Hbond>
0.8831

> <Gold.Chemscore.Metal>
0.0000

> <Gold.Chemscore.Lipo>
108.5361

> <Gold.Chemscore.Internal_Hbond>
0.0000

> <Gold.Chemscore.DEClash>
0.3422

> <Gold.Chemscore.DEInternal>
1.7185

> <Gold.Chemscore.Rot>
2.3490

> <Gold.Chemscore.Internal.Correction>
   9.000000E+99

> <Gold.Chemscore.Hbonds>
donor molecule, donor type, donor heavy atom, donor atom, acceptor molecule, acceptor atom, score
      P1  H  7997  8009       L1     9  0.55

> <Gold.Chemscore.Hbond.Weighted>
-2.9497

> <Gold.Chemscore.Metal.Weighted>
-0.0000

> <Gold.Chemscore.Lipo.Weighted>
-12.6987

> <Gold.Chemscore.Internal_Hbond.Weighted>
0.0000

> <Gold.Chemscore.DEClash.Weighted>
0.3422

> <Gold.Chemscore.DEInternal.Weighted>
1.7185

> <Gold.Chemscore.Rot.Weighted>
6.0136

> <Gold.Chemscore.Internal.Correction.Weighted>
   9.000000E+99

> <Gold.Protein.RotatedTorsions>
[ 6907 6896 6895 6894 ] final  173.18 input  -60.11 | X-H torsion
[ 7974 7965 7964 7962 ] final -166.99 input  175.53 | X-H torsion
[ 8008 7997 7996 7995 ] final -156.65 input   59.86 | X-H torsion
[ 10167 10162 10161 10158 ] final   -8.43 input  -65.29 | X-H torsion
[ 10718 10713 10712 10709 ] final   92.67 input   66.30 | X-H torsion
[ 10763 10752 10751 10750 ] final    5.69 input  -60.55 | X-H torsion
[ 11005 11000 10999 10996 ] final  -77.75 input  -57.11 | X-H torsion

> <Gold.Protein.ActiveResidues>
 VAL166  LYS551  ARG553  GLY616  TRP617  ASP618  TYR619  PRO620  LYS621  CYS622 
 ASP623  PHE694  ASN695  SER759  ASP760  ASP761  ALA762  ILE779  LEU786  VAL792 
 PHE793  MET794  SER795  GLU796  ALA797  LYS798  CYS799  TRP800  GLU811  SER814 

> <Gold.Protein.RotatedAtoms>
  151.7725  133.3342  159.3448 H   0  0  0  0  0  0  0  0  0  0  0  0  # atno 6907 bound_to 6896
  150.7456  134.6006  159.6044 H   0  0  0  0  0  0  0  0  0  0  0  0  # atno 6908 bound_to 6896
  152.3331  134.7234  160.0335 H   0  0  0  0  0  0  0  0  0  0  0  0  # atno 6909 bound_to 6896
  144.7233  140.2585  143.6268 H   0  0  0  0  0  0  0  0  0  0  0  0  # atno 7974 bound_to 7965
  155.7204  140.0789  157.2333 H   0  0  0  0  0  0  0  0  0  0  0  0  # atno 8008 bound_to 7997
  154.4046  140.1613  156.2450 H   0  0  0  0  0  0  0  0  0  0  0  0  # atno 8009 bound_to 7997
  155.9201  140.3398  155.6169 H   0  0  0  0  0  0  0  0  0  0  0  0  # atno 8010 bound_to 7997
  140.7059  143.5970  150.8836 H   0  0  0  0  0  0  0  0  0  0  0  0  # atno 10167 bound_to 10162
  157.6958  131.0451  150.3917 H   0  0  0  0  0  0  0  0  0  0  0  0  # atno 10718 bound_to 10713
  153.2565  135.6919  153.7624 H   0  0  0  0  0  0  0  0  0  0  0  0  # atno 10763 bound_to 10752
  153.6699  135.3346  155.3151 H   0  0  0  0  0  0  0  0  0  0  0  0  # atno 10764 bound_to 10752
  154.8414  135.4497  154.1540 H   0  0  0  0  0  0  0  0  0  0  0  0  # atno 10765 bound_to 10752
  141.1662  133.7035  156.7867 H   0  0  0  0  0  0  0  0  0  0  0  0  # atno 11005 bound_to 11000
  145.8159  139.2023  143.1966 LP  0  0  0  0  0  0  0  0  0  0  0  0  # atno 17320 bound_to 7965
  146.0556  140.8024  142.9760 LP  0  0  0  0  0  0  0  0  0  0  0  0  # atno 17321 bound_to 7965
  139.9694  143.6073  152.2978 LP  0  0  0  0  0  0  0  0  0  0  0  0  # atno 17342 bound_to 10162
  139.6655  144.7662  151.1882 LP  0  0  0  0  0  0  0  0  0  0  0  0  # atno 17343 bound_to 10162
  156.4320  130.3974  149.6754 LP  0  0  0  0  0  0  0  0  0  0  0  0  # atno 17370 bound_to 10713
  156.3968  130.7655  151.2660 LP  0  0  0  0  0  0  0  0  0  0  0  0  # atno 17371 bound_to 10713
  140.2355  134.8653  157.3520 LP  0  0  0  0  0  0  0  0  0  0  0  0  # atno 17394 bound_to 11000
  140.1848  134.4445  155.7750 LP  0  0  0  0  0  0  0  0  0  0  0  0  # atno 17395 bound_to 11000

$$$$
