#       Name:                AV-unprocessed.smi:2910
#       Creating user name   scv26
#       Creation time:       Fri Mar 27 16:06:42 2020


#       File generated by GOLD software.
#

@<TRIPOS>MOLECULE
AV-unprocessed.smi:2910
    52    53     1
SMALL
NO_CHARGES


@<TRIPOS>ATOM
      1 ****        -5.0384   4.2815  -0.3416 C.3            1 S1                 0.0000
      2 ****        -4.3893   2.9331  -0.4451 C.2            1 S1                 0.0000
      3 ****        -2.9973   2.6275  -0.4466 C.2            1 S1                 0.0000
      4 ****        -2.9884   1.2640  -0.5582 C.2            1 S1                 0.0000
      5 ****        -1.9262   0.4165  -0.6016 N.am           1 S1                 0.0000
      6 ****        -0.6149   0.7121  -0.5848 C.2            1 S1                 0.0000
      7 ****        -0.1406   1.8478  -0.5570 O.2            1 S1                 0.0000
      8 ****         0.1300  -0.4038  -0.6059 N.am           1 S1                 0.0000
      9 ****         1.5943  -0.4635  -0.5830 C.3            1 S1                 0.0000
     10 ****         2.0929  -1.0948  -1.9050 C.3            1 S1                 0.0000
     11 ****         1.6208  -0.3603  -3.1724 C.3            1 S1                 0.0000
     12 ****         2.1970  -0.9593  -4.3129 O.3            1 S1                 0.0000
     13 ****         2.0762  -1.2182   0.6904 C.3            1 S1                 0.0000
     14 ****         1.4757  -0.6179   1.9884 C.3            1 S1                 0.0000
     15 ****         1.9545  -1.3501   3.2517 C.3            1 S1                 0.0000
     16 ****         3.4849  -1.3589   3.3419 C.3            1 S1                 0.0000
     17 ****         4.0949  -1.9801   2.0796 C.3            1 S1                 0.0000
     18 ****         3.6202  -1.2530   0.8109 C.3            1 S1                 0.0000
     19 ****        -4.2887   0.8141  -0.6167 N.pl3          1 S1                 0.0000
     20 ****        -4.7894  -0.5414  -0.7363 C.3            1 S1                 0.0000
     21 ****        -5.1520   1.8504  -0.5480 N.2            1 S1                 0.0000
     22 ****        -4.2922   5.0740  -0.2823 H              1 S1                 0.0000
     23 ****        -5.6635   4.3484   0.5492 H              1 S1                 0.0000
     24 ****        -5.6680   4.4828  -1.2086 H              1 S1                 0.0000
     25 ****        -2.1638   3.3097  -0.3741 H              1 S1                 0.0000
     26 ****        -2.1607  -0.5642  -0.6431 H              1 S1                 0.0000
     27 ****        -0.3527  -1.2902  -0.6292 H              1 S1                 0.0000
     28 ****         2.0016   0.5480  -0.5340 H              1 S1                 0.0000
     29 ****         3.1819  -1.1007  -1.9206 H              1 S1                 0.0000
     30 ****         1.7805  -2.1390  -1.9529 H              1 S1                 0.0000
     31 ****         0.5362  -0.3985  -3.2737 H              1 S1                 0.0000
     32 ****         1.9102   0.6904  -3.1384 H              1 S1                 0.0000
     33 ****         1.9095  -0.4859  -5.0788 H              1 S1                 0.0000
     34 ****         1.7280  -2.2497   0.6161 H              1 S1                 0.0000
     35 ****         1.7401   0.4381   2.0588 H              1 S1                 0.0000
     36 ****         0.3868  -0.6590   1.9681 H              1 S1                 0.0000
     37 ****         1.5336  -0.8743   4.1378 H              1 S1                 0.0000
     38 ****         1.5815  -2.3751   3.2441 H              1 S1                 0.0000
     39 ****         3.8526  -0.3395   3.4655 H              1 S1                 0.0000
     40 ****         3.8044  -1.9141   4.2242 H              1 S1                 0.0000
     41 ****         5.1831  -1.9479   2.1398 H              1 S1                 0.0000
     42 ****         3.8199  -3.0340   2.0211 H              1 S1                 0.0000
     43 ****         4.0652  -1.7575  -0.0453 H              1 S1                 0.0000
     44 ****         4.0119  -0.2349   0.8080 H              1 S1                 0.0000
     45 ****        -4.3764  -1.1561   0.0637 H              1 S1                 0.0000
     46 ****        -4.4896  -0.9578  -1.6982 H              1 S1                 0.0000
     47 ****        -5.8781  -0.5571  -0.6666 H              1 S1                 0.0000
     48 ****        -0.7471   2.6428  -0.5451 LP             1 S1                 0.0000
     49 ****         0.8512   1.9753  -0.5463 LP             1 S1                 0.0000
     50 ****         1.9045  -1.9134  -4.3767 LP             1 S1                 0.0000
     51 ****         3.1941  -0.9201  -4.2469 LP             1 S1                 0.0000
     52 ****        -6.1509   1.8111  -0.5699 LP             1 S1                 0.0000
@<TRIPOS>BOND
    1    1    2 1     
    2    1   22 1     
    3    1   23 1     
    4    1   24 1     
    5    2   21 2     
    6    2    3 1     
    7    3    4 2     
    8    3   25 1     
    9    4    5 1     
   10    4   19 1     
   11    5    6 am    
   12    5   26 1     
   13    6    7 2     
   14    6    8 am    
   15    8    9 1     
   16    8   27 1     
   17    9   10 1     
   18    9   13 1     
   19    9   28 1     
   20   10   11 1     
   21   10   29 1     
   22   10   30 1     
   23   11   12 1     
   24   11   31 1     
   25   11   32 1     
   26   12   33 1     
   27   13   18 1     
   28   13   14 1     
   29   13   34 1     
   30   14   15 1     
   31   14   35 1     
   32   14   36 1     
   33   15   16 1     
   34   15   37 1     
   35   15   38 1     
   36   16   17 1     
   37   16   39 1     
   38   16   40 1     
   39   17   18 1     
   40   17   41 1     
   41   17   42 1     
   42   18   43 1     
   43   18   44 1     
   44   19   20 1     
   45   19   21 1     
   46   20   45 1     
   47   20   46 1     
   48   20   47 1     
   49    7   48 1     
   50    7   49 1     
   51   12   50 1     
   52   12   51 1     
   53   21   52 1     
@<TRIPOS>SUBSTRUCTURE
      1 S1             1
@<TRIPOS>SET
LONE_PAIRS      STATIC     ATOMS    <user>   **** ""
5 48 49 50 51 52
DONOR_HYDROGENS      STATIC     ATOMS    <user>   **** ""
3 26 27 33
ATOM$BLUE        STATIC     ATOMS    COLORGROUP SYSTEM
5 48 49 50 51 52
ATOM$RED        STATIC     ATOMS    COLORGROUP SYSTEM
3 26 27 33
