AV-unprocessed.smi:2607|AV-procd|sdf|10198|dock2
  -GOLD-   2272014213D 1   1.00000     0.00000
 Structure written by MMmdl.
 22 23  0  0  0  0  0  0  0  0  1 V2000
  145.6495  134.1289  154.4705 C   0  0  0  0  0  0  0  0  0  0  0  0
  144.5816  134.3986  153.3927 C   0  0  1  0  0  0  0  0  0  0  0  0
  144.8333  133.5780  152.1172 C   0  0  0  0  0  0  0  0  0  0  0  0
  143.9400  133.5899  151.0156 C   0  0  0  0  0  0  0  0  0  0  0  0
  144.1669  132.8640  149.8983 N   0  0  0  0  0  0  0  0  0  0  0  0
  145.2921  132.1173  149.8784 C   0  0  0  0  0  0  0  0  0  0  0  0
  146.1844  132.0940  150.9696 C   0  0  0  0  0  0  0  0  0  0  0  0
  145.9575  132.8189  152.0866 N   0  0  0  0  0  0  0  0  0  0  0  0
  143.2520  134.1931  153.9544 N   0  0  0  0  0  0  0  0  0  0  0  0
  142.4834  135.2887  153.9068 C   0  0  0  0  0  0  0  0  0  0  0  0
  141.3172  135.3701  154.2845 O   0  0  0  0  0  0  0  0  0  0  0  0
  143.2139  136.2782  153.3870 N   0  0  0  0  0  0  0  0  0  0  0  0
  144.4502  135.8899  153.0802 C   0  0  0  0  0  0  0  0  0  0  0  0
  145.3480  136.6033  152.6345 O   0  0  0  0  0  0  0  0  0  0  0  0
  146.6532  134.3474  154.1040 H   0  0  0  0  0  0  0  0  0  0  0  0
  145.6344  133.0840  154.7823 H   0  0  0  0  0  0  0  0  0  0  0  0
  145.4871  134.7394  155.3601 H   0  0  0  0  0  0  0  0  0  0  0  0
  143.0353  134.1789  151.0162 H   0  0  0  0  0  0  0  0  0  0  0  0
  145.4812  131.5346  148.9891 H   0  0  0  0  0  0  0  0  0  0  0  0
  147.0813  131.4930  150.9469 H   0  0  0  0  0  0  0  0  0  0  0  0
  142.9429  133.2996  154.3087 H   0  0  0  0  0  0  0  0  0  0  0  0
  142.8738  137.2202  153.2604 H   0  0  0  0  0  0  0  0  0  0  0  0
  1  2  1  0  0  0  0
  1 15  1  0  0  0  0
  1 16  1  0  0  0  0
  1 17  1  0  0  0  0
  2 13  1  0  0  0  0
  2  3  1  0  0  0  0
  2  9  1  0  0  0  0
  3  8  1  0  0  0  0
  3  4  2  0  0  0  0
  4  5  1  0  0  0  0
  4 18  1  0  0  0  0
  5  6  2  0  0  0  0
  6  7  1  0  0  0  0
  6 19  1  0  0  0  0
  7  8  2  0  0  0  0
  7 20  1  0  0  0  0
  9 10  1  0  0  0  0
  9 21  1  0  0  0  0
 10 11  2  0  0  0  0
 10 12  1  0  0  0  0
 12 13  1  0  0  0  0
 12 22  1  0  0  0  0
 13 14  2  0  0  0  0
M  END
> <s_m_source_file>
AV-unprocessed.smi

> <i_m_source_file_index>
2607

> <i_lp_mmshare_version>
43012

> <i_f3d_flags>
0

> <s_epik_input>
Tz1DMVtOSF1DKD1PKVtOSF1bQ0BAXTEoW0NIM10pYzJbY0hdbltjSF1bY0hdbjI=

> <s_epik_cmdline>
J2VwaWtfcHl0aG9uJywgJy1waCcsICc3LjAnLCAnLXRuJywgJzgnLCAnLW1hJywgJzIwMCcsICctbWV0YWxfYmluZGluZycsICctaW1hZScsICc8aW5maWxlLm1hZT4nLCAnLW9tYWUnLCAnPG91dGZpbGUubWFlPic=

> <r_lp_tautomer_probability>
1

> <r_epik_Ionization_Penalty>
0.0333762

> <r_epik_Ionization_Penalty_Charging>
0

> <r_epik_Ionization_Penalty_Neutral>
0.0333762

> <r_epik_State_Penalty>
0.027503

> <r_epik_Charging_Adjusted_Penalty>
0.027503

> <i_epik_Tot_Q>
0

> <i_epik_Tot_abs_Q>
0

> <r_epik_Metal_State_Penalty>
0.445281

> <b_epik_Metal_Only>
0

> <s_lp_Force_Field>
OPLS_2005

> <r_lp_Energy>
24.1998

> <b_lp_Chiralities_Consistent>
1

> <s_lp_Variant>
AV-unprocessed.smi:2607-1

> <Gold.Version>
5.8.1

> <Gold.Id.Protein>
6NUR|6NUR_protein|mol2

> <Gold.PLP.Fitness>
32.6266

> <Gold.PLP.PLP>
-20.6909

> <Gold.PLP.part.hbond>
-2.6922

> <Gold.PLP.part.metal>
0.0000

> <Gold.PLP.part.buried>
-4.7882

> <Gold.PLP.part.nonpolar>
-13.9528

> <Gold.PLP.part.repulsive>
1.3727

> <Gold.PLP.ligand.clash>
0.0000

> <Gold.PLP.ligand.torsion>
0.0910

> <Gold.PLP.Chemscore.Hbond>
2.0000

> <Gold.PLP.Chemscore.CHOScore>
2.0000

> <Gold.PLP.Chemscore.Metal>
0.0000

> <Gold.Chemscore.Hbonds>
donor molecule, donor type, donor heavy atom, donor atom, acceptor molecule, acceptor atom, score
      L1  H     9    21       P1 10957  1.00
      P1  H 11000 11005       L1    11  0.81
      L1  C     4    18       P1 10186  1.00
      L1  C     7    20       P1 10747  1.00

> <Gold.PLP.Chemscore.Internal.Correction>
0.1177

> <Gold.Rescore>
     Score         DG    S(hbond)    S(metal)    S(lipo)     H(rot)  DE(clash)    DE(int)     intcor
     13.48     -13.55       1.98        0.00      34.38       1.00       0.00       0.07       ----

> <Gold.Chemscore.Fitness>
13.4751

> <Gold.Chemscore.DG>
-13.5500

> <Gold.Chemscore.ZeroCoef>
-5.4800

> <Gold.Chemscore.Hbond>
1.9782

> <Gold.Chemscore.Metal>
0.0000

> <Gold.Chemscore.Lipo>
34.3822

> <Gold.Chemscore.Internal_Hbond>
0.0000

> <Gold.Chemscore.DEClash>
0.0019

> <Gold.Chemscore.DEInternal>
0.0730

> <Gold.Chemscore.Rot>
1.0000

> <Gold.Chemscore.Internal.Correction>
   9.000000E+99

> <Gold.Chemscore.Hbonds>
donor molecule, donor type, donor heavy atom, donor atom, acceptor molecule, acceptor atom, score
      L1  H     9    21       P1 10957  0.99
      P1  H 11000 11005       L1    11  0.76

> <Gold.Chemscore.Hbond.Weighted>
-6.6072

> <Gold.Chemscore.Metal.Weighted>
-0.0000

> <Gold.Chemscore.Lipo.Weighted>
-4.0227

> <Gold.Chemscore.Internal_Hbond.Weighted>
0.0000

> <Gold.Chemscore.DEClash.Weighted>
0.0019

> <Gold.Chemscore.DEInternal.Weighted>
0.0730

> <Gold.Chemscore.Rot.Weighted>
2.5600

> <Gold.Chemscore.Internal.Correction.Weighted>
   9.000000E+99

> <Gold.Protein.RotatedTorsions>
[ 6907 6896 6895 6894 ] final  -93.85 input  -60.11 | X-H torsion
[ 7974 7965 7964 7962 ] final  136.61 input  175.53 | X-H torsion
[ 8008 7997 7996 7995 ] final  105.39 input   59.86 | X-H torsion
[ 10167 10162 10161 10158 ] final  110.79 input  -65.29 | X-H torsion
[ 10718 10713 10712 10709 ] final   88.45 input   66.30 | X-H torsion
[ 10763 10752 10751 10750 ] final -113.48 input  -60.55 | X-H torsion
[ 11005 11000 10999 10996 ] final   29.49 input  -57.11 | X-H torsion

> <Gold.Protein.ActiveResidues>
 VAL166  LYS551  ARG553  GLY616  TRP617  ASP618  TYR619  PRO620  LYS621  CYS622 
 ASP623  PHE694  ASN695  SER759  ASP760  ASP761  ALA762  ILE779  LEU786  VAL792 
 PHE793  MET794  SER795  GLU796  ALA797  LYS798  CYS799  TRP800  GLU811  SER814 

> <Gold.Protein.RotatedAtoms>
  150.6930  134.1903  159.4282 H   0  0  0  0  0  0  0  0  0  0  0  0  # atno 6907 bound_to 6896
  151.9874  134.9995  160.0569 H   0  0  0  0  0  0  0  0  0  0  0  0  # atno 6908 bound_to 6896
  152.1699  133.4602  159.4941 H   0  0  0  0  0  0  0  0  0  0  0  0  # atno 6909 bound_to 6896
  144.9548  139.4777  143.5508 H   0  0  0  0  0  0  0  0  0  0  0  0  # atno 7974 bound_to 7965
  156.1654  140.3131  155.8880 H   0  0  0  0  0  0  0  0  0  0  0  0  # atno 8008 bound_to 7997
  155.3696  140.0481  157.3062 H   0  0  0  0  0  0  0  0  0  0  0  0  # atno 8009 bound_to 7997
  154.5188  140.2191  155.9026 H   0  0  0  0  0  0  0  0  0  0  0  0  # atno 8010 bound_to 7997
  139.6661  144.7127  151.1775 H   0  0  0  0  0  0  0  0  0  0  0  0  # atno 10167 bound_to 10162
  157.6949  131.0295  150.3276 H   0  0  0  0  0  0  0  0  0  0  0  0  # atno 10718 bound_to 10713
  154.8398  135.4453  154.1355 H   0  0  0  0  0  0  0  0  0  0  0  0  # atno 10763 bound_to 10752
  153.2554  135.6931  153.7640 H   0  0  0  0  0  0  0  0  0  0  0  0  # atno 10764 bound_to 10752
  153.6937  135.3383  155.3184 H   0  0  0  0  0  0  0  0  0  0  0  0  # atno 10765 bound_to 10752
  140.3044  134.2720  155.7747 H   0  0  0  0  0  0  0  0  0  0  0  0  # atno 11005 bound_to 11000
  146.3333  139.8659  142.8848 LP  0  0  0  0  0  0  0  0  0  0  0  0  # atno 17320 bound_to 7965
  145.2788  141.0132  143.3729 LP  0  0  0  0  0  0  0  0  0  0  0  0  # atno 17321 bound_to 7965
  140.7599  143.5918  150.8789 LP  0  0  0  0  0  0  0  0  0  0  0  0  # atno 17342 bound_to 10162
  139.9579  143.6197  152.3010 LP  0  0  0  0  0  0  0  0  0  0  0  0  # atno 17343 bound_to 10162
  156.3755  130.3871  149.7142 LP  0  0  0  0  0  0  0  0  0  0  0  0  # atno 17370 bound_to 10713
  156.4542  130.7921  151.2942 LP  0  0  0  0  0  0  0  0  0  0  0  0  # atno 17371 bound_to 10713
  141.2121  133.7667  156.9815 LP  0  0  0  0  0  0  0  0  0  0  0  0  # atno 17394 bound_to 11000
  140.1080  134.9494  157.2023 LP  0  0  0  0  0  0  0  0  0  0  0  0  # atno 17395 bound_to 11000

$$$$
