#       Name:                AV-unprocessed.smi:3184
#       Creating user name   scv26
#       Creation time:       Fri Mar 27 17:59:59 2020


#       File generated by GOLD software.
#

@<TRIPOS>MOLECULE
AV-unprocessed.smi:3184
    37    38     1
SMALL
NO_CHARGES


@<TRIPOS>ATOM
      1 ****         0.0909  -3.0499  -1.5177 C.3            1 S1                 0.0000
      2 ****         0.4652  -2.1126  -0.3610 C.3            1 S1                 0.0000
      3 ****         1.9908  -1.9364  -0.2386 C.3            1 S1                 0.0000
      4 ****         2.3576  -1.1232   0.9066 N.pl3          1 S1                 0.0000
      5 ****         2.4013  -1.5194   2.2365 C.2            1 S1                 0.0000
      6 ****         2.7881  -0.4158   2.9628 C.2            1 S1                 0.0000
      7 ****         2.9886   0.6634   2.1053 N.2            1 S1                 0.0000
      8 ****         2.7163   0.1681   0.9051 C.2            1 S1                 0.0000
      9 ****        -0.1712  -0.8120  -0.5594 N.am           1 S1                 0.0000
     10 ****        -1.2535  -0.3549   0.0934 C.2            1 S1                 0.0000
     11 ****        -1.8802  -1.0292   0.9115 O.2            1 S1                 0.0000
     12 ****        -1.5835   0.9175  -0.2172 N.am           1 S1                 0.0000
     13 ****        -0.8958   1.7883  -1.1758 C.3            1 S1                 0.0000
     14 ****        -1.7709   3.0349  -1.3080 C.3            1 S1                 0.0000
     15 ****        -2.5396   3.0919   0.0043 C.3            1 S1                 0.0000
     16 ****        -2.6988   1.6261   0.4080 C.3            1 S1                 0.0000
     17 ****         0.5422  -4.0337  -1.3858 H              1 S1                 0.0000
     18 ****         0.4291  -2.6543  -2.4760 H              1 S1                 0.0000
     19 ****        -0.9891  -3.1895  -1.5767 H              1 S1                 0.0000
     20 ****         0.1070  -2.5670   0.5646 H              1 S1                 0.0000
     21 ****         2.4747  -2.9079  -0.1308 H              1 S1                 0.0000
     22 ****         2.4009  -1.4804  -1.1411 H              1 S1                 0.0000
     23 ****         2.1562  -2.5242   2.5473 H              1 S1                 0.0000
     24 ****         2.9357  -0.3159   4.0280 H              1 S1                 0.0000
     25 ****         2.7723   0.7610   0.0038 H              1 S1                 0.0000
     26 ****         0.2720  -0.1883  -1.2182 H              1 S1                 0.0000
     27 ****         0.0852   2.0514  -0.7768 H              1 S1                 0.0000
     28 ****        -0.7532   1.3067  -2.1443 H              1 S1                 0.0000
     29 ****        -1.1929   3.9393  -1.5003 H              1 S1                 0.0000
     30 ****        -2.4712   2.9042  -2.1341 H              1 S1                 0.0000
     31 ****        -1.9432   3.6146   0.7533 H              1 S1                 0.0000
     32 ****        -3.4939   3.6119  -0.0854 H              1 S1                 0.0000
     33 ****        -3.6356   1.2215   0.0224 H              1 S1                 0.0000
     34 ****        -2.7020   1.5133   1.4934 H              1 S1                 0.0000
     35 ****         3.2715   1.5935   2.3395 LP             1 S1                 0.0000
     36 ****        -1.5895  -1.9637   1.1166 LP             1 S1                 0.0000
     37 ****        -2.6798  -0.6421   1.3707 LP             1 S1                 0.0000
@<TRIPOS>BOND
    1    1    2 1     
    2    1   17 1     
    3    1   18 1     
    4    1   19 1     
    5    2    3 1     
    6    2    9 1     
    7    2   20 1     
    8    3    4 1     
    9    3   21 1     
   10    3   22 1     
   11    4    8 1     
   12    4    5 1     
   13    5    6 2     
   14    5   23 1     
   15    6    7 1     
   16    6   24 1     
   17    7    8 2     
   18    8   25 1     
   19    9   10 am    
   20    9   26 1     
   21   10   11 2     
   22   10   12 am    
   23   12   16 1     
   24   12   13 1     
   25   13   14 1     
   26   13   27 1     
   27   13   28 1     
   28   14   15 1     
   29   14   29 1     
   30   14   30 1     
   31   15   16 1     
   32   15   31 1     
   33   15   32 1     
   34   16   33 1     
   35   16   34 1     
   36    7   35 1     
   37   11   36 1     
   38   11   37 1     
@<TRIPOS>SUBSTRUCTURE
      1 S1             1
@<TRIPOS>SET
LONE_PAIRS      STATIC     ATOMS    <user>   **** ""
3 35 36 37
DONOR_HYDROGENS      STATIC     ATOMS    <user>   **** ""
1 26
ATOM$BLUE        STATIC     ATOMS    COLORGROUP SYSTEM
3 35 36 37
ATOM$RED        STATIC     ATOMS    COLORGROUP SYSTEM
1 26
