AV-unprocessed.smi:1464|AV-procd|sdf|5945|dock1
  -GOLD-   22720 6 23D 1   1.00000     0.00000
 Structure written by MMmdl.
 41 42  0  0  0  0  0  0  0  0  1 V2000
  153.2338  142.2609  162.0495 C   0  0  0  0  0  0  0  0  0  0  0  0
  153.0034  143.1194  160.7922 C   0  0  2  0  0  0  0  0  0  0  0  0
  152.2186  144.3903  161.1745 C   0  0  0  0  0  0  0  0  0  0  0  0
  151.9871  145.3031  159.9657 C   0  0  0  0  0  0  0  0  0  0  0  0
  151.2486  144.5496  158.8561 C   0  0  0  0  0  0  0  0  0  0  0  0
  152.0142  143.2801  158.4355 C   0  0  2  0  0  0  0  0  0  0  0  0
  151.2515  142.5751  157.4066 N   0  0  0  0  0  0  0  0  0  0  0  0
  150.0261  142.0528  157.5657 C   0  0  0  0  0  0  0  0  0  0  0  0
  149.4111  142.0851  158.6324 O   0  0  0  0  0  0  0  0  0  0  0  0
  149.4196  141.3733  156.3296 C   0  0  0  0  0  0  0  0  0  0  0  0
  150.2817  140.3260  155.7632 N   0  0  0  0  0  0  0  0  0  0  0  0
  151.4616  140.1228  156.4627 N   0  0  0  0  0  0  0  0  0  0  0  0
  152.2948  139.2184  156.0722 C   0  0  0  0  0  0  0  0  0  0  0  0
  153.4496  139.0477  156.7956 O   0  0  0  0  0  0  0  0  0  0  0  0
  152.0256  138.4056  154.9061 C   0  0  0  0  0  0  0  0  0  0  0  0
  150.8763  138.6154  154.2276 C   0  0  0  0  0  0  0  0  0  0  0  0
  149.9096  139.6336  154.6427 C   0  0  0  0  0  0  0  0  0  0  0  0
  148.8571  139.8486  154.0417 O   0  0  0  0  0  0  0  0  0  0  0  0
  152.2942  142.3458  159.6442 C   0  0  1  0  0  0  0  0  0  0  0  0
  153.0946  141.0989  159.2071 C   0  0  0  0  0  0  0  0  0  0  0  0
  153.8668  138.2842  156.4275 H   0  0  0  0  0  0  0  0  0  0  0  0
  152.2995  141.8354  162.4167 H   0  0  0  0  0  0  0  0  0  0  0  0
  153.6645  142.8562  162.8551 H   0  0  0  0  0  0  0  0  0  0  0  0
  153.9272  141.4416  161.8625 H   0  0  0  0  0  0  0  0  0  0  0  0
  153.9824  143.4361  160.4294 H   0  0  0  0  0  0  0  0  0  0  0  0
  151.2574  144.1143  161.6107 H   0  0  0  0  0  0  0  0  0  0  0  0
  152.7568  144.9445  161.9444 H   0  0  0  0  0  0  0  0  0  0  0  0
  151.4133  146.1805  160.2653 H   0  0  0  0  0  0  0  0  0  0  0  0
  152.9433  145.6698  159.5902 H   0  0  0  0  0  0  0  0  0  0  0  0
  150.2489  144.2827  159.2020 H   0  0  0  0  0  0  0  0  0  0  0  0
  151.1127  145.2099  157.9987 H   0  0  0  0  0  0  0  0  0  0  0  0
  152.9774  143.5816  158.0185 H   0  0  0  0  0  0  0  0  0  0  0  0
  151.6836  142.4956  156.4976 H   0  0  0  0  0  0  0  0  0  0  0  0
  148.4441  140.9525  156.5818 H   0  0  0  0  0  0  0  0  0  0  0  0
  149.2217  142.1456  155.5842 H   0  0  0  0  0  0  0  0  0  0  0  0
  152.7322  137.6518  154.5916 H   0  0  0  0  0  0  0  0  0  0  0  0
  150.6621  138.0165  153.3548 H   0  0  0  0  0  0  0  0  0  0  0  0
  151.3318  141.9990  160.0245 H   0  0  0  0  0  0  0  0  0  0  0  0
  154.0937  141.3712  158.8654 H   0  0  0  0  0  0  0  0  0  0  0  0
  152.6046  140.5631  158.3942 H   0  0  0  0  0  0  0  0  0  0  0  0
  153.2029  140.3811  160.0191 H   0  0  0  0  0  0  0  0  0  0  0  0
  1  2  1  0  0  0  0
  1 22  1  0  0  0  0
  1 23  1  0  0  0  0
  1 24  1  0  0  0  0
  2 19  1  0  0  0  0
  2  3  1  0  0  0  0
  2 25  1  0  0  0  0
  3  4  1  0  0  0  0
  3 26  1  0  0  0  0
  3 27  1  0  0  0  0
  4  5  1  0  0  0  0
  4 28  1  0  0  0  0
  4 29  1  0  0  0  0
  5  6  1  0  0  0  0
  5 30  1  0  0  0  0
  5 31  1  0  0  0  0
  6  7  1  0  0  0  0
  6 19  1  0  0  0  0
  6 32  1  0  0  0  0
  7  8  1  0  0  0  0
  7 33  1  0  0  0  0
  8  9  2  0  0  0  0
  8 10  1  0  0  0  0
 10 34  1  0  0  0  0
 10 35  1  0  0  0  0
 10 11  1  0  0  0  0
 11 12  1  0  0  0  0
 11 17  1  0  0  0  0
 12 13  2  0  0  0  0
 13 14  1  0  0  0  0
 13 15  1  0  0  0  0
 14 21  1  0  0  0  0
 15 36  1  0  0  0  0
 15 16  2  0  0  0  0
 16 37  1  0  0  0  0
 16 17  1  0  0  0  0
 17 18  2  0  0  0  0
 19 20  1  0  0  0  0
 19 38  1  0  0  0  0
 20 39  1  0  0  0  0
 20 40  1  0  0  0  0
 20 41  1  0  0  0  0
M  END
> <s_m_source_file>
AV-unprocessed.smi

> <i_m_source_file_index>
1464

> <i_lp_mmshare_version>
43012

> <i_f3d_flags>
0

> <s_epik_input>
W0NIM11bQ0BASF0xW0NIMl1bQ0gyXVtDSDJdW0NASF0oW0NASF0xW0NIM10pW05IXUMoPU8pW0NIMl1uMltuSF1jKD1PKVtjSF1bY0hdYzI9Tw==

> <s_epik_cmdline>
J2VwaWtfcHl0aG9uJywgJy1waCcsICc3LjAnLCAnLXRuJywgJzgnLCAnLW1hJywgJzIwMCcsICctbWV0YWxfYmluZGluZycsICctaW1hZScsICc8aW5maWxlLm1hZT4nLCAnLW9tYWUnLCAnPG91dGZpbGUubWFlPic=

> <r_lp_tautomer_probability>
0.9996

> <r_epik_Ionization_Penalty>
2.10335

> <r_epik_Ionization_Penalty_Charging>
3.98079e-08

> <r_epik_Ionization_Penalty_Neutral>
2.10335

> <r_epik_State_Penalty>
1.67957

> <r_epik_Charging_Adjusted_Penalty>
1.67957

> <i_epik_Tot_Q>
0

> <i_epik_Tot_abs_Q>
0

> <r_epik_Metal_State_Penalty>
1.67957

> <b_epik_Metal_Only>
0

> <s_lp_Force_Field>
OPLS_2005

> <r_lp_Energy>
21.8095

> <b_lp_Chiralities_Consistent>
1

> <s_lp_Variant>
AV-unprocessed.smi:1464-11

> <Gold.Version>
5.8.1

> <Gold.Id.Protein>
6NUR|6NUR_protein|mol2

> <Gold.PLP.Fitness>
49.6443

> <Gold.PLP.PLP>
-46.6901

> <Gold.PLP.part.hbond>
-1.2717

> <Gold.PLP.part.metal>
0.0000

> <Gold.PLP.part.buried>
-8.1245

> <Gold.PLP.part.nonpolar>
-38.6818

> <Gold.PLP.part.repulsive>
1.1889

> <Gold.PLP.ligand.clash>
0.0000

> <Gold.PLP.ligand.torsion>
0.0278

> <Gold.PLP.Chemscore.Hbond>
1.0000

> <Gold.PLP.Chemscore.CHOScore>
0.0000

> <Gold.PLP.Chemscore.Metal>
0.0000

> <Gold.Chemscore.Hbonds>
donor molecule, donor type, donor heavy atom, donor atom, acceptor molecule, acceptor atom, score
      P1  H  7997  8008       L1    14  0.73

> <Gold.PLP.Chemscore.Internal.Correction>
0.0097

> <Gold.Rescore>
     Score         DG    S(hbond)    S(metal)    S(lipo)     H(rot)  DE(clash)    DE(int)     intcor
     13.37     -15.88       0.90        0.00     111.73       2.22       0.02       2.48       ----

> <Gold.Chemscore.Fitness>
13.3744

> <Gold.Chemscore.DG>
-15.8752

> <Gold.Chemscore.ZeroCoef>
-5.4800

> <Gold.Chemscore.Hbond>
0.9017

> <Gold.Chemscore.Metal>
0.0000

> <Gold.Chemscore.Lipo>
111.7347

> <Gold.Chemscore.Internal_Hbond>
0.0000

> <Gold.Chemscore.DEClash>
0.0191

> <Gold.Chemscore.DEInternal>
2.4818

> <Gold.Chemscore.Rot>
2.2224

> <Gold.Chemscore.Internal.Correction>
   9.000000E+99

> <Gold.Chemscore.Hbonds>
donor molecule, donor type, donor heavy atom, donor atom, acceptor molecule, acceptor atom, score
      P1  H  7997  8008       L1    14  0.31

> <Gold.Chemscore.Hbond.Weighted>
-3.0116

> <Gold.Chemscore.Metal.Weighted>
-0.0000

> <Gold.Chemscore.Lipo.Weighted>
-13.0730

> <Gold.Chemscore.Internal_Hbond.Weighted>
0.0000

> <Gold.Chemscore.DEClash.Weighted>
0.0191

> <Gold.Chemscore.DEInternal.Weighted>
2.4818

> <Gold.Chemscore.Rot.Weighted>
5.6893

> <Gold.Chemscore.Internal.Correction.Weighted>
   9.000000E+99

> <Gold.Protein.RotatedTorsions>
[ 6907 6896 6895 6894 ] final   84.92 input  -60.11 | X-H torsion
[ 7974 7965 7964 7962 ] final -121.14 input  175.53 | X-H torsion
[ 8008 7997 7996 7995 ] final  -74.47 input   59.86 | X-H torsion
[ 10167 10162 10161 10158 ] final   -5.08 input  -65.29 | X-H torsion
[ 10718 10713 10712 10709 ] final  -43.73 input   66.30 | X-H torsion
[ 10763 10752 10751 10750 ] final -116.70 input  -60.55 | X-H torsion
[ 11005 11000 10999 10996 ] final -111.66 input  -57.11 | X-H torsion

> <Gold.Protein.ActiveResidues>
 VAL166  LYS551  ARG553  GLY616  TRP617  ASP618  TYR619  PRO620  LYS621  CYS622 
 ASP623  PHE694  ASN695  SER759  ASP760  ASP761  ALA762  ILE779  LEU786  VAL792 
 PHE793  MET794  SER795  GLU796  ALA797  LYS798  CYS799  TRP800  GLU811  SER814 

> <Gold.Protein.RotatedAtoms>
  152.5363  134.2666  159.8955 H   0  0  0  0  0  0  0  0  0  0  0  0  # atno 6907 bound_to 6896
  151.2624  133.4288  159.2624 H   0  0  0  0  0  0  0  0  0  0  0  0  # atno 6908 bound_to 6896
  151.0440  134.9642  159.8233 H   0  0  0  0  0  0  0  0  0  0  0  0  # atno 6909 bound_to 6896
  145.0437  140.8164  143.4251 H   0  0  0  0  0  0  0  0  0  0  0  0  # atno 7974 bound_to 7965
  154.5333  140.0761  156.8384 H   0  0  0  0  0  0  0  0  0  0  0  0  # atno 8008 bound_to 7997
  155.3329  140.3403  155.4221 H   0  0  0  0  0  0  0  0  0  0  0  0  # atno 8009 bound_to 7997
  156.1803  140.1650  156.8272 H   0  0  0  0  0  0  0  0  0  0  0  0  # atno 8010 bound_to 7997
  140.6950  143.6349  150.8489 H   0  0  0  0  0  0  0  0  0  0  0  0  # atno 10167 bound_to 10162
  156.2459  130.4184  149.8706 H   0  0  0  0  0  0  0  0  0  0  0  0  # atno 10718 bound_to 10713
  154.8529  135.4336  154.1863 H   0  0  0  0  0  0  0  0  0  0  0  0  # atno 10763 bound_to 10752
  153.2941  135.6964  153.7270 H   0  0  0  0  0  0  0  0  0  0  0  0  # atno 10764 bound_to 10752
  153.6426  135.3465  155.3050 H   0  0  0  0  0  0  0  0  0  0  0  0  # atno 10765 bound_to 10752
  141.0721  133.9362  157.2464 H   0  0  0  0  0  0  0  0  0  0  0  0  # atno 11005 bound_to 11000
  145.1615  139.2455  143.5389 LP  0  0  0  0  0  0  0  0  0  0  0  0  # atno 17320 bound_to 7965
  146.3512  140.1344  142.8596 LP  0  0  0  0  0  0  0  0  0  0  0  0  # atno 17321 bound_to 7965
  140.0066  143.5687  152.2855 LP  0  0  0  0  0  0  0  0  0  0  0  0  # atno 17342 bound_to 10162
  139.6396  144.7653  151.2367 LP  0  0  0  0  0  0  0  0  0  0  0  0  # atno 17343 bound_to 10162
  156.6271  130.8650  151.3487 LP  0  0  0  0  0  0  0  0  0  0  0  0  # atno 17370 bound_to 10713
  157.7195  130.9540  150.1382 LP  0  0  0  0  0  0  0  0  0  0  0  0  # atno 17371 bound_to 10713
  139.9534  135.0171  156.9059 LP  0  0  0  0  0  0  0  0  0  0  0  0  # atno 17394 bound_to 11000
  140.5651  134.0497  155.7412 LP  0  0  0  0  0  0  0  0  0  0  0  0  # atno 17395 bound_to 11000

$$$$
