AV-unprocessed.smi:3308|AV-procd|sdf|12712|dock8
  -GOLD-   2272019 43D 1   1.00000     0.00000
 Structure written by MMmdl.
 40 41  0  0  0  0  0  0  0  0  1 V2000
  148.3230  142.3045  157.3600 C   0  0  0  0  0  0  0  0  0  0  0  0
  149.4509  141.2983  157.0467 C   0  0  2  0  0  0  0  0  0  0  0  0
  150.6182  141.5380  157.8911 N   0  0  0  0  0  0  0  0  0  0  0  0
  151.2527  142.8425  157.6643 C   0  0  0  0  0  0  0  0  0  0  0  0
  151.2271  143.6987  158.9347 C   0  0  0  0  0  0  0  0  0  0  0  0
  150.6160  144.7672  158.9133 O   0  0  0  0  0  0  0  0  0  0  0  0
  151.8758  143.2605  160.0346 N   0  0  0  0  0  0  0  0  0  0  0  0
  151.9426  143.9476  161.3245 C   0  0  0  0  0  0  0  0  0  0  0  0
  152.5682  142.9457  162.2952 C   0  0  0  0  0  0  0  0  0  0  0  0
  153.3876  142.0241  161.4030 C   0  0  0  0  0  0  0  0  0  0  0  0
  152.6170  142.0015  160.0830 C   0  0  0  0  0  0  0  0  0  0  0  0
  149.9059  141.2962  155.5620 C   0  0  2  0  0  0  0  0  0  0  0  0
  148.7698  141.5621  154.5512 C   0  0  0  0  0  0  0  0  0  0  0  0
  150.6324  140.0741  155.2308 N   0  0  0  0  0  0  0  0  0  0  0  0
  151.8351  139.6036  155.7250 C   0  0  0  0  0  0  0  0  0  0  0  0
  152.1179  138.4364  155.0762 C   0  0  0  0  0  0  0  0  0  0  0  0
  151.0252  138.2750  154.1808 C   0  0  0  0  0  0  0  0  0  0  0  0
  150.1448  139.2582  154.2696 N   0  0  0  0  0  0  0  0  0  0  0  0
  147.4627  142.1538  156.7088 H   0  0  0  0  0  0  0  0  0  0  0  0
  148.6555  143.3353  157.2382 H   0  0  0  0  0  0  0  0  0  0  0  0
  147.9567  142.1961  158.3803 H   0  0  0  0  0  0  0  0  0  0  0  0
  149.0807  140.2951  157.2653 H   0  0  0  0  0  0  0  0  0  0  0  0
  151.2759  140.7786  157.7859 H   0  0  0  0  0  0  0  0  0  0  0  0
  152.2910  142.7035  157.3639 H   0  0  0  0  0  0  0  0  0  0  0  0
  150.7596  143.3717  156.8481 H   0  0  0  0  0  0  0  0  0  0  0  0
  152.5779  144.8288  161.2263 H   0  0  0  0  0  0  0  0  0  0  0  0
  150.9621  144.2709  161.6766 H   0  0  0  0  0  0  0  0  0  0  0  0
  153.1654  143.4245  163.0714 H   0  0  0  0  0  0  0  0  0  0  0  0
  151.7809  142.3719  162.7854 H   0  0  0  0  0  0  0  0  0  0  0  0
  154.3758  142.4572  161.2418 H   0  0  0  0  0  0  0  0  0  0  0  0
  153.5238  141.0306  161.8311 H   0  0  0  0  0  0  0  0  0  0  0  0
  151.9077  141.1727  160.0672 H   0  0  0  0  0  0  0  0  0  0  0  0
  153.2912  141.8875  159.2328 H   0  0  0  0  0  0  0  0  0  0  0  0
  150.6180  142.1152  155.4409 H   0  0  0  0  0  0  0  0  0  0  0  0
  148.3160  142.5404  154.7101 H   0  0  0  0  0  0  0  0  0  0  0  0
  147.9768  140.8177  154.6181 H   0  0  0  0  0  0  0  0  0  0  0  0
  149.1487  141.5492  153.5288 H   0  0  0  0  0  0  0  0  0  0  0  0
  152.3889  140.1305  156.4876 H   0  0  0  0  0  0  0  0  0  0  0  0
  152.9776  137.7982  155.2160 H   0  0  0  0  0  0  0  0  0  0  0  0
  150.8490  137.4807  153.4705 H   0  0  0  0  0  0  0  0  0  0  0  0
  1  2  1  0  0  0  0
  1 19  1  0  0  0  0
  1 20  1  0  0  0  0
  1 21  1  0  0  0  0
  2  3  1  0  0  0  0
  2 12  1  0  0  0  0
  2 22  1  0  0  0  0
  3  4  1  0  0  0  0
  3 23  1  0  0  0  0
  4  5  1  0  0  0  0
  4 24  1  0  0  0  0
  4 25  1  0  0  0  0
  5  6  2  0  0  0  0
  5  7  1  0  0  0  0
  7 11  1  0  0  0  0
  7  8  1  0  0  0  0
  8  9  1  0  0  0  0
  8 26  1  0  0  0  0
  8 27  1  0  0  0  0
  9 10  1  0  0  0  0
  9 28  1  0  0  0  0
  9 29  1  0  0  0  0
 10 11  1  0  0  0  0
 10 30  1  0  0  0  0
 10 31  1  0  0  0  0
 11 32  1  0  0  0  0
 11 33  1  0  0  0  0
 12 13  1  0  0  0  0
 12 14  1  0  0  0  0
 12 34  1  0  0  0  0
 13 35  1  0  0  0  0
 13 36  1  0  0  0  0
 13 37  1  0  0  0  0
 14 18  1  0  0  0  0
 14 15  1  0  0  0  0
 15 16  2  0  0  0  0
 15 38  1  0  0  0  0
 16 17  1  0  0  0  0
 16 39  1  0  0  0  0
 17 18  2  0  0  0  0
 17 40  1  0  0  0  0
M  END
> <s_m_source_file>
AV-unprocessed.smi

> <i_m_source_file_index>
3308

> <i_lp_mmshare_version>
43012

> <i_f3d_flags>
0

> <s_epik_input>
bjFbY0hdW2NIXVtjSF1uMVtDQEBIXShbQ0gzXSlbQ0BIXShbQ0gzXSlbTkhdW0NIMl1DKD1PKU4yW0NIMl1bQ0gyXVtDSDJdW0NIMl0y

> <s_epik_cmdline>
J2VwaWtfcHl0aG9uJywgJy1waCcsICc3LjAnLCAnLXRuJywgJzgnLCAnLW1hJywgJzIwMCcsICctbWV0YWxfYmluZGluZycsICctaW1hZScsICc8aW5maWxlLm1hZT4nLCAnLW9tYWUnLCAnPG91dGZpbGUubWFlPic=

> <r_lp_tautomer_probability>
1

> <r_epik_Ionization_Penalty>
0.918676

> <r_epik_Ionization_Penalty_Charging>
0

> <r_epik_Ionization_Penalty_Neutral>
0.918676

> <r_epik_State_Penalty>
0.958258

> <r_epik_Charging_Adjusted_Penalty>
0.958258

> <i_epik_Tot_Q>
0

> <i_epik_Tot_abs_Q>
0

> <r_epik_Metal_State_Penalty>
0.956879

> <b_epik_Metal_Only>
0

> <s_lp_Force_Field>
OPLS_2005

> <r_lp_Energy>
37.0374

> <b_lp_Chiralities_Consistent>
1

> <s_lp_Variant>
AV-unprocessed.smi:3308-5

> <Gold.Version>
5.8.1

> <Gold.Id.Protein>
6NUR|6NUR_protein|mol2

> <Gold.PLP.Fitness>
47.5849

> <Gold.PLP.PLP>
-45.7455

> <Gold.PLP.part.hbond>
-0.0880

> <Gold.PLP.part.metal>
0.0000

> <Gold.PLP.part.buried>
-4.9209

> <Gold.PLP.part.nonpolar>
-40.8588

> <Gold.PLP.part.repulsive>
0.3479

> <Gold.PLP.ligand.clash>
0.0000

> <Gold.PLP.ligand.torsion>
0.8709

> <Gold.PLP.Chemscore.Hbond>
0.0000

> <Gold.PLP.Chemscore.CHOScore>
1.1354

> <Gold.PLP.Chemscore.Metal>
0.0000

> <Gold.Chemscore.Hbonds>
donor molecule, donor type, donor heavy atom, donor atom, acceptor molecule, acceptor atom, score
      L1  C    17    40       P1  7948  0.20
      L1  C    17    40       P1  7949  0.91

> <Gold.PLP.Chemscore.Internal.Correction>
0.1751

> <Gold.Rescore>
     Score         DG    S(hbond)    S(metal)    S(lipo)     H(rot)  DE(clash)    DE(int)     intcor
     11.01     -13.03       0.00        0.00     102.12       1.72       0.05       1.96       ----

> <Gold.Chemscore.Fitness>
11.0068

> <Gold.Chemscore.DG>
-13.0252

> <Gold.Chemscore.ZeroCoef>
-5.4800

> <Gold.Chemscore.Hbond>
0.0000

> <Gold.Chemscore.Metal>
0.0000

> <Gold.Chemscore.Lipo>
102.1223

> <Gold.Chemscore.Internal_Hbond>
0.0000

> <Gold.Chemscore.DEClash>
0.0547

> <Gold.Chemscore.DEInternal>
1.9637

> <Gold.Chemscore.Rot>
1.7200

> <Gold.Chemscore.Internal.Correction>
   9.000000E+99

> <Gold.Chemscore.Hbond.Weighted>
-0.0000

> <Gold.Chemscore.Metal.Weighted>
-0.0000

> <Gold.Chemscore.Lipo.Weighted>
-11.9483

> <Gold.Chemscore.Internal_Hbond.Weighted>
0.0000

> <Gold.Chemscore.DEClash.Weighted>
0.0547

> <Gold.Chemscore.DEInternal.Weighted>
1.9637

> <Gold.Chemscore.Rot.Weighted>
4.4031

> <Gold.Chemscore.Internal.Correction.Weighted>
   9.000000E+99

> <Gold.Protein.RotatedTorsions>
[ 6907 6896 6895 6894 ] final  -18.75 input  -60.11 | X-H torsion
[ 7974 7965 7964 7962 ] final  -87.40 input  175.53 | X-H torsion
[ 8008 7997 7996 7995 ] final   -6.11 input   59.86 | X-H torsion
[ 10167 10162 10161 10158 ] final -177.25 input  -65.29 | X-H torsion
[ 10718 10713 10712 10709 ] final  108.37 input   66.30 | X-H torsion
[ 10763 10752 10751 10750 ] final  -99.20 input  -60.55 | X-H torsion
[ 11005 11000 10999 10996 ] final -127.29 input  -57.11 | X-H torsion

> <Gold.Protein.ActiveResidues>
 VAL166  LYS551  ARG553  GLY616  TRP617  ASP618  TYR619  PRO620  LYS621  CYS622 
 ASP623  PHE694  ASN695  SER759  ASP760  ASP761  ALA762  ILE779  LEU786  VAL792 
 PHE793  MET794  SER795  GLU796  ALA797  LYS798  CYS799  TRP800  GLU811  SER814 

> <Gold.Protein.RotatedAtoms>
  151.2735  135.0692  159.9142 H   0  0  0  0  0  0  0  0  0  0  0  0  # atno 6907 bound_to 6896
  152.5346  134.0105  159.7946 H   0  0  0  0  0  0  0  0  0  0  0  0  # atno 6908 bound_to 6896
  151.0347  133.5708  159.2688 H   0  0  0  0  0  0  0  0  0  0  0  0  # atno 6909 bound_to 6896
  145.4670  140.9560  143.1938 H   0  0  0  0  0  0  0  0  0  0  0  0  # atno 7974 bound_to 7965
  154.5970  140.2441  155.7843 H   0  0  0  0  0  0  0  0  0  0  0  0  # atno 8008 bound_to 7997
  156.2286  140.2974  156.0083 H   0  0  0  0  0  0  0  0  0  0  0  0  # atno 8009 bound_to 7997
  155.2275  140.0402  157.2948 H   0  0  0  0  0  0  0  0  0  0  0  0  # atno 8010 bound_to 7997
  139.5489  144.2161  152.1041 H   0  0  0  0  0  0  0  0  0  0  0  0  # atno 10167 bound_to 10162
  157.6589  131.0892  150.6296 H   0  0  0  0  0  0  0  0  0  0  0  0  # atno 10718 bound_to 10713
  154.7478  135.4981  153.9235 H   0  0  0  0  0  0  0  0  0  0  0  0  # atno 10763 bound_to 10752
  153.1110  135.6709  153.9508 H   0  0  0  0  0  0  0  0  0  0  0  0  # atno 10764 bound_to 10752
  153.9267  135.3082  155.3425 H   0  0  0  0  0  0  0  0  0  0  0  0  # atno 10765 bound_to 10752
  140.9611  134.0935  157.3967 H   0  0  0  0  0  0  0  0  0  0  0  0  # atno 11005 bound_to 11000
  144.7968  139.6218  143.7089 LP  0  0  0  0  0  0  0  0  0  0  0  0  # atno 17320 bound_to 7965
  146.2419  139.6018  142.9486 LP  0  0  0  0  0  0  0  0  0  0  0  0  # atno 17321 bound_to 7965
  140.1653  144.4987  150.6610 LP  0  0  0  0  0  0  0  0  0  0  0  0  # atno 17342 bound_to 10162
  140.6746  143.2300  151.5539 LP  0  0  0  0  0  0  0  0  0  0  0  0  # atno 17343 bound_to 10162
  156.6600  130.4509  149.5691 LP  0  0  0  0  0  0  0  0  0  0  0  0  # atno 17370 bound_to 10713
  156.2074  130.6657  151.1233 LP  0  0  0  0  0  0  0  0  0  0  0  0  # atno 17371 bound_to 10713
  139.8878  135.0093  156.6585 LP  0  0  0  0  0  0  0  0  0  0  0  0  # atno 17394 bound_to 11000
  140.7466  133.8933  155.8316 LP  0  0  0  0  0  0  0  0  0  0  0  0  # atno 17395 bound_to 11000

$$$$
