AV-unprocessed.smi:2718|AV-procd|sdf|10486|dock2
  -GOLD-   2272014533D 1   1.00000     0.00000
 Structure written by MMmdl.
 47 48  0  0  0  0  0  0  0  0  1 V2000
  142.2229  133.8037  161.3733 C   0  0  0  0  0  0  0  0  0  0  0  0
  143.3914  134.7213  161.6732 C   0  0  0  0  0  0  0  0  0  0  0  0
  143.1543  135.6997  162.8105 C   0  0  0  0  0  0  0  0  0  0  0  0
  144.5412  134.6554  160.9754 C   0  0  0  0  0  0  0  0  0  0  0  0
  145.7495  135.4962  161.1829 C   0  0  2  0  0  0  0  0  0  0  0  0
  147.0093  135.2697  160.3659 C   0  0  1  0  0  0  0  0  0  0  0  0
  147.8000  136.4566  159.9124 C   0  0  0  0  0  0  0  0  0  0  0  0
  148.4040  137.2060  160.6808 O   0  0  0  0  0  0  0  0  0  0  0  0
  147.7863  136.6304  158.5828 N   0  0  0  0  0  0  0  0  0  0  0  0
  148.4513  137.7076  157.8533 C   0  0  0  0  0  0  0  0  0  0  0  0
  149.9594  137.4624  157.6112 C   0  0  2  0  0  0  0  0  0  0  0  0
  150.7998  137.8461  158.8375 C   0  0  0  0  0  0  0  0  0  0  0  0
  150.4723  138.1247  156.3602 C   0  0  0  0  0  0  0  0  0  0  0  0
  150.6893  139.4427  156.2554 N   0  0  0  0  0  0  0  0  0  0  0  0
  151.1562  139.6443  154.9726 N   0  0  0  0  0  0  0  0  0  0  0  0
  151.1914  138.4267  154.4342 C   0  0  0  0  0  0  0  0  0  0  0  0
  150.7887  137.4357  155.2432 N   0  0  0  0  0  0  0  0  0  0  0  0
  150.7290  136.0144  154.9637 C   0  0  0  0  0  0  0  0  0  0  0  0
  146.9890  134.9253  161.8505 C   0  0  0  0  0  0  0  0  0  0  0  0
  147.6955  135.7607  162.9100 C   0  0  0  0  0  0  0  0  0  0  0  0
  147.0766  133.4548  162.2305 C   0  0  0  0  0  0  0  0  0  0  0  0
  141.3420  134.3881  161.1061 H   0  0  0  0  0  0  0  0  0  0  0  0
  141.9823  133.2013  162.2495 H   0  0  0  0  0  0  0  0  0  0  0  0
  142.4445  133.1273  160.5471 H   0  0  0  0  0  0  0  0  0  0  0  0
  142.9541  135.1582  163.7353 H   0  0  0  0  0  0  0  0  0  0  0  0
  142.2915  136.3285  162.5902 H   0  0  0  0  0  0  0  0  0  0  0  0
  144.0077  136.3544  162.9841 H   0  0  0  0  0  0  0  0  0  0  0  0
  144.6195  133.9296  160.1791 H   0  0  0  0  0  0  0  0  0  0  0  0
  145.4836  136.5250  161.4202 H   0  0  0  0  0  0  0  0  0  0  0  0
  147.0122  134.4215  159.6824 H   0  0  0  0  0  0  0  0  0  0  0  0
  147.2697  135.9631  158.0280 H   0  0  0  0  0  0  0  0  0  0  0  0
  147.9416  137.7927  156.8930 H   0  0  0  0  0  0  0  0  0  0  0  0
  148.2952  138.6571  158.3676 H   0  0  0  0  0  0  0  0  0  0  0  0
  150.0782  136.3862  157.4915 H   0  0  0  0  0  0  0  0  0  0  0  0
  151.8484  137.5853  158.6901 H   0  0  0  0  0  0  0  0  0  0  0  0
  150.4521  137.3259  159.7303 H   0  0  0  0  0  0  0  0  0  0  0  0
  150.7479  138.9173  159.0358 H   0  0  0  0  0  0  0  0  0  0  0  0
  151.5272  138.2530  153.4223 H   0  0  0  0  0  0  0  0  0  0  0  0
  150.9994  135.8246  153.9242 H   0  0  0  0  0  0  0  0  0  0  0  0
  149.7198  135.6427  155.1386 H   0  0  0  0  0  0  0  0  0  0  0  0
  151.4242  135.4838  155.6146 H   0  0  0  0  0  0  0  0  0  0  0  0
  148.7701  135.5814  162.8769 H   0  0  0  0  0  0  0  0  0  0  0  0
  147.3320  135.4971  163.9035 H   0  0  0  0  0  0  0  0  0  0  0  0
  147.5134  136.8252  162.7684 H   0  0  0  0  0  0  0  0  0  0  0  0
  148.1188  133.1530  162.3379 H   0  0  0  0  0  0  0  0  0  0  0  0
  146.6197  132.8234  161.4682 H   0  0  0  0  0  0  0  0  0  0  0  0
  146.5619  133.2747  163.1746 H   0  0  0  0  0  0  0  0  0  0  0  0
  1  2  1  0  0  0  0
  1 22  1  0  0  0  0
  1 23  1  0  0  0  0
  1 24  1  0  0  0  0
  2  3  1  0  0  0  0
  2  4  2  0  0  0  0
  3 25  1  0  0  0  0
  3 26  1  0  0  0  0
  3 27  1  0  0  0  0
  4  5  1  0  0  0  0
  4 28  1  0  0  0  0
  5 19  1  0  0  0  0
  5  6  1  0  0  0  0
  5 29  1  0  0  0  0
  6  7  1  0  0  0  0
  6 19  1  0  0  0  0
  6 30  1  0  0  0  0
  7  8  2  0  0  0  0
  7  9  1  0  0  0  0
  9 10  1  0  0  0  0
  9 31  1  0  0  0  0
 10 11  1  0  0  0  0
 10 32  1  0  0  0  0
 10 33  1  0  0  0  0
 11 12  1  0  0  0  0
 11 13  1  0  0  0  0
 11 34  1  0  0  0  0
 12 35  1  0  0  0  0
 12 36  1  0  0  0  0
 12 37  1  0  0  0  0
 13 17  1  0  0  0  0
 13 14  2  0  0  0  0
 14 15  1  0  0  0  0
 15 16  2  0  0  0  0
 16 17  1  0  0  0  0
 16 38  1  0  0  0  0
 17 18  1  0  0  0  0
 18 39  1  0  0  0  0
 18 40  1  0  0  0  0
 18 41  1  0  0  0  0
 19 20  1  0  0  0  0
 19 21  1  0  0  0  0
 20 42  1  0  0  0  0
 20 43  1  0  0  0  0
 20 44  1  0  0  0  0
 21 45  1  0  0  0  0
 21 46  1  0  0  0  0
 21 47  1  0  0  0  0
M  END
> <s_m_source_file>
AV-unprocessed.smi

> <i_m_source_file_index>
2718

> <i_lp_mmshare_version>
43012

> <i_f3d_flags>
0

> <s_epik_input>
W0NIM11DKFtDSDNdKT1bQ0hdW0NAQEhdKEMxKFtDSDNdKVtDSDNdKVtDQEhdMUMoPU8pW05IXVtDSDJdW0NASF0oW0NIM10pYzJubltjSF1uMltDSDNd

> <s_epik_cmdline>
J2VwaWtfcHl0aG9uJywgJy1waCcsICc3LjAnLCAnLXRuJywgJzgnLCAnLW1hJywgJzIwMCcsICctbWV0YWxfYmluZGluZycsICctaW1hZScsICc8aW5maWxlLm1hZT4nLCAnLW9tYWUnLCAnPG91dGZpbGUubWFlPic=

> <r_lp_tautomer_probability>
1

> <r_epik_Ionization_Penalty>
0.000449586

> <r_epik_Ionization_Penalty_Charging>
0

> <r_epik_Ionization_Penalty_Neutral>
0.000449586

> <r_epik_State_Penalty>
0.000243372

> <r_epik_Charging_Adjusted_Penalty>
0.000243372

> <i_epik_Tot_Q>
0

> <i_epik_Tot_abs_Q>
0

> <r_epik_Metal_State_Penalty>
-0

> <b_epik_Metal_Only>
0

> <s_lp_Force_Field>
OPLS_2005

> <r_lp_Energy>
15.15

> <b_lp_Chiralities_Consistent>
1

> <s_lp_Variant>
AV-unprocessed.smi:2718-1

> <Gold.Version>
5.8.1

> <Gold.Id.Protein>
6NUR|6NUR_protein|mol2

> <Gold.PLP.Fitness>
40.3368

> <Gold.PLP.PLP>
-32.3320

> <Gold.PLP.part.hbond>
-3.0000

> <Gold.PLP.part.metal>
0.0000

> <Gold.PLP.part.buried>
-5.3281

> <Gold.PLP.part.nonpolar>
-24.7097

> <Gold.PLP.part.repulsive>
0.1587

> <Gold.PLP.ligand.clash>
0.0138

> <Gold.PLP.ligand.torsion>
0.8010

> <Gold.PLP.Chemscore.Hbond>
2.1176

> <Gold.PLP.Chemscore.CHOScore>
1.0000

> <Gold.PLP.Chemscore.Metal>
0.0000

> <Gold.Chemscore.Hbonds>
donor molecule, donor type, donor heavy atom, donor atom, acceptor molecule, acceptor atom, score
      P1  H  6931  6943       L1     8  0.82
      P1  H  6934  6947       L1     8  0.35
      P1  H  7989  7998       L1    15  1.00

> <Gold.PLP.Chemscore.Internal.Correction>
0.2679

> <Gold.Rescore>
     Score         DG    S(hbond)    S(metal)    S(lipo)     H(rot)  DE(clash)    DE(int)     intcor
     13.82     -16.15       2.14        0.00      72.91       1.95       0.19       2.15       ----

> <Gold.Chemscore.Fitness>
13.8161

> <Gold.Chemscore.DG>
-16.1546

> <Gold.Chemscore.ZeroCoef>
-5.4800

> <Gold.Chemscore.Hbond>
2.1393

> <Gold.Chemscore.Metal>
0.0000

> <Gold.Chemscore.Lipo>
72.9057

> <Gold.Chemscore.Internal_Hbond>
0.0000

> <Gold.Chemscore.DEClash>
0.1913

> <Gold.Chemscore.DEInternal>
2.1472

> <Gold.Chemscore.Rot>
1.9533

> <Gold.Chemscore.Internal.Correction>
   9.000000E+99

> <Gold.Chemscore.Hbonds>
donor molecule, donor type, donor heavy atom, donor atom, acceptor molecule, acceptor atom, score
      P1  H  6931  6943       L1     8  0.80
      P1  H  6934  6947       L1     8  0.22
      P1  H  7989  7998       L1    15  0.49

> <Gold.Chemscore.Hbond.Weighted>
-7.1452

> <Gold.Chemscore.Metal.Weighted>
-0.0000

> <Gold.Chemscore.Lipo.Weighted>
-8.5300

> <Gold.Chemscore.Internal_Hbond.Weighted>
0.0000

> <Gold.Chemscore.DEClash.Weighted>
0.1913

> <Gold.Chemscore.DEInternal.Weighted>
2.1472

> <Gold.Chemscore.Rot.Weighted>
5.0005

> <Gold.Chemscore.Internal.Correction.Weighted>
   9.000000E+99

> <Gold.Protein.RotatedTorsions>
[ 6907 6896 6895 6894 ] final -173.69 input  -60.11 | X-H torsion
[ 7974 7965 7964 7962 ] final  160.22 input  175.53 | X-H torsion
[ 8008 7997 7996 7995 ] final -174.63 input   59.86 | X-H torsion
[ 10167 10162 10161 10158 ] final   45.21 input  -65.29 | X-H torsion
[ 10718 10713 10712 10709 ] final -177.27 input   66.30 | X-H torsion
[ 10763 10752 10751 10750 ] final  174.29 input  -60.55 | X-H torsion
[ 11005 11000 10999 10996 ] final   79.08 input  -57.11 | X-H torsion

> <Gold.Protein.ActiveResidues>
 VAL166  LYS551  ARG553  GLY616  TRP617  ASP618  TYR619  PRO620  LYS621  CYS622 
 ASP623  PHE694  ASN695  SER759  ASP760  ASP761  ALA762  ILE779  LEU786  VAL792 
 PHE793  MET794  SER795  GLU796  ALA797  LYS798  CYS799  TRP800  GLU811  SER814 

> <Gold.Protein.RotatedAtoms>
  151.5602  133.3404  159.2969 H   0  0  0  0  0  0  0  0  0  0  0  0  # atno 6907 bound_to 6896
  150.8427  134.7728  159.6956 H   0  0  0  0  0  0  0  0  0  0  0  0  # atno 6908 bound_to 6896
  152.4491  134.5439  159.9898 H   0  0  0  0  0  0  0  0  0  0  0  0  # atno 6909 bound_to 6896
  144.7748  139.7726  143.6283 H   0  0  0  0  0  0  0  0  0  0  0  0  # atno 7974 bound_to 7965
  155.9725  140.1166  157.0799 H   0  0  0  0  0  0  0  0  0  0  0  0  # atno 8008 bound_to 7997
  154.4160  140.1160  156.5394 H   0  0  0  0  0  0  0  0  0  0  0  0  # atno 8009 bound_to 7997
  155.6577  140.3473  155.4773 H   0  0  0  0  0  0  0  0  0  0  0  0  # atno 8010 bound_to 7997
  140.3265  144.2642  150.6174 H   0  0  0  0  0  0  0  0  0  0  0  0  # atno 10167 bound_to 10162
  156.8270  130.9640  151.3108 H   0  0  0  0  0  0  0  0  0  0  0  0  # atno 10718 bound_to 10713
  154.4519  135.2765  155.1775 H   0  0  0  0  0  0  0  0  0  0  0  0  # atno 10763 bound_to 10752
  154.3598  135.6132  153.5689 H   0  0  0  0  0  0  0  0  0  0  0  0  # atno 10764 bound_to 10752
  152.9848  135.5831  154.4865 H   0  0  0  0  0  0  0  0  0  0  0  0  # atno 10765 bound_to 10752
  139.9187  134.7815  156.1733 H   0  0  0  0  0  0  0  0  0  0  0  0  # atno 11005 bound_to 11000
  146.1921  139.5166  142.9798 LP  0  0  0  0  0  0  0  0  0  0  0  0  # atno 17320 bound_to 7965
  145.6217  141.0321  143.1911 LP  0  0  0  0  0  0  0  0  0  0  0  0  # atno 17321 bound_to 7965
  140.5436  143.2219  151.8043 LP  0  0  0  0  0  0  0  0  0  0  0  0  # atno 17342 bound_to 10162
  139.4864  144.4568  151.9589 LP  0  0  0  0  0  0  0  0  0  0  0  0  # atno 17343 bound_to 10162
  157.6426  130.8818  149.9478 LP  0  0  0  0  0  0  0  0  0  0  0  0  # atno 17370 bound_to 10713
  156.0955  130.3659  150.0314 LP  0  0  0  0  0  0  0  0  0  0  0  0  # atno 17371 bound_to 10713
  141.0687  133.6807  156.2096 LP  0  0  0  0  0  0  0  0  0  0  0  0  # atno 17394 bound_to 11000
  140.6543  134.5035  157.5579 LP  0  0  0  0  0  0  0  0  0  0  0  0  # atno 17395 bound_to 11000

$$$$
