AV-unprocessed.smi:2747|AV-procd|sdf|10579|dock9
  -GOLD-   2272015 33D 1   1.00000     0.00000
 Structure written by MMmdl.
 23 24  0  0  0  0  0  0  0  0  2 V2000
  150.0949  140.4345  154.7169 O   0  5  0  0  0  0  0  0  0  0  0  0
  149.5684  141.3315  155.5171 C   0  0  2  0  0  0  0  0  0  0  0  0
  150.7354  142.1373  156.1526 C   0  0  0  0  0  0  0  0  0  0  0  0
  151.5756  141.3718  157.0709 N   0  0  0  0  0  0  0  0  0  0  0  0
  152.0802  140.1630  156.6815 N   0  0  0  0  0  0  0  0  0  0  0  0
  152.8140  139.6860  157.6427 N   0  0  0  0  0  0  0  0  0  0  0  0
  152.8023  140.5991  158.6837 C   0  0  0  0  0  0  0  0  0  0  0  0
  153.4275  140.5911  159.9506 C   0  0  0  0  0  0  0  0  0  0  0  0
  153.2516  141.6734  160.8409 C   0  0  0  0  0  0  0  0  0  0  0  0
  154.0346  141.6273  162.3806 Cl  0  0  0  0  0  0  0  0  0  0  0  0
  152.4457  142.7779  160.4727 C   0  0  0  0  0  0  0  0  0  0  0  0
  152.2195  144.1099  161.5498 Cl  0  0  0  0  0  0  0  0  0  0  0  0
  151.8175  142.7995  159.2119 C   0  0  0  0  0  0  0  0  0  0  0  0
  152.0053  141.7126  158.3412 C   0  0  0  0  0  0  0  0  0  0  0  0
  148.7530  140.5787  156.5965 C   0  0  0  0  0  0  0  0  0  0  0  0
  149.5531  139.7929  157.3196 F   0  0  0  0  0  0  0  0  0  0  0  0
  148.1172  141.4239  157.4118 F   0  0  0  0  0  0  0  0  0  0  0  0
  147.8425  139.8013  156.0087 F   0  0  0  0  0  0  0  0  0  0  0  0
  148.8857  142.0820  155.1154 H   0  0  0  0  0  0  0  0  0  0  0  0
  151.3777  142.5387  155.3676 H   0  0  0  0  0  0  0  0  0  0  0  0
  150.3513  143.0048  156.6917 H   0  0  0  0  0  0  0  0  0  0  0  0
  154.0451  139.7525  160.2367 H   0  0  0  0  0  0  0  0  0  0  0  0
  151.1964  143.6330  158.9177 H   0  0  0  0  0  0  0  0  0  0  0  0
  1  2  1  0  0  0  0
  2  3  1  0  0  0  0
  2 15  1  0  0  0  0
  2 19  1  0  0  0  0
  3  4  1  0  0  0  0
  3 20  1  0  0  0  0
  3 21  1  0  0  0  0
  4 14  1  0  0  0  0
  4  5  1  0  0  0  0
  5  6  2  0  0  0  0
  6  7  1  0  0  0  0
  7 14  2  0  0  0  0
  7  8  1  0  0  0  0
  8  9  2  0  0  0  0
  8 22  1  0  0  0  0
  9 10  1  0  0  0  0
  9 11  1  0  0  0  0
 11 12  1  0  0  0  0
 11 13  2  0  0  0  0
 13 14  1  0  0  0  0
 13 23  1  0  0  0  0
 15 16  1  0  0  0  0
 15 17  1  0  0  0  0
 15 18  1  0  0  0  0
M  CHG  1   1  -1
M  END
> <s_m_source_file>
AV-unprocessed.smi

> <i_m_source_file_index>
2747

> <i_lp_mmshare_version>
43012

> <i_f3d_flags>
0

> <s_epik_input>
RkMoRikoRilbQ0BIXShbT0hdKVtDSDJdbihubjEpYyhjMTIpW2NIXWMoQ2wpYyhDbClbY0hdMg==

> <s_epik_cmdline>
J2VwaWtfcHl0aG9uJywgJy1waCcsICc3LjAnLCAnLXRuJywgJzgnLCAnLW1hJywgJzIwMCcsICctbWV0YWxfYmluZGluZycsICctaW1hZScsICc8aW5maWxlLm1hZT4nLCAnLW9tYWUnLCAnPG91dGZpbGUubWFlPic=

> <r_lp_tautomer_probability>
1

> <r_epik_Ionization_Penalty>
1.2724

> <r_epik_Ionization_Penalty_Charging>
1.2724

> <r_epik_Ionization_Penalty_Neutral>
1.57383e-10

> <r_epik_State_Penalty>
1.34397

> <r_epik_Charging_Adjusted_Penalty>
2.61637

> <i_epik_Tot_Q>
-1

> <i_epik_Tot_abs_Q>
1

> <r_epik_Metal_State_Penalty>
1.34397

> <b_epik_Metal_Only>
0

> <s_lp_Force_Field>
OPLS_2005

> <r_lp_Energy>
12.5023

> <b_lp_Chiralities_Consistent>
1

> <s_lp_Variant>
AV-unprocessed.smi:2747-3

> <Gold.Version>
5.8.1

> <Gold.Id.Protein>
6NUR|6NUR_protein|mol2

> <Gold.PLP.Fitness>
40.2208

> <Gold.PLP.PLP>
-34.8353

> <Gold.PLP.part.hbond>
-2.4334

> <Gold.PLP.part.metal>
0.0000

> <Gold.PLP.part.buried>
-4.0041

> <Gold.PLP.part.nonpolar>
-27.1751

> <Gold.PLP.part.repulsive>
0.0958

> <Gold.PLP.ligand.clash>
0.0000

> <Gold.PLP.ligand.torsion>
0.1772

> <Gold.PLP.Chemscore.Hbond>
1.9100

> <Gold.PLP.Chemscore.CHOScore>
0.0000

> <Gold.PLP.Chemscore.Metal>
0.0000

> <Gold.Chemscore.Hbonds>
donor molecule, donor type, donor heavy atom, donor atom, acceptor molecule, acceptor atom, score
      P1  H  7989  7998       L1     1  0.96
      P1  H  7997  8009       L1     6  0.95

> <Gold.PLP.Chemscore.Internal.Correction>
0.0099

> <Gold.Rescore>
     Score         DG    S(hbond)    S(metal)    S(lipo)     H(rot)  DE(clash)    DE(int)     intcor
     12.77     -17.56       1.28        0.00      96.23       1.35       0.07       4.71       ----

> <Gold.Chemscore.Fitness>
12.7736

> <Gold.Chemscore.DG>
-17.5613

> <Gold.Chemscore.ZeroCoef>
-5.4800

> <Gold.Chemscore.Hbond>
1.2791

> <Gold.Chemscore.Metal>
0.0000

> <Gold.Chemscore.Lipo>
96.2255

> <Gold.Chemscore.Internal_Hbond>
0.0000

> <Gold.Chemscore.DEClash>
0.0749

> <Gold.Chemscore.DEInternal>
4.7128

> <Gold.Chemscore.Rot>
1.3474

> <Gold.Chemscore.Internal.Correction>
   9.000000E+99

> <Gold.Chemscore.Hbonds>
donor molecule, donor type, donor heavy atom, donor atom, acceptor molecule, acceptor atom, score
      P1  H  7989  7998       L1     1  0.88
      P1  H  7997  8009       L1     6  0.05

> <Gold.Chemscore.Hbond.Weighted>
-4.2723

> <Gold.Chemscore.Metal.Weighted>
-0.0000

> <Gold.Chemscore.Lipo.Weighted>
-11.2584

> <Gold.Chemscore.Internal_Hbond.Weighted>
0.0000

> <Gold.Chemscore.DEClash.Weighted>
0.0749

> <Gold.Chemscore.DEInternal.Weighted>
4.7128

> <Gold.Chemscore.Rot.Weighted>
3.4494

> <Gold.Chemscore.Internal.Correction.Weighted>
   9.000000E+99

> <Gold.Protein.RotatedTorsions>
[ 6907 6896 6895 6894 ] final -122.86 input  -60.11 | X-H torsion
[ 7974 7965 7964 7962 ] final -166.65 input  175.53 | X-H torsion
[ 8008 7997 7996 7995 ] final  161.91 input   59.86 | X-H torsion
[ 10167 10162 10161 10158 ] final  153.94 input  -65.29 | X-H torsion
[ 10718 10713 10712 10709 ] final  -11.60 input   66.30 | X-H torsion
[ 10763 10752 10751 10750 ] final  149.43 input  -60.55 | X-H torsion
[ 11005 11000 10999 10996 ] final -118.52 input  -57.11 | X-H torsion

> <Gold.Protein.ActiveResidues>
 VAL166  LYS551  ARG553  GLY616  TRP617  ASP618  TYR619  PRO620  LYS621  CYS622 
 ASP623  PHE694  ASN695  SER759  ASP760  ASP761  ALA762  ILE779  LEU786  VAL792 
 PHE793  MET794  SER795  GLU796  ALA797  LYS798  CYS799  TRP800  GLU811  SER814 

> <Gold.Protein.RotatedAtoms>
  150.8616  133.7635  159.2990 H   0  0  0  0  0  0  0  0  0  0  0  0  # atno 6907 bound_to 6896
  151.5275  135.1066  159.9904 H   0  0  0  0  0  0  0  0  0  0  0  0  # atno 6908 bound_to 6896
  152.4630  133.7819  159.6911 H   0  0  0  0  0  0  0  0  0  0  0  0  # atno 6909 bound_to 6896
  144.7240  140.2636  143.6261 H   0  0  0  0  0  0  0  0  0  0  0  0  # atno 7974 bound_to 7965
  156.2069  140.1764  156.7780 H   0  0  0  0  0  0  0  0  0  0  0  0  # atno 8008 bound_to 7997
  154.5668  140.0689  156.8933 H   0  0  0  0  0  0  0  0  0  0  0  0  # atno 8009 bound_to 7997
  155.2747  140.3345  155.4265 H   0  0  0  0  0  0  0  0  0  0  0  0  # atno 8010 bound_to 7997
  139.4825  144.5230  151.7846 H   0  0  0  0  0  0  0  0  0  0  0  0  # atno 10167 bound_to 10162
  156.6567  130.4970  149.6044 H   0  0  0  0  0  0  0  0  0  0  0  0  # atno 10718 bound_to 10713
  154.0710  135.2866  155.3308 H   0  0  0  0  0  0  0  0  0  0  0  0  # atno 10763 bound_to 10752
  154.6747  135.5286  153.8187 H   0  0  0  0  0  0  0  0  0  0  0  0  # atno 10764 bound_to 10752
  153.0485  135.6566  154.0891 H   0  0  0  0  0  0  0  0  0  0  0  0  # atno 10765 bound_to 10752
  141.0280  134.0024  157.3185 H   0  0  0  0  0  0  0  0  0  0  0  0  # atno 11005 bound_to 11000
  145.8112  139.2004  143.1992 LP  0  0  0  0  0  0  0  0  0  0  0  0  # atno 17320 bound_to 7965
  146.0594  140.7986  142.9742 LP  0  0  0  0  0  0  0  0  0  0  0  0  # atno 17321 bound_to 7965
  140.4746  144.1537  150.5923 LP  0  0  0  0  0  0  0  0  0  0  0  0  # atno 17342 bound_to 10162
  140.4345  143.2553  151.9553 LP  0  0  0  0  0  0  0  0  0  0  0  0  # atno 17343 bound_to 10162
  156.2043  130.6639  151.1201 LP  0  0  0  0  0  0  0  0  0  0  0  0  # atno 17370 bound_to 10713
  157.7123  131.0728  150.6455 LP  0  0  0  0  0  0  0  0  0  0  0  0  # atno 17371 bound_to 10713
  139.9189  135.0199  156.7987 LP  0  0  0  0  0  0  0  0  0  0  0  0  # atno 17394 bound_to 11000
  140.6457  133.9777  155.7729 LP  0  0  0  0  0  0  0  0  0  0  0  0  # atno 17395 bound_to 11000

$$$$
