AV-unprocessed.smi:2997|AV-procd|sdf|11412|dock8
  -GOLD-   2272016333D 1   1.00000     0.00000
 Structure written by MMmdl.
 38 40  0  0  0  0  0  0  0  0  1 V2000
  153.0196  142.8646  161.3032 C   0  0  0  0  0  0  0  0  0  0  0  0
  152.4314  142.5282  159.9442 C   0  0  0  0  0  0  0  0  0  0  0  0
  152.8299  141.3356  159.2993 C   0  0  0  0  0  0  0  0  0  0  0  0
  152.3034  140.9840  158.0370 C   0  0  0  0  0  0  0  0  0  0  0  0
  152.5477  139.8812  157.2363 N   0  0  0  0  0  0  0  0  0  0  0  0
  151.7573  140.1262  156.1949 C   0  0  0  0  0  0  0  0  0  0  0  0
  151.0306  141.2599  156.2258 N   0  0  0  0  0  0  0  0  0  0  0  0
  150.1041  141.7371  155.2152 C   0  0  0  0  0  0  0  0  0  0  0  0
  149.3727  140.5868  154.4987 C   0  0  2  0  0  0  0  0  0  0  0  0
  150.2605  139.9455  153.6018 O   0  0  0  0  0  0  0  0  0  0  0  0
  148.1281  141.0818  153.7378 C   0  0  0  0  0  0  0  0  0  0  0  0
  147.2130  141.8191  154.5915 N   0  0  0  0  0  0  0  0  0  0  0  0
  146.1380  142.5983  154.2189 C   0  0  0  0  0  0  0  0  0  0  0  0
  145.5793  143.0936  155.3620 C   0  0  0  0  0  0  0  0  0  0  0  0
  146.3933  142.5543  156.3971 C   0  0  0  0  0  0  0  0  0  0  0  0
  147.3702  141.7919  155.9328 N   0  0  0  0  0  0  0  0  0  0  0  0
  151.3600  141.8655  157.4330 C   0  0  0  0  0  0  0  0  0  0  0  0
  150.9569  143.0556  158.0638 C   0  0  0  0  0  0  0  0  0  0  0  0
  151.4933  143.3922  159.3243 C   0  0  0  0  0  0  0  0  0  0  0  0
  151.0543  144.6813  159.9963 C   0  0  0  0  0  0  0  0  0  0  0  0
  153.7289  142.1035  161.6297 H   0  0  0  0  0  0  0  0  0  0  0  0
  152.2318  142.9315  162.0540 H   0  0  0  0  0  0  0  0  0  0  0  0
  153.5458  143.8185  161.2672 H   0  0  0  0  0  0  0  0  0  0  0  0
  153.5453  140.6778  159.7708 H   0  0  0  0  0  0  0  0  0  0  0  0
  151.6998  139.4407  155.3618 H   0  0  0  0  0  0  0  0  0  0  0  0
  149.3841  142.3968  155.7007 H   0  0  0  0  0  0  0  0  0  0  0  0
  150.6529  142.3489  154.4976 H   0  0  0  0  0  0  0  0  0  0  0  0
  149.0609  139.8494  155.2397 H   0  0  0  0  0  0  0  0  0  0  0  0
  149.8861  139.9789  152.7343 H   0  0  0  0  0  0  0  0  0  0  0  0
  148.4276  141.7391  152.9206 H   0  0  0  0  0  0  0  0  0  0  0  0
  147.5972  140.2434  153.2835 H   0  0  0  0  0  0  0  0  0  0  0  0
  145.8646  142.7348  153.1829 H   0  0  0  0  0  0  0  0  0  0  0  0
  144.7203  143.7427  155.4462 H   0  0  0  0  0  0  0  0  0  0  0  0
  146.3038  142.6937  157.4644 H   0  0  0  0  0  0  0  0  0  0  0  0
  150.2405  143.7032  157.5801 H   0  0  0  0  0  0  0  0  0  0  0  0
  150.3137  145.2105  159.3960 H   0  0  0  0  0  0  0  0  0  0  0  0
  151.9064  145.3464  160.1385 H   0  0  0  0  0  0  0  0  0  0  0  0
  150.6098  144.4746  160.9699 H   0  0  0  0  0  0  0  0  0  0  0  0
  1  2  1  0  0  0  0
  1 21  1  0  0  0  0
  1 22  1  0  0  0  0
  1 23  1  0  0  0  0
  2 19  1  0  0  0  0
  2  3  2  0  0  0  0
  3  4  1  0  0  0  0
  3 24  1  0  0  0  0
  4 17  2  0  0  0  0
  4  5  1  0  0  0  0
  5  6  2  0  0  0  0
  6  7  1  0  0  0  0
  6 25  1  0  0  0  0
  7  8  1  0  0  0  0
  7 17  1  0  0  0  0
  8  9  1  0  0  0  0
  8 26  1  0  0  0  0
  8 27  1  0  0  0  0
  9 10  1  0  0  0  0
  9 11  1  0  0  0  0
  9 28  1  0  0  0  0
 10 29  1  0  0  0  0
 11 12  1  0  0  0  0
 11 30  1  0  0  0  0
 11 31  1  0  0  0  0
 12 16  1  0  0  0  0
 12 13  1  0  0  0  0
 13 14  2  0  0  0  0
 13 32  1  0  0  0  0
 14 15  1  0  0  0  0
 14 33  1  0  0  0  0
 15 16  2  0  0  0  0
 15 34  1  0  0  0  0
 17 18  1  0  0  0  0
 18 19  2  0  0  0  0
 18 35  1  0  0  0  0
 19 20  1  0  0  0  0
 20 36  1  0  0  0  0
 20 37  1  0  0  0  0
 20 38  1  0  0  0  0
M  END
> <s_m_source_file>
AV-unprocessed.smi

> <i_m_source_file_index>
2997

> <i_lp_mmshare_version>
43012

> <i_f3d_flags>
0

> <s_epik_input>
W0NIM11jKFtjSF0xKWMoW0NIM10pW2NIXWMoYzEyKW4oW2NIXW4yKVtDSDJdW0NASF0oW09IXSlbQ0gyXW4zW2NIXVtjSF1bY0hdbjM=

> <s_epik_cmdline>
J2VwaWtfcHl0aG9uJywgJy1waCcsICc3LjAnLCAnLXRuJywgJzgnLCAnLW1hJywgJzIwMCcsICctbWV0YWxfYmluZGluZycsICctaW1hZScsICc8aW5maWxlLm1hZT4nLCAnLW9tYWUnLCAnPG91dGZpbGUubWFlPic=

> <r_lp_tautomer_probability>
1

> <r_epik_Ionization_Penalty>
0.102113

> <r_epik_Ionization_Penalty_Charging>
0

> <r_epik_Ionization_Penalty_Neutral>
0.102113

> <r_epik_State_Penalty>
0.0920694

> <r_epik_Charging_Adjusted_Penalty>
0.0920694

> <i_epik_Tot_Q>
0

> <i_epik_Tot_abs_Q>
0

> <r_epik_Metal_State_Penalty>
0.0784306

> <b_epik_Metal_Only>
0

> <s_lp_Force_Field>
OPLS_2005

> <r_lp_Energy>
8.0564

> <b_lp_Chiralities_Consistent>
1

> <s_lp_Variant>
AV-unprocessed.smi:2997-1

> <Gold.Version>
5.8.1

> <Gold.Id.Protein>
6NUR|6NUR_protein|mol2

> <Gold.PLP.Fitness>
54.1359

> <Gold.PLP.PLP>
-46.9031

> <Gold.PLP.part.hbond>
-3.0000

> <Gold.PLP.part.metal>
0.0000

> <Gold.PLP.part.buried>
-5.0519

> <Gold.PLP.part.nonpolar>
-38.3658

> <Gold.PLP.part.repulsive>
0.1303

> <Gold.PLP.ligand.clash>
0.0173

> <Gold.PLP.ligand.torsion>
0.6272

> <Gold.PLP.Chemscore.Hbond>
2.8320

> <Gold.PLP.Chemscore.CHOScore>
0.0000

> <Gold.PLP.Chemscore.Metal>
0.0000

> <Gold.Chemscore.Hbonds>
donor molecule, donor type, donor heavy atom, donor atom, acceptor molecule, acceptor atom, score
      L1  H    10    29       P1  7957  1.00
      P1  H  7989  7998       L1    10  0.80
      P1  H  7997  8009       L1     5  1.00

> <Gold.PLP.Chemscore.Internal.Correction>
0.0086

> <Gold.Rescore>
     Score         DG    S(hbond)    S(metal)    S(lipo)     H(rot)  DE(clash)    DE(int)     intcor
     16.60     -20.35       2.11        0.00     114.10       2.15       0.66       3.10       ----

> <Gold.Chemscore.Fitness>
16.6010

> <Gold.Chemscore.DG>
-20.3544

> <Gold.Chemscore.ZeroCoef>
-5.4800

> <Gold.Chemscore.Hbond>
2.1071

> <Gold.Chemscore.Metal>
0.0000

> <Gold.Chemscore.Lipo>
114.0982

> <Gold.Chemscore.Internal_Hbond>
0.0000

> <Gold.Chemscore.DEClash>
0.6584

> <Gold.Chemscore.DEInternal>
3.0951

> <Gold.Chemscore.Rot>
2.1534

> <Gold.Chemscore.Internal.Correction>
   9.000000E+99

> <Gold.Chemscore.Hbonds>
donor molecule, donor type, donor heavy atom, donor atom, acceptor molecule, acceptor atom, score
      L1  H    10    29       P1  7957  0.98
      P1  H  7989  7998       L1    10  0.22
      P1  H  7997  8009       L1     5  0.31

> <Gold.Chemscore.Hbond.Weighted>
-7.0377

> <Gold.Chemscore.Metal.Weighted>
-0.0000

> <Gold.Chemscore.Lipo.Weighted>
-13.3495

> <Gold.Chemscore.Internal_Hbond.Weighted>
0.0000

> <Gold.Chemscore.DEClash.Weighted>
0.6584

> <Gold.Chemscore.DEInternal.Weighted>
3.0951

> <Gold.Chemscore.Rot.Weighted>
5.5127

> <Gold.Chemscore.Internal.Correction.Weighted>
   9.000000E+99

> <Gold.Protein.RotatedTorsions>
[ 6907 6896 6895 6894 ] final    5.80 input  -60.11 | X-H torsion
[ 7974 7965 7964 7962 ] final   27.58 input  175.53 | X-H torsion
[ 8008 7997 7996 7995 ] final  176.91 input   59.86 | X-H torsion
[ 10167 10162 10161 10158 ] final   46.98 input  -65.29 | X-H torsion
[ 10718 10713 10712 10709 ] final  -77.94 input   66.30 | X-H torsion
[ 10763 10752 10751 10750 ] final -152.25 input  -60.55 | X-H torsion
[ 11005 11000 10999 10996 ] final  121.61 input  -57.11 | X-H torsion

> <Gold.Protein.ActiveResidues>
 VAL166  LYS551  ARG553  GLY616  TRP617  ASP618  TYR619  PRO620  LYS621  CYS622 
 ASP623  PHE694  ASN695  SER759  ASP760  ASP761  ALA762  ILE779  LEU786  VAL792 
 PHE793  MET794  SER795  GLU796  ALA797  LYS798  CYS799  TRP800  GLU811  SER814 

> <Gold.Protein.RotatedAtoms>
  151.6634  135.0986  160.0183 H   0  0  0  0  0  0  0  0  0  0  0  0  # atno 6907 bound_to 6896
  152.3933  133.6706  159.6264 H   0  0  0  0  0  0  0  0  0  0  0  0  # atno 6908 bound_to 6896
  150.7845  133.8833  159.3333 H   0  0  0  0  0  0  0  0  0  0  0  0  # atno 6909 bound_to 6896
  146.1776  139.7172  142.8923 H   0  0  0  0  0  0  0  0  0  0  0  0  # atno 7974 bound_to 7965
  156.0713  140.1371  156.9825 H   0  0  0  0  0  0  0  0  0  0  0  0  # atno 8008 bound_to 7997
  154.4533  140.0971  156.6735 H   0  0  0  0  0  0  0  0  0  0  0  0  # atno 8009 bound_to 7997
  155.5223  140.3456  155.4411 H   0  0  0  0  0  0  0  0  0  0  0  0  # atno 8010 bound_to 7997
  140.3084  144.2850  150.6204 H   0  0  0  0  0  0  0  0  0  0  0  0  # atno 10167 bound_to 10162
  156.0131  130.4505  150.3421 H   0  0  0  0  0  0  0  0  0  0  0  0  # atno 10718 bound_to 10713
  154.8006  135.3240  154.7560 H   0  0  0  0  0  0  0  0  0  0  0  0  # atno 10763 bound_to 10752
  153.8229  135.6886  153.4829 H   0  0  0  0  0  0  0  0  0  0  0  0  # atno 10764 bound_to 10752
  153.1720  135.4619  154.9859 H   0  0  0  0  0  0  0  0  0  0  0  0  # atno 10765 bound_to 10752
  139.9233  134.9639  156.7983 H   0  0  0  0  0  0  0  0  0  0  0  0  # atno 11005 bound_to 11000
  145.4167  141.0402  143.2987 LP  0  0  0  0  0  0  0  0  0  0  0  0  # atno 17320 bound_to 7965
  144.8262  139.5706  143.6964 LP  0  0  0  0  0  0  0  0  0  0  0  0  # atno 17321 bound_to 7965
  140.5590  143.2195  151.7798 LP  0  0  0  0  0  0  0  0  0  0  0  0  # atno 17342 bound_to 10162
  139.4899  144.4374  151.9803 LP  0  0  0  0  0  0  0  0  0  0  0  0  # atno 17343 bound_to 10162
  157.1516  131.0322  151.2882 LP  0  0  0  0  0  0  0  0  0  0  0  0  # atno 17370 bound_to 10713
  157.4387  130.7531  149.7051 LP  0  0  0  0  0  0  0  0  0  0  0  0  # atno 17371 bound_to 10713
  140.6410  133.9818  155.7707 LP  0  0  0  0  0  0  0  0  0  0  0  0  # atno 17394 bound_to 11000
  141.0771  134.0118  157.3441 LP  0  0  0  0  0  0  0  0  0  0  0  0  # atno 17395 bound_to 11000

$$$$
