AV-unprocessed.smi:3085|AV-procd|sdf|11762|dock9
  -GOLD-   2272017143D 1   1.00000     0.00000
 Structure written by MMmdl.
 26 27  0  0  0  0  0  0  0  0  2 V2000
  152.9117  138.6687  154.3173 C   0  0  0  0  0  0  0  0  0  0  0  0
  151.6240  139.0748  155.0415 C   0  0  0  0  0  0  0  0  0  0  0  0
  151.9038  139.8613  156.3032 C   0  0  0  0  0  0  0  0  0  0  0  0
  151.2728  140.9667  156.6857 N   0  0  0  0  0  0  0  0  0  0  0  0
  151.8160  141.3091  157.8635 C   0  0  0  0  0  0  0  0  0  0  0  0
  151.3930  142.5005  158.7000 C   0  0  2  0  0  0  0  0  0  0  0  0
  150.2455  143.2758  158.0210 C   0  0  0  0  0  0  0  0  0  0  0  0
  149.8500  144.4281  158.8312 N   0  0  0  0  0  0  0  0  0  0  0  0
  150.9947  145.2873  159.1246 C   0  0  0  0  0  0  0  0  0  0  0  0
  152.1219  144.4695  159.7778 C   0  0  0  0  0  0  0  0  0  0  0  0
  152.4838  143.3927  158.9212 O   0  0  0  0  0  0  0  0  0  0  0  0
  152.7514  140.4190  158.2298 N   0  0  0  0  0  0  0  0  0  0  0  0
  152.7936  139.5323  157.2562 N   0  5  0  0  0  0  0  0  0  0  0  0
  152.6883  138.0983  153.4158 H   0  0  0  0  0  0  0  0  0  0  0  0
  153.5413  138.0500  154.9572 H   0  0  0  0  0  0  0  0  0  0  0  0
  153.4900  139.5453  154.0243 H   0  0  0  0  0  0  0  0  0  0  0  0
  150.9981  139.6771  154.3822 H   0  0  0  0  0  0  0  0  0  0  0  0
  151.0458  138.1872  155.3007 H   0  0  0  0  0  0  0  0  0  0  0  0
  151.0552  142.1135  159.6636 H   0  0  0  0  0  0  0  0  0  0  0  0
  150.5633  143.6096  157.0323 H   0  0  0  0  0  0  0  0  0  0  0  0
  149.3888  142.6190  157.8686 H   0  0  0  0  0  0  0  0  0  0  0  0
  149.1422  144.9615  158.3369 H   0  0  0  0  0  0  0  0  0  0  0  0
  151.3604  145.7452  158.2049 H   0  0  0  0  0  0  0  0  0  0  0  0
  150.6923  146.1020  159.7826 H   0  0  0  0  0  0  0  0  0  0  0  0
  152.9963  145.0998  159.9398 H   0  0  0  0  0  0  0  0  0  0  0  0
  151.8173  144.0904  160.7547 H   0  0  0  0  0  0  0  0  0  0  0  0
  1  2  1  0  0  0  0
  1 14  1  0  0  0  0
  1 15  1  0  0  0  0
  1 16  1  0  0  0  0
  2  3  1  0  0  0  0
  2 17  1  0  0  0  0
  2 18  1  0  0  0  0
  3 13  1  0  0  0  0
  3  4  2  0  0  0  0
  4  5  1  0  0  0  0
  5  6  1  0  0  0  0
  5 12  2  0  0  0  0
  6 11  1  0  0  0  0
  6  7  1  0  0  0  0
  6 19  1  0  0  0  0
  7  8  1  0  0  0  0
  7 20  1  0  0  0  0
  7 21  1  0  0  0  0
  8  9  1  0  0  0  0
  8 22  1  0  0  0  0
  9 10  1  0  0  0  0
  9 23  1  0  0  0  0
  9 24  1  0  0  0  0
 10 11  1  0  0  0  0
 10 25  1  0  0  0  0
 10 26  1  0  0  0  0
 12 13  1  0  0  0  0
M  CHG  1  13  -1
M  END
> <s_m_source_file>
AV-unprocessed.smi

> <i_m_source_file_index>
3085

> <i_lp_mmshare_version>
43012

> <i_f3d_flags>
0

> <s_epik_input>
W0NIM11bQ0gyXWMxbmMobltuSF0xKVtDQEBIXTJbQ0gyXVtOSF1bQ0gyXVtDSDJdTzI=

> <s_epik_cmdline>
J2VwaWtfcHl0aG9uJywgJy1waCcsICc3LjAnLCAnLXRuJywgJzgnLCAnLW1hJywgJzIwMCcsICctbWV0YWxfYmluZGluZycsICctaW1hZScsICc8aW5maWxlLm1hZT4nLCAnLW9tYWUnLCAnPG91dGZpbGUubWFlPic=

> <r_lp_tautomer_probability>
0.948284

> <r_epik_Ionization_Penalty>
17.858

> <r_epik_Ionization_Penalty_Charging>
16.2847

> <r_epik_Ionization_Penalty_Neutral>
1.5733

> <r_epik_State_Penalty>
7.01418

> <r_epik_Charging_Adjusted_Penalty>
23.2989

> <i_epik_Tot_Q>
-1

> <i_epik_Tot_abs_Q>
1

> <r_epik_Metal_State_Penalty>
3.17281

> <b_epik_Metal_Only>
1

> <s_lp_Force_Field>
OPLS_2005

> <r_lp_Energy>
10.8419

> <b_lp_Chiralities_Consistent>
1

> <s_lp_Variant>
AV-unprocessed.smi:3085-13

> <Gold.Version>
5.8.1

> <Gold.Id.Protein>
6NUR|6NUR_protein|mol2

> <Gold.PLP.Fitness>
34.1749

> <Gold.PLP.PLP>
-25.5076

> <Gold.PLP.part.hbond>
-2.6966

> <Gold.PLP.part.metal>
0.0000

> <Gold.PLP.part.buried>
-3.4878

> <Gold.PLP.part.nonpolar>
-18.9695

> <Gold.PLP.part.repulsive>
0.0170

> <Gold.PLP.ligand.clash>
0.0000

> <Gold.PLP.ligand.torsion>
0.1741

> <Gold.PLP.Chemscore.Hbond>
3.0000

> <Gold.PLP.Chemscore.CHOScore>
0.0000

> <Gold.PLP.Chemscore.Metal>
0.0000

> <Gold.Chemscore.Hbonds>
donor molecule, donor type, donor heavy atom, donor atom, acceptor molecule, acceptor atom, score
      L1  H     8    22       P1  8029  1.00
      P1  H  7997  8009       L1    13  1.40

> <Gold.PLP.Chemscore.Internal.Correction>
0.0154

> <Gold.Rescore>
     Score         DG    S(hbond)    S(metal)    S(lipo)     H(rot)  DE(clash)    DE(int)     intcor
     12.25     -12.44       1.06        0.00      56.87       1.26       0.08       0.11       ----

> <Gold.Chemscore.Fitness>
12.2460

> <Gold.Chemscore.DG>
-12.4385

> <Gold.Chemscore.ZeroCoef>
-5.4800

> <Gold.Chemscore.Hbond>
1.0594

> <Gold.Chemscore.Metal>
0.0000

> <Gold.Chemscore.Lipo>
56.8679

> <Gold.Chemscore.Internal_Hbond>
0.0000

> <Gold.Chemscore.DEClash>
0.0775

> <Gold.Chemscore.DEInternal>
0.1150

> <Gold.Chemscore.Rot>
1.2630

> <Gold.Chemscore.Internal.Correction>
   9.000000E+99

> <Gold.Chemscore.Hbonds>
donor molecule, donor type, donor heavy atom, donor atom, acceptor molecule, acceptor atom, score
      L1  H     8    22       P1  8029  0.65
      P1  H  7997  8009       L1    13  0.04

> <Gold.Chemscore.Hbond.Weighted>
-3.5383

> <Gold.Chemscore.Metal.Weighted>
-0.0000

> <Gold.Chemscore.Lipo.Weighted>
-6.6535

> <Gold.Chemscore.Internal_Hbond.Weighted>
0.0000

> <Gold.Chemscore.DEClash.Weighted>
0.0775

> <Gold.Chemscore.DEInternal.Weighted>
0.1150

> <Gold.Chemscore.Rot.Weighted>
3.2333

> <Gold.Chemscore.Internal.Correction.Weighted>
   9.000000E+99

> <Gold.Protein.RotatedTorsions>
[ 6907 6896 6895 6894 ] final  -22.58 input  -60.11 | X-H torsion
[ 7974 7965 7964 7962 ] final  -72.86 input  175.53 | X-H torsion
[ 8008 7997 7996 7995 ] final  179.53 input   59.86 | X-H torsion
[ 10167 10162 10161 10158 ] final  109.09 input  -65.29 | X-H torsion
[ 10718 10713 10712 10709 ] final  129.65 input   66.30 | X-H torsion
[ 10763 10752 10751 10750 ] final   93.01 input  -60.55 | X-H torsion
[ 11005 11000 10999 10996 ] final  101.90 input  -57.11 | X-H torsion

> <Gold.Protein.ActiveResidues>
 VAL166  LYS551  ARG553  GLY616  TRP617  ASP618  TYR619  PRO620  LYS621  CYS622 
 ASP623  PHE694  ASN695  SER759  ASP760  ASP761  ALA762  ILE779  LEU786  VAL792 
 PHE793  MET794  SER795  GLU796  ALA797  LYS798  CYS799  TRP800  GLU811  SER814 

> <Gold.Protein.RotatedAtoms>
  151.2165  135.0502  159.8932 H   0  0  0  0  0  0  0  0  0  0  0  0  # atno 6907 bound_to 6896
  152.5419  134.0687  159.8194 H   0  0  0  0  0  0  0  0  0  0  0  0  # atno 6908 bound_to 6896
  151.0848  133.5314  159.2650 H   0  0  0  0  0  0  0  0  0  0  0  0  # atno 6909 bound_to 6896
  145.6596  140.9257  143.0941 H   0  0  0  0  0  0  0  0  0  0  0  0  # atno 7974 bound_to 7965
  156.0423  140.1306  157.0141 H   0  0  0  0  0  0  0  0  0  0  0  0  # atno 8008 bound_to 7997
  154.4397  140.1027  156.6326 H   0  0  0  0  0  0  0  0  0  0  0  0  # atno 8009 bound_to 7997
  155.5647  140.3465  155.4502 H   0  0  0  0  0  0  0  0  0  0  0  0  # atno 8010 bound_to 7997
  139.6794  144.7119  151.1543 H   0  0  0  0  0  0  0  0  0  0  0  0  # atno 10167 bound_to 10162
  157.5134  131.1097  150.9259 H   0  0  0  0  0  0  0  0  0  0  0  0  # atno 10718 bound_to 10713
  153.2255  135.4341  155.0537 H   0  0  0  0  0  0  0  0  0  0  0  0  # atno 10763 bound_to 10752
  154.8271  135.3367  154.6864 H   0  0  0  0  0  0  0  0  0  0  0  0  # atno 10764 bound_to 10752
  153.7294  135.7012  153.5049 H   0  0  0  0  0  0  0  0  0  0  0  0  # atno 10765 bound_to 10752
  139.8775  134.9202  156.4976 H   0  0  0  0  0  0  0  0  0  0  0  0  # atno 11005 bound_to 11000
  144.7093  139.8432  143.7419 LP  0  0  0  0  0  0  0  0  0  0  0  0  # atno 17320 bound_to 7965
  146.1136  139.4144  143.0272 LP  0  0  0  0  0  0  0  0  0  0  0  0  # atno 17321 bound_to 7965
  140.7647  143.5722  150.8984 LP  0  0  0  0  0  0  0  0  0  0  0  0  # atno 17342 bound_to 10162
  139.9393  143.6401  152.3057 LP  0  0  0  0  0  0  0  0  0  0  0  0  # atno 17343 bound_to 10162
  156.9892  130.5557  149.5302 LP  0  0  0  0  0  0  0  0  0  0  0  0  # atno 17370 bound_to 10713
  156.0304  130.5396  150.8519 LP  0  0  0  0  0  0  0  0  0  0  0  0  # atno 17371 bound_to 10713
  140.8613  133.8058  155.9268 LP  0  0  0  0  0  0  0  0  0  0  0  0  # atno 17394 bound_to 11000
  140.9047  134.2335  157.5021 LP  0  0  0  0  0  0  0  0  0  0  0  0  # atno 17395 bound_to 11000

$$$$
