AV-unprocessed.smi:3347|AV-procd|sdf|12913|dock2
  -GOLD-   2272019323D 1   1.00000     0.00000
 Structure written by MMmdl.
 40 42  0  0  0  0  0  0  0  0  2 V2000
  146.0902  137.6855  154.8325 O   0  0  0  0  0  0  0  0  0  0  0  0
  147.0054  137.2727  154.1205 C   0  0  0  0  0  0  0  0  0  0  0  0
  146.9355  136.1352  153.4138 N   0  0  0  0  0  0  0  0  0  0  0  0
  145.7970  135.2215  153.3908 C   0  0  0  0  0  0  0  0  0  0  0  0
  145.4989  134.7029  151.9707 C   0  0  2  0  0  0  0  0  0  0  0  0
  145.0291  135.7606  150.9725 C   0  0  0  0  0  0  0  0  0  0  0  0
  144.3599  134.9219  149.8884 C   0  0  0  0  0  0  0  0  0  0  0  0
  143.7113  133.8013  150.6019 N   0  3  1  0  0  0  0  0  0  0  0  0
  143.6473  132.5500  149.8168 C   0  0  0  0  0  0  0  0  0  0  0  0
  144.8127  132.3680  148.8739 C   0  0  0  0  0  0  0  0  0  0  0  0
  143.4579  132.7756  148.3358 C   0  0  0  0  0  0  0  0  0  0  0  0
  144.3755  133.6571  151.9191 C   0  0  0  0  0  0  0  0  0  0  0  0
  148.1813  137.8936  153.9250 N   0  0  0  0  0  0  0  0  0  0  0  0
  148.6411  139.1189  154.4794 C   0  0  0  0  0  0  0  0  0  0  0  0
  147.7941  140.1554  154.9416 C   0  0  0  0  0  0  0  0  0  0  0  0
  148.3760  141.3164  155.4864 C   0  0  0  0  0  0  0  0  0  0  0  0
  149.7802  141.3962  155.5571 C   0  0  0  0  0  0  0  0  0  0  0  0
  150.5993  140.4108  155.1335 N   0  0  0  0  0  0  0  0  0  0  0  0
  150.0344  139.3007  154.6126 C   0  0  0  0  0  0  0  0  0  0  0  0
  147.7351  135.8770  152.8539 H   0  0  0  0  0  0  0  0  0  0  0  0
  146.0376  134.3803  154.0415 H   0  0  0  0  0  0  0  0  0  0  0  0
  144.9128  135.6945  153.8219 H   0  0  0  0  0  0  0  0  0  0  0  0
  146.4025  134.2417  151.5679 H   0  0  0  0  0  0  0  0  0  0  0  0
  144.2959  136.4222  151.4363 H   0  0  0  0  0  0  0  0  0  0  0  0
  145.8429  136.3749  150.5859 H   0  0  0  0  0  0  0  0  0  0  0  0
  143.6403  135.4921  149.3003 H   0  0  0  0  0  0  0  0  0  0  0  0
  145.1210  134.5376  149.2070 H   0  0  0  0  0  0  0  0  0  0  0  0
  143.1921  131.6913  150.3074 H   0  0  0  0  0  0  0  0  0  0  0  0
  145.5997  133.1201  148.8762 H   0  0  0  0  0  0  0  0  0  0  0  0
  145.1426  131.3505  148.6745 H   0  0  0  0  0  0  0  0  0  0  0  0
  142.8958  132.0262  147.7819 H   0  0  0  0  0  0  0  0  0  0  0  0
  143.3450  133.7982  147.9802 H   0  0  0  0  0  0  0  0  0  0  0  0
  144.7624  132.6505  152.0856 H   0  0  0  0  0  0  0  0  0  0  0  0
  143.6282  133.8500  152.6897 H   0  0  0  0  0  0  0  0  0  0  0  0
  148.8019  137.4659  153.2534 H   0  0  0  0  0  0  0  0  0  0  0  0
  146.7187  140.0811  154.9036 H   0  0  0  0  0  0  0  0  0  0  0  0
  147.7585  142.1258  155.8466 H   0  0  0  0  0  0  0  0  0  0  0  0
  150.2578  142.2724  155.9702 H   0  0  0  0  0  0  0  0  0  0  0  0
  150.7204  138.5326  154.2863 H   0  0  0  0  0  0  0  0  0  0  0  0
  142.7617  134.0873  150.7936 H   0  0  0  0  0  0  0  0  0  0  0  0
  1  2  2  0  0  0  0
  2  3  1  0  0  0  0
  2 13  1  0  0  0  0
  3  4  1  0  0  0  0
  3 20  1  0  0  0  0
  4  5  1  0  0  0  0
  4 21  1  0  0  0  0
  4 22  1  0  0  0  0
  5 12  1  0  0  0  0
  5  6  1  0  0  0  0
  5 23  1  0  0  0  0
  6  7  1  0  0  0  0
  6 24  1  0  0  0  0
  6 25  1  0  0  0  0
  7  8  1  0  0  0  0
  7 26  1  0  0  0  0
  7 27  1  0  0  0  0
  8  9  1  0  0  0  0
  8 12  1  0  0  0  0
  8 40  1  0  0  0  0
  9 11  1  0  0  0  0
  9 10  1  0  0  0  0
  9 28  1  0  0  0  0
 10 11  1  0  0  0  0
 10 29  1  0  0  0  0
 10 30  1  0  0  0  0
 11 31  1  0  0  0  0
 11 32  1  0  0  0  0
 12 33  1  0  0  0  0
 12 34  1  0  0  0  0
 13 14  1  0  0  0  0
 13 35  1  0  0  0  0
 14 19  1  0  0  0  0
 14 15  2  0  0  0  0
 15 16  1  0  0  0  0
 15 36  1  0  0  0  0
 16 17  2  0  0  0  0
 16 37  1  0  0  0  0
 17 18  1  0  0  0  0
 17 38  1  0  0  0  0
 18 19  2  0  0  0  0
 19 39  1  0  0  0  0
M  CHG  1   8   1
M  END
> <s_m_source_file>
AV-unprocessed.smi

> <i_m_source_file_index>
3347

> <i_lp_mmshare_version>
43012

> <i_f3d_flags>
0

> <s_epik_input>
W2NIXTFuW2NIXVtjSF1bY0hdYzFbTkhdQyg9TylbTkhdW0NIMl1bQ0BASF0yW0NIMl1bQ0gyXU4oW0NIMl0yKVtDSF0zW0NIMl1bQ0gyXTM=

> <s_epik_cmdline>
J2VwaWtfcHl0aG9uJywgJy1waCcsICc3LjAnLCAnLXRuJywgJzgnLCAnLW1hJywgJzIwMCcsICctbWV0YWxfYmluZGluZycsICctaW1hZScsICc8aW5maWxlLm1hZT4nLCAnLW9tYWUnLCAnPG91dGZpbGUubWFlPic=

> <r_epik_Ionization_Penalty>
0.00442629

> <r_epik_Ionization_Penalty_Charging>
0.000203384

> <r_epik_Ionization_Penalty_Neutral>
0.00422291

> <r_epik_State_Penalty>
0.00301008

> <r_epik_Charging_Adjusted_Penalty>
0.00321347

> <i_epik_Tot_Q>
1

> <i_epik_Tot_abs_Q>
1

> <r_epik_Metal_State_Penalty>
-0

> <b_epik_Metal_Only>
0

> <s_lp_Force_Field>
OPLS_2005

> <r_lp_Energy>
40.4553

> <b_lp_Chiralities_Consistent>
1

> <s_lp_Variant>
AV-unprocessed.smi:3347-3

> <Gold.Version>
5.8.1

> <Gold.Id.Protein>
6NUR|6NUR_protein|mol2

> <Gold.PLP.Fitness>
48.5085

> <Gold.PLP.PLP>
-32.4687

> <Gold.PLP.part.hbond>
-4.0000

> <Gold.PLP.part.metal>
0.0000

> <Gold.PLP.part.buried>
2.1921

> <Gold.PLP.part.nonpolar>
-31.2723

> <Gold.PLP.part.repulsive>
0.1935

> <Gold.PLP.ligand.clash>
0.0000

> <Gold.PLP.ligand.torsion>
0.9086

> <Gold.PLP.Chemscore.Hbond>
4.7368

> <Gold.PLP.Chemscore.CHOScore>
0.7961

> <Gold.PLP.Chemscore.Metal>
0.0000

> <Gold.Chemscore.Hbonds>
donor molecule, donor type, donor heavy atom, donor atom, acceptor molecule, acceptor atom, score
      L1  H     3    20       P1  7948  1.00
      L1  H     8    40       P1 10186  0.89
      L1  H    13    35       P1  7948  0.94
      P1  H  7989  7998       L1    18  0.80
      L1  C    17    38       P1  8028  0.20

> <Gold.PLP.Chemscore.Internal.Correction>
1.2582

> <Gold.Rescore>
     Score         DG    S(hbond)    S(metal)    S(lipo)     H(rot)  DE(clash)    DE(int)     intcor
     20.07     -24.08       3.18        0.00      99.36       1.42       1.97       2.04       ----

> <Gold.Chemscore.Fitness>
20.0690

> <Gold.Chemscore.DG>
-24.0824

> <Gold.Chemscore.ZeroCoef>
-5.4800

> <Gold.Chemscore.Hbond>
3.1789

> <Gold.Chemscore.Metal>
0.0000

> <Gold.Chemscore.Lipo>
99.3597

> <Gold.Chemscore.Internal_Hbond>
0.0000

> <Gold.Chemscore.DEClash>
1.9747

> <Gold.Chemscore.DEInternal>
2.0388

> <Gold.Chemscore.Rot>
1.4219

> <Gold.Chemscore.Internal.Correction>
   9.000000E+99

> <Gold.Chemscore.Hbonds>
donor molecule, donor type, donor heavy atom, donor atom, acceptor molecule, acceptor atom, score
      L1  H     3    20       P1  7948  0.96
      L1  H     8    40       P1 10186  0.30
      L1  H    13    35       P1  7948  0.91
      P1  H  7989  7998       L1    18  0.10

> <Gold.Chemscore.Hbond.Weighted>
-10.6175

> <Gold.Chemscore.Metal.Weighted>
-0.0000

> <Gold.Chemscore.Lipo.Weighted>
-11.6251

> <Gold.Chemscore.Internal_Hbond.Weighted>
0.0000

> <Gold.Chemscore.DEClash.Weighted>
1.9747

> <Gold.Chemscore.DEInternal.Weighted>
2.0388

> <Gold.Chemscore.Rot.Weighted>
3.6401

> <Gold.Chemscore.Internal.Correction.Weighted>
   9.000000E+99

> <Gold.Protein.RotatedTorsions>
[ 6907 6896 6895 6894 ] final   40.30 input  -60.11 | X-H torsion
[ 7974 7965 7964 7962 ] final  112.09 input  175.53 | X-H torsion
[ 8008 7997 7996 7995 ] final  -16.69 input   59.86 | X-H torsion
[ 10167 10162 10161 10158 ] final  111.52 input  -65.29 | X-H torsion
[ 10718 10713 10712 10709 ] final  142.47 input   66.30 | X-H torsion
[ 10763 10752 10751 10750 ] final  -39.95 input  -60.55 | X-H torsion
[ 11005 11000 10999 10996 ] final -119.09 input  -57.11 | X-H torsion

> <Gold.Protein.ActiveResidues>
 VAL166  LYS551  ARG553  GLY616  TRP617  ASP618  TYR619  PRO620  LYS621  CYS622 
 ASP623  PHE694  ASN695  SER759  ASP760  ASP761  ALA762  ILE779  LEU786  VAL792 
 PHE793  MET794  SER795  GLU796  ALA797  LYS798  CYS799  TRP800  GLU811  SER814 

> <Gold.Protein.RotatedAtoms>
  152.1808  134.8756  160.0526 H   0  0  0  0  0  0  0  0  0  0  0  0  # atno 6907 bound_to 6896
  151.9681  133.3712  159.4069 H   0  0  0  0  0  0  0  0  0  0  0  0  # atno 6908 bound_to 6896
  150.6917  134.4092  159.5198 H   0  0  0  0  0  0  0  0  0  0  0  0  # atno 6909 bound_to 6896
  145.2340  139.2807  143.4153 H   0  0  0  0  0  0  0  0  0  0  0  0  # atno 7974 bound_to 7965
  154.5034  140.2162  155.9301 H   0  0  0  0  0  0  0  0  0  0  0  0  # atno 8008 bound_to 7997
  156.1462  140.3170  155.8542 H   0  0  0  0  0  0  0  0  0  0  0  0  # atno 8009 bound_to 7997
  155.4026  140.0485  157.3026 H   0  0  0  0  0  0  0  0  0  0  0  0  # atno 8010 bound_to 7997
  139.6605  144.7129  151.1874 H   0  0  0  0  0  0  0  0  0  0  0  0  # atno 10167 bound_to 10162
  157.3801  131.0991  151.0746 H   0  0  0  0  0  0  0  0  0  0  0  0  # atno 10718 bound_to 10713
  153.9379  135.6764  153.4744 H   0  0  0  0  0  0  0  0  0  0  0  0  # atno 10763 bound_to 10752
  153.0946  135.4857  154.8752 H   0  0  0  0  0  0  0  0  0  0  0  0  # atno 10764 bound_to 10752
  154.7393  135.3157  154.8714 H   0  0  0  0  0  0  0  0  0  0  0  0  # atno 10765 bound_to 10752
  141.0240  134.0081  157.3241 H   0  0  0  0  0  0  0  0  0  0  0  0  # atno 11005 bound_to 11000
  146.3346  140.2683  142.8605 LP  0  0  0  0  0  0  0  0  0  0  0  0  # atno 17320 bound_to 7965
  144.9650  140.8313  143.5490 LP  0  0  0  0  0  0  0  0  0  0  0  0  # atno 17321 bound_to 7965
  140.7578  143.6002  150.8708 LP  0  0  0  0  0  0  0  0  0  0  0  0  # atno 17342 bound_to 10162
  139.9659  143.6111  152.2988 LP  0  0  0  0  0  0  0  0  0  0  0  0  # atno 17343 bound_to 10162
  157.1818  130.6313  149.5674 LP  0  0  0  0  0  0  0  0  0  0  0  0  # atno 17370 bound_to 10713
  155.9774  130.4751  150.6590 LP  0  0  0  0  0  0  0  0  0  0  0  0  # atno 17371 bound_to 10713
  139.9164  135.0197  156.7897 LP  0  0  0  0  0  0  0  0  0  0  0  0  # atno 17394 bound_to 11000
  140.6523  133.9720  155.7762 LP  0  0  0  0  0  0  0  0  0  0  0  0  # atno 17395 bound_to 11000

$$$$
