AV-unprocessed.smi:1638|AV-procd|sdf|6547|dock7
  -GOLD-   22720 7233D 1   1.00000     0.00000
 Structure written by MMmdl.
 40 41  0  0  0  0  0  0  0  0  3 V2000
  150.8257  140.9397  155.9010 C   0  0  0  0  0  0  0  0  0  0  0  0
  151.3489  139.5454  155.8440 C   0  0  0  0  0  0  0  0  0  0  0  0
  152.6519  139.2581  155.9015 N   0  0  0  0  0  0  0  0  0  0  0  0
  152.8889  137.8936  155.8325 N   0  0  0  0  0  0  0  0  0  0  0  0
  151.7643  137.1687  155.7405 C   0  0  0  0  0  0  0  0  0  0  0  0
  151.7796  135.8271  155.6810 N   0  5  0  0  0  0  0  0  0  0  0  0
  150.6199  135.1433  155.7869 C   0  0  0  0  0  0  0  0  0  0  0  0
  150.0785  134.7851  156.8348 O   0  0  0  0  0  0  0  0  0  0  0  0
  150.0817  134.8070  154.6059 N   0  0  0  0  0  0  0  0  0  0  0  0
  148.9742  133.8743  154.4015 C   0  0  0  0  0  0  0  0  0  0  0  0
  149.2591  132.9259  153.2182 C   0  0  0  0  0  0  0  0  0  0  0  0
  148.0310  132.2303  152.7450 N   0  3  0  0  0  0  0  0  0  0  0  0
  146.9190  133.1318  152.3520 C   0  0  0  0  0  0  0  0  0  0  0  0
  146.3564  132.6956  150.9885 C   0  0  0  0  0  0  0  0  0  0  0  0
  145.4756  131.4368  151.0335 C   0  0  0  0  0  0  0  0  0  0  0  0
  146.1393  130.2086  151.6812 C   0  0  0  0  0  0  0  0  0  0  0  0
  146.3369  130.3750  153.1985 C   0  0  0  0  0  0  0  0  0  0  0  0
  147.6327  131.0974  153.6218 C   0  0  0  0  0  0  0  0  0  0  0  0
  150.2981  138.1457  155.7035 S   0  0  0  0  0  0  0  0  0  0  0  0
  150.6488  141.2280  156.9374 H   0  0  0  0  0  0  0  0  0  0  0  0
  149.8871  141.0124  155.3513 H   0  0  0  0  0  0  0  0  0  0  0  0
  151.5420  141.6336  155.4599 H   0  0  0  0  0  0  0  0  0  0  0  0
  150.5480  135.1463  153.7767 H   0  0  0  0  0  0  0  0  0  0  0  0
  148.7636  133.3090  155.3104 H   0  0  0  0  0  0  0  0  0  0  0  0
  148.0749  134.4551  154.1956 H   0  0  0  0  0  0  0  0  0  0  0  0
  149.7370  133.4596  152.3958 H   0  0  0  0  0  0  0  0  0  0  0  0
  149.9921  132.2001  153.5713 H   0  0  0  0  0  0  0  0  0  0  0  0
  146.1450  133.1730  153.1195 H   0  0  0  0  0  0  0  0  0  0  0  0
  147.2751  134.1558  152.2406 H   0  0  0  0  0  0  0  0  0  0  0  0
  145.7613  133.5110  150.5762 H   0  0  0  0  0  0  0  0  0  0  0  0
  147.1776  132.5444  150.2859 H   0  0  0  0  0  0  0  0  0  0  0  0
  144.5441  131.6630  151.5534 H   0  0  0  0  0  0  0  0  0  0  0  0
  145.1895  131.1817  150.0125 H   0  0  0  0  0  0  0  0  0  0  0  0
  145.4853  129.3522  151.5142 H   0  0  0  0  0  0  0  0  0  0  0  0
  147.0792  129.9642  151.1860 H   0  0  0  0  0  0  0  0  0  0  0  0
  145.4718  130.8857  153.6229 H   0  0  0  0  0  0  0  0  0  0  0  0
  146.3394  129.3888  153.6638 H   0  0  0  0  0  0  0  0  0  0  0  0
  148.4477  130.3740  153.6350 H   0  0  0  0  0  0  0  0  0  0  0  0
  147.5218  131.4494  154.6481 H   0  0  0  0  0  0  0  0  0  0  0  0
  148.3126  131.8079  151.8706 H   0  0  0  0  0  0  0  0  0  0  0  0
  1  2  1  0  0  0  0
  1 20  1  0  0  0  0
  1 21  1  0  0  0  0
  1 22  1  0  0  0  0
  2 19  1  0  0  0  0
  2  3  2  0  0  0  0
  3  4  1  0  0  0  0
  4  5  2  0  0  0  0
  5  6  1  0  0  0  0
  5 19  1  0  0  0  0
  6  7  1  0  0  0  0
  7  8  2  0  0  0  0
  7  9  1  0  0  0  0
  9 10  1  0  0  0  0
  9 23  1  0  0  0  0
 10 11  1  0  0  0  0
 10 24  1  0  0  0  0
 10 25  1  0  0  0  0
 11 12  1  0  0  0  0
 11 26  1  0  0  0  0
 11 27  1  0  0  0  0
 12 18  1  0  0  0  0
 12 13  1  0  0  0  0
 12 40  1  0  0  0  0
 13 14  1  0  0  0  0
 13 28  1  0  0  0  0
 13 29  1  0  0  0  0
 14 15  1  0  0  0  0
 14 30  1  0  0  0  0
 14 31  1  0  0  0  0
 15 16  1  0  0  0  0
 15 32  1  0  0  0  0
 15 33  1  0  0  0  0
 16 17  1  0  0  0  0
 16 34  1  0  0  0  0
 16 35  1  0  0  0  0
 17 18  1  0  0  0  0
 17 36  1  0  0  0  0
 17 37  1  0  0  0  0
 18 38  1  0  0  0  0
 18 39  1  0  0  0  0
M  CHG  1   6  -1
M  CHG  1  12   1
M  END
> <s_m_source_file>
AV-unprocessed.smi

> <i_m_source_file_index>
1638

> <i_lp_mmshare_version>
43012

> <i_f3d_flags>
0

> <s_epik_input>
W0NIM11jMW5uYyhzMSlbTkhdQyg9TylbTkhdW0NIMl1bQ0gyXU4yW0NIMl1bQ0gyXVtDSDJdW0NIMl1bQ0gyXVtDSDJdMg==

> <s_epik_cmdline>
J2VwaWtfcHl0aG9uJywgJy1waCcsICc3LjAnLCAnLXRuJywgJzgnLCAnLW1hJywgJzIwMCcsICctbWV0YWxfYmluZGluZycsICctaW1hZScsICc8aW5maWxlLm1hZT4nLCAnLW9tYWUnLCAnPG91dGZpbGUubWFlPic=

> <r_lp_tautomer_probability>
1

> <r_epik_Ionization_Penalty>
3.03755

> <r_epik_Ionization_Penalty_Charging>
2.92994

> <r_epik_Ionization_Penalty_Neutral>
0.107609

> <r_epik_State_Penalty>
2.92594

> <r_epik_Charging_Adjusted_Penalty>
5.85589

> <i_epik_Tot_Q>
0

> <i_epik_Tot_abs_Q>
2

> <r_epik_Metal_State_Penalty>
0.448256

> <b_epik_Metal_Only>
1

> <s_lp_Force_Field>
OPLS_2005

> <r_lp_Energy>
18.025

> <b_lp_Chiralities_Consistent>
1

> <s_lp_Variant>
AV-unprocessed.smi:1638-2

> <Gold.Version>
5.8.1

> <Gold.Id.Protein>
6NUR|6NUR_protein|mol2

> <Gold.PLP.Fitness>
41.7719

> <Gold.PLP.PLP>
-31.6354

> <Gold.PLP.part.hbond>
-3.7295

> <Gold.PLP.part.metal>
0.0000

> <Gold.PLP.part.buried>
-5.0632

> <Gold.PLP.part.nonpolar>
-23.8256

> <Gold.PLP.part.repulsive>
0.1288

> <Gold.PLP.ligand.clash>
0.0000

> <Gold.PLP.ligand.torsion>
1.0092

> <Gold.PLP.Chemscore.Hbond>
4.0228

> <Gold.PLP.Chemscore.CHOScore>
0.0000

> <Gold.PLP.Chemscore.Metal>
0.0000

> <Gold.Chemscore.Hbonds>
donor molecule, donor type, donor heavy atom, donor atom, acceptor molecule, acceptor atom, score
      L1  H    12    40       P1 10747  1.00
      P1  H  7997  8009       L1     3  1.00
      P1  H 10752 10763       L1     6  2.00

> <Gold.PLP.Chemscore.Internal.Correction>
0.0867

> <Gold.Rescore>
     Score         DG    S(hbond)    S(metal)    S(lipo)     H(rot)  DE(clash)    DE(int)     intcor
     16.72     -17.83       2.36        0.00      72.42       1.57       0.04       1.06       ----

> <Gold.Chemscore.Fitness>
16.7233

> <Gold.Chemscore.DG>
-17.8317

> <Gold.Chemscore.ZeroCoef>
-5.4800

> <Gold.Chemscore.Hbond>
2.3634

> <Gold.Chemscore.Metal>
0.0000

> <Gold.Chemscore.Lipo>
72.4242

> <Gold.Chemscore.Internal_Hbond>
0.0000

> <Gold.Chemscore.DEClash>
0.0447

> <Gold.Chemscore.DEInternal>
1.0637

> <Gold.Chemscore.Rot>
1.5686

> <Gold.Chemscore.Internal.Correction>
   9.000000E+99

> <Gold.Chemscore.Hbonds>
donor molecule, donor type, donor heavy atom, donor atom, acceptor molecule, acceptor atom, score
      L1  H    12    40       P1 10747  0.99
      P1  H  7997  8009       L1     3  0.60
      P1  H 10752 10763       L1     6  0.52

> <Gold.Chemscore.Hbond.Weighted>
-7.8938

> <Gold.Chemscore.Metal.Weighted>
-0.0000

> <Gold.Chemscore.Lipo.Weighted>
-8.4736

> <Gold.Chemscore.Internal_Hbond.Weighted>
0.0000

> <Gold.Chemscore.DEClash.Weighted>
0.0447

> <Gold.Chemscore.DEInternal.Weighted>
1.0637

> <Gold.Chemscore.Rot.Weighted>
4.0157

> <Gold.Chemscore.Internal.Correction.Weighted>
   9.000000E+99

> <Gold.Protein.RotatedTorsions>
[ 6907 6896 6895 6894 ] final  144.52 input  -60.11 | X-H torsion
[ 7974 7965 7964 7962 ] final  -22.66 input  175.53 | X-H torsion
[ 8008 7997 7996 7995 ] final -160.75 input   59.86 | X-H torsion
[ 10167 10162 10161 10158 ] final  -86.39 input  -65.29 | X-H torsion
[ 10718 10713 10712 10709 ] final  -87.43 input   66.30 | X-H torsion
[ 10763 10752 10751 10750 ] final   93.99 input  -60.55 | X-H torsion
[ 11005 11000 10999 10996 ] final   64.63 input  -57.11 | X-H torsion

> <Gold.Protein.ActiveResidues>
 VAL166  LYS551  ARG553  GLY616  TRP617  ASP618  TYR619  PRO620  LYS621  CYS622 
 ASP623  PHE694  ASN695  SER759  ASP760  ASP761  ALA762  ILE779  LEU786  VAL792 
 PHE793  MET794  SER795  GLU796  ALA797  LYS798  CYS799  TRP800  GLU811  SER814 

> <Gold.Protein.RotatedAtoms>
  152.1926  133.4784  159.5015 H   0  0  0  0  0  0  0  0  0  0  0  0  # atno 6907 bound_to 6896
  150.6954  134.1693  159.4215 H   0  0  0  0  0  0  0  0  0  0  0  0  # atno 6908 bound_to 6896
  151.9608  135.0124  160.0598 H   0  0  0  0  0  0  0  0  0  0  0  0  # atno 6909 bound_to 6896
  146.1662  140.4509  142.8551 H   0  0  0  0  0  0  0  0  0  0  0  0  # atno 7974 bound_to 7965
  155.7820  140.0866  157.2054 H   0  0  0  0  0  0  0  0  0  0  0  0  # atno 8008 bound_to 7997
  154.3989  140.1506  156.3121 H   0  0  0  0  0  0  0  0  0  0  0  0  # atno 8009 bound_to 7997
  155.8644  140.3428  155.5781 H   0  0  0  0  0  0  0  0  0  0  0  0  # atno 8010 bound_to 7997
  140.3946  143.2689  151.9221 H   0  0  0  0  0  0  0  0  0  0  0  0  # atno 10167 bound_to 10162
  155.9985  130.4799  150.4865 H   0  0  0  0  0  0  0  0  0  0  0  0  # atno 10718 bound_to 10713
  153.2365  135.4305  155.0652 H   0  0  0  0  0  0  0  0  0  0  0  0  # atno 10763 bound_to 10752
  154.8321  135.3392  154.6711 H   0  0  0  0  0  0  0  0  0  0  0  0  # atno 10764 bound_to 10752
  153.7136  135.7021  153.5087 H   0  0  0  0  0  0  0  0  0  0  0  0  # atno 10765 bound_to 10752
  139.9946  134.6537  156.0031 H   0  0  0  0  0  0  0  0  0  0  0  0  # atno 11005 bound_to 11000
  144.8097  140.6363  143.6424 LP  0  0  0  0  0  0  0  0  0  0  0  0  # atno 17320 bound_to 7965
  145.4460  139.1529  143.3944 LP  0  0  0  0  0  0  0  0  0  0  0  0  # atno 17321 bound_to 7965
  139.4787  144.5694  151.8112 LP  0  0  0  0  0  0  0  0  0  0  0  0  # atno 17342 bound_to 10162
  140.4804  144.1458  150.5932 LP  0  0  0  0  0  0  0  0  0  0  0  0  # atno 17343 bound_to 10162
  157.2865  131.0617  151.2163 LP  0  0  0  0  0  0  0  0  0  0  0  0  # atno 17370 bound_to 10713
  157.3190  130.6928  149.6258 LP  0  0  0  0  0  0  0  0  0  0  0  0  # atno 17371 bound_to 10713
  141.1594  133.6540  156.4269 LP  0  0  0  0  0  0  0  0  0  0  0  0  # atno 17394 bound_to 11000
  140.4842  134.6636  157.5184 LP  0  0  0  0  0  0  0  0  0  0  0  0  # atno 17395 bound_to 11000

$$$$
