AV-unprocessed.smi:83|AV-procd|sdf|807|dock4
  -GOLD-   2262017203D 1   1.00000     0.00000
 Structure written by MMmdl.
 56 59  0  0  0  0  0  0  0  0  1 V2000
  153.1725  141.4084  160.4399 C   0  0  0  0  0  0  0  0  0  0  0  0
  153.1679  140.5057  159.2050 C   0  0  0  0  0  0  0  0  0  0  0  0
  154.0607  139.6685  159.0736 O   0  0  0  0  0  0  0  0  0  0  0  0
  152.1818  140.6634  158.2991 N   0  0  0  0  0  0  0  0  0  0  0  0
  151.0816  141.6217  158.3913 C   0  0  0  0  0  0  0  0  0  0  0  0
  150.1390  141.2742  157.2372 C   0  0  0  0  0  0  0  0  0  0  0  0
  151.0446  140.6110  156.2048 C   0  0  2  0  0  0  0  0  0  0  0  0
  150.2955  139.7189  155.1947 C   0  0  0  0  0  0  0  0  0  0  0  0
  148.8550  139.9797  155.1680 N   0  0  0  0  0  0  0  0  0  0  0  0
  148.3294  140.8323  154.1096 C   0  0  0  0  0  0  0  0  0  0  0  0
  148.0211  139.1158  155.8094 C   0  0  0  0  0  0  0  0  0  0  0  0
  146.6847  139.2480  155.5973 N   0  0  0  0  0  0  0  0  0  0  0  0
  145.8127  138.4420  156.2082 C   0  0  0  0  0  0  0  0  0  0  0  0
  146.0545  137.4494  157.0643 N   0  0  0  0  0  0  0  0  0  0  0  0
  147.3916  137.3078  157.2874 C   0  0  0  0  0  0  0  0  0  0  0  0
  148.4363  138.0841  156.7062 C   0  0  0  0  0  0  0  0  0  0  0  0
  149.6637  137.6420  157.1918 N   0  0  0  0  0  0  0  0  0  0  0  0
  149.3629  136.6637  158.0009 C   0  0  0  0  0  0  0  0  0  0  0  0
  148.0192  136.3983  158.1187 N   0  0  0  0  0  0  0  0  0  0  0  0
  147.4006  135.3802  158.9481 C   0  0  0  0  0  0  0  0  0  0  0  0
  147.9992  135.3358  160.3667 C   0  0  1  0  0  0  0  0  0  0  0  0
  147.5144  136.4142  161.1453 O   0  0  0  0  0  0  0  0  0  0  0  0
  147.7441  133.9921  161.0785 C   0  0  1  0  0  0  0  0  0  0  0  0
  146.4075  133.8571  161.8277 C   0  0  0  0  0  0  0  0  0  0  0  0
  145.8789  132.4994  161.3899 C   0  0  0  0  0  0  0  0  0  0  0  0
  147.0974  131.8218  160.7728 C   0  0  0  0  0  0  0  0  0  0  0  0
  147.7906  132.9002  160.1683 O   0  0  0  0  0  0  0  0  0  0  0  0
  152.0768  139.8804  157.0716 C   0  0  0  0  0  0  0  0  0  0  0  0
  153.1768  142.4598  160.1512 H   0  0  0  0  0  0  0  0  0  0  0  0
  154.0592  141.2242  161.0476 H   0  0  0  0  0  0  0  0  0  0  0  0
  152.2955  141.2180  161.0590 H   0  0  0  0  0  0  0  0  0  0  0  0
  150.5647  141.5673  159.3503 H   0  0  0  0  0  0  0  0  0  0  0  0
  151.4756  142.6319  158.2706 H   0  0  0  0  0  0  0  0  0  0  0  0
  149.3864  140.5639  157.5833 H   0  0  0  0  0  0  0  0  0  0  0  0
  149.6174  142.1469  156.8431 H   0  0  0  0  0  0  0  0  0  0  0  0
  151.5588  141.4082  155.6653 H   0  0  0  0  0  0  0  0  0  0  0  0
  150.7396  139.8148  154.2038 H   0  0  0  0  0  0  0  0  0  0  0  0
  150.4382  138.6742  155.4724 H   0  0  0  0  0  0  0  0  0  0  0  0
  147.3791  141.2794  154.4032 H   0  0  0  0  0  0  0  0  0  0  0  0
  148.1832  140.2641  153.1906 H   0  0  0  0  0  0  0  0  0  0  0  0
  149.0233  141.6452  153.8950 H   0  0  0  0  0  0  0  0  0  0  0  0
  144.7722  138.6198  155.9796 H   0  0  0  0  0  0  0  0  0  0  0  0
  150.1168  136.1064  158.5379 H   0  0  0  0  0  0  0  0  0  0  0  0
  146.3269  135.5694  158.9895 H   0  0  0  0  0  0  0  0  0  0  0  0
  147.5287  134.4164  158.4541 H   0  0  0  0  0  0  0  0  0  0  0  0
  149.0789  135.4696  160.2902 H   0  0  0  0  0  0  0  0  0  0  0  0
  146.7297  136.1331  161.5904 H   0  0  0  0  0  0  0  0  0  0  0  0
  148.5497  133.8267  161.7963 H   0  0  0  0  0  0  0  0  0  0  0  0
  146.5748  133.8857  162.9052 H   0  0  0  0  0  0  0  0  0  0  0  0
  145.6940  134.6456  161.5876 H   0  0  0  0  0  0  0  0  0  0  0  0
  145.4457  131.9248  162.2092 H   0  0  0  0  0  0  0  0  0  0  0  0
  145.1098  132.6332  160.6281 H   0  0  0  0  0  0  0  0  0  0  0  0
  147.7244  131.3680  161.5422 H   0  0  0  0  0  0  0  0  0  0  0  0
  146.8315  131.0542  160.0458 H   0  0  0  0  0  0  0  0  0  0  0  0
  153.0351  139.7935  156.5564 H   0  0  0  0  0  0  0  0  0  0  0  0
  151.7363  138.8760  157.3278 H   0  0  0  0  0  0  0  0  0  0  0  0
  1  2  1  0  0  0  0
  1 29  1  0  0  0  0
  1 30  1  0  0  0  0
  1 31  1  0  0  0  0
  2  3  2  0  0  0  0
  2  4  1  0  0  0  0
  4 28  1  0  0  0  0
  4  5  1  0  0  0  0
  5  6  1  0  0  0  0
  5 32  1  0  0  0  0
  5 33  1  0  0  0  0
  6  7  1  0  0  0  0
  6 34  1  0  0  0  0
  6 35  1  0  0  0  0
  7  8  1  0  0  0  0
  7 28  1  0  0  0  0
  7 36  1  0  0  0  0
  8  9  1  0  0  0  0
  8 37  1  0  0  0  0
  8 38  1  0  0  0  0
  9 10  1  0  0  0  0
  9 11  1  0  0  0  0
 10 39  1  0  0  0  0
 10 40  1  0  0  0  0
 10 41  1  0  0  0  0
 11 16  1  0  0  0  0
 11 12  2  0  0  0  0
 12 13  1  0  0  0  0
 13 14  2  0  0  0  0
 13 42  1  0  0  0  0
 14 15  1  0  0  0  0
 15 19  1  0  0  0  0
 15 16  2  0  0  0  0
 16 17  1  0  0  0  0
 17 18  2  0  0  0  0
 18 19  1  0  0  0  0
 18 43  1  0  0  0  0
 19 20  1  0  0  0  0
 20 21  1  0  0  0  0
 20 44  1  0  0  0  0
 20 45  1  0  0  0  0
 21 22  1  0  0  0  0
 21 23  1  0  0  0  0
 21 46  1  0  0  0  0
 22 47  1  0  0  0  0
 23 27  1  0  0  0  0
 23 24  1  0  0  0  0
 23 48  1  0  0  0  0
 24 25  1  0  0  0  0
 24 49  1  0  0  0  0
 24 50  1  0  0  0  0
 25 26  1  0  0  0  0
 25 51  1  0  0  0  0
 25 52  1  0  0  0  0
 26 27  1  0  0  0  0
 26 53  1  0  0  0  0
 26 54  1  0  0  0  0
 28 55  1  0  0  0  0
 28 56  1  0  0  0  0
M  END
> <s_m_source_file>
AV-unprocessed.smi

> <i_m_source_file_index>
83

> <i_lp_mmshare_version>
43012

> <i_f3d_flags>
0

> <s_epik_input>
W0NIM11DKD1PKU4xW0NIMl1bQ0gyXVtDQEhdKFtDSDJdMSlbQ0gyXU4oW0NIM10pYyhuW2NIXW4yKWMoYzIzKW5bY0hdbjNbQ0gyXVtDQEhdKFtPSF0pW0NAQEhdNFtDSDJdW0NIMl1bQ0gyXU80

> <s_epik_cmdline>
J2VwaWtfcHl0aG9uJywgJy1waCcsICc3LjAnLCAnLXRuJywgJzgnLCAnLW1hJywgJzIwMCcsICctbWV0YWxfYmluZGluZycsICctaW1hZScsICc8aW5maWxlLm1hZT4nLCAnLW9tYWUnLCAnPG91dGZpbGUubWFlPic=

> <r_lp_tautomer_probability>
1

> <r_epik_Ionization_Penalty>
0.00109752

> <r_epik_Ionization_Penalty_Charging>
0

> <r_epik_Ionization_Penalty_Neutral>
0.00109752

> <r_epik_State_Penalty>
0.000634803

> <r_epik_Charging_Adjusted_Penalty>
0.000634803

> <i_epik_Tot_Q>
0

> <i_epik_Tot_abs_Q>
0

> <r_epik_Metal_State_Penalty>
-0

> <b_epik_Metal_Only>
0

> <s_lp_Force_Field>
OPLS_2005

> <r_lp_Energy>
54.4429

> <b_lp_Chiralities_Consistent>
1

> <s_lp_Variant>
AV-unprocessed.smi:83-8

> <Gold.Version>
5.8.1

> <Gold.Id.Protein>
6NUR|6NUR_protein|mol2

> <Gold.PLP.Fitness>
48.1484

> <Gold.PLP.PLP>
-42.8954

> <Gold.PLP.part.hbond>
-3.0000

> <Gold.PLP.part.metal>
0.0000

> <Gold.PLP.part.buried>
-5.0673

> <Gold.PLP.part.nonpolar>
-35.1414

> <Gold.PLP.part.repulsive>
0.0227

> <Gold.PLP.ligand.clash>
0.0000

> <Gold.PLP.ligand.torsion>
1.7762

> <Gold.PLP.Chemscore.Hbond>
2.7680

> <Gold.PLP.Chemscore.CHOScore>
0.0000

> <Gold.PLP.Chemscore.Metal>
0.0000

> <Gold.Chemscore.Hbonds>
donor molecule, donor type, donor heavy atom, donor atom, acceptor molecule, acceptor atom, score
      P1  H  7997  8008       L1     3  1.00

> <Gold.PLP.Chemscore.Internal.Correction>
0.5013

> <Gold.Rescore>
     Score         DG    S(hbond)    S(metal)    S(lipo)     H(rot)  DE(clash)    DE(int)     intcor
     13.31     -16.25       2.09        0.00      89.52       2.62       0.01       2.94       ----

> <Gold.Chemscore.Fitness>
13.3109

> <Gold.Chemscore.DG>
-16.2543

> <Gold.Chemscore.ZeroCoef>
-5.4800

> <Gold.Chemscore.Hbond>
2.0944

> <Gold.Chemscore.Metal>
0.0000

> <Gold.Chemscore.Lipo>
89.5191

> <Gold.Chemscore.Internal_Hbond>
0.0000

> <Gold.Chemscore.DEClash>
0.0050

> <Gold.Chemscore.DEInternal>
2.9384

> <Gold.Chemscore.Rot>
2.6152

> <Gold.Chemscore.Internal.Correction>
   9.000000E+99

> <Gold.Chemscore.Hbonds>
donor molecule, donor type, donor heavy atom, donor atom, acceptor molecule, acceptor atom, score
      P1  H  6931  6943       L1    22  0.01
      P1  H  7997  8008       L1     3  0.51

> <Gold.Chemscore.Hbond.Weighted>
-6.9954

> <Gold.Chemscore.Metal.Weighted>
-0.0000

> <Gold.Chemscore.Lipo.Weighted>
-10.4737

> <Gold.Chemscore.Internal_Hbond.Weighted>
0.0000

> <Gold.Chemscore.DEClash.Weighted>
0.0050

> <Gold.Chemscore.DEInternal.Weighted>
2.9384

> <Gold.Chemscore.Rot.Weighted>
6.6949

> <Gold.Chemscore.Internal.Correction.Weighted>
   9.000000E+99

> <Gold.Protein.RotatedTorsions>
[ 6907 6896 6895 6894 ] final -161.58 input  -60.11 | X-H torsion
[ 7974 7965 7964 7962 ] final  -84.06 input  175.53 | X-H torsion
[ 8008 7997 7996 7995 ] final -108.09 input   59.86 | X-H torsion
[ 10167 10162 10161 10158 ] final   73.76 input  -65.29 | X-H torsion
[ 10718 10713 10712 10709 ] final -174.13 input   66.30 | X-H torsion
[ 10763 10752 10751 10750 ] final  -81.44 input  -60.55 | X-H torsion
[ 11005 11000 10999 10996 ] final -162.43 input  -57.11 | X-H torsion

> <Gold.Protein.ActiveResidues>
 VAL166  LYS551  ARG553  GLY616  TRP617  ASP618  TYR619  PRO620  LYS621  CYS622 
 ASP623  PHE694  ASN695  SER759  ASP760  ASP761  ALA762  ILE779  LEU786  VAL792 
 PHE793  MET794  SER795  GLU796  ALA797  LYS798  CYS799  TRP800  GLU811  SER814 

> <Gold.Protein.RotatedAtoms>
  151.3669  133.3869  159.2695 H   0  0  0  0  0  0  0  0  0  0  0  0  # atno 6907 bound_to 6896
  150.9682  134.9060  159.7782 H   0  0  0  0  0  0  0  0  0  0  0  0  # atno 6908 bound_to 6896
  152.5174  134.3630  159.9343 H   0  0  0  0  0  0  0  0  0  0  0  0  # atno 6909 bound_to 6896
  145.5116  140.9539  143.1704 H   0  0  0  0  0  0  0  0  0  0  0  0  # atno 7974 bound_to 7965
  154.9390  140.0403  157.2087 H   0  0  0  0  0  0  0  0  0  0  0  0  # atno 8008 bound_to 7997
  154.8087  140.2864  155.5847 H   0  0  0  0  0  0  0  0  0  0  0  0  # atno 8009 bound_to 7997
  156.2969  140.2541  156.2971 H   0  0  0  0  0  0  0  0  0  0  0  0  # atno 8010 bound_to 7997
  140.0210  144.5540  150.7582 H   0  0  0  0  0  0  0  0  0  0  0  0  # atno 10167 bound_to 10162
  156.7806  130.9482  151.3120 H   0  0  0  0  0  0  0  0  0  0  0  0  # atno 10718 bound_to 10713
  154.5636  135.5626  153.7030 H   0  0  0  0  0  0  0  0  0  0  0  0  # atno 10763 bound_to 10752
  153.0026  135.6280  154.2210 H   0  0  0  0  0  0  0  0  0  0  0  0  # atno 10764 bound_to 10752
  154.2149  135.2872  155.2925 H   0  0  0  0  0  0  0  0  0  0  0  0  # atno 10765 bound_to 10752
  140.6093  134.4865  157.5214 H   0  0  0  0  0  0  0  0  0  0  0  0  # atno 11005 bound_to 11000
  144.7724  139.6705  143.7189 LP  0  0  0  0  0  0  0  0  0  0  0  0  # atno 17320 bound_to 7965
  146.2163  139.5554  142.9648 LP  0  0  0  0  0  0  0  0  0  0  0  0  # atno 17321 bound_to 7965
  140.7342  143.2726  151.3839 LP  0  0  0  0  0  0  0  0  0  0  0  0  # atno 17342 bound_to 10162
  139.6140  144.1041  152.2327 LP  0  0  0  0  0  0  0  0  0  0  0  0  # atno 17343 bound_to 10162
  157.6648  130.8998  149.9908 LP  0  0  0  0  0  0  0  0  0  0  0  0  # atno 17370 bound_to 10713
  156.1220  130.3645  149.9871 LP  0  0  0  0  0  0  0  0  0  0  0  0  # atno 17371 bound_to 10713
  139.9199  134.8170  156.1246 LP  0  0  0  0  0  0  0  0  0  0  0  0  # atno 17394 bound_to 11000
  141.0819  133.6751  156.2353 LP  0  0  0  0  0  0  0  0  0  0  0  0  # atno 17395 bound_to 11000

$$$$
