AV-unprocessed.smi:3148|AV-procd|sdf|11992|dock3
  -GOLD-   2272017393D 1   1.00000     0.00000
 Structure written by MMmdl.
 34 36  0  0  0  0  0  0  0  0  1 V2000
  146.6307  140.9990  154.0706 C   0  0  0  0  0  0  0  0  0  0  0  0
  147.7438  140.1174  153.9732 O   0  0  0  0  0  0  0  0  0  0  0  0
  148.8569  140.3894  154.7412 C   0  0  0  0  0  0  0  0  0  0  0  0
  149.9745  139.5331  154.6712 C   0  0  0  0  0  0  0  0  0  0  0  0
  151.0775  139.8734  155.4820 C   0  0  0  0  0  0  0  0  0  0  0  0
  152.3404  139.0388  155.4913 C   0  0  0  0  0  0  0  0  0  0  0  0
  151.0644  140.9614  156.2832 N   0  0  0  0  0  0  0  0  0  0  0  0
  149.9573  141.7067  156.2743 C   0  0  0  0  0  0  0  0  0  0  0  0
  149.9804  142.8162  157.0988 N   0  0  0  0  0  0  0  0  0  0  0  0
  150.3910  142.7903  158.4981 C   0  0  1  0  0  0  0  0  0  0  0  0
  151.7663  142.1538  158.7109 C   0  0  0  0  0  0  0  0  0  0  0  0
  152.4996  143.2476  159.5004 C   0  0  1  0  0  0  0  0  0  0  0  0
  152.9001  144.4214  158.5973 C   0  0  0  0  0  0  0  0  0  0  0  0
  151.5509  145.0897  158.3402 C   0  0  0  0  0  0  0  0  0  0  0  0
  150.5910  144.1826  159.1291 C   0  0  2  0  0  0  0  0  0  0  0  0
  151.4254  143.8303  160.2197 O   0  0  0  0  0  0  0  0  0  0  0  0
  148.8565  141.4785  155.5492 N   0  0  0  0  0  0  0  0  0  0  0  0
  145.8400  140.6564  153.4032 H   0  0  0  0  0  0  0  0  0  0  0  0
  146.8985  142.0140  153.7733 H   0  0  0  0  0  0  0  0  0  0  0  0
  146.2239  141.0185  155.0827 H   0  0  0  0  0  0  0  0  0  0  0  0
  149.9819  138.6654  154.0282 H   0  0  0  0  0  0  0  0  0  0  0  0
  152.2026  138.1110  154.9353 H   0  0  0  0  0  0  0  0  0  0  0  0
  152.6232  138.7844  156.5132 H   0  0  0  0  0  0  0  0  0  0  0  0
  153.1611  139.5923  155.0345 H   0  0  0  0  0  0  0  0  0  0  0  0
  149.5151  143.6455  156.7597 H   0  0  0  0  0  0  0  0  0  0  0  0
  149.6529  142.2320  159.0760 H   0  0  0  0  0  0  0  0  0  0  0  0
  151.6722  141.2427  159.3024 H   0  0  0  0  0  0  0  0  0  0  0  0
  152.2848  141.9030  157.7843 H   0  0  0  0  0  0  0  0  0  0  0  0
  153.3108  142.8742  160.1257 H   0  0  0  0  0  0  0  0  0  0  0  0
  153.5710  145.1039  159.1204 H   0  0  0  0  0  0  0  0  0  0  0  0
  153.3923  144.0928  157.6813 H   0  0  0  0  0  0  0  0  0  0  0  0
  151.5452  146.0999  158.7503 H   0  0  0  0  0  0  0  0  0  0  0  0
  151.3036  145.1575  157.2806 H   0  0  0  0  0  0  0  0  0  0  0  0
  149.6624  144.6734  159.4218 H   0  0  0  0  0  0  0  0  0  0  0  0
  1  2  1  0  0  0  0
  1 18  1  0  0  0  0
  1 19  1  0  0  0  0
  1 20  1  0  0  0  0
  2  3  1  0  0  0  0
  3 17  1  0  0  0  0
  3  4  2  0  0  0  0
  4  5  1  0  0  0  0
  4 21  1  0  0  0  0
  5  6  1  0  0  0  0
  5  7  2  0  0  0  0
  6 22  1  0  0  0  0
  6 23  1  0  0  0  0
  6 24  1  0  0  0  0
  7  8  1  0  0  0  0
  8  9  1  0  0  0  0
  8 17  2  0  0  0  0
  9 10  1  0  0  0  0
  9 25  1  0  0  0  0
 10 15  1  0  0  0  0
 10 11  1  0  0  0  0
 10 26  1  0  0  0  0
 11 12  1  0  0  0  0
 11 27  1  0  0  0  0
 11 28  1  0  0  0  0
 12 16  1  0  0  0  0
 12 13  1  0  0  0  0
 12 29  1  0  0  0  0
 13 14  1  0  0  0  0
 13 30  1  0  0  0  0
 13 31  1  0  0  0  0
 14 15  1  0  0  0  0
 14 32  1  0  0  0  0
 14 33  1  0  0  0  0
 15 16  1  0  0  0  0
 15 34  1  0  0  0  0
M  END
> <s_m_source_file>
AV-unprocessed.smi

> <i_m_source_file_index>
3148

> <i_lp_mmshare_version>
43012

> <i_f3d_flags>
0

> <s_epik_input>
W0NIM11PYzFbY0hdYyhbQ0gzXSluYyhuMSlbTkhdW0NASF0oW0NIMl1bQ0BASF0yMylbQ0BASF0oTzMpW0NIMl1bQ0gyXTI=

> <s_epik_cmdline>
J2VwaWtfcHl0aG9uJywgJy1waCcsICc3LjAnLCAnLXRuJywgJzgnLCAnLW1hJywgJzIwMCcsICctbWV0YWxfYmluZGluZycsICctaW1hZScsICc8aW5maWxlLm1hZT4nLCAnLW9tYWUnLCAnPG91dGZpbGUubWFlPic=

> <r_lp_tautomer_probability>
1

> <r_epik_Ionization_Penalty>
0.101645

> <r_epik_Ionization_Penalty_Charging>
0

> <r_epik_Ionization_Penalty_Neutral>
0.101645

> <r_epik_State_Penalty>
0.0916212

> <r_epik_Charging_Adjusted_Penalty>
0.0916212

> <i_epik_Tot_Q>
0

> <i_epik_Tot_abs_Q>
0

> <r_epik_Metal_State_Penalty>
0.0781

> <b_epik_Metal_Only>
0

> <s_lp_Force_Field>
OPLS_2005

> <r_lp_Energy>
31.5885

> <b_lp_Chiralities_Consistent>
1

> <s_lp_Variant>
AV-unprocessed.smi:3148-2

> <Gold.Version>
5.8.1

> <Gold.Id.Protein>
6NUR|6NUR_protein|mol2

> <Gold.PLP.Fitness>
40.3279

> <Gold.PLP.PLP>
-38.3274

> <Gold.PLP.part.hbond>
-1.4196

> <Gold.PLP.part.metal>
0.0000

> <Gold.PLP.part.buried>
-5.3822

> <Gold.PLP.part.nonpolar>
-32.2444

> <Gold.PLP.part.repulsive>
1.5362

> <Gold.PLP.ligand.clash>
0.0000

> <Gold.PLP.ligand.torsion>
0.5048

> <Gold.PLP.Chemscore.Hbond>
1.0000

> <Gold.PLP.Chemscore.CHOScore>
0.0000

> <Gold.PLP.Chemscore.Metal>
0.0000

> <Gold.Chemscore.Hbonds>
donor molecule, donor type, donor heavy atom, donor atom, acceptor molecule, acceptor atom, score
      L1  H     9    25       P1  8028  1.00

> <Gold.PLP.Chemscore.Internal.Correction>
0.0100

> <Gold.Rescore>
     Score         DG    S(hbond)    S(metal)    S(lipo)     H(rot)  DE(clash)    DE(int)     intcor
     14.53     -16.06       1.00        0.00      88.69       1.22       0.01       1.51       ----

> <Gold.Chemscore.Fitness>
14.5307

> <Gold.Chemscore.DG>
-16.0559

> <Gold.Chemscore.ZeroCoef>
-5.4800

> <Gold.Chemscore.Hbond>
0.9971

> <Gold.Chemscore.Metal>
0.0000

> <Gold.Chemscore.Lipo>
88.6932

> <Gold.Chemscore.Internal_Hbond>
0.0000

> <Gold.Chemscore.DEClash>
0.0149

> <Gold.Chemscore.DEInternal>
1.5103

> <Gold.Chemscore.Rot>
1.2232

> <Gold.Chemscore.Internal.Correction>
   9.000000E+99

> <Gold.Chemscore.Hbonds>
donor molecule, donor type, donor heavy atom, donor atom, acceptor molecule, acceptor atom, score
      L1  H     9    25       P1  8028  0.97

> <Gold.Chemscore.Hbond.Weighted>
-3.3302

> <Gold.Chemscore.Metal.Weighted>
-0.0000

> <Gold.Chemscore.Lipo.Weighted>
-10.3771

> <Gold.Chemscore.Internal_Hbond.Weighted>
0.0000

> <Gold.Chemscore.DEClash.Weighted>
0.0149

> <Gold.Chemscore.DEInternal.Weighted>
1.5103

> <Gold.Chemscore.Rot.Weighted>
3.1314

> <Gold.Chemscore.Internal.Correction.Weighted>
   9.000000E+99

> <Gold.Protein.RotatedTorsions>
[ 6907 6896 6895 6894 ] final  -49.84 input  -60.11 | X-H torsion
[ 7974 7965 7964 7962 ] final  -68.26 input  175.53 | X-H torsion
[ 8008 7997 7996 7995 ] final -132.93 input   59.86 | X-H torsion
[ 10167 10162 10161 10158 ] final  -38.40 input  -65.29 | X-H torsion
[ 10718 10713 10712 10709 ] final  -42.59 input   66.30 | X-H torsion
[ 10763 10752 10751 10750 ] final  160.48 input  -60.55 | X-H torsion
[ 11005 11000 10999 10996 ] final  -63.50 input  -57.11 | X-H torsion

> <Gold.Protein.ActiveResidues>
 VAL166  LYS551  ARG553  GLY616  TRP617  ASP618  TYR619  PRO620  LYS621  CYS622 
 ASP623  PHE694  ASN695  SER759  ASP760  ASP761  ALA762  ILE779  LEU786  VAL792 
 PHE793  MET794  SER795  GLU796  ALA797  LYS798  CYS799  TRP800  GLU811  SER814 

> <Gold.Protein.RotatedAtoms>
  150.8765  134.8149  159.7193 H   0  0  0  0  0  0  0  0  0  0  0  0  # atno 6907 bound_to 6896
  152.4750  134.4863  159.9691 H   0  0  0  0  0  0  0  0  0  0  0  0  # atno 6908 bound_to 6896
  151.4944  133.3479  159.2894 H   0  0  0  0  0  0  0  0  0  0  0  0  # atno 6909 bound_to 6896
  145.7187  140.9048  143.0642 H   0  0  0  0  0  0  0  0  0  0  0  0  # atno 7974 bound_to 7965
  155.3370  140.0470  157.3044 H   0  0  0  0  0  0  0  0  0  0  0  0  # atno 8008 bound_to 7997
  154.5297  140.2253  155.8791 H   0  0  0  0  0  0  0  0  0  0  0  0  # atno 8009 bound_to 7997
  156.1776  140.3081  155.9095 H   0  0  0  0  0  0  0  0  0  0  0  0  # atno 8010 bound_to 7997
  140.7093  143.3280  151.2635 H   0  0  0  0  0  0  0  0  0  0  0  0  # atno 10167 bound_to 10162
  156.2580  130.4194  149.8574 H   0  0  0  0  0  0  0  0  0  0  0  0  # atno 10718 bound_to 10713
  154.2480  135.2772  155.2828 H   0  0  0  0  0  0  0  0  0  0  0  0  # atno 10763 bound_to 10752
  154.5489  135.5681  153.6908 H   0  0  0  0  0  0  0  0  0  0  0  0  # atno 10764 bound_to 10752
  152.9986  135.6269  154.2626 H   0  0  0  0  0  0  0  0  0  0  0  0  # atno 10765 bound_to 10752
  141.1395  133.6653  156.5690 H   0  0  0  0  0  0  0  0  0  0  0  0  # atno 11005 bound_to 11000
  144.6922  139.9173  143.7466 LP  0  0  0  0  0  0  0  0  0  0  0  0  # atno 17320 bound_to 7965
  146.0646  139.3637  143.0560 LP  0  0  0  0  0  0  0  0  0  0  0  0  # atno 17321 bound_to 7965
  139.6753  143.9948  152.2777 LP  0  0  0  0  0  0  0  0  0  0  0  0  # atno 17342 bound_to 10162
  139.9560  144.6589  150.8125 LP  0  0  0  0  0  0  0  0  0  0  0  0  # atno 17343 bound_to 10162
  156.6099  130.8582  151.3452 LP  0  0  0  0  0  0  0  0  0  0  0  0  # atno 17370 bound_to 10713
  157.7240  130.9597  150.1555 LP  0  0  0  0  0  0  0  0  0  0  0  0  # atno 17371 bound_to 10713
  140.3928  134.7425  157.4732 LP  0  0  0  0  0  0  0  0  0  0  0  0  # atno 17394 bound_to 11000
  140.0554  134.6071  155.8812 LP  0  0  0  0  0  0  0  0  0  0  0  0  # atno 17395 bound_to 11000

$$$$
