AV-unprocessed.smi:2548|AV-procd|sdf|10007|dock5
  -GOLD-   2272014 53D 1   1.00000     0.00000
 Structure written by MMmdl.
 44 45  0  0  0  0  0  0  0  0  1 V2000
  146.7139  141.4345  154.0177 C   0  0  0  0  0  0  0  0  0  0  0  0
  148.0511  140.8308  154.2818 C   0  0  0  0  0  0  0  0  0  0  0  0
  148.5947  139.6353  153.9049 C   0  0  0  0  0  0  0  0  0  0  0  0
  149.9056  139.6495  154.4680 C   0  0  0  0  0  0  0  0  0  0  0  0
  150.9659  138.5812  154.3804 C   0  0  0  0  0  0  0  0  0  0  0  0
  152.1994  138.9216  155.2264 C   0  0  0  0  0  0  0  0  0  0  0  0
  153.3094  139.0542  154.7086 O   0  0  0  0  0  0  0  0  0  0  0  0
  151.9787  139.0772  156.5416 N   0  0  0  0  0  0  0  0  0  0  0  0
  152.9873  139.4154  157.5462 C   0  0  0  0  0  0  0  0  0  0  0  0
  152.3963  139.6997  158.9611 C   0  0  0  0  0  0  0  0  0  0  0  0
  152.0831  138.3460  159.6417 C   0  0  0  0  0  0  0  0  0  0  0  0
  153.4413  140.4182  159.8636 C   0  0  0  0  0  0  0  0  0  0  0  0
  153.9954  141.7686  159.3630 C   0  0  0  0  0  0  0  0  0  0  0  0
  153.1632  143.0125  159.7180 C   0  0  0  0  0  0  0  0  0  0  0  0
  151.6390  142.9016  159.5473 C   0  0  0  0  0  0  0  0  0  0  0  0
  151.1581  141.9622  158.4306 C   0  0  0  0  0  0  0  0  0  0  0  0
  151.0652  140.4943  158.8887 C   0  0  0  0  0  0  0  0  0  0  0  0
  150.1501  140.7622  155.1467 N   0  0  0  0  0  0  0  0  0  0  0  0
  149.0153  141.4747  155.0220 N   0  0  0  0  0  0  0  0  0  0  0  0
  148.9134  142.3868  155.4440 H   0  0  0  0  0  0  0  0  0  0  0  0
  146.0584  140.7237  153.5140 H   0  0  0  0  0  0  0  0  0  0  0  0
  146.8061  142.3163  153.3836 H   0  0  0  0  0  0  0  0  0  0  0  0
  146.2324  141.7346  154.9486 H   0  0  0  0  0  0  0  0  0  0  0  0
  148.1281  138.8633  153.3110 H   0  0  0  0  0  0  0  0  0  0  0  0
  150.5742  137.6187  154.7119 H   0  0  0  0  0  0  0  0  0  0  0  0
  151.2700  138.4498  153.3412 H   0  0  0  0  0  0  0  0  0  0  0  0
  151.0335  138.9570  156.8758 H   0  0  0  0  0  0  0  0  0  0  0  0
  153.6739  138.5701  157.6041 H   0  0  0  0  0  0  0  0  0  0  0  0
  153.5861  140.2489  157.1835 H   0  0  0  0  0  0  0  0  0  0  0  0
  151.7464  138.4859  160.6697 H   0  0  0  0  0  0  0  0  0  0  0  0
  152.9630  137.7025  159.6742 H   0  0  0  0  0  0  0  0  0  0  0  0
  151.2963  137.7976  159.1228 H   0  0  0  0  0  0  0  0  0  0  0  0
  153.0423  140.5489  160.8706 H   0  0  0  0  0  0  0  0  0  0  0  0
  154.2938  139.7474  159.9815 H   0  0  0  0  0  0  0  0  0  0  0  0
  154.9827  141.9110  159.8037 H   0  0  0  0  0  0  0  0  0  0  0  0
  154.1812  141.7488  158.2918 H   0  0  0  0  0  0  0  0  0  0  0  0
  153.3698  143.3006  160.7495 H   0  0  0  0  0  0  0  0  0  0  0  0
  153.5265  143.8407  159.1089 H   0  0  0  0  0  0  0  0  0  0  0  0
  151.1909  142.5954  160.4932 H   0  0  0  0  0  0  0  0  0  0  0  0
  151.2483  143.9027  159.3608 H   0  0  0  0  0  0  0  0  0  0  0  0
  150.1524  142.2761  158.1493 H   0  0  0  0  0  0  0  0  0  0  0  0
  151.7591  142.0738  157.5282 H   0  0  0  0  0  0  0  0  0  0  0  0
  150.3713  139.9744  158.2287 H   0  0  0  0  0  0  0  0  0  0  0  0
  150.5761  140.4691  159.8634 H   0  0  0  0  0  0  0  0  0  0  0  0
  1  2  1  0  0  0  0
  1 21  1  0  0  0  0
  1 22  1  0  0  0  0
  1 23  1  0  0  0  0
  2 19  1  0  0  0  0
  2  3  2  0  0  0  0
  3  4  1  0  0  0  0
  3 24  1  0  0  0  0
  4  5  1  0  0  0  0
  4 18  2  0  0  0  0
  5  6  1  0  0  0  0
  5 25  1  0  0  0  0
  5 26  1  0  0  0  0
  6  7  2  0  0  0  0
  6  8  1  0  0  0  0
  8  9  1  0  0  0  0
  8 27  1  0  0  0  0
  9 10  1  0  0  0  0
  9 28  1  0  0  0  0
  9 29  1  0  0  0  0
 10 17  1  0  0  0  0
 10 11  1  0  0  0  0
 10 12  1  0  0  0  0
 11 30  1  0  0  0  0
 11 31  1  0  0  0  0
 11 32  1  0  0  0  0
 12 13  1  0  0  0  0
 12 33  1  0  0  0  0
 12 34  1  0  0  0  0
 13 14  1  0  0  0  0
 13 35  1  0  0  0  0
 13 36  1  0  0  0  0
 14 15  1  0  0  0  0
 14 37  1  0  0  0  0
 14 38  1  0  0  0  0
 15 16  1  0  0  0  0
 15 39  1  0  0  0  0
 15 40  1  0  0  0  0
 16 17  1  0  0  0  0
 16 41  1  0  0  0  0
 16 42  1  0  0  0  0
 17 43  1  0  0  0  0
 17 44  1  0  0  0  0
 18 19  1  0  0  0  0
 19 20  1  0  0  0  0
M  END
> <s_m_source_file>
AV-unprocessed.smi

> <i_m_source_file_index>
2548

> <i_lp_mmshare_version>
43012

> <i_f3d_flags>
0

> <s_epik_input>
W0NIM11jMVtjSF1jKG5bbkhdMSlbQ0gyXUMoPU8pW05IXVtDSDJdQzIoW0NIM10pW0NIMl1bQ0gyXVtDSDJdW0NIMl1bQ0gyXVtDSDJdMg==

> <s_epik_cmdline>
J2VwaWtfcHl0aG9uJywgJy1waCcsICc3LjAnLCAnLXRuJywgJzgnLCAnLW1hJywgJzIwMCcsICctbWV0YWxfYmluZGluZycsICctaW1hZScsICc8aW5maWxlLm1hZT4nLCAnLW9tYWUnLCAnPG91dGZpbGUubWFlPic=

> <r_lp_tautomer_probability>
0.5

> <r_epik_Ionization_Penalty>
8.42262e-05

> <r_epik_Ionization_Penalty_Charging>
0

> <r_epik_Ionization_Penalty_Neutral>
8.42262e-05

> <r_epik_State_Penalty>
0.41068

> <r_epik_Charging_Adjusted_Penalty>
0.41068

> <i_epik_Tot_Q>
0

> <i_epik_Tot_abs_Q>
0

> <r_epik_Metal_State_Penalty>
0.410698

> <b_epik_Metal_Only>
0

> <s_lp_Force_Field>
OPLS_2005

> <r_lp_Energy>
22.9227

> <b_lp_Chiralities_Consistent>
1

> <s_lp_Variant>
AV-unprocessed.smi:2548-1

> <Gold.Version>
5.8.1

> <Gold.Id.Protein>
6NUR|6NUR_protein|mol2

> <Gold.PLP.Fitness>
42.1007

> <Gold.PLP.PLP>
-36.6717

> <Gold.PLP.part.hbond>
-3.7565

> <Gold.PLP.part.metal>
0.0000

> <Gold.PLP.part.buried>
0.5147

> <Gold.PLP.part.nonpolar>
-33.3628

> <Gold.PLP.part.repulsive>
0.4200

> <Gold.PLP.ligand.clash>
0.0000

> <Gold.PLP.ligand.torsion>
0.2916

> <Gold.PLP.Chemscore.Hbond>
2.0000

> <Gold.PLP.Chemscore.CHOScore>
0.0000

> <Gold.PLP.Chemscore.Metal>
0.0000

> <Gold.Chemscore.Hbonds>
donor molecule, donor type, donor heavy atom, donor atom, acceptor molecule, acceptor atom, score
      L1  H    19    20       P1  8028  0.23
      P1  H  7997  8010       L1     7  1.00

> <Gold.PLP.Chemscore.Internal.Correction>
0.0121

> <Gold.Rescore>
     Score         DG    S(hbond)    S(metal)    S(lipo)     H(rot)  DE(clash)    DE(int)     intcor
     17.67     -20.90       1.98        0.00     109.27       1.55       1.49       1.74       ----

> <Gold.Chemscore.Fitness>
17.6670

> <Gold.Chemscore.DG>
-20.9038

> <Gold.Chemscore.ZeroCoef>
-5.4800

> <Gold.Chemscore.Hbond>
1.9773

> <Gold.Chemscore.Metal>
0.0000

> <Gold.Chemscore.Lipo>
109.2717

> <Gold.Chemscore.Internal_Hbond>
0.0000

> <Gold.Chemscore.DEClash>
1.4942

> <Gold.Chemscore.DEInternal>
1.7425

> <Gold.Chemscore.Rot>
1.5489

> <Gold.Chemscore.Internal.Correction>
   9.000000E+99

> <Gold.Chemscore.Hbonds>
donor molecule, donor type, donor heavy atom, donor atom, acceptor molecule, acceptor atom, score
      L1  H    19    20       P1  8028  0.25
      P1  H  7997  8010       L1     7  0.89

> <Gold.Chemscore.Hbond.Weighted>
-6.6042

> <Gold.Chemscore.Metal.Weighted>
-0.0000

> <Gold.Chemscore.Lipo.Weighted>
-12.7848

> <Gold.Chemscore.Internal_Hbond.Weighted>
0.0000

> <Gold.Chemscore.DEClash.Weighted>
1.4942

> <Gold.Chemscore.DEInternal.Weighted>
1.7425

> <Gold.Chemscore.Rot.Weighted>
3.9652

> <Gold.Chemscore.Internal.Correction.Weighted>
   9.000000E+99

> <Gold.Protein.RotatedTorsions>
[ 6907 6896 6895 6894 ] final -169.04 input  -60.11 | X-H torsion
[ 7974 7965 7964 7962 ] final    2.65 input  175.53 | X-H torsion
[ 8008 7997 7996 7995 ] final  117.72 input   59.86 | X-H torsion
[ 10167 10162 10161 10158 ] final   50.07 input  -65.29 | X-H torsion
[ 10718 10713 10712 10709 ] final  171.27 input   66.30 | X-H torsion
[ 10763 10752 10751 10750 ] final -126.32 input  -60.55 | X-H torsion
[ 11005 11000 10999 10996 ] final    2.12 input  -57.11 | X-H torsion

> <Gold.Protein.ActiveResidues>
 VAL166  LYS551  ARG553  GLY616  TRP617  ASP618  TYR619  PRO620  LYS621  CYS622 
 ASP623  PHE694  ASN695  SER759  ASP760  ASP761  ALA762  ILE779  LEU786  VAL792 
 PHE793  MET794  SER795  GLU796  ALA797  LYS798  CYS799  TRP800  GLU811  SER814 

> <Gold.Protein.RotatedAtoms>
  151.4852  133.3537  159.2844 H   0  0  0  0  0  0  0  0  0  0  0  0  # atno 6907 bound_to 6896
  150.8871  134.8272  159.7277 H   0  0  0  0  0  0  0  0  0  0  0  0  # atno 6908 bound_to 6896
  152.4800  134.4757  159.9701 H   0  0  0  0  0  0  0  0  0  0  0  0  # atno 6909 bound_to 6896
  146.2444  140.0804  142.8357 H   0  0  0  0  0  0  0  0  0  0  0  0  # atno 7974 bound_to 7965
  156.2509  140.2890  156.0723 H   0  0  0  0  0  0  0  0  0  0  0  0  # atno 8008 bound_to 7997
  155.1657  140.0400  157.2869 H   0  0  0  0  0  0  0  0  0  0  0  0  # atno 8009 bound_to 7997
  154.6361  140.2511  155.7383 H   0  0  0  0  0  0  0  0  0  0  0  0  # atno 8010 bound_to 7997
  140.2763  144.3208  150.6276 H   0  0  0  0  0  0  0  0  0  0  0  0  # atno 10167 bound_to 10162
  156.9960  131.0162  151.2844 H   0  0  0  0  0  0  0  0  0  0  0  0  # atno 10718 bound_to 10713
  154.8744  135.3999  154.3412 H   0  0  0  0  0  0  0  0  0  0  0  0  # atno 10763 bound_to 10752
  153.4211  135.7023  153.6299 H   0  0  0  0  0  0  0  0  0  0  0  0  # atno 10764 bound_to 10752
  153.4961  135.3738  155.2486 H   0  0  0  0  0  0  0  0  0  0  0  0  # atno 10765 bound_to 10752
  140.6078  133.9776  155.8163 H   0  0  0  0  0  0  0  0  0  0  0  0  # atno 11005 bound_to 11000
  145.0738  140.9174  143.4866 LP  0  0  0  0  0  0  0  0  0  0  0  0  # atno 17320 bound_to 7965
  145.0943  139.2868  143.5719 LP  0  0  0  0  0  0  0  0  0  0  0  0  # atno 17321 bound_to 7965
  140.5848  143.2170  151.7362 LP  0  0  0  0  0  0  0  0  0  0  0  0  # atno 17342 bound_to 10162
  139.4975  144.4027  152.0165 LP  0  0  0  0  0  0  0  0  0  0  0  0  # atno 17343 bound_to 10162
  157.5425  130.8129  149.8045 LP  0  0  0  0  0  0  0  0  0  0  0  0  # atno 17370 bound_to 10713
  156.0189  130.3803  150.2023 LP  0  0  0  0  0  0  0  0  0  0  0  0  # atno 17371 bound_to 10713
  141.0828  134.0036  157.3359 LP  0  0  0  0  0  0  0  0  0  0  0  0  # atno 17394 bound_to 11000
  139.9205  135.0200  156.8045 LP  0  0  0  0  0  0  0  0  0  0  0  0  # atno 17395 bound_to 11000

$$$$
