AV-unprocessed.smi:450|AV-procd|sdf|2608|dock10
  -GOLD-   2262023 03D 1   1.00000     0.00000
 Structure written by MMmdl.
 32 32  0  0  0  0  0  0  0  0  1 V2000
  144.6989  142.8139  158.8715 C   0  0  0  0  0  0  0  0  0  0  0  0
  145.9253  142.7880  157.9471 C   0  0  0  0  0  0  0  0  0  0  0  0
  145.5763  142.6074  156.4575 C   0  0  1  0  0  0  0  0  0  0  0  0
  144.6478  143.7240  155.9539 C   0  0  0  0  0  0  0  0  0  0  0  0
  146.7988  142.5690  155.6602 N   0  0  0  0  0  0  0  0  0  0  0  0
  147.2107  141.5364  154.9087 C   0  0  0  0  0  0  0  0  0  0  0  0
  146.5646  140.4995  154.7625 O   0  0  0  0  0  0  0  0  0  0  0  0
  148.5704  141.6929  154.2266 C   0  0  0  0  0  0  0  0  0  0  0  0
  149.4922  140.6441  154.6565 N   0  0  0  0  0  0  0  0  0  0  0  0
  149.5719  139.3700  154.2208 C   0  0  0  0  0  0  0  0  0  0  0  0
  148.7038  138.8871  153.2524 N   0  0  0  0  0  0  0  0  0  0  0  0
  150.5351  138.6527  154.7922 N   0  0  0  0  0  0  0  0  0  0  0  0
  151.1530  139.5230  155.6879 C   0  0  0  0  0  0  0  0  0  0  0  0
  152.2500  139.1155  156.4990 C   0  0  0  0  0  0  0  0  0  0  0  0
  153.1426  138.7831  157.1557 N   0  0  0  0  0  0  0  0  0  0  0  0
  150.5119  140.7400  155.6012 C   0  0  0  0  0  0  0  0  0  0  0  0
  150.8244  141.9046  156.3344 C   0  0  0  0  0  0  0  0  0  0  0  0
  151.0798  142.8592  156.9355 N   0  0  0  0  0  0  0  0  0  0  0  0
  144.9980  142.9923  159.9046 H   0  0  0  0  0  0  0  0  0  0  0  0
  144.1547  141.8693  158.8468 H   0  0  0  0  0  0  0  0  0  0  0  0
  144.0076  143.6068  158.5847 H   0  0  0  0  0  0  0  0  0  0  0  0
  146.4761  143.7206  158.0745 H   0  0  0  0  0  0  0  0  0  0  0  0
  146.5997  141.9928  158.2678 H   0  0  0  0  0  0  0  0  0  0  0  0
  145.0544  141.6545  156.3506 H   0  0  0  0  0  0  0  0  0  0  0  0
  143.7295  143.7633  156.5403 H   0  0  0  0  0  0  0  0  0  0  0  0
  144.3631  143.5640  154.9136 H   0  0  0  0  0  0  0  0  0  0  0  0
  145.1278  144.7007  156.0213 H   0  0  0  0  0  0  0  0  0  0  0  0
  147.4016  143.3765  155.7219 H   0  0  0  0  0  0  0  0  0  0  0  0
  148.4538  141.6494  153.1431 H   0  0  0  0  0  0  0  0  0  0  0  0
  148.9918  142.6733  154.4510 H   0  0  0  0  0  0  0  0  0  0  0  0
  147.9899  139.4769  152.8488 H   0  0  0  0  0  0  0  0  0  0  0  0
  148.7889  137.9520  152.8815 H   0  0  0  0  0  0  0  0  0  0  0  0
  1  2  1  0  0  0  0
  1 19  1  0  0  0  0
  1 20  1  0  0  0  0
  1 21  1  0  0  0  0
  2  3  1  0  0  0  0
  2 22  1  0  0  0  0
  2 23  1  0  0  0  0
  3  4  1  0  0  0  0
  3  5  1  0  0  0  0
  3 24  1  0  0  0  0
  4 25  1  0  0  0  0
  4 26  1  0  0  0  0
  4 27  1  0  0  0  0
  5  6  1  0  0  0  0
  5 28  1  0  0  0  0
  6  7  2  0  0  0  0
  6  8  1  0  0  0  0
  8  9  1  0  0  0  0
  8 29  1  0  0  0  0
  8 30  1  0  0  0  0
  9 16  1  0  0  0  0
  9 10  1  0  0  0  0
 10 11  1  0  0  0  0
 10 12  2  0  0  0  0
 11 31  1  0  0  0  0
 11 32  1  0  0  0  0
 12 13  1  0  0  0  0
 13 14  1  0  0  0  0
 13 16  2  0  0  0  0
 14 15  3  0  0  0  0
 16 17  1  0  0  0  0
 17 18  3  0  0  0  0
M  END
> <s_m_source_file>
AV-unprocessed.smi

> <i_m_source_file_index>
450

> <i_lp_mmshare_version>
43012

> <i_f3d_flags>
0

> <s_epik_input>
W0NIM11bQ0gyXVtDQEhdKFtDSDNdKVtOSF1DKD1PKVtDSDJdbjFjKFtOSDJdKW5jKEMjTiljMUMjTg==

> <s_epik_cmdline>
J2VwaWtfcHl0aG9uJywgJy1waCcsICc3LjAnLCAnLXRuJywgJzgnLCAnLW1hJywgJzIwMCcsICctbWV0YWxfYmluZGluZycsICctaW1hZScsICc8aW5maWxlLm1hZT4nLCAnLW9tYWUnLCAnPG91dGZpbGUubWFlPic=

> <r_epik_Ionization_Penalty>
0.000482749

> <r_epik_Ionization_Penalty_Charging>
7.71074e-10

> <r_epik_Ionization_Penalty_Neutral>
0.000482748

> <r_epik_State_Penalty>
0.000433536

> <r_epik_Charging_Adjusted_Penalty>
0.000433537

> <i_epik_Tot_Q>
0

> <i_epik_Tot_abs_Q>
0

> <r_epik_Metal_State_Penalty>
-0

> <b_epik_Metal_Only>
0

> <s_lp_Force_Field>
OPLS_2005

> <r_lp_Energy>
5.27204

> <b_lp_Chiralities_Consistent>
1

> <s_lp_Variant>
AV-unprocessed.smi:450-2

> <Gold.Version>
5.8.1

> <Gold.Id.Protein>
6NUR|6NUR_protein|mol2

> <Gold.PLP.Fitness>
35.4489

> <Gold.PLP.PLP>
-28.3530

> <Gold.PLP.part.hbond>
-3.8659

> <Gold.PLP.part.metal>
0.0000

> <Gold.PLP.part.buried>
-2.0761

> <Gold.PLP.part.nonpolar>
-23.0892

> <Gold.PLP.part.repulsive>
0.4851

> <Gold.PLP.ligand.clash>
0.0000

> <Gold.PLP.ligand.torsion>
0.2832

> <Gold.PLP.Chemscore.Hbond>
2.5500

> <Gold.PLP.Chemscore.CHOScore>
0.0000

> <Gold.PLP.Chemscore.Metal>
0.0000

> <Gold.Chemscore.Hbonds>
donor molecule, donor type, donor heavy atom, donor atom, acceptor molecule, acceptor atom, score
      L1  H     5    28       P1  8028  0.55
      L1  H    11    32       P1  7948  1.00
      P1  H  7997  8008       L1    15  1.00

> <Gold.PLP.Chemscore.Internal.Correction>
0.0124

> <Gold.Rescore>
     Score         DG    S(hbond)    S(metal)    S(lipo)     H(rot)  DE(clash)    DE(int)     intcor
      8.72      -9.41       1.87        0.00      28.70       2.21       0.43       0.27       ----

> <Gold.Chemscore.Fitness>
8.7165

> <Gold.Chemscore.DG>
-9.4079

> <Gold.Chemscore.ZeroCoef>
-5.4800

> <Gold.Chemscore.Hbond>
1.8662

> <Gold.Chemscore.Metal>
0.0000

> <Gold.Chemscore.Lipo>
28.6983

> <Gold.Chemscore.Internal_Hbond>
0.0000

> <Gold.Chemscore.DEClash>
0.4261

> <Gold.Chemscore.DEInternal>
0.2654

> <Gold.Chemscore.Rot>
2.2121

> <Gold.Chemscore.Internal.Correction>
   9.000000E+99

> <Gold.Chemscore.Hbonds>
donor molecule, donor type, donor heavy atom, donor atom, acceptor molecule, acceptor atom, score
      L1  H     5    28       P1  8028  0.03
      L1  H    11    32       P1  7948  0.97
      P1  H  7997  8008       L1    15  0.25

> <Gold.Chemscore.Hbond.Weighted>
-6.2331

> <Gold.Chemscore.Metal.Weighted>
-0.0000

> <Gold.Chemscore.Lipo.Weighted>
-3.3577

> <Gold.Chemscore.Internal_Hbond.Weighted>
0.0000

> <Gold.Chemscore.DEClash.Weighted>
0.4261

> <Gold.Chemscore.DEInternal.Weighted>
0.2654

> <Gold.Chemscore.Rot.Weighted>
5.6629

> <Gold.Chemscore.Internal.Correction.Weighted>
   9.000000E+99

> <Gold.Protein.RotatedTorsions>
[ 6907 6896 6895 6894 ] final   42.39 input  -60.11 | X-H torsion
[ 7974 7965 7964 7962 ] final   90.31 input  175.53 | X-H torsion
[ 8008 7997 7996 7995 ] final  -60.42 input   59.86 | X-H torsion
[ 10167 10162 10161 10158 ] final -149.91 input  -65.29 | X-H torsion
[ 10718 10713 10712 10709 ] final  -12.51 input   66.30 | X-H torsion
[ 10763 10752 10751 10750 ] final  -72.40 input  -60.55 | X-H torsion
[ 11005 11000 10999 10996 ] final   47.98 input  -57.11 | X-H torsion

> <Gold.Protein.ActiveResidues>
 VAL166  LYS551  ARG553  GLY616  TRP617  ASP618  TYR619  PRO620  LYS621  CYS622 
 ASP623  PHE694  ASN695  SER759  ASP760  ASP761  ALA762  ILE779  LEU786  VAL792 
 PHE793  MET794  SER795  GLU796  ALA797  LYS798  CYS799  TRP800  GLU811  SER814 

> <Gold.Protein.RotatedAtoms>
  152.2073  134.8533  160.0501 H   0  0  0  0  0  0  0  0  0  0  0  0  # atno 6907 bound_to 6896
  151.9365  133.3620  159.3958 H   0  0  0  0  0  0  0  0  0  0  0  0  # atno 6908 bound_to 6896
  150.6968  134.4408  159.5335 H   0  0  0  0  0  0  0  0  0  0  0  0  # atno 6909 bound_to 6896
  145.5207  139.2279  143.2673 H   0  0  0  0  0  0  0  0  0  0  0  0  # atno 7974 bound_to 7965
  154.4398  140.1040  156.6270 H   0  0  0  0  0  0  0  0  0  0  0  0  # atno 8008 bound_to 7997
  155.5646  140.3488  155.4481 H   0  0  0  0  0  0  0  0  0  0  0  0  # atno 8009 bound_to 7997
  156.0435  140.1287  157.0119 H   0  0  0  0  0  0  0  0  0  0  0  0  # atno 8010 bound_to 7997
  139.7401  143.8676  152.2560 H   0  0  0  0  0  0  0  0  0  0  0  0  # atno 10167 bound_to 10162
  156.6435  130.4934  149.6086 H   0  0  0  0  0  0  0  0  0  0  0  0  # atno 10718 bound_to 10713
  154.4451  135.5931  153.6155 H   0  0  0  0  0  0  0  0  0  0  0  0  # atno 10763 bound_to 10752
  152.9808  135.6007  154.3674 H   0  0  0  0  0  0  0  0  0  0  0  0  # atno 10764 bound_to 10752
  154.3528  135.2841  155.2341 H   0  0  0  0  0  0  0  0  0  0  0  0  # atno 10765 bound_to 10752
  140.1231  134.4803  155.8581 H   0  0  0  0  0  0  0  0  0  0  0  0  # atno 11005 bound_to 11000
  146.2108  140.6019  142.9060 LP  0  0  0  0  0  0  0  0  0  0  0  0  # atno 17320 bound_to 7965
  144.7677  140.5568  143.6691 LP  0  0  0  0  0  0  0  0  0  0  0  0  # atno 17321 bound_to 7965
  139.8624  144.7110  150.9084 LP  0  0  0  0  0  0  0  0  0  0  0  0  # atno 17342 bound_to 10162
  140.7784  143.3807  151.1483 LP  0  0  0  0  0  0  0  0  0  0  0  0  # atno 17343 bound_to 10162
  156.2140  130.6696  151.1299 LP  0  0  0  0  0  0  0  0  0  0  0  0  # atno 17370 bound_to 10713
  157.7163  131.0707  150.6312 LP  0  0  0  0  0  0  0  0  0  0  0  0  # atno 17371 bound_to 10713
  141.2156  133.6768  156.6926 LP  0  0  0  0  0  0  0  0  0  0  0  0  # atno 17394 bound_to 11000
  140.2939  134.8218  157.4040 LP  0  0  0  0  0  0  0  0  0  0  0  0  # atno 17395 bound_to 11000

$$$$
