AV-unprocessed.smi:3294|AV-procd|sdf|12634|dock3
  -GOLD-   2272018573D 1   1.00000     0.00000
 Structure written by MMmdl.
 38 40  0  0  0  0  0  0  0  0  2 V2000
  150.0263  141.5880  156.7356 C   0  0  0  0  0  0  0  0  0  0  0  0
  151.0157  142.3898  157.5547 C   0  0  0  0  0  0  0  0  0  0  0  0
  152.0016  141.7770  158.3575 C   0  0  0  0  0  0  0  0  0  0  0  0
  152.8962  142.5870  159.1024 C   0  0  0  0  0  0  0  0  0  0  0  0
  153.9336  142.0675  159.9234 N   0  0  0  0  0  0  0  0  0  0  0  0
  154.4871  140.8430  159.8910 C   0  0  0  0  0  0  0  0  0  0  0  0
  154.1446  139.9327  159.1369 O   0  0  0  0  0  0  0  0  0  0  0  0
  155.4585  140.7261  160.8096 N   0  0  0  0  0  0  0  0  0  0  0  0
  156.2714  139.5401  161.0759 C   0  0  0  0  0  0  0  0  0  0  0  0
  156.5311  139.2907  162.5547 C   0  0  0  0  0  0  0  0  0  0  0  0
  155.4382  138.7913  163.4694 C   0  0  0  0  0  0  0  0  0  0  0  0
  155.9602  140.2035  163.6129 C   0  0  0  0  0  0  0  0  0  0  0  0
  157.5686  139.4948  160.2819 C   0  0  0  0  0  0  0  0  0  0  0  0
  158.5616  140.6304  160.3421 C   0  0  0  0  0  0  0  0  0  0  0  0
  157.7784  140.3760  159.0735 C   0  0  0  0  0  0  0  0  0  0  0  0
  152.7866  143.9907  158.9932 C   0  0  0  0  0  0  0  0  0  0  0  0
  151.7821  144.5476  158.1762 C   0  0  0  0  0  0  0  0  0  0  0  0
  150.9421  143.7378  157.4969 N   0  3  0  0  0  0  0  0  0  0  0  0
  150.1117  140.5221  156.9489 H   0  0  0  0  0  0  0  0  0  0  0  0
  150.2065  141.7381  155.6708 H   0  0  0  0  0  0  0  0  0  0  0  0
  149.0052  141.8981  156.9597 H   0  0  0  0  0  0  0  0  0  0  0  0
  152.0643  140.6996  158.3793 H   0  0  0  0  0  0  0  0  0  0  0  0
  154.2526  142.6791  160.6604 H   0  0  0  0  0  0  0  0  0  0  0  0
  155.6572  141.5331  161.3827 H   0  0  0  0  0  0  0  0  0  0  0  0
  155.6595  138.7092  160.7220 H   0  0  0  0  0  0  0  0  0  0  0  0
  157.5225  138.8927  162.7628 H   0  0  0  0  0  0  0  0  0  0  0  0
  154.4404  138.6678  163.0536 H   0  0  0  0  0  0  0  0  0  0  0  0
  155.7165  138.0705  164.2355 H   0  0  0  0  0  0  0  0  0  0  0  0
  156.5863  140.4242  164.4750 H   0  0  0  0  0  0  0  0  0  0  0  0
  155.3100  141.0134  163.2884 H   0  0  0  0  0  0  0  0  0  0  0  0
  157.9987  138.4979  160.2059 H   0  0  0  0  0  0  0  0  0  0  0  0
  158.2954  141.5074  160.9287 H   0  0  0  0  0  0  0  0  0  0  0  0
  159.6185  140.3721  160.3426 H   0  0  0  0  0  0  0  0  0  0  0  0
  158.3131  139.9479  158.2280 H   0  0  0  0  0  0  0  0  0  0  0  0
  156.9966  141.0886  158.8181 H   0  0  0  0  0  0  0  0  0  0  0  0
  153.4603  144.6387  159.5353 H   0  0  0  0  0  0  0  0  0  0  0  0
  151.6279  145.6086  158.0447 H   0  0  0  0  0  0  0  0  0  0  0  0
  150.2231  144.1620  156.9100 H   0  0  0  0  0  0  0  0  0  0  0  0
  1  2  1  0  0  0  0
  1 19  1  0  0  0  0
  1 20  1  0  0  0  0
  1 21  1  0  0  0  0
  2 18  1  0  0  0  0
  2  3  2  0  0  0  0
  3  4  1  0  0  0  0
  3 22  1  0  0  0  0
  4  5  1  0  0  0  0
  4 16  2  0  0  0  0
  5  6  1  0  0  0  0
  5 23  1  0  0  0  0
  6  7  2  0  0  0  0
  6  8  1  0  0  0  0
  8  9  1  0  0  0  0
  8 24  1  0  0  0  0
  9 10  1  0  0  0  0
  9 13  1  0  0  0  0
  9 25  1  0  0  0  0
 10 12  1  0  0  0  0
 10 11  1  0  0  0  0
 10 26  1  0  0  0  0
 11 12  1  0  0  0  0
 11 27  1  0  0  0  0
 11 28  1  0  0  0  0
 12 29  1  0  0  0  0
 12 30  1  0  0  0  0
 13 15  1  0  0  0  0
 13 14  1  0  0  0  0
 13 31  1  0  0  0  0
 14 15  1  0  0  0  0
 14 32  1  0  0  0  0
 14 33  1  0  0  0  0
 15 34  1  0  0  0  0
 15 35  1  0  0  0  0
 16 17  1  0  0  0  0
 16 36  1  0  0  0  0
 17 18  2  0  0  0  0
 17 37  1  0  0  0  0
 18 38  1  0  0  0  0
M  CHG  1  18   1
M  END
> <s_m_source_file>
AV-unprocessed.smi

> <i_m_source_file_index>
3294

> <i_lp_mmshare_version>
43012

> <i_f3d_flags>
0

> <s_epik_input>
W0NIM11jMVtjSF1jKFtjSF1bY0hdbjEpW05IXUMoPU8pW05IXVtDSF0oW0NIXTJbQ0gyXVtDSDJdMilbQ0hdM1tDSDJdW0NIMl0z

> <s_epik_cmdline>
J2VwaWtfcHl0aG9uJywgJy1waCcsICc3LjAnLCAnLXRuJywgJzgnLCAnLW1hJywgJzIwMCcsICctbWV0YWxfYmluZGluZycsICctaW1hZScsICc8aW5maWxlLm1hZT4nLCAnLW9tYWUnLCAnPG91dGZpbGUubWFlPic=

> <r_epik_Ionization_Penalty>
0.432398

> <r_epik_Ionization_Penalty_Charging>
0.432376

> <r_epik_Ionization_Penalty_Neutral>
2.18467e-05

> <r_epik_State_Penalty>
0.433859

> <r_epik_Charging_Adjusted_Penalty>
0.866235

> <i_epik_Tot_Q>
1

> <i_epik_Tot_abs_Q>
1

> <r_epik_Metal_State_Penalty>
0.667026

> <b_epik_Metal_Only>
0

> <s_lp_Force_Field>
OPLS_2005

> <r_lp_Energy>
34.1615

> <b_lp_Chiralities_Consistent>
1

> <s_lp_Variant>
AV-unprocessed.smi:3294-2

> <Gold.Version>
5.8.1

> <Gold.Id.Protein>
6NUR|6NUR_protein|mol2

> <Gold.PLP.Fitness>
42.1785

> <Gold.PLP.PLP>
-34.7967

> <Gold.PLP.part.hbond>
-3.0000

> <Gold.PLP.part.metal>
0.0000

> <Gold.PLP.part.buried>
-4.5625

> <Gold.PLP.part.nonpolar>
-28.2069

> <Gold.PLP.part.repulsive>
0.0861

> <Gold.PLP.ligand.clash>
0.0000

> <Gold.PLP.ligand.torsion>
1.8821

> <Gold.PLP.Chemscore.Hbond>
2.9920

> <Gold.PLP.Chemscore.CHOScore>
0.0000

> <Gold.PLP.Chemscore.Metal>
0.0000

> <Gold.Chemscore.Hbonds>
donor molecule, donor type, donor heavy atom, donor atom, acceptor molecule, acceptor atom, score
      L1  H    18    38       P1  8028  2.00
      P1  H  7997  8009       L1     7  0.94

> <Gold.PLP.Chemscore.Internal.Correction>
2.1699

> <Gold.Rescore>
     Score         DG    S(hbond)    S(metal)    S(lipo)     H(rot)  DE(clash)    DE(int)     intcor
     17.30     -20.37       1.90        0.00     101.77       1.31       0.24       2.83       ----

> <Gold.Chemscore.Fitness>
17.3014

> <Gold.Chemscore.DG>
-20.3732

> <Gold.Chemscore.ZeroCoef>
-5.4800

> <Gold.Chemscore.Hbond>
1.8989

> <Gold.Chemscore.Metal>
0.0000

> <Gold.Chemscore.Lipo>
101.7720

> <Gold.Chemscore.Internal_Hbond>
0.0000

> <Gold.Chemscore.DEClash>
0.2420

> <Gold.Chemscore.DEInternal>
2.8297

> <Gold.Chemscore.Rot>
1.3111

> <Gold.Chemscore.Internal.Correction>
   9.000000E+99

> <Gold.Chemscore.Hbonds>
donor molecule, donor type, donor heavy atom, donor atom, acceptor molecule, acceptor atom, score
      L1  H    18    38       P1  8028  0.96
      P1  H  7997  8009       L1     7  0.67

> <Gold.Chemscore.Hbond.Weighted>
-6.3423

> <Gold.Chemscore.Metal.Weighted>
-0.0000

> <Gold.Chemscore.Lipo.Weighted>
-11.9073

> <Gold.Chemscore.Internal_Hbond.Weighted>
0.0000

> <Gold.Chemscore.DEClash.Weighted>
0.2420

> <Gold.Chemscore.DEInternal.Weighted>
2.8297

> <Gold.Chemscore.Rot.Weighted>
3.3564

> <Gold.Chemscore.Internal.Correction.Weighted>
   9.000000E+99

> <Gold.Protein.RotatedTorsions>
[ 6907 6896 6895 6894 ] final -143.14 input  -60.11 | X-H torsion
[ 7974 7965 7964 7962 ] final -113.76 input  175.53 | X-H torsion
[ 8008 7997 7996 7995 ] final  117.83 input   59.86 | X-H torsion
[ 10167 10162 10161 10158 ] final   30.24 input  -65.29 | X-H torsion
[ 10718 10713 10712 10709 ] final -142.30 input   66.30 | X-H torsion
[ 10763 10752 10751 10750 ] final  112.11 input  -60.55 | X-H torsion
[ 11005 11000 10999 10996 ] final  -30.42 input  -57.11 | X-H torsion

> <Gold.Protein.ActiveResidues>
 VAL166  LYS551  ARG553  GLY616  TRP617  ASP618  TYR619  PRO620  LYS621  CYS622 
 ASP623  PHE694  ASN695  SER759  ASP760  ASP761  ALA762  ILE779  LEU786  VAL792 
 PHE793  MET794  SER795  GLU796  ALA797  LYS798  CYS799  TRP800  GLU811  SER814 

> <Gold.Protein.RotatedAtoms>
  151.0965  133.5276  159.2611 H   0  0  0  0  0  0  0  0  0  0  0  0  # atno 6907 bound_to 6896
  151.2123  135.0485  159.8926 H   0  0  0  0  0  0  0  0  0  0  0  0  # atno 6908 bound_to 6896
  152.5439  134.0779  159.8276 H   0  0  0  0  0  0  0  0  0  0  0  0  # atno 6909 bound_to 6896
  145.1282  140.8709  143.3773 H   0  0  0  0  0  0  0  0  0  0  0  0  # atno 7974 bound_to 7965
  156.2515  140.2888  156.0740 H   0  0  0  0  0  0  0  0  0  0  0  0  # atno 8008 bound_to 7997
  155.1640  140.0400  157.2866 H   0  0  0  0  0  0  0  0  0  0  0  0  # atno 8009 bound_to 7997
  154.6373  140.2514  155.7370 H   0  0  0  0  0  0  0  0  0  0  0  0  # atno 8010 bound_to 7997
  140.4695  144.0783  150.6233 H   0  0  0  0  0  0  0  0  0  0  0  0  # atno 10167 bound_to 10162
  156.3442  130.7654  151.1795 H   0  0  0  0  0  0  0  0  0  0  0  0  # atno 10718 bound_to 10713
  153.4730  135.3696  155.2401 H   0  0  0  0  0  0  0  0  0  0  0  0  # atno 10763 bound_to 10752
  154.8756  135.3936  154.3789 H   0  0  0  0  0  0  0  0  0  0  0  0  # atno 10764 bound_to 10752
  153.4380  135.7083  153.6252 H   0  0  0  0  0  0  0  0  0  0  0  0  # atno 10765 bound_to 10752
  140.9381  133.7296  156.1035 H   0  0  0  0  0  0  0  0  0  0  0  0  # atno 11005 bound_to 11000
  145.0664  139.3065  143.5854 LP  0  0  0  0  0  0  0  0  0  0  0  0  # atno 17320 bound_to 7965
  146.3516  140.0124  142.8666 LP  0  0  0  0  0  0  0  0  0  0  0  0  # atno 17321 bound_to 7965
  140.3994  143.2711  151.9966 LP  0  0  0  0  0  0  0  0  0  0  0  0  # atno 17342 bound_to 10162
  139.4816  144.6010  151.7605 LP  0  0  0  0  0  0  0  0  0  0  0  0  # atno 17343 bound_to 10162
  157.7451  131.0446  150.4800 LP  0  0  0  0  0  0  0  0  0  0  0  0  # atno 17370 bound_to 10713
  156.4985  130.4111  149.6366 LP  0  0  0  0  0  0  0  0  0  0  0  0  # atno 17371 bound_to 10713
  140.7771  134.3767  157.5495 LP  0  0  0  0  0  0  0  0  0  0  0  0  # atno 17394 bound_to 11000
  139.8813  134.9059  156.2909 LP  0  0  0  0  0  0  0  0  0  0  0  0  # atno 17395 bound_to 11000

$$$$
