AV-unprocessed.smi:2454|AV-procd|sdf|9698|dock7
  -GOLD-   2272013333D 1   1.00000     0.00000
 Structure written by MMmdl.
 42 43  0  0  0  0  0  0  0  0  1 V2000
  148.5627  131.4547  161.6385 C   0  0  0  0  0  0  0  0  0  0  0  0
  147.9701  131.5344  160.3541 O   0  0  0  0  0  0  0  0  0  0  0  0
  148.5307  132.5659  159.5595 C   0  0  0  0  0  0  0  0  0  0  0  0
  148.0988  133.9329  160.0479 C   0  0  0  0  0  0  0  0  0  0  0  0
  148.6630  135.1126  159.5179 C   0  0  0  0  0  0  0  0  0  0  0  0
  148.2074  136.3433  160.0425 C   0  0  0  0  0  0  0  0  0  0  0  0
  148.8140  137.5047  159.4794 N   0  0  0  0  0  0  0  0  0  0  0  0
  150.0361  137.6990  158.9387 C   0  0  0  0  0  0  0  0  0  0  0  0
  150.8525  136.7819  158.8676 O   0  0  0  0  0  0  0  0  0  0  0  0
  150.2950  138.9387  158.4925 N   0  0  0  0  0  0  0  0  0  0  0  0
  151.5489  139.3977  157.8997 C   0  0  1  0  0  0  0  0  0  0  0  0
  151.2947  139.9387  156.4803 C   0  0  0  0  0  0  0  0  0  0  0  0
  150.5173  141.2655  156.4984 C   0  0  0  0  0  0  0  0  0  0  0  0
  151.2224  142.3137  157.3730 C   0  0  0  0  0  0  0  0  0  0  0  0
  151.4462  141.8012  158.8115 C   0  0  2  0  0  0  0  0  0  0  0  0
  152.1387  142.8559  159.6988 C   0  0  0  0  0  0  0  0  0  0  0  0
  152.3464  142.3809  160.9275 F   0  0  0  0  0  0  0  0  0  0  0  0
  153.3110  143.2018  159.1671 F   0  0  0  0  0  0  0  0  0  0  0  0
  151.3819  143.9500  159.7820 F   0  0  0  0  0  0  0  0  0  0  0  0
  152.2265  140.4667  158.7845 C   0  0  0  0  0  0  0  0  0  0  0  0
  147.2644  136.3483  161.0197 N   0  0  0  0  0  0  0  0  0  0  0  0
  146.7975  135.1744  161.4511 C   0  0  0  0  0  0  0  0  0  0  0  0
  147.1620  133.9669  161.0193 N   0  0  0  0  0  0  0  0  0  0  0  0
  148.0952  130.6522  162.2088 H   0  0  0  0  0  0  0  0  0  0  0  0
  148.4291  132.3842  162.1935 H   0  0  0  0  0  0  0  0  0  0  0  0
  149.6296  131.2393  161.5679 H   0  0  0  0  0  0  0  0  0  0  0  0
  149.6200  132.5057  159.5865 H   0  0  0  0  0  0  0  0  0  0  0  0
  148.2293  132.4431  158.5175 H   0  0  0  0  0  0  0  0  0  0  0  0
  149.4167  135.0712  158.7446 H   0  0  0  0  0  0  0  0  0  0  0  0
  148.2120  138.3145  159.4485 H   0  0  0  0  0  0  0  0  0  0  0  0
  149.5632  139.6288  158.5907 H   0  0  0  0  0  0  0  0  0  0  0  0
  152.2187  138.5402  157.8144 H   0  0  0  0  0  0  0  0  0  0  0  0
  152.2515  140.0946  155.9805 H   0  0  0  0  0  0  0  0  0  0  0  0
  150.7583  139.1993  155.8839 H   0  0  0  0  0  0  0  0  0  0  0  0
  150.4101  141.6435  155.4815 H   0  0  0  0  0  0  0  0  0  0  0  0
  149.5058  141.0984  156.8709 H   0  0  0  0  0  0  0  0  0  0  0  0
  152.1799  142.5767  156.9216 H   0  0  0  0  0  0  0  0  0  0  0  0
  150.6284  143.2278  157.3887 H   0  0  0  0  0  0  0  0  0  0  0  0
  150.4657  141.6074  159.2495 H   0  0  0  0  0  0  0  0  0  0  0  0
  152.3528  140.0834  159.7976 H   0  0  0  0  0  0  0  0  0  0  0  0
  153.2335  140.6478  158.4070 H   0  0  0  0  0  0  0  0  0  0  0  0
  146.0486  135.2068  162.2283 H   0  0  0  0  0  0  0  0  0  0  0  0
  1  2  1  0  0  0  0
  1 24  1  0  0  0  0
  1 25  1  0  0  0  0
  1 26  1  0  0  0  0
  2  3  1  0  0  0  0
  3  4  1  0  0  0  0
  3 27  1  0  0  0  0
  3 28  1  0  0  0  0
  4 23  1  0  0  0  0
  4  5  2  0  0  0  0
  5  6  1  0  0  0  0
  5 29  1  0  0  0  0
  6  7  1  0  0  0  0
  6 21  2  0  0  0  0
  7  8  1  0  0  0  0
  7 30  1  0  0  0  0
  8  9  2  0  0  0  0
  8 10  1  0  0  0  0
 10 11  1  0  0  0  0
 10 31  1  0  0  0  0
 11 20  1  0  0  0  0
 11 12  1  0  0  0  0
 11 32  1  0  0  0  0
 12 13  1  0  0  0  0
 12 33  1  0  0  0  0
 12 34  1  0  0  0  0
 13 14  1  0  0  0  0
 13 35  1  0  0  0  0
 13 36  1  0  0  0  0
 14 15  1  0  0  0  0
 14 37  1  0  0  0  0
 14 38  1  0  0  0  0
 15 16  1  0  0  0  0
 15 20  1  0  0  0  0
 15 39  1  0  0  0  0
 16 17  1  0  0  0  0
 16 18  1  0  0  0  0
 16 19  1  0  0  0  0
 20 40  1  0  0  0  0
 20 41  1  0  0  0  0
 21 22  1  0  0  0  0
 22 23  2  0  0  0  0
 22 42  1  0  0  0  0
M  END
> <s_m_source_file>
AV-unprocessed.smi

> <i_m_source_file_index>
2454

> <i_lp_mmshare_version>
43012

> <i_f3d_flags>
0

> <s_epik_input>
W0NIM11PW0NIMl1jMVtjSF1jKG5bY0hdbjEpW05IXUMoPU8pW05IXVtDQEBIXTJbQ0gyXVtDSDJdW0NIMl1bQ0BASF0oQyhGKShGKUYpW0NIMl0y

> <s_epik_cmdline>
J2VwaWtfcHl0aG9uJywgJy1waCcsICc3LjAnLCAnLXRuJywgJzgnLCAnLW1hJywgJzIwMCcsICctbWV0YWxfYmluZGluZycsICctaW1hZScsICc8aW5maWxlLm1hZT4nLCAnLW9tYWUnLCAnPG91dGZpbGUubWFlPic=

> <r_lp_tautomer_probability>
1

> <r_epik_Ionization_Penalty>
3.01554e-05

> <r_epik_Ionization_Penalty_Charging>
0

> <r_epik_Ionization_Penalty_Neutral>
3.01554e-05

> <r_epik_State_Penalty>
-0

> <r_epik_Charging_Adjusted_Penalty>
0

> <i_epik_Tot_Q>
0

> <i_epik_Tot_abs_Q>
0

> <r_epik_Metal_State_Penalty>
-0

> <b_epik_Metal_Only>
0

> <s_lp_Force_Field>
OPLS_2005

> <r_lp_Energy>
13.7545

> <b_lp_Chiralities_Consistent>
1

> <s_lp_Variant>
AV-unprocessed.smi:2454-4

> <Gold.Version>
5.8.1

> <Gold.Id.Protein>
6NUR|6NUR_protein|mol2

> <Gold.PLP.Fitness>
39.2424

> <Gold.PLP.PLP>
-36.8593

> <Gold.PLP.part.hbond>
-1.0000

> <Gold.PLP.part.metal>
0.0000

> <Gold.PLP.part.buried>
-5.4268

> <Gold.PLP.part.nonpolar>
-32.4730

> <Gold.PLP.part.repulsive>
0.9119

> <Gold.PLP.ligand.clash>
0.0000

> <Gold.PLP.ligand.torsion>
0.3068

> <Gold.PLP.Chemscore.Hbond>
0.9833

> <Gold.PLP.Chemscore.CHOScore>
0.0000

> <Gold.PLP.Chemscore.Metal>
0.0000

> <Gold.Chemscore.Hbonds>
donor molecule, donor type, donor heavy atom, donor atom, acceptor molecule, acceptor atom, score
      P1  H  6896  6907       L1     9  0.96

> <Gold.PLP.Chemscore.Internal.Correction>
0.0467

> <Gold.Rescore>
     Score         DG    S(hbond)    S(metal)    S(lipo)     H(rot)  DE(clash)    DE(int)     intcor
     10.73     -12.67       0.97        0.00      68.89       1.60       0.05       1.90       ----

> <Gold.Chemscore.Fitness>
10.7269

> <Gold.Chemscore.DG>
-12.6724

> <Gold.Chemscore.ZeroCoef>
-5.4800

> <Gold.Chemscore.Hbond>
0.9692

> <Gold.Chemscore.Metal>
0.0000

> <Gold.Chemscore.Lipo>
68.8899

> <Gold.Chemscore.Internal_Hbond>
0.0000

> <Gold.Chemscore.DEClash>
0.0456

> <Gold.Chemscore.DEInternal>
1.8999

> <Gold.Chemscore.Rot>
1.6035

> <Gold.Chemscore.Internal.Correction>
   9.000000E+99

> <Gold.Chemscore.Hbonds>
donor molecule, donor type, donor heavy atom, donor atom, acceptor molecule, acceptor atom, score
      P1  H  6896  6907       L1     9  0.88

> <Gold.Chemscore.Hbond.Weighted>
-3.2373

> <Gold.Chemscore.Metal.Weighted>
-0.0000

> <Gold.Chemscore.Lipo.Weighted>
-8.0601

> <Gold.Chemscore.Internal_Hbond.Weighted>
0.0000

> <Gold.Chemscore.DEClash.Weighted>
0.0456

> <Gold.Chemscore.DEInternal.Weighted>
1.8999

> <Gold.Chemscore.Rot.Weighted>
4.1050

> <Gold.Chemscore.Internal.Correction.Weighted>
   9.000000E+99

> <Gold.Protein.RotatedTorsions>
[ 6907 6896 6895 6894 ] final  -39.35 input  -60.11 | X-H torsion
[ 7974 7965 7964 7962 ] final  148.08 input  175.53 | X-H torsion
[ 8008 7997 7996 7995 ] final -154.23 input   59.86 | X-H torsion
[ 10167 10162 10161 10158 ] final  142.01 input  -65.29 | X-H torsion
[ 10718 10713 10712 10709 ] final  -66.63 input   66.30 | X-H torsion
[ 10763 10752 10751 10750 ] final  139.12 input  -60.55 | X-H torsion
[ 11005 11000 10999 10996 ] final -135.54 input  -57.11 | X-H torsion

> <Gold.Protein.ActiveResidues>
 VAL166  LYS551  ARG553  GLY616  TRP617  ASP618  TYR619  PRO620  LYS621  CYS622 
 ASP623  PHE694  ASN695  SER759  ASP760  ASP761  ALA762  ILE779  LEU786  VAL792 
 PHE793  MET794  SER795  GLU796  ALA797  LYS798  CYS799  TRP800  GLU811  SER814 

> <Gold.Protein.RotatedAtoms>
  150.9913  134.9247  159.7901 H   0  0  0  0  0  0  0  0  0  0  0  0  # atno 6907 bound_to 6896
  152.5252  134.3277  159.9181 H   0  0  0  0  0  0  0  0  0  0  0  0  # atno 6908 bound_to 6896
  151.3283  133.3970  159.2695 H   0  0  0  0  0  0  0  0  0  0  0  0  # atno 6909 bound_to 6896
  144.8541  139.6109  143.5960 H   0  0  0  0  0  0  0  0  0  0  0  0  # atno 7974 bound_to 7965
  155.6831  140.0746  157.2477 H   0  0  0  0  0  0  0  0  0  0  0  0  # atno 8008 bound_to 7997
  154.4102  140.1678  156.2056 H   0  0  0  0  0  0  0  0  0  0  0  0  # atno 8009 bound_to 7997
  155.9517  140.3377  155.6417 H   0  0  0  0  0  0  0  0  0  0  0  0  # atno 8010 bound_to 7997
  139.5005  144.6134  151.6218 H   0  0  0  0  0  0  0  0  0  0  0  0  # atno 10167 bound_to 10162
  156.0602  130.4265  150.1737 H   0  0  0  0  0  0  0  0  0  0  0  0  # atno 10718 bound_to 10713
  153.9009  135.3022  155.3448 H   0  0  0  0  0  0  0  0  0  0  0  0  # atno 10763 bound_to 10752
  154.7671  135.4905  153.9578 H   0  0  0  0  0  0  0  0  0  0  0  0  # atno 10764 bound_to 10752
  153.1245  135.6790  153.9379 H   0  0  0  0  0  0  0  0  0  0  0  0  # atno 10765 bound_to 10752
  140.8889  134.1837  157.4541 H   0  0  0  0  0  0  0  0  0  0  0  0  # atno 11005 bound_to 11000
  146.2809  139.6874  142.9230 LP  0  0  0  0  0  0  0  0  0  0  0  0  # atno 17320 bound_to 7965
  145.4441  141.0424  143.2841 LP  0  0  0  0  0  0  0  0  0  0  0  0  # atno 17321 bound_to 7965
  140.5816  143.9937  150.6271 LP  0  0  0  0  0  0  0  0  0  0  0  0  # atno 17342 bound_to 10162
  140.3087  143.3212  152.0900 LP  0  0  0  0  0  0  0  0  0  0  0  0  # atno 17343 bound_to 10162
  156.9807  130.9863  151.3438 LP  0  0  0  0  0  0  0  0  0  0  0  0  # atno 17370 bound_to 10713
  157.5604  130.8242  149.8258 LP  0  0  0  0  0  0  0  0  0  0  0  0  # atno 17371 bound_to 10713
  139.8727  134.9850  156.5262 LP  0  0  0  0  0  0  0  0  0  0  0  0  # atno 17394 bound_to 11000
  140.8371  133.8234  155.9039 LP  0  0  0  0  0  0  0  0  0  0  0  0  # atno 17395 bound_to 11000

$$$$
