#       Name:                AV-unprocessed.smi:234
#       Creating user name   scv26
#       Creation time:       Thu Mar 26 20:36:53 2020


#       File generated by GOLD software.
#

@<TRIPOS>MOLECULE
AV-unprocessed.smi:234
    69    72     1
SMALL
NO_CHARGES


@<TRIPOS>ATOM
      1 ****        -5.1960  -1.0752   3.2869 C.3            1 S1                 0.0000
      2 ****        -3.8987  -1.4303   4.0258 C.3            1 S1                 0.0000
      3 ****        -2.7925  -1.5268   3.1389 O.3            1 S1                 0.0000
      4 ****        -2.2607  -0.2813   2.7060 C.3            1 S1                 0.0000
      5 ****        -1.1228  -0.4744   1.7064 C.3            1 S1                 0.0000
      6 ****        -0.4746   0.7491   2.3683 C.3            1 S1                 0.0000
      7 ****         0.9854   0.6725   2.4762 N.3            1 S1                 0.0000
      8 ****         1.6693   1.6712   3.2894 C.3            1 S1                 0.0000
      9 ****         1.6926   0.3710   1.3601 C.ar           1 S1                 0.0000
     10 ****         2.8109  -0.3800   1.5261 N.ar           1 S1                 0.0000
     11 ****         3.5621  -0.7098   0.4719 C.ar           1 S1                 0.0000
     12 ****         3.3823  -0.3947  -0.8118 N.ar           1 S1                 0.0000
     13 ****         2.2654   0.3691  -0.9848 C.ar           1 S1                 0.0000
     14 ****         1.3746   0.8019   0.0384 C.ar           1 S1                 0.0000
     15 ****         0.3725   1.5885  -0.5171 N.2            1 S1                 0.0000
     16 ****         0.6445   1.6036  -1.7928 C.2            1 S1                 0.0000
     17 ****         1.7579   0.8849  -2.1663 N.pl3          1 S1                 0.0000
     18 ****         2.3025   0.7240  -3.5094 C.3            1 S1                 0.0000
     19 ****         1.7850  -0.5323  -4.2612 C.3            1 S1                 0.0000
     20 ****         1.9499  -1.6561  -3.4123 O.3            1 S1                 0.0000
     21 ****         2.5214  -0.8035  -5.5620 C.3            1 S1                 0.0000
     22 ****         1.5571  -1.7075  -6.3284 C.3            1 S1                 0.0000
     23 ****         0.2623  -1.4792  -5.7751 O.3            1 S1                 0.0000
     24 ****         0.3135  -0.5153  -4.7246 C.3            1 S1                 0.0000
     25 ****        -0.1758   0.8015  -5.3568 C.3            1 S1                 0.0000
     26 ****        -1.2487   0.3928   3.6710 C.3            1 S1                 0.0000
     27 ****        -1.7975   1.5771   4.4703 C.3            1 S1                 0.0000
     28 ****        -0.5529  -0.5493   4.6699 C.3            1 S1                 0.0000
     29 ****        -6.0467  -1.1085   3.9678 H              1 S1                 0.0000
     30 ****        -5.3901  -1.7796   2.4778 H              1 S1                 0.0000
     31 ****        -5.1607  -0.0732   2.8602 H              1 S1                 0.0000
     32 ****        -3.7001  -0.7215   4.8291 H              1 S1                 0.0000
     33 ****        -4.0207  -2.4043   4.4997 H              1 S1                 0.0000
     34 ****        -3.0095   0.4097   2.3141 H              1 S1                 0.0000
     35 ****        -0.5706  -1.4044   1.8531 H              1 S1                 0.0000
     36 ****        -1.4109  -0.3370   0.6641 H              1 S1                 0.0000
     37 ****        -0.8329   1.6830   1.9311 H              1 S1                 0.0000
     38 ****         2.0321   2.4956   2.6739 H              1 S1                 0.0000
     39 ****         2.5216   1.2239   3.8019 H              1 S1                 0.0000
     40 ****         1.0097   2.0894   4.0475 H              1 S1                 0.0000
     41 ****         4.4325  -1.3116   0.6882 H              1 S1                 0.0000
     42 ****         0.0338   2.1545  -2.4902 H              1 S1                 0.0000
     43 ****         2.1081   1.6337  -4.0775 H              1 S1                 0.0000
     44 ****         3.3879   0.6646  -3.4174 H              1 S1                 0.0000
     45 ****         1.6182  -2.4194  -3.8599 H              1 S1                 0.0000
     46 ****         2.6641   0.1272  -6.1126 H              1 S1                 0.0000
     47 ****         3.5047  -1.2539  -5.4198 H              1 S1                 0.0000
     48 ****         1.5690  -1.5003  -7.3988 H              1 S1                 0.0000
     49 ****         1.8156  -2.7571  -6.1856 H              1 S1                 0.0000
     50 ****        -0.3660  -0.7960  -3.9186 H              1 S1                 0.0000
     51 ****        -0.2056   1.6180  -4.6404 H              1 S1                 0.0000
     52 ****        -1.1867   0.6833  -5.7473 H              1 S1                 0.0000
     53 ****         0.4584   1.1132  -6.1867 H              1 S1                 0.0000
     54 ****        -1.0122   2.0989   5.0165 H              1 S1                 0.0000
     55 ****        -2.5395   1.2596   5.2025 H              1 S1                 0.0000
     56 ****        -2.2794   2.3087   3.8212 H              1 S1                 0.0000
     57 ****         0.2572  -0.0482   5.1999 H              1 S1                 0.0000
     58 ****        -0.1229  -1.4231   4.1800 H              1 S1                 0.0000
     59 ****        -1.2497  -0.9176   5.4231 H              1 S1                 0.0000
     60 ****        -3.0863  -2.0367   2.3304 LP             1 S1                 0.0000
     61 ****        -2.0645  -2.0303   3.6042 LP             1 S1                 0.0000
     62 ****         0.9937  -0.1622   3.0268 LP             1 S1                 0.0000
     63 ****         3.0734  -0.6875   2.4407 LP             1 S1                 0.0000
     64 ****         3.9891  -0.6819  -1.5530 LP             1 S1                 0.0000
     65 ****        -0.3850   2.0403  -0.0459 LP             1 S1                 0.0000
     66 ****         1.4414  -1.5151  -2.5628 LP             1 S1                 0.0000
     67 ****         2.9197  -1.7820  -3.2033 LP             1 S1                 0.0000
     68 ****        -0.0934  -2.3400  -5.4111 LP             1 S1                 0.0000
     69 ****        -0.3459  -1.1451  -6.4951 LP             1 S1                 0.0000
@<TRIPOS>BOND
    1    1    2 1     
    2    1   29 1     
    3    1   30 1     
    4    1   31 1     
    5    2    3 1     
    6    2   32 1     
    7    2   33 1     
    8    3    4 1     
    9    4   26 1     
   10    4    5 1     
   11    4   34 1     
   12    5    6 1     
   13    5   35 1     
   14    5   36 1     
   15    6    7 1     
   16    6   26 1     
   17    6   37 1     
   18    7    8 1     
   19    7    9 1     
   20    8   38 1     
   21    8   39 1     
   22    8   40 1     
   23    9   14 ar    
   24    9   10 ar    
   25   10   11 ar    
   26   11   12 ar    
   27   11   41 1     
   28   12   13 ar    
   29   13   17 1     
   30   13   14 ar    
   31   14   15 1     
   32   15   16 2     
   33   16   17 1     
   34   16   42 1     
   35   17   18 1     
   36   18   19 1     
   37   18   43 1     
   38   18   44 1     
   39   19   24 1     
   40   19   20 1     
   41   19   21 1     
   42   20   45 1     
   43   21   22 1     
   44   21   46 1     
   45   21   47 1     
   46   22   23 1     
   47   22   48 1     
   48   22   49 1     
   49   23   24 1     
   50   24   25 1     
   51   24   50 1     
   52   25   51 1     
   53   25   52 1     
   54   25   53 1     
   55   26   27 1     
   56   26   28 1     
   57   27   54 1     
   58   27   55 1     
   59   27   56 1     
   60   28   57 1     
   61   28   58 1     
   62   28   59 1     
   63    3   60 1     
   64    3   61 1     
   65    7   62 1     
   66   10   63 1     
   67   12   64 1     
   68   15   65 1     
   69   20   66 1     
   70   20   67 1     
   71   23   68 1     
   72   23   69 1     
@<TRIPOS>SUBSTRUCTURE
      1 S1             1
@<TRIPOS>SET
LONE_PAIRS      STATIC     ATOMS    <user>   **** ""
10 60 61 62 63 64 65 66 67 68 69
DONOR_HYDROGENS      STATIC     ATOMS    <user>   **** ""
1 45
ATOM$BLUE        STATIC     ATOMS    COLORGROUP SYSTEM
10 60 61 62 63 64 65 66 67 68 69
ATOM$RED        STATIC     ATOMS    COLORGROUP SYSTEM
1 45
