#       Name:                AV-unprocessed.smi:3297
#       Creating user name   scv26
#       Creation time:       Fri Mar 27 18:57:25 2020


#       File generated by GOLD software.
#

@<TRIPOS>MOLECULE
AV-unprocessed.smi:3297
    40    41     1
SMALL
NO_CHARGES


@<TRIPOS>ATOM
      1 ****        -4.3115   3.1478   0.9265 O.3            1 S1                 0.0000
      2 ****        -3.8066   2.9552  -0.3774 C.3            1 S1                 0.0000
      3 ****        -3.2609   1.5301  -0.5282 C.3            1 S1                 0.0000
      4 ****        -1.9293   1.4918  -0.0356 O.3            1 S1                 0.0000
      5 ****        -1.2978   0.2224  -0.1375 C.3            1 S1                 0.0000
      6 ****        -1.7472  -0.7126   1.0034 C.3            1 S1                 0.0000
      7 ****        -0.9367  -2.0177   0.9720 C.3            1 S1                 0.0000
      8 ****         0.5742  -1.7324   1.0055 C.3            1 S1                 0.0000
      9 ****         0.9544  -0.8092  -0.0629 N.3            1 S1                 0.0000
     10 ****         2.3402  -0.7525  -0.3158 C.ar           1 S1                 0.0000
     11 ****         2.9919   0.4080  -0.0525 N.ar           1 S1                 0.0000
     12 ****         4.3211   0.4747  -0.2789 C.ar           1 S1                 0.0000
     13 ****         5.0738  -0.6044  -0.7788 C.ar           1 S1                 0.0000
     14 ****         4.4036  -1.8091  -1.0595 C.ar           1 S1                 0.0000
     15 ****         3.0166  -1.8876  -0.8271 C.ar           1 S1                 0.0000
     16 ****         2.3504  -3.0329  -1.1125 F              1 S1                 0.0000
     17 ****         0.2217   0.4582  -0.0679 C.3            1 S1                 0.0000
     18 ****        -4.6417   4.0307   0.9933 H              1 S1                 0.0000
     19 ****        -4.6298   3.1111  -1.0749 H              1 S1                 0.0000
     20 ****        -3.0437   3.6996  -0.6065 H              1 S1                 0.0000
     21 ****        -3.9090   0.8105  -0.0272 H              1 S1                 0.0000
     22 ****        -3.2451   1.2672  -1.5868 H              1 S1                 0.0000
     23 ****        -1.5284  -0.2339  -1.1021 H              1 S1                 0.0000
     24 ****        -1.6046  -0.2161   1.9640 H              1 S1                 0.0000
     25 ****        -2.8095  -0.9422   0.9248 H              1 S1                 0.0000
     26 ****        -1.2153  -2.6514   1.8143 H              1 S1                 0.0000
     27 ****        -1.1818  -2.5774   0.0685 H              1 S1                 0.0000
     28 ****         0.8458  -1.2873   1.9636 H              1 S1                 0.0000
     29 ****         1.1215  -2.6717   0.9329 H              1 S1                 0.0000
     30 ****         4.7991   1.4166  -0.0542 H              1 S1                 0.0000
     31 ****         6.1364  -0.5087  -0.9455 H              1 S1                 0.0000
     32 ****         4.9437  -2.6588  -1.4502 H              1 S1                 0.0000
     33 ****         0.5338   1.0633  -0.9202 H              1 S1                 0.0000
     34 ****         0.4700   1.0192   0.8344 H              1 S1                 0.0000
     35 ****        -3.5806   3.0096   1.5949 LP             1 S1                 0.0000
     36 ****        -5.0505   2.4972   1.1014 LP             1 S1                 0.0000
     37 ****        -1.9456   1.7557   0.9288 LP             1 S1                 0.0000
     38 ****        -1.3860   2.1530  -0.5530 LP             1 S1                 0.0000
     39 ****         0.6132  -1.2304  -0.9032 LP             1 S1                 0.0000
     40 ****         2.4962   1.2003   0.3031 LP             1 S1                 0.0000
@<TRIPOS>BOND
    1    1    2 1     
    2    1   18 1     
    3    2    3 1     
    4    2   19 1     
    5    2   20 1     
    6    3    4 1     
    7    3   21 1     
    8    3   22 1     
    9    4    5 1     
   10    5   17 1     
   11    5    6 1     
   12    5   23 1     
   13    6    7 1     
   14    6   24 1     
   15    6   25 1     
   16    7    8 1     
   17    7   26 1     
   18    7   27 1     
   19    8    9 1     
   20    8   28 1     
   21    8   29 1     
   22    9   10 1     
   23    9   17 1     
   24   10   15 ar    
   25   10   11 ar    
   26   11   12 ar    
   27   12   13 ar    
   28   12   30 1     
   29   13   14 ar    
   30   13   31 1     
   31   14   15 ar    
   32   14   32 1     
   33   15   16 1     
   34   17   33 1     
   35   17   34 1     
   36    1   35 1     
   37    1   36 1     
   38    4   37 1     
   39    4   38 1     
   40    9   39 1     
   41   11   40 1     
@<TRIPOS>SUBSTRUCTURE
      1 S1             1
@<TRIPOS>SET
LONE_PAIRS      STATIC     ATOMS    <user>   **** ""
6 35 36 37 38 39 40
DONOR_HYDROGENS      STATIC     ATOMS    <user>   **** ""
1 18
ATOM$BLUE        STATIC     ATOMS    COLORGROUP SYSTEM
6 35 36 37 38 39 40
ATOM$RED        STATIC     ATOMS    COLORGROUP SYSTEM
1 18
