AV-unprocessed.smi:910|AV-procd|sdf|4135|dock2
  -GOLD-   22720 2 43D 1   1.00000     0.00000
 Structure written by MMmdl.
 45 46  0  0  0  0  0  0  0  0  2 V2000
  145.1149  134.4907  163.3748 C   0  0  0  0  0  0  0  0  0  0  0  0
  146.2513  134.8209  162.4588 C   0  0  0  0  0  0  0  0  0  0  0  0
  146.5602  136.1245  162.1005 N   0  0  0  0  0  0  0  0  0  0  0  0
  147.6188  136.0392  161.2927 C   0  0  0  0  0  0  0  0  0  0  0  0
  148.2562  137.0658  160.7069 N   0  5  0  0  0  0  0  0  0  0  0  0
  149.0625  136.8374  159.6456 C   0  0  0  0  0  0  0  0  0  0  0  0
  149.2691  135.7474  159.1064 O   0  0  0  0  0  0  0  0  0  0  0  0
  149.6669  137.9392  159.1779 N   0  0  0  0  0  0  0  0  0  0  0  0
  150.5747  137.9955  158.0366 C   0  0  0  0  0  0  0  0  0  0  0  0
  150.9514  139.4421  157.6890 C   0  0  0  0  0  0  0  0  0  0  0  0
  151.6948  139.9965  158.7645 O   0  0  0  0  0  0  0  0  0  0  0  0
  152.2334  141.2843  158.4971 C   0  0  1  0  0  0  0  0  0  0  0  0
  151.0916  142.2226  158.0523 C   0  0  0  0  0  0  0  0  0  0  0  0
  151.5837  143.6665  157.8759 C   0  0  0  0  0  0  0  0  0  0  0  0
  152.2460  144.1828  159.1609 C   0  0  0  0  0  0  0  0  0  0  0  0
  153.3876  143.2555  159.6048 C   0  0  0  0  0  0  0  0  0  0  0  0
  152.9069  141.8019  159.7880 C   0  0  2  0  0  0  0  0  0  0  0  0
  154.0705  140.8970  160.2245 C   0  0  0  0  0  0  0  0  0  0  0  0
  148.0095  134.7476  161.0954 O   0  0  0  0  0  0  0  0  0  0  0  0
  147.1450  133.9907  161.8372 C   0  0  0  0  0  0  0  0  0  0  0  0
  147.3326  132.5119  161.8269 C   0  0  0  0  0  0  0  0  0  0  0  0
  144.3791  133.8612  162.8747 H   0  0  0  0  0  0  0  0  0  0  0  0
  144.6019  135.3900  163.7173 H   0  0  0  0  0  0  0  0  0  0  0  0
  145.4658  133.9549  164.2568 H   0  0  0  0  0  0  0  0  0  0  0  0
  149.4688  138.8115  159.6458 H   0  0  0  0  0  0  0  0  0  0  0  0
  151.4710  137.4222  158.2739 H   0  0  0  0  0  0  0  0  0  0  0  0
  150.1159  137.5088  157.1746 H   0  0  0  0  0  0  0  0  0  0  0  0
  151.5635  139.4576  156.7864 H   0  0  0  0  0  0  0  0  0  0  0  0
  150.0553  140.0267  157.4790 H   0  0  0  0  0  0  0  0  0  0  0  0
  152.9897  141.2255  157.7115 H   0  0  0  0  0  0  0  0  0  0  0  0
  150.6502  141.8751  157.1185 H   0  0  0  0  0  0  0  0  0  0  0  0
  150.2921  142.2006  158.7942 H   0  0  0  0  0  0  0  0  0  0  0  0
  152.2961  143.7121  157.0514 H   0  0  0  0  0  0  0  0  0  0  0  0
  150.7497  144.3129  157.6016 H   0  0  0  0  0  0  0  0  0  0  0  0
  152.6265  145.1923  159.0037 H   0  0  0  0  0  0  0  0  0  0  0  0
  151.5011  144.2527  159.9547 H   0  0  0  0  0  0  0  0  0  0  0  0
  154.1883  143.2879  158.8643 H   0  0  0  0  0  0  0  0  0  0  0  0
  153.8153  143.6268  160.5367 H   0  0  0  0  0  0  0  0  0  0  0  0
  152.1626  141.7939  160.5859 H   0  0  0  0  0  0  0  0  0  0  0  0
  154.8429  140.8466  159.4565 H   0  0  0  0  0  0  0  0  0  0  0  0
  153.7306  139.8800  160.4210 H   0  0  0  0  0  0  0  0  0  0  0  0
  154.5338  141.2679  161.1389 H   0  0  0  0  0  0  0  0  0  0  0  0
  146.5074  132.0092  162.3314 H   0  0  0  0  0  0  0  0  0  0  0  0
  148.2570  132.2377  162.3350 H   0  0  0  0  0  0  0  0  0  0  0  0
  147.3833  132.1362  160.8049 H   0  0  0  0  0  0  0  0  0  0  0  0
  1 22  1  0  0  0  0
  1 23  1  0  0  0  0
  1 24  1  0  0  0  0
  1  2  1  0  0  0  0
  2  3  1  0  0  0  0
  2 20  2  0  0  0  0
  3  4  2  0  0  0  0
  4 19  1  0  0  0  0
  4  5  1  0  0  0  0
  5  6  1  0  0  0  0
  6  8  1  0  0  0  0
  6  7  2  0  0  0  0
  8  9  1  0  0  0  0
  8 25  1  0  0  0  0
  9 10  1  0  0  0  0
  9 26  1  0  0  0  0
  9 27  1  0  0  0  0
 10 11  1  0  0  0  0
 10 28  1  0  0  0  0
 10 29  1  0  0  0  0
 11 12  1  0  0  0  0
 12 17  1  0  0  0  0
 12 13  1  0  0  0  0
 12 30  1  0  0  0  0
 13 14  1  0  0  0  0
 13 31  1  0  0  0  0
 13 32  1  0  0  0  0
 14 15  1  0  0  0  0
 14 33  1  0  0  0  0
 14 34  1  0  0  0  0
 15 16  1  0  0  0  0
 15 35  1  0  0  0  0
 15 36  1  0  0  0  0
 16 17  1  0  0  0  0
 16 37  1  0  0  0  0
 16 38  1  0  0  0  0
 17 18  1  0  0  0  0
 17 39  1  0  0  0  0
 18 40  1  0  0  0  0
 18 41  1  0  0  0  0
 18 42  1  0  0  0  0
 19 20  1  0  0  0  0
 20 21  1  0  0  0  0
 21 43  1  0  0  0  0
 21 44  1  0  0  0  0
 21 45  1  0  0  0  0
M  CHG  1   5  -1
M  END
> <s_m_source_file>
AV-unprocessed.smi

> <i_m_source_file_index>
910

> <i_lp_mmshare_version>
43012

> <i_f3d_flags>
0

> <s_epik_input>
W0NIM11jMW5jKG9jMVtDSDNdKVtOSF1DKD1PKVtOSF1bQ0gyXVtDSDJdT1tDQEBIXTJbQ0gyXVtDSDJdW0NIMl1bQ0gyXVtDQEhdMltDSDNd

> <s_epik_cmdline>
J2VwaWtfcHl0aG9uJywgJy1waCcsICc3LjAnLCAnLXRuJywgJzgnLCAnLW1hJywgJzIwMCcsICctbWV0YWxfYmluZGluZycsICctaW1hZScsICc8aW5maWxlLm1hZT4nLCAnLW9tYWUnLCAnPG91dGZpbGUubWFlPic=

> <r_lp_tautomer_probability>
0.107061

> <r_epik_Ionization_Penalty>
10.1763

> <r_epik_Ionization_Penalty_Charging>
7.13067

> <r_epik_Ionization_Penalty_Neutral>
3.04564

> <r_epik_State_Penalty>
5.57927

> <r_epik_Charging_Adjusted_Penalty>
12.7099

> <i_epik_Tot_Q>
-1

> <i_epik_Tot_abs_Q>
1

> <r_epik_Metal_State_Penalty>
1.52303

> <b_epik_Metal_Only>
1

> <s_lp_Force_Field>
OPLS_2005

> <r_lp_Energy>
4.71828

> <b_lp_Chiralities_Consistent>
1

> <s_lp_Variant>
AV-unprocessed.smi:910-20

> <Gold.Version>
5.8.1

> <Gold.Id.Protein>
6NUR|6NUR_protein|mol2

> <Gold.PLP.Fitness>
54.3553

> <Gold.PLP.PLP>
-42.5627

> <Gold.PLP.part.hbond>
-3.0000

> <Gold.PLP.part.metal>
0.0000

> <Gold.PLP.part.buried>
-5.9217

> <Gold.PLP.part.nonpolar>
-35.3518

> <Gold.PLP.part.repulsive>
0.5487

> <Gold.PLP.ligand.clash>
0.0000

> <Gold.PLP.ligand.torsion>
0.1236

> <Gold.PLP.Chemscore.Hbond>
3.9948

> <Gold.PLP.Chemscore.CHOScore>
0.0000

> <Gold.PLP.Chemscore.Metal>
0.0000

> <Gold.Chemscore.Hbonds>
donor molecule, donor type, donor heavy atom, donor atom, acceptor molecule, acceptor atom, score
      P1  H  6896  6907       L1     7  1.00
      P1  H  6931  6943       L1     5  1.79
      P1  H  6934  6947       L1     5  0.66

> <Gold.PLP.Chemscore.Internal.Correction>
0.0554

> <Gold.Rescore>
     Score         DG    S(hbond)    S(metal)    S(lipo)     H(rot)  DE(clash)    DE(int)     intcor
     18.59     -20.43       1.81        0.00     111.54       1.62       0.02       1.82       ----

> <Gold.Chemscore.Fitness>
18.5919

> <Gold.Chemscore.DG>
-20.4282

> <Gold.Chemscore.ZeroCoef>
-5.4800

> <Gold.Chemscore.Hbond>
1.8077

> <Gold.Chemscore.Metal>
0.0000

> <Gold.Chemscore.Lipo>
111.5356

> <Gold.Chemscore.Internal_Hbond>
0.0000

> <Gold.Chemscore.DEClash>
0.0168

> <Gold.Chemscore.DEInternal>
1.8195

> <Gold.Chemscore.Rot>
1.6169

> <Gold.Chemscore.Internal.Correction>
   9.000000E+99

> <Gold.Chemscore.Hbonds>
donor molecule, donor type, donor heavy atom, donor atom, acceptor molecule, acceptor atom, score
      P1  H  6896  6907       L1     7  0.93
      P1  H  6931  6943       L1     5  0.61
      P1  H  6934  6947       L1     5  0.28

> <Gold.Chemscore.Hbond.Weighted>
-6.0378

> <Gold.Chemscore.Metal.Weighted>
-0.0000

> <Gold.Chemscore.Lipo.Weighted>
-13.0497

> <Gold.Chemscore.Internal_Hbond.Weighted>
0.0000

> <Gold.Chemscore.DEClash.Weighted>
0.0168

> <Gold.Chemscore.DEInternal.Weighted>
1.8195

> <Gold.Chemscore.Rot.Weighted>
4.1393

> <Gold.Chemscore.Internal.Correction.Weighted>
   9.000000E+99

> <Gold.Protein.RotatedTorsions>
[ 6907 6896 6895 6894 ] final  -52.69 input  -60.11 | X-H torsion
[ 7974 7965 7964 7962 ] final  -25.15 input  175.53 | X-H torsion
[ 8008 7997 7996 7995 ] final  -10.03 input   59.86 | X-H torsion
[ 10167 10162 10161 10158 ] final   27.03 input  -65.29 | X-H torsion
[ 10718 10713 10712 10709 ] final  143.40 input   66.30 | X-H torsion
[ 10763 10752 10751 10750 ] final  -29.36 input  -60.55 | X-H torsion
[ 11005 11000 10999 10996 ] final  144.53 input  -57.11 | X-H torsion

> <Gold.Protein.ActiveResidues>
 VAL166  LYS551  ARG553  GLY616  TRP617  ASP618  TYR619  PRO620  LYS621  CYS622 
 ASP623  PHE694  ASN695  SER759  ASP760  ASP761  ALA762  ILE779  LEU786  VAL792 
 PHE793  MET794  SER795  GLU796  ALA797  LYS798  CYS799  TRP800  GLU811  SER814 

> <Gold.Protein.RotatedAtoms>
  150.8495  134.7815  159.6996 H   0  0  0  0  0  0  0  0  0  0  0  0  # atno 6907 bound_to 6896
  152.4563  134.5280  159.9812 H   0  0  0  0  0  0  0  0  0  0  0  0  # atno 6908 bound_to 6896
  151.5404  133.3395  159.2970 H   0  0  0  0  0  0  0  0  0  0  0  0  # atno 6909 bound_to 6896
  146.1509  140.4848  142.8611 H   0  0  0  0  0  0  0  0  0  0  0  0  # atno 7974 bound_to 7965
  154.5592  140.2339  155.8362 H   0  0  0  0  0  0  0  0  0  0  0  0  # atno 8008 bound_to 7997
  156.2015  140.3051  155.9495 H   0  0  0  0  0  0  0  0  0  0  0  0  # atno 8009 bound_to 7997
  155.2921  140.0427  157.3014 H   0  0  0  0  0  0  0  0  0  0  0  0  # atno 8010 bound_to 7997
  140.4972  144.0372  150.6319 H   0  0  0  0  0  0  0  0  0  0  0  0  # atno 10167 bound_to 10162
  157.3693  131.0976  151.0843 H   0  0  0  0  0  0  0  0  0  0  0  0  # atno 10718 bound_to 10713
  153.7634  135.6917  153.4921 H   0  0  0  0  0  0  0  0  0  0  0  0  # atno 10763 bound_to 10752
  153.1923  135.4466  155.0163 H   0  0  0  0  0  0  0  0  0  0  0  0  # atno 10764 bound_to 10752
  154.8145  135.3392  154.7147 H   0  0  0  0  0  0  0  0  0  0  0  0  # atno 10765 bound_to 10752
  140.0639  134.9189  157.1232 H   0  0  0  0  0  0  0  0  0  0  0  0  # atno 11005 bound_to 11000
  144.7903  140.6019  143.6546 LP  0  0  0  0  0  0  0  0  0  0  0  0  # atno 17320 bound_to 7965
  145.4824  139.1494  143.3754 LP  0  0  0  0  0  0  0  0  0  0  0  0  # atno 17321 bound_to 7965
  140.3658  143.2882  152.0333 LP  0  0  0  0  0  0  0  0  0  0  0  0  # atno 17342 bound_to 10162
  139.4864  144.6268  151.7149 LP  0  0  0  0  0  0  0  0  0  0  0  0  # atno 17343 bound_to 10162
  157.1953  130.6370  149.5719 LP  0  0  0  0  0  0  0  0  0  0  0  0  # atno 17370 bound_to 10713
  155.9752  130.4709  150.6445 LP  0  0  0  0  0  0  0  0  0  0  0  0  # atno 17371 bound_to 10713
  140.3728  134.2372  155.7176 LP  0  0  0  0  0  0  0  0  0  0  0  0  # atno 17394 bound_to 11000
  141.1985  133.8034  157.0580 LP  0  0  0  0  0  0  0  0  0  0  0  0  # atno 17395 bound_to 11000

$$$$
