AV-unprocessed.smi:2013|AV-procd|sdf|8158|dock5
  -GOLD-   2272010403D 1   1.00000     0.00000
 Structure written by MMmdl.
 51 52  0  0  0  0  0  0  0  0  2 V2000
  147.0185  138.7290  152.7196 C   0  0  0  0  0  0  0  0  0  0  0  0
  147.6811  139.3156  153.9779 C   0  0  0  0  0  0  0  0  0  0  0  0
  148.0726  140.7868  153.7549 C   0  0  0  0  0  0  0  0  0  0  0  0
  148.8662  138.4794  154.5414 C   0  0  1  0  0  0  0  0  0  0  0  0
  149.3299  138.8883  155.9663 C   0  0  0  0  0  0  0  0  0  0  0  0
  149.9886  140.1888  155.9968 N   0  0  0  0  0  0  0  0  0  0  0  0
  150.4681  140.7893  157.0963 C   0  0  0  0  0  0  0  0  0  0  0  0
  150.4032  140.2913  158.2197 O   0  0  0  0  0  0  0  0  0  0  0  0
  151.1196  142.1627  156.9028 C   0  0  0  0  0  0  0  0  0  0  0  0
  151.4469  142.8039  158.1828 N   0  0  0  0  0  0  0  0  0  0  0  0
  150.9525  144.0678  158.4504 C   0  0  0  0  0  0  0  0  0  0  0  0
  151.2029  144.7405  159.5946 C   0  0  0  0  0  0  0  0  0  0  0  0
  152.0327  144.1535  160.6385 C   0  0  0  0  0  0  0  0  0  0  0  0
  152.2915  144.7226  161.7000 O   0  0  0  0  0  0  0  0  0  0  0  0
  152.5277  142.8633  160.3419 N   0  0  0  0  0  0  0  0  0  0  0  0
  153.3557  142.2452  161.3569 C   0  0  0  0  0  0  0  0  0  0  0  0
  152.2602  142.1611  159.1431 C   0  0  0  0  0  0  0  0  0  0  0  0
  152.7113  141.0348  158.9221 O   0  0  0  0  0  0  0  0  0  0  0  0
  148.6230  137.0104  154.3901 N   0  3  0  0  0  0  0  0  0  0  0  0
  149.6772  136.1693  155.0081 C   0  0  0  0  0  0  0  0  0  0  0  0
  149.4547  134.6884  154.6542 C   0  0  0  0  0  0  0  0  0  0  0  0
  148.1518  134.2818  155.0551 O   0  0  0  0  0  0  0  0  0  0  0  0
  147.1336  135.0319  154.4042 C   0  0  0  0  0  0  0  0  0  0  0  0
  147.2776  136.5140  154.7831 C   0  0  0  0  0  0  0  0  0  0  0  0
  147.6794  138.7786  151.8548 H   0  0  0  0  0  0  0  0  0  0  0  0
  146.1171  139.2872  152.4650 H   0  0  0  0  0  0  0  0  0  0  0  0
  146.7216  137.6907  152.8644 H   0  0  0  0  0  0  0  0  0  0  0  0
  146.9081  139.3353  154.7467 H   0  0  0  0  0  0  0  0  0  0  0  0
  148.8152  140.8911  152.9634 H   0  0  0  0  0  0  0  0  0  0  0  0
  148.4875  141.2277  154.6617 H   0  0  0  0  0  0  0  0  0  0  0  0
  147.2048  141.3831  153.4713 H   0  0  0  0  0  0  0  0  0  0  0  0
  149.7027  138.7230  153.8845 H   0  0  0  0  0  0  0  0  0  0  0  0
  148.4866  138.9484  156.6534 H   0  0  0  0  0  0  0  0  0  0  0  0
  150.0049  138.1345  156.3755 H   0  0  0  0  0  0  0  0  0  0  0  0
  150.0819  140.6750  155.1158 H   0  0  0  0  0  0  0  0  0  0  0  0
  152.0293  142.0434  156.3122 H   0  0  0  0  0  0  0  0  0  0  0  0
  150.4643  142.7920  156.2983 H   0  0  0  0  0  0  0  0  0  0  0  0
  150.3338  144.5453  157.7043 H   0  0  0  0  0  0  0  0  0  0  0  0
  150.7846  145.7259  159.7391 H   0  0  0  0  0  0  0  0  0  0  0  0
  153.7325  141.2769  161.0297 H   0  0  0  0  0  0  0  0  0  0  0  0
  152.7354  142.1228  162.2465 H   0  0  0  0  0  0  0  0  0  0  0  0
  154.1944  142.9176  161.5469 H   0  0  0  0  0  0  0  0  0  0  0  0
  150.6611  136.4768  154.6515 H   0  0  0  0  0  0  0  0  0  0  0  0
  149.6689  136.3061  156.0906 H   0  0  0  0  0  0  0  0  0  0  0  0
  149.5844  134.5229  153.5835 H   0  0  0  0  0  0  0  0  0  0  0  0
  150.1905  134.0657  155.1636 H   0  0  0  0  0  0  0  0  0  0  0  0
  147.1937  134.8964  153.3230 H   0  0  0  0  0  0  0  0  0  0  0  0
  146.1606  134.6552  154.7208 H   0  0  0  0  0  0  0  0  0  0  0  0
  147.1351  136.6182  155.8595 H   0  0  0  0  0  0  0  0  0  0  0  0
  146.4920  137.0922  154.2999 H   0  0  0  0  0  0  0  0  0  0  0  0
  148.7029  136.8384  153.3981 H   0  0  0  0  0  0  0  0  0  0  0  0
  1  2  1  0  0  0  0
  1 25  1  0  0  0  0
  1 26  1  0  0  0  0
  1 27  1  0  0  0  0
  2  3  1  0  0  0  0
  2  4  1  0  0  0  0
  2 28  1  0  0  0  0
  3 29  1  0  0  0  0
  3 30  1  0  0  0  0
  3 31  1  0  0  0  0
  4  5  1  0  0  0  0
  4 19  1  0  0  0  0
  4 32  1  0  0  0  0
  5  6  1  0  0  0  0
  5 33  1  0  0  0  0
  5 34  1  0  0  0  0
  6  7  1  0  0  0  0
  6 35  1  0  0  0  0
  7  8  2  0  0  0  0
  7  9  1  0  0  0  0
  9 10  1  0  0  0  0
  9 36  1  0  0  0  0
  9 37  1  0  0  0  0
 10 17  1  0  0  0  0
 10 11  1  0  0  0  0
 11 12  2  0  0  0  0
 11 38  1  0  0  0  0
 12 13  1  0  0  0  0
 12 39  1  0  0  0  0
 13 14  2  0  0  0  0
 13 15  1  0  0  0  0
 15 16  1  0  0  0  0
 15 17  1  0  0  0  0
 16 40  1  0  0  0  0
 16 41  1  0  0  0  0
 16 42  1  0  0  0  0
 17 18  2  0  0  0  0
 19 24  1  0  0  0  0
 19 20  1  0  0  0  0
 19 51  1  0  0  0  0
 20 21  1  0  0  0  0
 20 43  1  0  0  0  0
 20 44  1  0  0  0  0
 21 22  1  0  0  0  0
 21 45  1  0  0  0  0
 21 46  1  0  0  0  0
 22 23  1  0  0  0  0
 23 24  1  0  0  0  0
 23 47  1  0  0  0  0
 23 48  1  0  0  0  0
 24 49  1  0  0  0  0
 24 50  1  0  0  0  0
M  CHG  1  19   1
M  END
> <s_m_source_file>
AV-unprocessed.smi

> <i_m_source_file_index>
2013

> <i_lp_mmshare_version>
43012

> <i_f3d_flags>
0

> <s_epik_input>
W0NIMl0xW0NIMl1PW0NIMl1bQ0gyXU4xW0NASF0oW0NIXShbQ0gzXSlbQ0gzXSlbQ0gyXVtOSF1DKD1PKVtDSDJdbjJbY0hdW2NIXWMoPU8pbihbQ0gzXSljMj1P

> <s_epik_cmdline>
J2VwaWtfcHl0aG9uJywgJy1waCcsICc3LjAnLCAnLXRuJywgJzgnLCAnLW1hJywgJzIwMCcsICctbWV0YWxfYmluZGluZycsICctaW1hZScsICc8aW5maWxlLm1hZT4nLCAnLW9tYWUnLCAnPG91dGZpbGUubWFlPic=

> <r_lp_tautomer_probability>
1

> <r_epik_Ionization_Penalty>
0.370738

> <r_epik_Ionization_Penalty_Charging>
0.370738

> <r_epik_Ionization_Penalty_Neutral>
8.1827e-08

> <r_epik_State_Penalty>
0.368162

> <r_epik_Charging_Adjusted_Penalty>
0.7389

> <i_epik_Tot_Q>
1

> <i_epik_Tot_abs_Q>
1

> <r_epik_Metal_State_Penalty>
0.368194

> <b_epik_Metal_Only>
0

> <s_lp_Force_Field>
OPLS_2005

> <r_lp_Energy>
35.5949

> <b_lp_Chiralities_Consistent>
1

> <s_lp_Variant>
AV-unprocessed.smi:2013-2

> <Gold.Version>
5.8.1

> <Gold.Id.Protein>
6NUR|6NUR_protein|mol2

> <Gold.PLP.Fitness>
45.8947

> <Gold.PLP.PLP>
-37.6024

> <Gold.PLP.part.hbond>
-1.0000

> <Gold.PLP.part.metal>
0.0000

> <Gold.PLP.part.buried>
-2.7254

> <Gold.PLP.part.nonpolar>
-35.5219

> <Gold.PLP.part.repulsive>
2.1712

> <Gold.PLP.ligand.clash>
0.0000

> <Gold.PLP.ligand.torsion>
0.6887

> <Gold.PLP.Chemscore.Hbond>
2.0000

> <Gold.PLP.Chemscore.CHOScore>
1.0763

> <Gold.PLP.Chemscore.Metal>
0.0000

> <Gold.Chemscore.Hbonds>
donor molecule, donor type, donor heavy atom, donor atom, acceptor molecule, acceptor atom, score
      L1  H    19    51       P1  7948  2.00
      L1  C    11    38       P1  8028  1.00
      L1  C    11    38       P1  8029  0.06

> <Gold.PLP.Chemscore.Internal.Correction>
0.4409

> <Gold.Rescore>
     Score         DG    S(hbond)    S(metal)    S(lipo)     H(rot)  DE(clash)    DE(int)     intcor
      6.95     -12.24       0.97        0.00      79.95       2.28       0.75       4.54       ----

> <Gold.Chemscore.Fitness>
6.9542

> <Gold.Chemscore.DG>
-12.2435

> <Gold.Chemscore.ZeroCoef>
-5.4800

> <Gold.Chemscore.Hbond>
0.9729

> <Gold.Chemscore.Metal>
0.0000

> <Gold.Chemscore.Lipo>
79.9535

> <Gold.Chemscore.Internal_Hbond>
0.0000

> <Gold.Chemscore.DEClash>
0.7491

> <Gold.Chemscore.DEInternal>
4.5403

> <Gold.Chemscore.Rot>
2.2814

> <Gold.Chemscore.Internal.Correction>
   9.000000E+99

> <Gold.Chemscore.Hbonds>
donor molecule, donor type, donor heavy atom, donor atom, acceptor molecule, acceptor atom, score
      L1  H    19    51       P1  7948  1.00

> <Gold.Chemscore.Hbond.Weighted>
-3.2494

> <Gold.Chemscore.Metal.Weighted>
-0.0000

> <Gold.Chemscore.Lipo.Weighted>
-9.3546

> <Gold.Chemscore.Internal_Hbond.Weighted>
0.0000

> <Gold.Chemscore.DEClash.Weighted>
0.7491

> <Gold.Chemscore.DEInternal.Weighted>
4.5403

> <Gold.Chemscore.Rot.Weighted>
5.8404

> <Gold.Chemscore.Internal.Correction.Weighted>
   9.000000E+99

> <Gold.Protein.RotatedTorsions>
[ 6907 6896 6895 6894 ] final -161.75 input  -60.11 | X-H torsion
[ 7974 7965 7964 7962 ] final -149.86 input  175.53 | X-H torsion
[ 8008 7997 7996 7995 ] final  167.74 input   59.86 | X-H torsion
[ 10167 10162 10161 10158 ] final  144.33 input  -65.29 | X-H torsion
[ 10718 10713 10712 10709 ] final  128.81 input   66.30 | X-H torsion
[ 10763 10752 10751 10750 ] final  -85.81 input  -60.55 | X-H torsion
[ 11005 11000 10999 10996 ] final -119.24 input  -57.11 | X-H torsion

> <Gold.Protein.ActiveResidues>
 VAL166  LYS551  ARG553  GLY616  TRP617  ASP618  TYR619  PRO620  LYS621  CYS622 
 ASP623  PHE694  ASN695  SER759  ASP760  ASP761  ALA762  ILE779  LEU786  VAL792 
 PHE793  MET794  SER795  GLU796  ALA797  LYS798  CYS799  TRP800  GLU811  SER814 

> <Gold.Protein.RotatedAtoms>
  151.3695  133.3860  159.2697 H   0  0  0  0  0  0  0  0  0  0  0  0  # atno 6907 bound_to 6896
  150.9662  134.9043  159.7771 H   0  0  0  0  0  0  0  0  0  0  0  0  # atno 6908 bound_to 6896
  152.5168  134.3656  159.9352 H   0  0  0  0  0  0  0  0  0  0  0  0  # atno 6909 bound_to 6896
  144.7942  140.5008  143.5752 H   0  0  0  0  0  0  0  0  0  0  0  0  # atno 7974 bound_to 7965
  156.1608  140.1609  156.8616 H   0  0  0  0  0  0  0  0  0  0  0  0  # atno 8008 bound_to 7997
  154.5159  140.0790  156.8115 H   0  0  0  0  0  0  0  0  0  0  0  0  # atno 8009 bound_to 7997
  155.3711  140.3400  155.4245 H   0  0  0  0  0  0  0  0  0  0  0  0  # atno 8010 bound_to 7997
  139.4949  144.5979  151.6544 H   0  0  0  0  0  0  0  0  0  0  0  0  # atno 10167 bound_to 10162
  157.5211  131.1098  150.9151 H   0  0  0  0  0  0  0  0  0  0  0  0  # atno 10718 bound_to 10713
  154.6153  135.5471  153.7517 H   0  0  0  0  0  0  0  0  0  0  0  0  # atno 10763 bound_to 10752
  153.0213  135.6399  154.1519 H   0  0  0  0  0  0  0  0  0  0  0  0  # atno 10764 bound_to 10752
  154.1455  135.2906  155.3129 H   0  0  0  0  0  0  0  0  0  0  0  0  # atno 10765 bound_to 10752
  141.0229  134.0097  157.3256 H   0  0  0  0  0  0  0  0  0  0  0  0  # atno 11005 bound_to 11000
  145.5717  139.1484  143.3285 LP  0  0  0  0  0  0  0  0  0  0  0  0  # atno 17320 bound_to 7965
  146.2204  140.5850  142.9019 LP  0  0  0  0  0  0  0  0  0  0  0  0  # atno 17321 bound_to 7965
  140.5621  144.0250  150.6175 LP  0  0  0  0  0  0  0  0  0  0  0  0  # atno 17342 bound_to 10162
  140.3340  143.3060  152.0658 LP  0  0  0  0  0  0  0  0  0  0  0  0  # atno 17343 bound_to 10162
  156.9762  130.5509  149.5293 LP  0  0  0  0  0  0  0  0  0  0  0  0  # atno 17370 bound_to 10713
  156.0354  130.5442  150.8641 LP  0  0  0  0  0  0  0  0  0  0  0  0  # atno 17371 bound_to 10713
  139.9157  135.0196  156.7873 LP  0  0  0  0  0  0  0  0  0  0  0  0  # atno 17394 bound_to 11000
  140.6541  133.9704  155.7770 LP  0  0  0  0  0  0  0  0  0  0  0  0  # atno 17395 bound_to 11000

$$$$
