#       Name:                AV-unprocessed.smi:1100
#       Creating user name   scv26
#       Creation time:       Fri Mar 27 03:30:10 2020


#       File generated by GOLD software.
#

@<TRIPOS>MOLECULE
AV-unprocessed.smi:1100
    50    51     1
SMALL
NO_CHARGES


@<TRIPOS>ATOM
      1 ****        -2.1577   1.6527  -1.2116 C.3            1 S1                 0.0000
      2 ****        -1.1401   0.5365  -1.5578 C.3            1 S1                 0.0000
      3 ****         0.3390   1.0129  -1.5977 C.3            1 S1                 0.0000
      4 ****         0.7953   1.4365  -0.2726 N.pl3          1 S1                -1.0000
      5 ****         1.2307   0.5981   0.7079 C.2            1 S1                 0.0000
      6 ****         1.3052  -0.6345   0.6550 O.2            1 S1                 0.0000
      7 ****         1.6063   1.2737   1.8121 N.am           1 S1                 0.0000
      8 ****         2.0629   0.8064   3.0554 C.2            1 S1                 0.0000
      9 ****         2.6035   1.7830   3.9769 C.2            1 S1                 0.0000
     10 ****         3.0476   1.4237   5.1969 C.2            1 S1                 0.0000
     11 ****         3.0033   0.0311   5.6477 C.2            1 S1                 0.0000
     12 ****         3.4090  -0.3134   6.7583 O.2            1 S1                 0.0000
     13 ****         2.4812  -0.8602   4.7566 N.am           1 S1                 0.0000
     14 ****         2.3871  -2.2771   5.1185 C.3            1 S1                 0.0000
     15 ****         2.0159  -0.4747   3.4843 C.2            1 S1                 0.0000
     16 ****        -1.4874  -0.1995  -2.8133 N.4            1 S1                 1.0000
     17 ****        -2.4020  -1.3478  -2.5948 C.3            1 S1                 0.0000
     18 ****        -2.5578  -2.1594  -3.8922 C.3            1 S1                 0.0000
     19 ****        -3.0220  -1.3149  -4.9387 O.3            1 S1                 0.0000
     20 ****        -2.1129  -0.2555  -5.2121 C.3            1 S1                 0.0000
     21 ****        -1.9616   0.6238  -3.9609 C.3            1 S1                 0.0000
     22 ****        -1.9790   2.0704  -0.2192 H              1 S1                 0.0000
     23 ****        -3.1749   1.2607  -1.2020 H              1 S1                 0.0000
     24 ****        -2.1328   2.4820  -1.9206 H              1 S1                 0.0000
     25 ****        -1.1966  -0.1952  -0.7503 H              1 S1                 0.0000
     26 ****         0.9585   0.2058  -1.9924 H              1 S1                 0.0000
     27 ****         0.4318   1.8204  -2.3242 H              1 S1                 0.0000
     28 ****         1.5566   2.2790   1.7355 H              1 S1                 0.0000
     29 ****         2.6546   2.8217   3.6837 H              1 S1                 0.0000
     30 ****         3.4454   2.1787   5.8588 H              1 S1                 0.0000
     31 ****         1.9584  -2.8903   4.3252 H              1 S1                 0.0000
     32 ****         1.7599  -2.4054   6.0022 H              1 S1                 0.0000
     33 ****         3.3754  -2.6817   5.3420 H              1 S1                 0.0000
     34 ****         1.6155  -1.2936   2.9095 H              1 S1                 0.0000
     35 ****        -2.0099  -1.9978  -1.8115 H              1 S1                 0.0000
     36 ****        -3.3741  -0.9861  -2.2567 H              1 S1                 0.0000
     37 ****        -1.6113  -2.6214  -4.1768 H              1 S1                 0.0000
     38 ****        -3.2742  -2.9680  -3.7460 H              1 S1                 0.0000
     39 ****        -1.1482  -0.6565  -5.5274 H              1 S1                 0.0000
     40 ****        -2.4989   0.3361  -6.0423 H              1 S1                 0.0000
     41 ****        -2.9242   1.0802  -3.7270 H              1 S1                 0.0000
     42 ****        -1.2631   1.4346  -4.1692 H              1 S1                 0.0000
     43 ****        -0.6146  -0.6131  -3.1097 H              1 S1                 0.0000
     44 ****         0.7865   2.4162  -0.0724 LP             1 S1                 0.0000
     45 ****         1.0278  -1.1170  -0.1758 LP             1 S1                 0.0000
     46 ****         1.6429  -1.1493   1.4430 LP             1 S1                 0.0000
     47 ****         3.7847   0.3676   7.3868 LP             1 S1                 0.0000
     48 ****         3.3627  -1.2743   7.0316 LP             1 S1                 0.0000
     49 ****        -3.9025  -0.9237  -4.6711 LP             1 S1                 0.0000
     50 ****        -3.1385  -1.8623  -5.7675 LP             1 S1                 0.0000
@<TRIPOS>BOND
    1    1    2 1     
    2    1   22 1     
    3    1   23 1     
    4    1   24 1     
    5    2    3 1     
    6    2   16 1     
    7    2   25 1     
    8    3    4 1     
    9    3   26 1     
   10    3   27 1     
   11    4    5 1     
   12    5    6 2     
   13    5    7 am    
   14    7    8 1     
   15    7   28 1     
   16    8   15 2     
   17    8    9 1     
   18    9   10 2     
   19    9   29 1     
   20   10   11 1     
   21   10   30 1     
   22   11   12 2     
   23   11   13 am    
   24   13   14 1     
   25   13   15 1     
   26   14   31 1     
   27   14   32 1     
   28   14   33 1     
   29   15   34 1     
   30   16   21 1     
   31   16   17 1     
   32   16   43 1     
   33   17   18 1     
   34   17   35 1     
   35   17   36 1     
   36   18   19 1     
   37   18   37 1     
   38   18   38 1     
   39   19   20 1     
   40   20   21 1     
   41   20   39 1     
   42   20   40 1     
   43   21   41 1     
   44   21   42 1     
   45    4   44 1     
   46    6   45 1     
   47    6   46 1     
   48   12   47 1     
   49   12   48 1     
   50   19   49 1     
   51   19   50 1     
@<TRIPOS>SUBSTRUCTURE
      1 S1             1
@<TRIPOS>SET
LONE_PAIRS      STATIC     ATOMS    <user>   **** ""
7 44 45 46 47 48 49 50
DONOR_HYDROGENS      STATIC     ATOMS    <user>   **** ""
2 28 43
ATOM$BLUE        STATIC     ATOMS    COLORGROUP SYSTEM
7 44 45 46 47 48 49 50
ATOM$RED        STATIC     ATOMS    COLORGROUP SYSTEM
2 28 43
