AV-unprocessed.smi:2370|AV-procd|sdf|9435|dock5
  -GOLD-   2272013 63D 1   1.00000     0.00000
 Structure written by MMmdl.
 37 38  0  0  0  0  0  0  0  0  1 V2000
  146.9980  139.4656  152.3533 C   0  0  0  0  0  0  0  0  0  0  0  0
  146.7555  139.6529  153.7416 O   0  0  0  0  0  0  0  0  0  0  0  0
  147.3006  140.8399  154.3192 C   0  0  0  0  0  0  0  0  0  0  0  0
  148.8346  140.8741  154.2179 C   0  0  0  0  0  0  0  0  0  0  0  0
  149.4031  141.9286  155.0524 N   0  0  0  0  0  0  0  0  0  0  0  0
  150.2460  141.7427  156.0781 C   0  0  0  0  0  0  0  0  0  0  0  0
  150.6622  140.6371  156.4258 O   0  0  0  0  0  0  0  0  0  0  0  0
  150.5517  142.9086  156.6738 N   0  0  0  0  0  0  0  0  0  0  0  0
  151.3562  143.1213  157.8247 C   0  0  0  0  0  0  0  0  0  0  0  0
  151.3236  144.3647  158.5071 C   0  0  0  0  0  0  0  0  0  0  0  0
  152.1135  144.5431  159.6606 C   0  0  0  0  0  0  0  0  0  0  0  0
  152.1031  145.8651  160.3993 C   0  0  0  0  0  0  0  0  0  0  0  0
  152.9069  143.4704  160.1093 C   0  0  0  0  0  0  0  0  0  0  0  0
  152.8646  142.2657  159.3844 C   0  0  0  0  0  0  0  0  0  0  0  0
  152.1073  142.0922  158.2806 N   0  0  0  0  0  0  0  0  0  0  0  0
  146.5061  142.0417  153.7710 C   0  0  0  0  0  0  0  0  0  0  0  0
  146.4233  142.5882  155.1967 C   0  0  0  0  0  0  0  0  0  0  0  0
  146.6454  141.1544  155.6797 C   0  0  0  0  0  0  0  0  0  0  0  0
  146.6247  138.4860  152.0550 H   0  0  0  0  0  0  0  0  0  0  0  0
  148.0614  139.5002  152.1157 H   0  0  0  0  0  0  0  0  0  0  0  0
  146.4784  140.2074  151.7474 H   0  0  0  0  0  0  0  0  0  0  0  0
  149.2560  139.9042  154.4864 H   0  0  0  0  0  0  0  0  0  0  0  0
  149.1538  141.0439  153.1902 H   0  0  0  0  0  0  0  0  0  0  0  0
  149.1077  142.8717  154.8471 H   0  0  0  0  0  0  0  0  0  0  0  0
  150.0559  143.7212  156.3381 H   0  0  0  0  0  0  0  0  0  0  0  0
  150.6979  145.1770  158.1688 H   0  0  0  0  0  0  0  0  0  0  0  0
  152.6377  145.7938  161.3469 H   0  0  0  0  0  0  0  0  0  0  0  0
  151.0792  146.1756  160.6096 H   0  0  0  0  0  0  0  0  0  0  0  0
  152.5793  146.6373  159.7948 H   0  0  0  0  0  0  0  0  0  0  0  0
  153.5283  143.5618  160.9881 H   0  0  0  0  0  0  0  0  0  0  0  0
  153.4534  141.4171  159.6998 H   0  0  0  0  0  0  0  0  0  0  0  0
  147.0476  142.6830  153.0763 H   0  0  0  0  0  0  0  0  0  0  0  0
  145.5273  141.7659  153.3737 H   0  0  0  0  0  0  0  0  0  0  0  0
  147.2512  143.2543  155.4446 H   0  0  0  0  0  0  0  0  0  0  0  0
  145.4588  143.0186  155.4668 H   0  0  0  0  0  0  0  0  0  0  0  0
  145.7060  140.6229  155.8427 H   0  0  0  0  0  0  0  0  0  0  0  0
  147.3099  141.0657  156.5396 H   0  0  0  0  0  0  0  0  0  0  0  0
  1  2  1  0  0  0  0
  1 19  1  0  0  0  0
  1 20  1  0  0  0  0
  1 21  1  0  0  0  0
  2  3  1  0  0  0  0
  3 18  1  0  0  0  0
  3  4  1  0  0  0  0
  3 16  1  0  0  0  0
  4  5  1  0  0  0  0
  4 22  1  0  0  0  0
  4 23  1  0  0  0  0
  5  6  1  0  0  0  0
  5 24  1  0  0  0  0
  6  7  2  0  0  0  0
  6  8  1  0  0  0  0
  8  9  1  0  0  0  0
  8 25  1  0  0  0  0
  9 15  1  0  0  0  0
  9 10  2  0  0  0  0
 10 11  1  0  0  0  0
 10 26  1  0  0  0  0
 11 12  1  0  0  0  0
 11 13  2  0  0  0  0
 12 27  1  0  0  0  0
 12 28  1  0  0  0  0
 12 29  1  0  0  0  0
 13 14  1  0  0  0  0
 13 30  1  0  0  0  0
 14 15  2  0  0  0  0
 14 31  1  0  0  0  0
 16 17  1  0  0  0  0
 16 32  1  0  0  0  0
 16 33  1  0  0  0  0
 17 18  1  0  0  0  0
 17 34  1  0  0  0  0
 17 35  1  0  0  0  0
 18 36  1  0  0  0  0
 18 37  1  0  0  0  0
M  END
> <s_m_source_file>
AV-unprocessed.smi

> <i_m_source_file_index>
2370

> <i_lp_mmshare_version>
43012

> <i_f3d_flags>
0

> <s_epik_input>
W0NIMl0xW0NIMl1bQ0gyXUMxKE9bQ0gzXSlbQ0gyXVtOSF1DKD1PKVtOSF1jMltjSF1jKFtDSDNdKVtjSF1bY0hdbjI=

> <s_epik_cmdline>
J2VwaWtfcHl0aG9uJywgJy1waCcsICc3LjAnLCAnLXRuJywgJzgnLCAnLW1hJywgJzIwMCcsICctbWV0YWxfYmluZGluZycsICctaW1hZScsICc8aW5maWxlLm1hZT4nLCAnLW9tYWUnLCAnPG91dGZpbGUubWFlPic=

> <r_lp_tautomer_probability>
1

> <r_epik_Ionization_Penalty>
9.08611e-05

> <r_epik_Ionization_Penalty_Charging>
0

> <r_epik_Ionization_Penalty_Neutral>
9.08611e-05

> <r_epik_State_Penalty>
-0

> <r_epik_Charging_Adjusted_Penalty>
0

> <i_epik_Tot_Q>
0

> <i_epik_Tot_abs_Q>
0

> <r_epik_Metal_State_Penalty>
-0

> <b_epik_Metal_Only>
0

> <s_lp_Force_Field>
OPLS_2005

> <r_lp_Energy>
22.0857

> <b_lp_Chiralities_Consistent>
1

> <s_lp_Variant>
AV-unprocessed.smi:2370-1

> <Gold.Version>
5.8.1

> <Gold.Id.Protein>
6NUR|6NUR_protein|mol2

> <Gold.PLP.Fitness>
44.9343

> <Gold.PLP.PLP>
-39.6273

> <Gold.PLP.part.hbond>
-2.0000

> <Gold.PLP.part.metal>
0.0000

> <Gold.PLP.part.buried>
-4.4335

> <Gold.PLP.part.nonpolar>
-34.4504

> <Gold.PLP.part.repulsive>
0.4416

> <Gold.PLP.ligand.clash>
0.0000

> <Gold.PLP.ligand.torsion>
0.3150

> <Gold.PLP.Chemscore.Hbond>
1.8882

> <Gold.PLP.Chemscore.CHOScore>
0.0000

> <Gold.PLP.Chemscore.Metal>
0.0000

> <Gold.Chemscore.Hbonds>
donor molecule, donor type, donor heavy atom, donor atom, acceptor molecule, acceptor atom, score
      L1  H     5    24       P1  8028  0.90
      L1  H     8    25       P1  8028  1.00

> <Gold.PLP.Chemscore.Internal.Correction>
0.2725

> <Gold.Rescore>
     Score         DG    S(hbond)    S(metal)    S(lipo)     H(rot)  DE(clash)    DE(int)     intcor
     16.33     -19.43       1.94        0.00      95.68       1.45       0.59       2.52       ----

> <Gold.Chemscore.Fitness>
16.3283

> <Gold.Chemscore.DG>
-19.4329

> <Gold.Chemscore.ZeroCoef>
-5.4800

> <Gold.Chemscore.Hbond>
1.9389

> <Gold.Chemscore.Metal>
0.0000

> <Gold.Chemscore.Lipo>
95.6825

> <Gold.Chemscore.Internal_Hbond>
0.0000

> <Gold.Chemscore.DEClash>
0.5880

> <Gold.Chemscore.DEInternal>
2.5166

> <Gold.Chemscore.Rot>
1.4523

> <Gold.Chemscore.Internal.Correction>
   9.000000E+99

> <Gold.Chemscore.Hbonds>
donor molecule, donor type, donor heavy atom, donor atom, acceptor molecule, acceptor atom, score
      L1  H     5    24       P1  8028  0.82
      L1  H     8    25       P1  8028  1.00

> <Gold.Chemscore.Hbond.Weighted>
-6.4759

> <Gold.Chemscore.Metal.Weighted>
-0.0000

> <Gold.Chemscore.Lipo.Weighted>
-11.1949

> <Gold.Chemscore.Internal_Hbond.Weighted>
0.0000

> <Gold.Chemscore.DEClash.Weighted>
0.5880

> <Gold.Chemscore.DEInternal.Weighted>
2.5166

> <Gold.Chemscore.Rot.Weighted>
3.7179

> <Gold.Chemscore.Internal.Correction.Weighted>
   9.000000E+99

> <Gold.Protein.RotatedTorsions>
[ 6907 6896 6895 6894 ] final  106.16 input  -60.11 | X-H torsion
[ 7974 7965 7964 7962 ] final   64.89 input  175.53 | X-H torsion
[ 8008 7997 7996 7995 ] final  -41.93 input   59.86 | X-H torsion
[ 10167 10162 10161 10158 ] final  -51.92 input  -65.29 | X-H torsion
[ 10718 10713 10712 10709 ] final  174.59 input   66.30 | X-H torsion
[ 10763 10752 10751 10750 ] final   84.02 input  -60.55 | X-H torsion
[ 11005 11000 10999 10996 ] final -120.03 input  -57.11 | X-H torsion

> <Gold.Protein.ActiveResidues>
 VAL166  LYS551  ARG553  GLY616  TRP617  ASP618  TYR619  PRO620  LYS621  CYS622 
 ASP623  PHE694  ASN695  SER759  ASP760  ASP761  ALA762  ILE779  LEU786  VAL792 
 PHE793  MET794  SER795  GLU796  ALA797  LYS798  CYS799  TRP800  GLU811  SER814 

> <Gold.Protein.RotatedAtoms>
  152.5204  133.9421  159.7631 H   0  0  0  0  0  0  0  0  0  0  0  0  # atno 6907 bound_to 6896
  150.9749  133.6297  159.2739 H   0  0  0  0  0  0  0  0  0  0  0  0  # atno 6908 bound_to 6896
  151.3495  135.0887  159.9451 H   0  0  0  0  0  0  0  0  0  0  0  0  # atno 6909 bound_to 6896
  145.8449  139.3218  143.0909 H   0  0  0  0  0  0  0  0  0  0  0  0  # atno 7974 bound_to 7965
  154.4001  140.1486  156.3272 H   0  0  0  0  0  0  0  0  0  0  0  0  # atno 8008 bound_to 7997
  155.8476  140.3459  155.5651 H   0  0  0  0  0  0  0  0  0  0  0  0  # atno 8009 bound_to 7997
  155.8019  140.0871  157.1943 H   0  0  0  0  0  0  0  0  0  0  0  0  # atno 8010 bound_to 7997
  140.6564  143.2602  151.4573 H   0  0  0  0  0  0  0  0  0  0  0  0  # atno 10167 bound_to 10162
  156.9473  131.0020  151.2956 H   0  0  0  0  0  0  0  0  0  0  0  0  # atno 10718 bound_to 10713
  153.1343  135.4670  154.9398 H   0  0  0  0  0  0  0  0  0  0  0  0  # atno 10763 bound_to 10752
  154.7692  135.3154  154.8226 H   0  0  0  0  0  0  0  0  0  0  0  0  # atno 10764 bound_to 10752
  153.8762  135.6899  153.4824 H   0  0  0  0  0  0  0  0  0  0  0  0  # atno 10765 bound_to 10752
  141.0173  134.0176  157.3332 H   0  0  0  0  0  0  0  0  0  0  0  0  # atno 11005 bound_to 11000
  145.9423  140.8970  143.0301 LP  0  0  0  0  0  0  0  0  0  0  0  0  # atno 17320 bound_to 7965
  144.6731  140.1566  143.7426 LP  0  0  0  0  0  0  0  0  0  0  0  0  # atno 17321 bound_to 7965
  139.5788  144.1758  152.1939 LP  0  0  0  0  0  0  0  0  0  0  0  0  # atno 17342 bound_to 10162
  140.1077  144.5484  150.6946 LP  0  0  0  0  0  0  0  0  0  0  0  0  # atno 17343 bound_to 10162
  157.5745  130.8333  149.8437 LP  0  0  0  0  0  0  0  0  0  0  0  0  # atno 17370 bound_to 10713
  156.0378  130.3747  150.1514 LP  0  0  0  0  0  0  0  0  0  0  0  0  # atno 17371 bound_to 10713
  139.9124  135.0192  156.7748 LP  0  0  0  0  0  0  0  0  0  0  0  0  # atno 17394 bound_to 11000
  140.6633  133.9625  155.7816 LP  0  0  0  0  0  0  0  0  0  0  0  0  # atno 17395 bound_to 11000

$$$$
