AV-unprocessed.smi:1775|AV-procd|sdf|7172|dock10
  -GOLD-   22720 8413D 1   1.00000     0.00000
 Structure written by MMmdl.
 37 39  0  0  0  0  0  0  0  0  2 V2000
  149.7063  142.7525  158.4825 O   0  0  0  0  0  0  0  0  0  0  0  0
  150.6268  142.1015  157.9884 C   0  0  0  0  0  0  0  0  0  0  0  0
  150.5703  141.4066  156.8380 N   0  0  0  0  0  0  0  0  0  0  0  0
  149.5113  141.2869  155.9227 C   0  0  0  0  0  0  0  0  0  0  0  0
  148.3055  141.9080  156.0455 C   0  0  0  0  0  0  0  0  0  0  0  0
  147.2468  141.7589  155.0550 C   0  0  0  0  0  0  0  0  0  0  0  0
  145.8587  142.3550  155.2091 C   0  0  0  0  0  0  0  0  0  0  0  0
  144.9331  141.3996  155.2968 F   0  0  0  0  0  0  0  0  0  0  0  0
  145.7833  143.1154  156.3014 F   0  0  0  0  0  0  0  0  0  0  0  0
  145.5723  143.1151  154.1533 F   0  0  0  0  0  0  0  0  0  0  0  0
  147.6145  140.9256  154.0163 C   0  0  0  0  0  0  0  0  0  0  0  0
  148.7921  140.2982  153.8049 N   0  5  0  0  0  0  0  0  0  0  0  0
  149.7762  140.4472  154.7361 C   0  0  0  0  0  0  0  0  0  0  0  0
  150.8727  139.9010  154.6079 O   0  0  0  0  0  0  0  0  0  0  0  0
  151.8361  141.9773  158.5569 N   0  0  0  0  0  0  0  0  0  0  0  0
  152.2756  142.5651  159.8207 C   0  0  0  0  0  0  0  0  0  0  0  0
  152.5897  144.0509  159.7287 C   0  0  0  0  0  0  0  0  0  0  0  0
  151.5374  145.0498  159.3095 C   0  0  0  0  0  0  0  0  0  0  0  0
  152.7002  144.7437  158.3922 C   0  0  0  0  0  0  0  0  0  0  0  0
  153.4141  141.8085  160.4890 C   0  0  0  0  0  0  0  0  0  0  0  0
  154.6672  141.4529  159.7262 C   0  0  0  0  0  0  0  0  0  0  0  0
  153.7040  140.3659  160.1486 C   0  0  0  0  0  0  0  0  0  0  0  0
  151.3833  140.8555  156.6054 H   0  0  0  0  0  0  0  0  0  0  0  0
  148.1018  142.5568  156.8816 H   0  0  0  0  0  0  0  0  0  0  0  0
  146.8446  140.7310  153.2395 H   0  0  0  0  0  0  0  0  0  0  0  0
  152.5185  141.4158  158.0689 H   0  0  0  0  0  0  0  0  0  0  0  0
  151.4095  142.4689  160.4771 H   0  0  0  0  0  0  0  0  0  0  0  0
  153.2792  144.3993  160.4955 H   0  0  0  0  0  0  0  0  0  0  0  0
  150.5598  144.6713  159.0181 H   0  0  0  0  0  0  0  0  0  0  0  0
  151.5331  146.0146  159.8126 H   0  0  0  0  0  0  0  0  0  0  0  0
  153.4714  145.5037  158.2841 H   0  0  0  0  0  0  0  0  0  0  0  0
  152.4951  144.1570  157.4990 H   0  0  0  0  0  0  0  0  0  0  0  0
  153.5603  142.0737  161.5345 H   0  0  0  0  0  0  0  0  0  0  0  0
  154.7061  141.7071  158.6690 H   0  0  0  0  0  0  0  0  0  0  0  0
  155.6137  141.5239  160.2582 H   0  0  0  0  0  0  0  0  0  0  0  0
  154.0094  139.7108  160.9619 H   0  0  0  0  0  0  0  0  0  0  0  0
  153.1093  139.8950  159.3685 H   0  0  0  0  0  0  0  0  0  0  0  0
  1  2  2  0  0  0  0
  2  3  1  0  0  0  0
  2 15  1  0  0  0  0
  3  4  1  0  0  0  0
  3 23  1  0  0  0  0
  4 13  1  0  0  0  0
  4  5  2  0  0  0  0
  5  6  1  0  0  0  0
  5 24  1  0  0  0  0
  6  7  1  0  0  0  0
  6 11  2  0  0  0  0
  7  8  1  0  0  0  0
  7  9  1  0  0  0  0
  7 10  1  0  0  0  0
 11 12  1  0  0  0  0
 11 25  1  0  0  0  0
 12 13  1  0  0  0  0
 13 14  2  0  0  0  0
 15 16  1  0  0  0  0
 15 26  1  0  0  0  0
 16 17  1  0  0  0  0
 16 20  1  0  0  0  0
 16 27  1  0  0  0  0
 17 19  1  0  0  0  0
 17 18  1  0  0  0  0
 17 28  1  0  0  0  0
 18 19  1  0  0  0  0
 18 29  1  0  0  0  0
 18 30  1  0  0  0  0
 19 31  1  0  0  0  0
 19 32  1  0  0  0  0
 20 22  1  0  0  0  0
 20 21  1  0  0  0  0
 20 33  1  0  0  0  0
 21 22  1  0  0  0  0
 21 34  1  0  0  0  0
 21 35  1  0  0  0  0
 22 36  1  0  0  0  0
 22 37  1  0  0  0  0
M  CHG  1  12  -1
M  END
> <s_m_source_file>
AV-unprocessed.smi

> <i_m_source_file_index>
1775

> <i_lp_mmshare_version>
43012

> <i_f3d_flags>
0

> <s_epik_input>
W0NIMl0xW0NIMl1bQ0hdMVtDSF0oW0NIXTJbQ0gyXVtDSDJdMilbTkhdQyg9TylbTkhdYzNbY0hdYyhDKEYpKEYpRilbY0hdW25IXWMzPU8=

> <s_epik_cmdline>
J2VwaWtfcHl0aG9uJywgJy1waCcsICc3LjAnLCAnLXRuJywgJzgnLCAnLW1hJywgJzIwMCcsICctbWV0YWxfYmluZGluZycsICctaW1hZScsICc8aW5maWxlLm1hZT4nLCAnLW9tYWUnLCAnPG91dGZpbGUubWFlPic=

> <r_lp_tautomer_probability>
1

> <r_epik_Ionization_Penalty>
3.19177

> <r_epik_Ionization_Penalty_Charging>
0.180322

> <r_epik_Ionization_Penalty_Neutral>
3.01145

> <r_epik_State_Penalty>
3.00772

> <r_epik_Charging_Adjusted_Penalty>
3.18804

> <i_epik_Tot_Q>
-1

> <i_epik_Tot_abs_Q>
1

> <r_epik_Metal_State_Penalty>
0.454354

> <b_epik_Metal_Only>
1

> <s_lp_Force_Field>
OPLS_2005

> <r_lp_Energy>
38.3623

> <b_lp_Chiralities_Consistent>
1

> <s_lp_Variant>
AV-unprocessed.smi:1775-2

> <Gold.Version>
5.8.1

> <Gold.Id.Protein>
6NUR|6NUR_protein|mol2

> <Gold.PLP.Fitness>
46.5798

> <Gold.PLP.PLP>
-44.5934

> <Gold.PLP.part.hbond>
-1.0000

> <Gold.PLP.part.metal>
0.0000

> <Gold.PLP.part.buried>
-5.0835

> <Gold.PLP.part.nonpolar>
-40.0962

> <Gold.PLP.part.repulsive>
2.3253

> <Gold.PLP.ligand.clash>
0.0000

> <Gold.PLP.ligand.torsion>
1.6213

> <Gold.PLP.Chemscore.Hbond>
1.0000

> <Gold.PLP.Chemscore.CHOScore>
0.0000

> <Gold.PLP.Chemscore.Metal>
0.0000

> <Gold.Chemscore.Hbonds>
donor molecule, donor type, donor heavy atom, donor atom, acceptor molecule, acceptor atom, score
      P1  H  7989  7998       L1    14  1.00

> <Gold.PLP.Chemscore.Internal.Correction>
2.2290

> <Gold.Rescore>
     Score         DG    S(hbond)    S(metal)    S(lipo)     H(rot)  DE(clash)    DE(int)     intcor
     13.81     -16.79       0.97        0.00     101.52       1.49       0.10       2.88       ----

> <Gold.Chemscore.Fitness>
13.8108

> <Gold.Chemscore.DG>
-16.7857

> <Gold.Chemscore.ZeroCoef>
-5.4800

> <Gold.Chemscore.Hbond>
0.9678

> <Gold.Chemscore.Metal>
0.0000

> <Gold.Chemscore.Lipo>
101.5249

> <Gold.Chemscore.Internal_Hbond>
0.0000

> <Gold.Chemscore.DEClash>
0.0974

> <Gold.Chemscore.DEInternal>
2.8775

> <Gold.Chemscore.Rot>
1.4864

> <Gold.Chemscore.Internal.Correction>
   9.000000E+99

> <Gold.Chemscore.Hbonds>
donor molecule, donor type, donor heavy atom, donor atom, acceptor molecule, acceptor atom, score
      P1  H  7989  7998       L1    14  0.40

> <Gold.Chemscore.Hbond.Weighted>
-3.2324

> <Gold.Chemscore.Metal.Weighted>
-0.0000

> <Gold.Chemscore.Lipo.Weighted>
-11.8784

> <Gold.Chemscore.Internal_Hbond.Weighted>
0.0000

> <Gold.Chemscore.DEClash.Weighted>
0.0974

> <Gold.Chemscore.DEInternal.Weighted>
2.8775

> <Gold.Chemscore.Rot.Weighted>
3.8052

> <Gold.Chemscore.Internal.Correction.Weighted>
   9.000000E+99

> <Gold.Protein.RotatedTorsions>
[ 6907 6896 6895 6894 ] final  -78.11 input  -60.11 | X-H torsion
[ 7974 7965 7964 7962 ] final -167.88 input  175.53 | X-H torsion
[ 8008 7997 7996 7995 ] final  142.90 input   59.86 | X-H torsion
[ 10167 10162 10161 10158 ] final -133.38 input  -65.29 | X-H torsion
[ 10718 10713 10712 10709 ] final  124.31 input   66.30 | X-H torsion
[ 10763 10752 10751 10750 ] final  -18.60 input  -60.55 | X-H torsion
[ 11005 11000 10999 10996 ] final -161.30 input  -57.11 | X-H torsion

> <Gold.Protein.ActiveResidues>
 VAL166  LYS551  ARG553  GLY616  TRP617  ASP618  TYR619  PRO620  LYS621  CYS622 
 ASP623  PHE694  ASN695  SER759  ASP760  ASP761  ALA762  ILE779  LEU786  VAL792 
 PHE793  MET794  SER795  GLU796  ALA797  LYS798  CYS799  TRP800  GLU811  SER814 

> <Gold.Protein.RotatedAtoms>
  150.6981  134.4321  159.5252 H   0  0  0  0  0  0  0  0  0  0  0  0  # atno 6907 bound_to 6896
  152.2046  134.8554  160.0513 H   0  0  0  0  0  0  0  0  0  0  0  0  # atno 6908 bound_to 6896
  151.9462  133.3617  159.4020 H   0  0  0  0  0  0  0  0  0  0  0  0  # atno 6909 bound_to 6896
  144.7214  140.2453  143.6286 H   0  0  0  0  0  0  0  0  0  0  0  0  # atno 7974 bound_to 7965
  156.2941  140.2276  156.4803 H   0  0  0  0  0  0  0  0  0  0  0  0  # atno 8008 bound_to 7997
  154.7859  140.0457  157.1184 H   0  0  0  0  0  0  0  0  0  0  0  0  # atno 8009 bound_to 7997
  154.9703  140.3065  155.4994 H   0  0  0  0  0  0  0  0  0  0  0  0  # atno 8010 bound_to 7997
  139.8989  143.6632  152.2598 H   0  0  0  0  0  0  0  0  0  0  0  0  # atno 10167 bound_to 10162
  157.5595  131.1090  150.8563 H   0  0  0  0  0  0  0  0  0  0  0  0  # atno 10718 bound_to 10713
  153.5917  135.7002  153.5420 H   0  0  0  0  0  0  0  0  0  0  0  0  # atno 10763 bound_to 10752
  153.3172  135.4084  155.1386 H   0  0  0  0  0  0  0  0  0  0  0  0  # atno 10764 bound_to 10752
  154.8599  135.3686  154.5449 H   0  0  0  0  0  0  0  0  0  0  0  0  # atno 10765 bound_to 10752
  140.6220  134.4741  157.5224 H   0  0  0  0  0  0  0  0  0  0  0  0  # atno 11005 bound_to 11000
  145.8280  139.2073  143.1899 LP  0  0  0  0  0  0  0  0  0  0  0  0  # atno 17320 bound_to 7965
  146.0456  140.8121  142.9807 LP  0  0  0  0  0  0  0  0  0  0  0  0  # atno 17321 bound_to 7965
  139.7043  144.7630  151.1220 LP  0  0  0  0  0  0  0  0  0  0  0  0  # atno 17342 bound_to 10162
  140.7711  143.5416  150.9306 LP  0  0  0  0  0  0  0  0  0  0  0  0  # atno 17343 bound_to 10162
  156.9065  130.5265  149.5281 LP  0  0  0  0  0  0  0  0  0  0  0  0  # atno 17370 bound_to 10713
  156.0649  130.5694  150.9269 LP  0  0  0  0  0  0  0  0  0  0  0  0  # atno 17371 bound_to 10713
  139.9150  134.8266  156.1398 LP  0  0  0  0  0  0  0  0  0  0  0  0  # atno 17394 bound_to 11000
  141.0736  133.6785  156.2190 LP  0  0  0  0  0  0  0  0  0  0  0  0  # atno 17395 bound_to 11000

$$$$
