AV-unprocessed.smi:1922|AV-procd|sdf|7788|dock3
  -GOLD-   22720 9533D 1   1.00000     0.00000
 Structure written by MMmdl.
 35 36  0  0  0  0  0  0  0  0  1 V2000
  152.0929  138.5793  158.0348 O   0  0  0  0  0  0  0  0  0  0  0  0
  152.2286  139.5823  157.3352 C   0  0  0  0  0  0  0  0  0  0  0  0
  152.1612  139.4464  155.8035 C   0  0  0  0  0  0  0  0  0  0  0  0
  150.8028  139.5053  155.2378 N   0  0  0  0  0  0  0  0  0  0  0  0
  150.3682  140.7884  154.9407 N   0  0  0  0  0  0  0  0  0  0  0  0
  149.1855  140.9736  154.4594 C   0  0  0  0  0  0  0  0  0  0  0  0
  148.7941  142.2605  154.1828 O   0  0  0  0  0  0  0  0  0  0  0  0
  148.2933  139.8611  154.2170 C   0  0  0  0  0  0  0  0  0  0  0  0
  148.7265  138.6147  154.5068 C   0  0  0  0  0  0  0  0  0  0  0  0
  150.0608  138.3694  155.0565 C   0  0  0  0  0  0  0  0  0  0  0  0
  150.4757  137.2465  155.3415 O   0  0  0  0  0  0  0  0  0  0  0  0
  152.4282  140.8052  157.8508 N   0  0  0  0  0  0  0  0  0  0  0  0
  152.4798  141.1193  159.2706 C   0  0  0  0  0  0  0  0  0  0  0  0
  152.7131  142.6245  159.4807 C   0  0  0  0  0  0  0  0  0  0  0  0
  152.2138  143.1438  160.8297 C   0  0  0  0  0  0  0  0  0  0  0  0
  152.1135  144.6617  160.6488 C   0  0  0  0  0  0  0  0  0  0  0  0
  151.9169  144.9028  159.1439 C   0  0  0  0  0  0  0  0  0  0  0  0
  151.9953  143.5270  158.4708 C   0  0  0  0  0  0  0  0  0  0  0  0
  148.8870  142.7329  154.9957 H   0  0  0  0  0  0  0  0  0  0  0  0
  152.7759  140.2381  155.3714 H   0  0  0  0  0  0  0  0  0  0  0  0
  152.6493  138.5143  155.5134 H   0  0  0  0  0  0  0  0  0  0  0  0
  147.3065  140.0313  153.8123 H   0  0  0  0  0  0  0  0  0  0  0  0
  148.0713  137.7743  154.3301 H   0  0  0  0  0  0  0  0  0  0  0  0
  152.5325  141.5774  157.2087 H   0  0  0  0  0  0  0  0  0  0  0  0
  151.5450  140.8095  159.7404 H   0  0  0  0  0  0  0  0  0  0  0  0
  153.2817  140.5488  159.7417 H   0  0  0  0  0  0  0  0  0  0  0  0
  153.7837  142.8272  159.4164 H   0  0  0  0  0  0  0  0  0  0  0  0
  151.2237  142.7374  161.0416 H   0  0  0  0  0  0  0  0  0  0  0  0
  152.8690  142.8646  161.6553 H   0  0  0  0  0  0  0  0  0  0  0  0
  151.3029  145.0845  161.2431 H   0  0  0  0  0  0  0  0  0  0  0  0
  153.0393  145.1361  160.9771 H   0  0  0  0  0  0  0  0  0  0  0  0
  150.9636  145.3891  158.9329 H   0  0  0  0  0  0  0  0  0  0  0  0
  152.7053  145.5560  158.7671 H   0  0  0  0  0  0  0  0  0  0  0  0
  152.5055  143.5657  157.5075 H   0  0  0  0  0  0  0  0  0  0  0  0
  150.9860  143.1531  158.2923 H   0  0  0  0  0  0  0  0  0  0  0  0
  1  2  2  0  0  0  0
  2  3  1  0  0  0  0
  2 12  1  0  0  0  0
  3 20  1  0  0  0  0
  3 21  1  0  0  0  0
  3  4  1  0  0  0  0
  4  5  1  0  0  0  0
  4 10  1  0  0  0  0
  5  6  2  0  0  0  0
  6  7  1  0  0  0  0
  6  8  1  0  0  0  0
  7 19  1  0  0  0  0
  8 22  1  0  0  0  0
  8  9  2  0  0  0  0
  9 23  1  0  0  0  0
  9 10  1  0  0  0  0
 10 11  2  0  0  0  0
 12 13  1  0  0  0  0
 12 24  1  0  0  0  0
 13 14  1  0  0  0  0
 13 25  1  0  0  0  0
 13 26  1  0  0  0  0
 14 18  1  0  0  0  0
 14 15  1  0  0  0  0
 14 27  1  0  0  0  0
 15 16  1  0  0  0  0
 15 28  1  0  0  0  0
 15 29  1  0  0  0  0
 16 17  1  0  0  0  0
 16 30  1  0  0  0  0
 16 31  1  0  0  0  0
 17 18  1  0  0  0  0
 17 32  1  0  0  0  0
 17 33  1  0  0  0  0
 18 34  1  0  0  0  0
 18 35  1  0  0  0  0
M  END
> <s_m_source_file>
AV-unprocessed.smi

> <i_m_source_file_index>
1922

> <i_lp_mmshare_version>
43012

> <i_f3d_flags>
0

> <s_epik_input>
W0NIMl0xW0NIMl1bQ0gyXVtDSDJdW0NIXTFbQ0gyXVtOSF1DKD1PKVtDSDJdbjJbbkhdYyg9TylbY0hdW2NIXWMyPU8=

> <s_epik_cmdline>
J2VwaWtfcHl0aG9uJywgJy1waCcsICc3LjAnLCAnLXRuJywgJzgnLCAnLW1hJywgJzIwMCcsICctbWV0YWxfYmluZGluZycsICctaW1hZScsICc8aW5maWxlLm1hZT4nLCAnLW9tYWUnLCAnPG91dGZpbGUubWFlPic=

> <r_lp_tautomer_probability>
0.9996

> <r_epik_Ionization_Penalty>
2.12182

> <r_epik_Ionization_Penalty_Charging>
3.68417e-08

> <r_epik_Ionization_Penalty_Neutral>
2.12182

> <r_epik_State_Penalty>
1.69868

> <r_epik_Charging_Adjusted_Penalty>
1.69868

> <i_epik_Tot_Q>
0

> <i_epik_Tot_abs_Q>
0

> <r_epik_Metal_State_Penalty>
1.69868

> <b_epik_Metal_Only>
0

> <s_lp_Force_Field>
OPLS_2005

> <r_lp_Energy>
31.2069

> <b_lp_Chiralities_Consistent>
1

> <s_lp_Variant>
AV-unprocessed.smi:1922-2

> <Gold.Version>
5.8.1

> <Gold.Id.Protein>
6NUR|6NUR_protein|mol2

> <Gold.PLP.Fitness>
42.9031

> <Gold.PLP.PLP>
-40.3305

> <Gold.PLP.part.hbond>
-2.9837

> <Gold.PLP.part.metal>
0.0000

> <Gold.PLP.part.buried>
-2.5311

> <Gold.PLP.part.nonpolar>
-33.7888

> <Gold.PLP.part.repulsive>
0.2919

> <Gold.PLP.ligand.clash>
0.0000

> <Gold.PLP.ligand.torsion>
0.9822

> <Gold.PLP.Chemscore.Hbond>
1.5098

> <Gold.PLP.Chemscore.CHOScore>
0.0000

> <Gold.PLP.Chemscore.Metal>
0.0000

> <Gold.Chemscore.Hbonds>
donor molecule, donor type, donor heavy atom, donor atom, acceptor molecule, acceptor atom, score
      L1  H     7    19       P1  8028  0.66
      P1  H  7989  7998       L1     5  0.46
      P1  H  8011  8017       L1     7  0.18

> <Gold.PLP.Chemscore.Internal.Correction>
0.0076

> <Gold.Rescore>
     Score         DG    S(hbond)    S(metal)    S(lipo)     H(rot)  DE(clash)    DE(int)     intcor
     11.45     -12.60       1.07        0.00      86.45       2.56       0.18       0.97       ----

> <Gold.Chemscore.Fitness>
11.4521

> <Gold.Chemscore.DG>
-12.5995

> <Gold.Chemscore.ZeroCoef>
-5.4800

> <Gold.Chemscore.Hbond>
1.0656

> <Gold.Chemscore.Metal>
0.0000

> <Gold.Chemscore.Lipo>
86.4548

> <Gold.Chemscore.Internal_Hbond>
0.0000

> <Gold.Chemscore.DEClash>
0.1762

> <Gold.Chemscore.DEInternal>
0.9711

> <Gold.Chemscore.Rot>
2.5605

> <Gold.Chemscore.Internal.Correction>
   9.000000E+99

> <Gold.Chemscore.Hbonds>
donor molecule, donor type, donor heavy atom, donor atom, acceptor molecule, acceptor atom, score
      L1  H     7    19       P1  8028  0.63
      P1  H  7989  7998       L1     5  0.02
      P1  H  8011  8017       L1     7  0.03

> <Gold.Chemscore.Hbond.Weighted>
-3.5590

> <Gold.Chemscore.Metal.Weighted>
-0.0000

> <Gold.Chemscore.Lipo.Weighted>
-10.1152

> <Gold.Chemscore.Internal_Hbond.Weighted>
0.0000

> <Gold.Chemscore.DEClash.Weighted>
0.1762

> <Gold.Chemscore.DEInternal.Weighted>
0.9711

> <Gold.Chemscore.Rot.Weighted>
6.5548

> <Gold.Chemscore.Internal.Correction.Weighted>
   9.000000E+99

> <Gold.Protein.RotatedTorsions>
[ 6907 6896 6895 6894 ] final  -97.23 input  -60.11 | X-H torsion
[ 7974 7965 7964 7962 ] final  -70.62 input  175.53 | X-H torsion
[ 8008 7997 7996 7995 ] final  -44.90 input   59.86 | X-H torsion
[ 10167 10162 10161 10158 ] final  172.94 input  -65.29 | X-H torsion
[ 10718 10713 10712 10709 ] final  174.57 input   66.30 | X-H torsion
[ 10763 10752 10751 10750 ] final   52.44 input  -60.55 | X-H torsion
[ 11005 11000 10999 10996 ] final  -74.42 input  -57.11 | X-H torsion

> <Gold.Protein.ActiveResidues>
 VAL166  LYS551  ARG553  GLY616  TRP617  ASP618  TYR619  PRO620  LYS621  CYS622 
 ASP623  PHE694  ASN695  SER759  ASP760  ASP761  ALA762  ILE779  LEU786  VAL792 
 PHE793  MET794  SER795  GLU796  ALA797  LYS798  CYS799  TRP800  GLU811  SER814 

> <Gold.Protein.RotatedAtoms>
  150.7010  134.1381  159.4094 H   0  0  0  0  0  0  0  0  0  0  0  0  # atno 6907 bound_to 6896
  151.9366  135.0230  160.0542 H   0  0  0  0  0  0  0  0  0  0  0  0  # atno 6908 bound_to 6896
  152.2130  133.4890  159.5157 H   0  0  0  0  0  0  0  0  0  0  0  0  # atno 6909 bound_to 6896
  145.6886  140.9161  143.0794 H   0  0  0  0  0  0  0  0  0  0  0  0  # atno 7974 bound_to 7965
  154.3999  140.1410  156.3758 H   0  0  0  0  0  0  0  0  0  0  0  0  # atno 8008 bound_to 7997
  155.8050  140.3474  155.5403 H   0  0  0  0  0  0  0  0  0  0  0  0  # atno 8009 bound_to 7997
  155.8445  140.0932  157.1704 H   0  0  0  0  0  0  0  0  0  0  0  0  # atno 8010 bound_to 7997
  139.5092  144.3317  152.0105 H   0  0  0  0  0  0  0  0  0  0  0  0  # atno 10167 bound_to 10162
  156.9477  131.0021  151.2955 H   0  0  0  0  0  0  0  0  0  0  0  0  # atno 10718 bound_to 10713
  152.9789  135.5812  154.4578 H   0  0  0  0  0  0  0  0  0  0  0  0  # atno 10763 bound_to 10752
  154.4158  135.2771  155.2009 H   0  0  0  0  0  0  0  0  0  0  0  0  # atno 10764 bound_to 10752
  154.3779  135.6153  153.5829 H   0  0  0  0  0  0  0  0  0  0  0  0  # atno 10765 bound_to 10752
  141.1635  133.6911  156.7361 H   0  0  0  0  0  0  0  0  0  0  0  0  # atno 11005 bound_to 11000
  144.7003  139.8791  143.7446 LP  0  0  0  0  0  0  0  0  0  0  0  0  # atno 17320 bound_to 7965
  146.0902  139.3891  143.0411 LP  0  0  0  0  0  0  0  0  0  0  0  0  # atno 17321 bound_to 7965
  140.2757  144.3915  150.6136 LP  0  0  0  0  0  0  0  0  0  0  0  0  # atno 17342 bound_to 10162
  140.6056  143.2167  151.6988 LP  0  0  0  0  0  0  0  0  0  0  0  0  # atno 17343 bound_to 10162
  157.5743  130.8332  149.8434 LP  0  0  0  0  0  0  0  0  0  0  0  0  # atno 17370 bound_to 10713
  156.0376  130.3747  150.1518 LP  0  0  0  0  0  0  0  0  0  0  0  0  # atno 17371 bound_to 10713
  140.2709  134.8393  157.3846 LP  0  0  0  0  0  0  0  0  0  0  0  0  # atno 17394 bound_to 11000
  140.1523  134.4834  155.7953 LP  0  0  0  0  0  0  0  0  0  0  0  0  # atno 17395 bound_to 11000

$$$$
