AV-unprocessed.smi:1492|AV-procd|sdf|6046|dock8
  -GOLD-   22720 6163D 1   1.00000     0.00000
 Structure written by MMmdl.
 52 53  0  0  0  0  0  0  0  0  3 V2000
  147.0389  132.1993  155.8384 C   0  0  0  0  0  0  0  0  0  0  0  0
  146.6022  133.6760  155.8289 C   0  0  0  0  0  0  0  0  0  0  0  0
  147.4102  134.6618  154.9182 C   0  0  1  0  0  0  0  0  0  0  0  0
  147.0277  136.1150  155.2926 C   0  0  0  0  0  0  0  0  0  0  0  0
  148.9371  134.4708  155.1823 C   0  0  0  0  0  0  0  0  0  0  0  0
  149.7287  135.4860  154.4980 N   0  0  0  0  0  0  0  0  0  0  0  0
  150.8375  136.0817  154.9597 C   0  0  0  0  0  0  0  0  0  0  0  0
  151.4684  135.6901  155.9402 O   0  0  0  0  0  0  0  0  0  0  0  0
  151.2484  137.3648  154.2352 C   0  0  0  0  0  0  0  0  0  0  0  0
  151.5118  138.5428  155.1746 C   0  0  0  0  0  0  0  0  0  0  0  0
  150.7415  139.6680  155.2149 C   0  0  0  0  0  0  0  0  0  0  0  0
  149.5706  139.9072  154.2779 C   0  0  0  0  0  0  0  0  0  0  0  0
  150.9765  140.6736  156.1677 N   0  0  0  0  0  0  0  0  0  0  0  0
  151.9083  140.5204  157.0294 C   0  0  0  0  0  0  0  0  0  0  0  0
  152.1406  141.5982  158.0664 C   0  0  0  0  0  0  0  0  0  0  0  0
  152.7284  139.4160  157.0851 N   0  5  0  0  0  0  0  0  0  0  0  0
  152.5922  138.4179  156.1678 C   0  0  0  0  0  0  0  0  0  0  0  0
  153.3227  137.4284  156.1642 O   0  0  0  0  0  0  0  0  0  0  0  0
  147.1026  134.3820  153.4617 N   0  3  0  0  0  0  0  0  0  0  0  0
  147.4134  133.0060  152.9725 C   0  0  0  0  0  0  0  0  0  0  0  0
  147.1711  132.8802  151.4566 C   0  0  0  0  0  0  0  0  0  0  0  0
  145.8452  133.2701  151.1318 O   0  0  0  0  0  0  0  0  0  0  0  0
  145.6010  134.6218  151.4893 C   0  0  0  0  0  0  0  0  0  0  0  0
  145.7331  134.7652  153.0120 C   0  0  0  0  0  0  0  0  0  0  0  0
  146.4614  131.6430  156.5770 H   0  0  0  0  0  0  0  0  0  0  0  0
  148.0903  132.0817  156.0971 H   0  0  0  0  0  0  0  0  0  0  0  0
  146.8660  131.7154  154.8774 H   0  0  0  0  0  0  0  0  0  0  0  0
  145.5462  133.7058  155.5554 H   0  0  0  0  0  0  0  0  0  0  0  0
  146.6526  134.0134  156.8643 H   0  0  0  0  0  0  0  0  0  0  0  0
  147.2109  136.3180  156.3471 H   0  0  0  0  0  0  0  0  0  0  0  0
  145.9738  136.3205  155.1059 H   0  0  0  0  0  0  0  0  0  0  0  0
  147.6131  136.8507  154.7414 H   0  0  0  0  0  0  0  0  0  0  0  0
  149.1686  134.4461  156.2463 H   0  0  0  0  0  0  0  0  0  0  0  0
  149.2687  133.4966  154.8249 H   0  0  0  0  0  0  0  0  0  0  0  0
  149.3132  135.8814  153.6665 H   0  0  0  0  0  0  0  0  0  0  0  0
  152.1348  137.1738  153.6284 H   0  0  0  0  0  0  0  0  0  0  0  0
  150.4638  137.6152  153.5222 H   0  0  0  0  0  0  0  0  0  0  0  0
  149.9152  139.9618  153.2451 H   0  0  0  0  0  0  0  0  0  0  0  0
  149.0643  140.8448  154.5106 H   0  0  0  0  0  0  0  0  0  0  0  0
  148.8376  139.1048  154.3589 H   0  0  0  0  0  0  0  0  0  0  0  0
  153.2078  141.7752  158.2060 H   0  0  0  0  0  0  0  0  0  0  0  0
  151.7116  141.2967  159.0224 H   0  0  0  0  0  0  0  0  0  0  0  0
  151.6782  142.5386  157.7632 H   0  0  0  0  0  0  0  0  0  0  0  0
  148.4564  132.7442  153.1410 H   0  0  0  0  0  0  0  0  0  0  0  0
  146.8030  132.2756  153.5041 H   0  0  0  0  0  0  0  0  0  0  0  0
  147.8830  133.4825  150.8934 H   0  0  0  0  0  0  0  0  0  0  0  0
  147.3203  131.8476  151.1407 H   0  0  0  0  0  0  0  0  0  0  0  0
  146.2866  135.2912  150.9680 H   0  0  0  0  0  0  0  0  0  0  0  0
  144.5926  134.8913  151.1745 H   0  0  0  0  0  0  0  0  0  0  0  0
  144.9864  134.1297  153.4882 H   0  0  0  0  0  0  0  0  0  0  0  0
  145.4919  135.7917  153.2756 H   0  0  0  0  0  0  0  0  0  0  0  0
  147.7311  134.9841  152.9478 H   0  0  0  0  0  0  0  0  0  0  0  0
  1  2  1  0  0  0  0
  1 25  1  0  0  0  0
  1 26  1  0  0  0  0
  1 27  1  0  0  0  0
  2  3  1  0  0  0  0
  2 28  1  0  0  0  0
  2 29  1  0  0  0  0
  3  4  1  0  0  0  0
  3  5  1  0  0  0  0
  3 19  1  0  0  0  0
  4 30  1  0  0  0  0
  4 31  1  0  0  0  0
  4 32  1  0  0  0  0
  5  6  1  0  0  0  0
  5 33  1  0  0  0  0
  5 34  1  0  0  0  0
  6  7  1  0  0  0  0
  6 35  1  0  0  0  0
  7  8  2  0  0  0  0
  7  9  1  0  0  0  0
  9 10  1  0  0  0  0
  9 36  1  0  0  0  0
  9 37  1  0  0  0  0
 10 17  1  0  0  0  0
 10 11  2  0  0  0  0
 11 12  1  0  0  0  0
 11 13  1  0  0  0  0
 12 38  1  0  0  0  0
 12 39  1  0  0  0  0
 12 40  1  0  0  0  0
 13 14  2  0  0  0  0
 14 15  1  0  0  0  0
 14 16  1  0  0  0  0
 15 41  1  0  0  0  0
 15 42  1  0  0  0  0
 15 43  1  0  0  0  0
 16 17  1  0  0  0  0
 17 18  2  0  0  0  0
 19 24  1  0  0  0  0
 19 20  1  0  0  0  0
 19 52  1  0  0  0  0
 20 21  1  0  0  0  0
 20 44  1  0  0  0  0
 20 45  1  0  0  0  0
 21 22  1  0  0  0  0
 21 46  1  0  0  0  0
 21 47  1  0  0  0  0
 22 23  1  0  0  0  0
 23 24  1  0  0  0  0
 23 48  1  0  0  0  0
 23 49  1  0  0  0  0
 24 50  1  0  0  0  0
 24 51  1  0  0  0  0
M  CHG  1  16  -1
M  CHG  1  19   1
M  END
> <s_m_source_file>
AV-unprocessed.smi

> <i_m_source_file_index>
1492

> <i_lp_mmshare_version>
43012

> <i_f3d_flags>
0

> <s_epik_input>
W0NIMl0xW0NIMl1PW0NIMl1bQ0gyXU4xW0NAQF0oW0NIM10pKFtDSDJdW0NIM10pW0NIMl1bTkhdQyg9TylbQ0gyXWMyYyhbQ0gzXSluYyhbQ0gzXSlbbkhdYzI9Tw==

> <s_epik_cmdline>
J2VwaWtfcHl0aG9uJywgJy1waCcsICc3LjAnLCAnLXRuJywgJzgnLCAnLW1hJywgJzIwMCcsICctbWV0YWxfYmluZGluZycsICctaW1hZScsICc8aW5maWxlLm1hZT4nLCAnLW9tYWUnLCAnPG91dGZpbGUubWFlPic=

> <r_lp_tautomer_probability>
0.839158

> <r_epik_Ionization_Penalty>
6.90614

> <r_epik_Ionization_Penalty_Charging>
0.570079

> <r_epik_Ionization_Penalty_Neutral>
6.33607

> <r_epik_State_Penalty>
4.81716

> <r_epik_Charging_Adjusted_Penalty>
5.38724

> <i_epik_Tot_Q>
0

> <i_epik_Tot_abs_Q>
2

> <r_epik_Metal_State_Penalty>
1.25629

> <b_epik_Metal_Only>
1

> <s_lp_Force_Field>
OPLS_2005

> <r_lp_Energy>
28.2979

> <b_lp_Chiralities_Consistent>
1

> <s_lp_Variant>
AV-unprocessed.smi:1492-11

> <Gold.Version>
5.8.1

> <Gold.Id.Protein>
6NUR|6NUR_protein|mol2

> <Gold.PLP.Fitness>
50.0587

> <Gold.PLP.PLP>
-32.9496

> <Gold.PLP.part.hbond>
-5.2896

> <Gold.PLP.part.metal>
0.0000

> <Gold.PLP.part.buried>
-2.4989

> <Gold.PLP.part.nonpolar>
-25.5276

> <Gold.PLP.part.repulsive>
0.2729

> <Gold.PLP.ligand.clash>
0.0000

> <Gold.PLP.ligand.torsion>
0.5182

> <Gold.PLP.Chemscore.Hbond>
5.9920

> <Gold.PLP.Chemscore.CHOScore>
0.0000

> <Gold.PLP.Chemscore.Metal>
0.0000

> <Gold.Chemscore.Hbonds>
donor molecule, donor type, donor heavy atom, donor atom, acceptor molecule, acceptor atom, score
      L1  H     6    35       P1  7948  1.00
      L1  H    19    52       P1  7948  1.98
      P1  H  7997  8008       L1    16  2.00
      P1  H 10752 10765       L1     8  0.85

> <Gold.PLP.Chemscore.Internal.Correction>
0.1696

> <Gold.Rescore>
     Score         DG    S(hbond)    S(metal)    S(lipo)     H(rot)  DE(clash)    DE(int)     intcor
     16.34     -18.37       3.29        0.00      62.81       2.12       0.08       1.95       ----

> <Gold.Chemscore.Fitness>
16.3397

> <Gold.Chemscore.DG>
-18.3710

> <Gold.Chemscore.ZeroCoef>
-5.4800

> <Gold.Chemscore.Hbond>
3.2868

> <Gold.Chemscore.Metal>
0.0000

> <Gold.Chemscore.Lipo>
62.8127

> <Gold.Chemscore.Internal_Hbond>
0.0000

> <Gold.Chemscore.DEClash>
0.0770

> <Gold.Chemscore.DEInternal>
1.9543

> <Gold.Chemscore.Rot>
2.1235

> <Gold.Chemscore.Internal.Correction>
   9.000000E+99

> <Gold.Chemscore.Hbonds>
donor molecule, donor type, donor heavy atom, donor atom, acceptor molecule, acceptor atom, score
      L1  H     6    35       P1  7948  0.65
      L1  H    19    52       P1  7948  0.91
      P1  H  7997  8008       L1    16  0.27
      P1  H 10752 10765       L1    18  0.24

> <Gold.Chemscore.Hbond.Weighted>
-10.9780

> <Gold.Chemscore.Metal.Weighted>
-0.0000

> <Gold.Chemscore.Lipo.Weighted>
-7.3491

> <Gold.Chemscore.Internal_Hbond.Weighted>
0.0000

> <Gold.Chemscore.DEClash.Weighted>
0.0770

> <Gold.Chemscore.DEInternal.Weighted>
1.9543

> <Gold.Chemscore.Rot.Weighted>
5.4360

> <Gold.Chemscore.Internal.Correction.Weighted>
   9.000000E+99

> <Gold.Protein.RotatedTorsions>
[ 6907 6896 6895 6894 ] final  -80.99 input  -60.11 | X-H torsion
[ 7974 7965 7964 7962 ] final   34.49 input  175.53 | X-H torsion
[ 8008 7997 7996 7995 ] final  -75.95 input   59.86 | X-H torsion
[ 10167 10162 10161 10158 ] final   51.55 input  -65.29 | X-H torsion
[ 10718 10713 10712 10709 ] final -149.23 input   66.30 | X-H torsion
[ 10763 10752 10751 10750 ] final -149.90 input  -60.55 | X-H torsion
[ 11005 11000 10999 10996 ] final    6.27 input  -57.11 | X-H torsion

> <Gold.Protein.ActiveResidues>
 VAL166  LYS551  ARG553  GLY616  TRP617  ASP618  TYR619  PRO620  LYS621  CYS622 
 ASP623  PHE694  ASN695  SER759  ASP760  ASP761  ALA762  ILE779  LEU786  VAL792 
 PHE793  MET794  SER795  GLU796  ALA797  LYS798  CYS799  TRP800  GLU811  SER814 

> <Gold.Protein.RotatedAtoms>
  150.6919  134.3885  159.5065 H   0  0  0  0  0  0  0  0  0  0  0  0  # atno 6907 bound_to 6896
  152.1677  134.8857  160.0546 H   0  0  0  0  0  0  0  0  0  0  0  0  # atno 6908 bound_to 6896
  151.9895  133.3751  159.4176 H   0  0  0  0  0  0  0  0  0  0  0  0  # atno 6909 bound_to 6896
  146.1349  139.6262  142.9202 H   0  0  0  0  0  0  0  0  0  0  0  0  # atno 7974 bound_to 7965
  154.5462  140.0735  156.8592 H   0  0  0  0  0  0  0  0  0  0  0  0  # atno 8008 bound_to 7997
  155.3083  140.3388  155.4227 H   0  0  0  0  0  0  0  0  0  0  0  0  # atno 8009 bound_to 7997
  156.1920  140.1689  156.8059 H   0  0  0  0  0  0  0  0  0  0  0  0  # atno 8010 bound_to 7997
  140.2607  144.3376  150.6319 H   0  0  0  0  0  0  0  0  0  0  0  0  # atno 10167 bound_to 10162
  156.4305  130.8073  151.2300 H   0  0  0  0  0  0  0  0  0  0  0  0  # atno 10718 bound_to 10713
  154.8151  135.3298  154.7199 H   0  0  0  0  0  0  0  0  0  0  0  0  # atno 10763 bound_to 10752
  153.7841  135.6916  153.4887 H   0  0  0  0  0  0  0  0  0  0  0  0  # atno 10764 bound_to 10752
  153.1960  135.4533  155.0155 H   0  0  0  0  0  0  0  0  0  0  0  0  # atno 10765 bound_to 10752
  140.5614  134.0189  155.7973 H   0  0  0  0  0  0  0  0  0  0  0  0  # atno 11005 bound_to 11000
  145.5179  141.0433  143.2452 LP  0  0  0  0  0  0  0  0  0  0  0  0  # atno 17320 bound_to 7965
  144.7729  139.6694  143.7187 LP  0  0  0  0  0  0  0  0  0  0  0  0  # atno 17321 bound_to 7965
  140.5968  143.2167  151.7148 LP  0  0  0  0  0  0  0  0  0  0  0  0  # atno 17342 bound_to 10162
  139.5018  144.3855  152.0333 LP  0  0  0  0  0  0  0  0  0  0  0  0  # atno 17343 bound_to 10162
  157.7508  131.0200  150.3689 LP  0  0  0  0  0  0  0  0  0  0  0  0  # atno 17370 bound_to 10713
  156.4026  130.3918  149.6949 LP  0  0  0  0  0  0  0  0  0  0  0  0  # atno 17371 bound_to 10713
  141.1112  133.9613  157.2906 LP  0  0  0  0  0  0  0  0  0  0  0  0  # atno 17394 bound_to 11000
  139.9406  135.0191  156.8695 LP  0  0  0  0  0  0  0  0  0  0  0  0  # atno 17395 bound_to 11000

$$$$
