AV-unprocessed.smi:1218|AV-procd|sdf|5110|dock9
  -GOLD-   22720 4163D 1   1.00000     0.00000
 Structure written by MMmdl.
 44 45  0  0  0  0  0  0  0  0  1 V2000
  150.9288  144.1182  159.3171 C   0  0  0  0  0  0  0  0  0  0  0  0
  151.9998  143.1027  158.8888 C   0  0  0  0  0  0  0  0  0  0  0  0
  152.3494  143.3070  157.4047 C   0  0  0  0  0  0  0  0  0  0  0  0
  151.5378  141.6548  159.1774 C   0  0  0  0  0  0  0  0  0  0  0  0
  152.4357  140.5992  158.7068 N   0  0  0  0  0  0  0  0  0  0  0  0
  153.6738  140.5879  159.4786 C   0  0  0  0  0  0  0  0  0  0  0  0
  154.6361  139.4856  159.0081 C   0  0  0  0  0  0  0  0  0  0  0  0
  153.9791  138.2257  159.0788 O   0  0  0  0  0  0  0  0  0  0  0  0
  152.7963  138.1684  158.2849 C   0  0  1  0  0  0  0  0  0  0  0  0
  152.1731  136.7682  158.4129 C   0  0  0  0  0  0  0  0  0  0  0  0
  151.7902  136.4747  159.7902 N   0  0  0  0  0  0  0  0  0  0  0  0
  150.5501  136.1751  160.2054 C   0  0  0  0  0  0  0  0  0  0  0  0
  149.5841  136.0997  159.4443 O   0  0  0  0  0  0  0  0  0  0  0  0
  150.3977  135.9291  161.7120 C   0  0  0  0  0  0  0  0  0  0  0  0
  149.0137  135.7505  162.1217 N   0  0  0  0  0  0  0  0  0  0  0  0
  148.4475  134.6819  162.7857 C   0  0  0  0  0  0  0  0  0  0  0  0
  147.1215  134.9620  162.9513 C   0  0  0  0  0  0  0  0  0  0  0  0
  146.9691  136.2425  162.3498 C   0  0  0  0  0  0  0  0  0  0  0  0
  148.1033  136.7131  161.8566 N   0  0  0  0  0  0  0  0  0  0  0  0
  151.8299  139.2711  158.7628 C   0  0  0  0  0  0  0  0  0  0  0  0
  149.9966  143.9663  158.7718 H   0  0  0  0  0  0  0  0  0  0  0  0
  151.2594  145.1409  159.1333 H   0  0  0  0  0  0  0  0  0  0  0  0
  150.7102  144.0329  160.3821 H   0  0  0  0  0  0  0  0  0  0  0  0
  152.8897  143.3155  159.4832 H   0  0  0  0  0  0  0  0  0  0  0  0
  151.4763  143.1561  156.7693 H   0  0  0  0  0  0  0  0  0  0  0  0
  153.1220  142.6161  157.0698 H   0  0  0  0  0  0  0  0  0  0  0  0
  152.7178  144.3176  157.2251 H   0  0  0  0  0  0  0  0  0  0  0  0
  151.4364  141.5444  160.2581 H   0  0  0  0  0  0  0  0  0  0  0  0
  150.5330  141.4960  158.7822 H   0  0  0  0  0  0  0  0  0  0  0  0
  154.1699  141.5557  159.3983 H   0  0  0  0  0  0  0  0  0  0  0  0
  153.4488  140.4394  160.5360 H   0  0  0  0  0  0  0  0  0  0  0  0
  154.9735  139.6732  157.9876 H   0  0  0  0  0  0  0  0  0  0  0  0
  155.5235  139.4606  159.6405 H   0  0  0  0  0  0  0  0  0  0  0  0
  153.0579  138.3482  157.2402 H   0  0  0  0  0  0  0  0  0  0  0  0
  151.3241  136.6605  157.7357 H   0  0  0  0  0  0  0  0  0  0  0  0
  152.9020  136.0155  158.1115 H   0  0  0  0  0  0  0  0  0  0  0  0
  152.5230  136.5173  160.4836 H   0  0  0  0  0  0  0  0  0  0  0  0
  150.9562  135.0355  161.9933 H   0  0  0  0  0  0  0  0  0  0  0  0
  150.8318  136.7660  162.2612 H   0  0  0  0  0  0  0  0  0  0  0  0
  149.0292  133.8205  163.0783 H   0  0  0  0  0  0  0  0  0  0  0  0
  146.3740  134.3457  163.4280 H   0  0  0  0  0  0  0  0  0  0  0  0
  146.0742  136.8398  162.2583 H   0  0  0  0  0  0  0  0  0  0  0  0
  151.5055  139.0558  159.7821 H   0  0  0  0  0  0  0  0  0  0  0  0
  150.9395  139.2423  158.1359 H   0  0  0  0  0  0  0  0  0  0  0  0
  1  2  1  0  0  0  0
  1 21  1  0  0  0  0
  1 22  1  0  0  0  0
  1 23  1  0  0  0  0
  2  3  1  0  0  0  0
  2  4  1  0  0  0  0
  2 24  1  0  0  0  0
  3 25  1  0  0  0  0
  3 26  1  0  0  0  0
  3 27  1  0  0  0  0
  4  5  1  0  0  0  0
  4 28  1  0  0  0  0
  4 29  1  0  0  0  0
  5 20  1  0  0  0  0
  5  6  1  0  0  0  0
  6  7  1  0  0  0  0
  6 30  1  0  0  0  0
  6 31  1  0  0  0  0
  7  8  1  0  0  0  0
  7 32  1  0  0  0  0
  7 33  1  0  0  0  0
  8  9  1  0  0  0  0
  9 10  1  0  0  0  0
  9 20  1  0  0  0  0
  9 34  1  0  0  0  0
 10 11  1  0  0  0  0
 10 35  1  0  0  0  0
 10 36  1  0  0  0  0
 11 12  1  0  0  0  0
 11 37  1  0  0  0  0
 12 13  2  0  0  0  0
 12 14  1  0  0  0  0
 14 15  1  0  0  0  0
 14 38  1  0  0  0  0
 14 39  1  0  0  0  0
 15 19  1  0  0  0  0
 15 16  1  0  0  0  0
 16 17  2  0  0  0  0
 16 40  1  0  0  0  0
 17 18  1  0  0  0  0
 17 41  1  0  0  0  0
 18 19  2  0  0  0  0
 18 42  1  0  0  0  0
 20 43  1  0  0  0  0
 20 44  1  0  0  0  0
M  END
> <s_m_source_file>
AV-unprocessed.smi

> <i_m_source_file_index>
1218

> <i_lp_mmshare_version>
43012

> <i_f3d_flags>
0

> <s_epik_input>
W0NIM11bQ0hdKFtDSDNdKVtDSDJdTjFbQ0gyXVtDSDJdT1tDQEhdKFtDSDJdMSlbQ0gyXVtOSF1DKD1PKVtDSDJdbjJbY0hdW2NIXVtjSF1uMg==

> <s_epik_cmdline>
J2VwaWtfcHl0aG9uJywgJy1waCcsICc3LjAnLCAnLXRuJywgJzgnLCAnLW1hJywgJzIwMCcsICctbWV0YWxfYmluZGluZycsICctaW1hZScsICc8aW5maWxlLm1hZT4nLCAnLW9tYWUnLCAnPG91dGZpbGUubWFlPic=

> <r_lp_tautomer_probability>
1

> <r_epik_Ionization_Penalty>
1.10621

> <r_epik_Ionization_Penalty_Charging>
0

> <r_epik_Ionization_Penalty_Neutral>
1.10621

> <r_epik_State_Penalty>
1.16377

> <r_epik_Charging_Adjusted_Penalty>
1.16377

> <i_epik_Tot_Q>
0

> <i_epik_Tot_abs_Q>
0

> <r_epik_Metal_State_Penalty>
1.16377

> <b_epik_Metal_Only>
0

> <s_lp_Force_Field>
OPLS_2005

> <r_lp_Energy>
27.1639

> <b_lp_Chiralities_Consistent>
1

> <s_lp_Variant>
AV-unprocessed.smi:1218-5

> <Gold.Version>
5.8.1

> <Gold.Id.Protein>
6NUR|6NUR_protein|mol2

> <Gold.PLP.Fitness>
44.8737

> <Gold.PLP.PLP>
-39.8729

> <Gold.PLP.part.hbond>
-2.2762

> <Gold.PLP.part.metal>
0.0000

> <Gold.PLP.part.buried>
-5.2992

> <Gold.PLP.part.nonpolar>
-32.6596

> <Gold.PLP.part.repulsive>
0.0897

> <Gold.PLP.ligand.clash>
0.0000

> <Gold.PLP.ligand.torsion>
0.1246

> <Gold.PLP.Chemscore.Hbond>
1.7040

> <Gold.PLP.Chemscore.CHOScore>
0.0000

> <Gold.PLP.Chemscore.Metal>
0.0000

> <Gold.Chemscore.Hbonds>
donor molecule, donor type, donor heavy atom, donor atom, acceptor molecule, acceptor atom, score
      P1  H  6931  6943       L1    19  1.00

> <Gold.PLP.Chemscore.Internal.Correction>
0.1381

> <Gold.Rescore>
     Score         DG    S(hbond)    S(metal)    S(lipo)     H(rot)  DE(clash)    DE(int)     intcor
     16.42     -17.68       1.73        0.00      96.38       1.90       0.02       1.25       ----

> <Gold.Chemscore.Fitness>
16.4160

> <Gold.Chemscore.DG>
-17.6822

> <Gold.Chemscore.ZeroCoef>
-5.4800

> <Gold.Chemscore.Hbond>
1.7311

> <Gold.Chemscore.Metal>
0.0000

> <Gold.Chemscore.Lipo>
96.3818

> <Gold.Chemscore.Internal_Hbond>
0.0000

> <Gold.Chemscore.DEClash>
0.0174

> <Gold.Chemscore.DEInternal>
1.2489

> <Gold.Chemscore.Rot>
1.8970

> <Gold.Chemscore.Internal.Correction>
   9.000000E+99

> <Gold.Chemscore.Hbonds>
donor molecule, donor type, donor heavy atom, donor atom, acceptor molecule, acceptor atom, score
      P1  H  6931  6943       L1    19  0.45

> <Gold.Chemscore.Hbond.Weighted>
-5.7820

> <Gold.Chemscore.Metal.Weighted>
-0.0000

> <Gold.Chemscore.Lipo.Weighted>
-11.2767

> <Gold.Chemscore.Internal_Hbond.Weighted>
0.0000

> <Gold.Chemscore.DEClash.Weighted>
0.0174

> <Gold.Chemscore.DEInternal.Weighted>
1.2489

> <Gold.Chemscore.Rot.Weighted>
4.8564

> <Gold.Chemscore.Internal.Correction.Weighted>
   9.000000E+99

> <Gold.Protein.RotatedTorsions>
[ 6907 6896 6895 6894 ] final  127.99 input  -60.11 | X-H torsion
[ 7974 7965 7964 7962 ] final -118.96 input  175.53 | X-H torsion
[ 8008 7997 7996 7995 ] final -170.31 input   59.86 | X-H torsion
[ 10167 10162 10161 10158 ] final    1.81 input  -65.29 | X-H torsion
[ 10718 10713 10712 10709 ] final -141.59 input   66.30 | X-H torsion
[ 10763 10752 10751 10750 ] final  -91.11 input  -60.55 | X-H torsion
[ 11005 11000 10999 10996 ] final -117.74 input  -57.11 | X-H torsion

> <Gold.Protein.ActiveResidues>
 VAL166  LYS551  ARG553  GLY616  TRP617  ASP618  TYR619  PRO620  LYS621  CYS622 
 ASP623  PHE694  ASN695  SER759  ASP760  ASP761  ALA762  ILE779  LEU786  VAL792 
 PHE793  MET794  SER795  GLU796  ALA797  LYS798  CYS799  TRP800  GLU811  SER814 

> <Gold.Protein.RotatedAtoms>
  152.3761  133.6483  159.6124 H   0  0  0  0  0  0  0  0  0  0  0  0  # atno 6907 bound_to 6896
  150.7705  133.9191  159.3401 H   0  0  0  0  0  0  0  0  0  0  0  0  # atno 6908 bound_to 6896
  151.7005  135.0932  160.0301 H   0  0  0  0  0  0  0  0  0  0  0  0  # atno 6909 bound_to 6896
  145.0679  140.8337  143.4113 H   0  0  0  0  0  0  0  0  0  0  0  0  # atno 7974 bound_to 7965
  155.9167  140.1067  157.1238 H   0  0  0  0  0  0  0  0  0  0  0  0  # atno 8008 bound_to 7997
  154.4047  140.1264  156.4692 H   0  0  0  0  0  0  0  0  0  0  0  0  # atno 8009 bound_to 7997
  155.7245  140.3469  155.5033 H   0  0  0  0  0  0  0  0  0  0  0  0  # atno 8010 bound_to 7997
  140.6665  143.7165  150.7837 H   0  0  0  0  0  0  0  0  0  0  0  0  # atno 10167 bound_to 10162
  156.3359  130.7611  151.1738 H   0  0  0  0  0  0  0  0  0  0  0  0  # atno 10718 bound_to 10713
  154.6727  135.5280  153.8159 H   0  0  0  0  0  0  0  0  0  0  0  0  # atno 10763 bound_to 10752
  153.0512  135.6533  154.0700 H   0  0  0  0  0  0  0  0  0  0  0  0  # atno 10764 bound_to 10752
  154.0596  135.2962  155.3307 H   0  0  0  0  0  0  0  0  0  0  0  0  # atno 10765 bound_to 10752
  141.0334  133.9947  157.3108 H   0  0  0  0  0  0  0  0  0  0  0  0  # atno 11005 bound_to 11000
  145.1329  139.2620  143.5530 LP  0  0  0  0  0  0  0  0  0  0  0  0  # atno 17320 bound_to 7965
  146.3527  140.0985  142.8609 LP  0  0  0  0  0  0  0  0  0  0  0  0  # atno 17321 bound_to 7965
  140.0843  143.4938  152.2513 LP  0  0  0  0  0  0  0  0  0  0  0  0  # atno 17342 bound_to 10162
  139.5916  144.7552  151.3387 LP  0  0  0  0  0  0  0  0  0  0  0  0  # atno 17343 bound_to 10162
  157.7438  131.0468  150.4913 LP  0  0  0  0  0  0  0  0  0  0  0  0  # atno 17370 bound_to 10713
  156.5086  130.4134  149.6313 LP  0  0  0  0  0  0  0  0  0  0  0  0  # atno 17371 bound_to 10713
  139.9223  135.0201  156.8110 LP  0  0  0  0  0  0  0  0  0  0  0  0  # atno 17394 bound_to 11000
  140.6366  133.9856  155.7687 LP  0  0  0  0  0  0  0  0  0  0  0  0  # atno 17395 bound_to 11000

$$$$
