AV-unprocessed.smi:904|AV-procd|sdf|4098|dock10
  -GOLD-   22720 1593D 1   1.00000     0.00000
 Structure written by MMmdl.
 42 43  0  0  0  0  0  0  0  0  1 V2000
  149.7928  135.5632  156.5273 C   0  0  0  0  0  0  0  0  0  0  0  0
  149.9665  134.0756  156.4091 C   0  0  0  0  0  0  0  0  0  0  0  0
  150.2827  133.3757  157.4859 N   0  0  0  0  0  0  0  0  0  0  0  0
  150.3531  132.0990  157.0587 N   0  0  0  0  0  0  0  0  0  0  0  0
  150.6850  131.0509  158.0041 C   0  0  0  0  0  0  0  0  0  0  0  0
  150.0745  131.9913  155.7101 C   0  0  0  0  0  0  0  0  0  0  0  0
  150.0770  130.6773  154.9974 C   0  0  0  0  0  0  0  0  0  0  0  0
  149.8225  133.2562  155.2501 C   0  0  0  0  0  0  0  0  0  0  0  0
  149.4679  133.6926  153.8507 C   0  0  0  0  0  0  0  0  0  0  0  0
  148.1184  133.0965  153.4522 C   0  0  0  0  0  0  0  0  0  0  0  0
  147.7361  132.0422  153.9597 O   0  0  0  0  0  0  0  0  0  0  0  0
  147.4081  133.7847  152.5450 N   0  0  0  0  0  0  0  0  0  0  0  0
  146.0880  133.4168  152.0452 C   0  0  2  0  0  0  0  0  0  0  0  0
  146.0678  131.9416  151.5976 C   0  0  0  0  0  0  0  0  0  0  0  0
  144.7041  131.5514  151.0010 C   0  0  0  0  0  0  0  0  0  0  0  0
  144.2765  132.4887  149.8558 C   0  0  2  0  0  0  0  0  0  0  0  0
  145.0952  132.2747  148.7229 O   0  0  0  0  0  0  0  0  0  0  0  0
  144.3390  133.9681  150.2806 C   0  0  0  0  0  0  0  0  0  0  0  0
  145.7054  134.3457  150.8789 C   0  0  0  0  0  0  0  0  0  0  0  0
  148.7399  135.8232  156.6378 H   0  0  0  0  0  0  0  0  0  0  0  0
  150.1710  136.0758  155.6430 H   0  0  0  0  0  0  0  0  0  0  0  0
  150.3262  135.9631  157.3903 H   0  0  0  0  0  0  0  0  0  0  0  0
  151.4614  130.4095  157.5861 H   0  0  0  0  0  0  0  0  0  0  0  0
  149.7985  130.4506  158.2098 H   0  0  0  0  0  0  0  0  0  0  0  0
  151.0502  131.4775  158.9394 H   0  0  0  0  0  0  0  0  0  0  0  0
  149.6258  130.7633  154.0090 H   0  0  0  0  0  0  0  0  0  0  0  0
  149.5112  129.9304  155.5545 H   0  0  0  0  0  0  0  0  0  0  0  0
  151.0949  130.3085  154.8719 H   0  0  0  0  0  0  0  0  0  0  0  0
  149.4186  134.7790  153.7697 H   0  0  0  0  0  0  0  0  0  0  0  0
  150.2234  133.3755  153.1309 H   0  0  0  0  0  0  0  0  0  0  0  0
  147.8064  134.6403  152.1860 H   0  0  0  0  0  0  0  0  0  0  0  0
  145.3549  133.5550  152.8424 H   0  0  0  0  0  0  0  0  0  0  0  0
  146.8517  131.7690  150.8587 H   0  0  0  0  0  0  0  0  0  0  0  0
  146.2936  131.2892  152.4417 H   0  0  0  0  0  0  0  0  0  0  0  0
  144.7277  130.5172  150.6558 H   0  0  0  0  0  0  0  0  0  0  0  0
  143.9517  131.5901  151.7897 H   0  0  0  0  0  0  0  0  0  0  0  0
  143.2554  132.2466  149.5592 H   0  0  0  0  0  0  0  0  0  0  0  0
  145.3856  133.1140  148.3992 H   0  0  0  0  0  0  0  0  0  0  0  0
  144.1084  134.6152  149.4337 H   0  0  0  0  0  0  0  0  0  0  0  0
  143.5646  134.1563  151.0251 H   0  0  0  0  0  0  0  0  0  0  0  0
  145.6810  135.3815  151.2194 H   0  0  0  0  0  0  0  0  0  0  0  0
  146.4690  134.2970  150.1012 H   0  0  0  0  0  0  0  0  0  0  0  0
  1  2  1  0  0  0  0
  1 20  1  0  0  0  0
  1 21  1  0  0  0  0
  1 22  1  0  0  0  0
  2  8  1  0  0  0  0
  2  3  2  0  0  0  0
  3  4  1  0  0  0  0
  4  5  1  0  0  0  0
  4  6  1  0  0  0  0
  5 23  1  0  0  0  0
  5 24  1  0  0  0  0
  5 25  1  0  0  0  0
  6  7  1  0  0  0  0
  6  8  2  0  0  0  0
  7 26  1  0  0  0  0
  7 27  1  0  0  0  0
  7 28  1  0  0  0  0
  8  9  1  0  0  0  0
  9 10  1  0  0  0  0
  9 29  1  0  0  0  0
  9 30  1  0  0  0  0
 10 11  2  0  0  0  0
 10 12  1  0  0  0  0
 12 13  1  0  0  0  0
 12 31  1  0  0  0  0
 13 19  1  0  0  0  0
 13 14  1  0  0  0  0
 13 32  1  0  0  0  0
 14 15  1  0  0  0  0
 14 33  1  0  0  0  0
 14 34  1  0  0  0  0
 15 16  1  0  0  0  0
 15 35  1  0  0  0  0
 15 36  1  0  0  0  0
 16 17  1  0  0  0  0
 16 18  1  0  0  0  0
 16 37  1  0  0  0  0
 17 38  1  0  0  0  0
 18 19  1  0  0  0  0
 18 39  1  0  0  0  0
 18 40  1  0  0  0  0
 19 41  1  0  0  0  0
 19 42  1  0  0  0  0
M  END
> <s_m_source_file>
AV-unprocessed.smi

> <i_m_source_file_index>
904

> <i_lp_mmshare_version>
43012

> <i_f3d_flags>
0

> <s_epik_input>
W0NIM11jMW5uKFtDSDNdKWMoW0NIM10pYzFbQ0gyXUMoPU8pW05IXVtDQEBIXTJbQ0gyXVtDSDJdW0NAQEhdKFtPSF0pW0NIMl1bQ0gyXTI=

> <s_epik_cmdline>
J2VwaWtfcHl0aG9uJywgJy1waCcsICc3LjAnLCAnLXRuJywgJzgnLCAnLW1hJywgJzIwMCcsICctbWV0YWxfYmluZGluZycsICctaW1hZScsICc8aW5maWxlLm1hZT4nLCAnLW9tYWUnLCAnPG91dGZpbGUubWFlPic=

> <r_lp_tautomer_probability>
1

> <r_epik_Ionization_Penalty>
0.00340889

> <r_epik_Ionization_Penalty_Charging>
0

> <r_epik_Ionization_Penalty_Neutral>
0.00340889

> <r_epik_State_Penalty>
0.00241397

> <r_epik_Charging_Adjusted_Penalty>
0.00241397

> <i_epik_Tot_Q>
0

> <i_epik_Tot_abs_Q>
0

> <r_epik_Metal_State_Penalty>
-0

> <b_epik_Metal_Only>
0

> <s_lp_Force_Field>
OPLS_2005

> <r_lp_Energy>
4.71478

> <b_lp_Chiralities_Consistent>
1

> <s_lp_Variant>
AV-unprocessed.smi:904-2

> <Gold.Version>
5.8.1

> <Gold.Id.Protein>
6NUR|6NUR_protein|mol2

> <Gold.PLP.Fitness>
43.8108

> <Gold.PLP.PLP>
-35.7658

> <Gold.PLP.part.hbond>
-4.0000

> <Gold.PLP.part.metal>
0.0000

> <Gold.PLP.part.buried>
-5.0693

> <Gold.PLP.part.nonpolar>
-27.2749

> <Gold.PLP.part.repulsive>
0.0801

> <Gold.PLP.ligand.clash>
0.0000

> <Gold.PLP.ligand.torsion>
0.4661

> <Gold.PLP.Chemscore.Hbond>
2.9913

> <Gold.PLP.Chemscore.CHOScore>
0.0000

> <Gold.PLP.Chemscore.Metal>
0.0000

> <Gold.Chemscore.Hbonds>
donor molecule, donor type, donor heavy atom, donor atom, acceptor molecule, acceptor atom, score
      L1  H    12    31       P1  7948  1.00
      L1  H    17    38       P1  7921  0.75
      P1  H  6896  6908       L1     3  0.91

> <Gold.PLP.Chemscore.Internal.Correction>
0.0035

> <Gold.Rescore>
     Score         DG    S(hbond)    S(metal)    S(lipo)     H(rot)  DE(clash)    DE(int)     intcor
     16.02     -18.13       2.66        0.00      72.54       1.84       0.09       2.02       ----

> <Gold.Chemscore.Fitness>
16.0196

> <Gold.Chemscore.DG>
-18.1272

> <Gold.Chemscore.ZeroCoef>
-5.4800

> <Gold.Chemscore.Hbond>
2.6562

> <Gold.Chemscore.Metal>
0.0000

> <Gold.Chemscore.Lipo>
72.5422

> <Gold.Chemscore.Internal_Hbond>
0.0000

> <Gold.Chemscore.DEClash>
0.0859

> <Gold.Chemscore.DEInternal>
2.0217

> <Gold.Chemscore.Rot>
1.8406

> <Gold.Chemscore.Internal.Correction>
   9.000000E+99

> <Gold.Chemscore.Hbonds>
donor molecule, donor type, donor heavy atom, donor atom, acceptor molecule, acceptor atom, score
      L1  H    12    31       P1  7948  0.55
      L1  H    17    38       P1  7921  0.09
      P1  H  6896  6908       L1     3  0.57

> <Gold.Chemscore.Hbond.Weighted>
-8.8716

> <Gold.Chemscore.Metal.Weighted>
-0.0000

> <Gold.Chemscore.Lipo.Weighted>
-8.4874

> <Gold.Chemscore.Internal_Hbond.Weighted>
0.0000

> <Gold.Chemscore.DEClash.Weighted>
0.0859

> <Gold.Chemscore.DEInternal.Weighted>
2.0217

> <Gold.Chemscore.Rot.Weighted>
4.7118

> <Gold.Chemscore.Internal.Correction.Weighted>
   9.000000E+99

> <Gold.Protein.RotatedTorsions>
[ 6907 6896 6895 6894 ] final   91.34 input  -60.11 | X-H torsion
[ 7974 7965 7964 7962 ] final  120.10 input  175.53 | X-H torsion
[ 8008 7997 7996 7995 ] final -165.45 input   59.86 | X-H torsion
[ 10167 10162 10161 10158 ] final  -86.64 input  -65.29 | X-H torsion
[ 10718 10713 10712 10709 ] final -171.07 input   66.30 | X-H torsion
[ 10763 10752 10751 10750 ] final    2.09 input  -60.55 | X-H torsion
[ 11005 11000 10999 10996 ] final   26.79 input  -57.11 | X-H torsion

> <Gold.Protein.ActiveResidues>
 VAL166  LYS551  ARG553  GLY616  TRP617  ASP618  TYR619  PRO620  LYS621  CYS622 
 ASP623  PHE694  ASN695  SER759  ASP760  ASP761  ALA762  ILE779  LEU786  VAL792 
 PHE793  MET794  SER795  GLU796  ALA797  LYS798  CYS799  TRP800  GLU811  SER814 

> <Gold.Protein.RotatedAtoms>
  152.5449  134.1672  159.8581 H   0  0  0  0  0  0  0  0  0  0  0  0  # atno 6907 bound_to 6896
  151.1685  133.4792  159.2601 H   0  0  0  0  0  0  0  0  0  0  0  0  # atno 6908 bound_to 6896
  151.1299  135.0136  159.8632 H   0  0  0  0  0  0  0  0  0  0  0  0  # atno 6909 bound_to 6896
  145.1352  139.3302  143.4645 H   0  0  0  0  0  0  0  0  0  0  0  0  # atno 7974 bound_to 7965
  155.8500  140.0961  157.1681 H   0  0  0  0  0  0  0  0  0  0  0  0  # atno 8008 bound_to 7997
  154.3985  140.1385  156.3895 H   0  0  0  0  0  0  0  0  0  0  0  0  # atno 8009 bound_to 7997
  155.7971  140.3454  155.5384 H   0  0  0  0  0  0  0  0  0  0  0  0  # atno 8010 bound_to 7997
  140.3921  143.2700  151.9250 H   0  0  0  0  0  0  0  0  0  0  0  0  # atno 10167 bound_to 10162
  156.7354  130.9322  151.3107 H   0  0  0  0  0  0  0  0  0  0  0  0  # atno 10718 bound_to 10713
  153.2999  135.6955  153.7213 H   0  0  0  0  0  0  0  0  0  0  0  0  # atno 10763 bound_to 10752
  153.6131  135.3441  155.2986 H   0  0  0  0  0  0  0  0  0  0  0  0  # atno 10764 bound_to 10752
  154.8548  135.4368  154.2107 H   0  0  0  0  0  0  0  0  0  0  0  0  # atno 10765 bound_to 10752
  140.3332  134.2415  155.7699 H   0  0  0  0  0  0  0  0  0  0  0  0  # atno 11005 bound_to 11000
  146.3510  140.1366  142.8595 LP  0  0  0  0  0  0  0  0  0  0  0  0  # atno 17320 bound_to 7965
  145.0592  140.9075  143.4949 LP  0  0  0  0  0  0  0  0  0  0  0  0  # atno 17321 bound_to 7965
  139.4788  144.5717  151.8078 LP  0  0  0  0  0  0  0  0  0  0  0  0  # atno 17342 bound_to 10162
  140.4828  144.1424  150.5935 LP  0  0  0  0  0  0  0  0  0  0  0  0  # atno 17343 bound_to 10162
  157.6841  130.9168  150.0341 LP  0  0  0  0  0  0  0  0  0  0  0  0  # atno 17370 bound_to 10713
  156.1500  130.3642  149.9452 LP  0  0  0  0  0  0  0  0  0  0  0  0  # atno 17371 bound_to 10713
  141.2058  133.7850  157.0213 LP  0  0  0  0  0  0  0  0  0  0  0  0  # atno 17394 bound_to 11000
  140.0843  134.9630  157.1675 LP  0  0  0  0  0  0  0  0  0  0  0  0  # atno 17395 bound_to 11000

$$$$
