AV-unprocessed.smi:166|AV-procd|sdf|1389|dock3
  -GOLD-   2262019123D 1   1.00000     0.00000
 Structure written by MMmdl.
 54 58  0  0  0  0  0  0  0  0  1 V2000
  149.7649  143.3481  157.9663 O   0  0  0  0  0  0  0  0  0  0  0  0
  151.1150  143.0275  157.6764 C   0  0  2  0  0  0  0  0  0  0  0  0
  151.1773  142.2592  156.3351 C   0  0  0  0  0  0  0  0  0  0  0  0
  150.6572  140.9019  156.4112 N   0  0  0  0  0  0  0  0  0  0  0  0
  149.4174  140.5213  156.8736 C   0  0  0  0  0  0  0  0  0  0  0  0
  149.1848  139.2376  156.8534 N   0  0  0  0  0  0  0  0  0  0  0  0
  150.3562  138.6879  156.3462 C   0  0  0  0  0  0  0  0  0  0  0  0
  150.7910  137.3597  156.0758 C   0  0  0  0  0  0  0  0  0  0  0  0
  150.0049  136.2742  156.2889 N   0  0  0  0  0  0  0  0  0  0  0  0
  150.4256  135.0628  155.5860 C   0  0  0  0  0  0  0  0  0  0  0  0
  149.2826  134.0365  155.5349 C   0  0  0  0  0  0  0  0  0  0  0  0
  148.7368  133.7519  156.9422 C   0  0  0  0  0  0  0  0  0  0  0  0
  148.3109  135.0601  157.6288 C   0  0  1  0  0  0  0  0  0  0  0  0
  147.8993  134.7347  158.9495 O   0  0  0  0  0  0  0  0  0  0  0  0
  147.8383  135.8422  159.8388 C   0  0  0  0  0  0  0  0  0  0  0  0
  146.9887  135.5229  161.0553 C   0  0  0  0  0  0  0  0  0  0  0  0
  147.4148  135.9608  162.4416 C   0  0  0  0  0  0  0  0  0  0  0  0
  147.4418  134.5008  162.0777 C   0  0  0  0  0  0  0  0  0  0  0  0
  149.4831  136.0640  157.6406 C   0  0  0  0  0  0  0  0  0  0  0  0
  152.0514  137.2013  155.5897 N   0  0  0  0  0  0  0  0  0  0  0  0
  152.8317  138.2651  155.3772 C   0  0  0  0  0  0  0  0  0  0  0  0
  152.5581  139.5549  155.5820 N   0  0  0  0  0  0  0  0  0  0  0  0
  151.2963  139.7216  156.0718 C   0  0  0  0  0  0  0  0  0  0  0  0
  151.6737  142.2213  158.8430 C   0  0  0  0  0  0  0  0  0  0  0  0
  152.2041  143.3008  159.7765 C   0  0  0  0  0  0  0  0  0  0  0  0
  152.7749  144.2373  158.8792 O   0  0  0  0  0  0  0  0  0  0  0  0
  151.9481  144.3260  157.7226 C   0  0  0  0  0  0  0  0  0  0  0  0
  149.3787  143.7367  157.1966 H   0  0  0  0  0  0  0  0  0  0  0  0
  150.6191  142.7979  155.5683 H   0  0  0  0  0  0  0  0  0  0  0  0
  152.2076  142.2079  155.9804 H   0  0  0  0  0  0  0  0  0  0  0  0
  148.6847  141.2313  157.2295 H   0  0  0  0  0  0  0  0  0  0  0  0
  150.7573  135.2837  154.5720 H   0  0  0  0  0  0  0  0  0  0  0  0
  151.2833  134.6371  156.1087 H   0  0  0  0  0  0  0  0  0  0  0  0
  148.4803  134.4158  154.9008 H   0  0  0  0  0  0  0  0  0  0  0  0
  149.6316  133.1120  155.0745 H   0  0  0  0  0  0  0  0  0  0  0  0
  147.8914  133.0655  156.8842 H   0  0  0  0  0  0  0  0  0  0  0  0
  149.5031  133.2541  157.5380 H   0  0  0  0  0  0  0  0  0  0  0  0
  147.4709  135.4809  157.0728 H   0  0  0  0  0  0  0  0  0  0  0  0
  148.8355  136.1206  160.1793 H   0  0  0  0  0  0  0  0  0  0  0  0
  147.4069  136.7074  159.3336 H   0  0  0  0  0  0  0  0  0  0  0  0
  145.9189  135.5504  160.8566 H   0  0  0  0  0  0  0  0  0  0  0  0
  148.3712  136.4692  162.5486 H   0  0  0  0  0  0  0  0  0  0  0  0
  146.6346  136.2936  163.1231 H   0  0  0  0  0  0  0  0  0  0  0  0
  146.6795  133.8604  162.5167 H   0  0  0  0  0  0  0  0  0  0  0  0
  148.4159  134.0353  161.9412 H   0  0  0  0  0  0  0  0  0  0  0  0
  150.2845  135.6932  158.2810 H   0  0  0  0  0  0  0  0  0  0  0  0
  149.1526  137.0174  158.0536 H   0  0  0  0  0  0  0  0  0  0  0  0
  153.8164  138.0520  154.9881 H   0  0  0  0  0  0  0  0  0  0  0  0
  150.9415  141.5660  159.3165 H   0  0  0  0  0  0  0  0  0  0  0  0
  152.5072  141.6010  158.5102 H   0  0  0  0  0  0  0  0  0  0  0  0
  151.3932  143.7722  160.3341 H   0  0  0  0  0  0  0  0  0  0  0  0
  152.9395  142.9230  160.4869 H   0  0  0  0  0  0  0  0  0  0  0  0
  152.5952  144.4373  156.8538 H   0  0  0  0  0  0  0  0  0  0  0  0
  151.3217  145.2173  157.7792 H   0  0  0  0  0  0  0  0  0  0  0  0
  1  2  1  0  0  0  0
  1 28  1  0  0  0  0
  2 27  1  0  0  0  0
  2  3  1  0  0  0  0
  2 24  1  0  0  0  0
  3  4  1  0  0  0  0
  3 29  1  0  0  0  0
  3 30  1  0  0  0  0
  4 23  1  0  0  0  0
  4  5  1  0  0  0  0
  5  6  2  0  0  0  0
  5 31  1  0  0  0  0
  6  7  1  0  0  0  0
  7 23  2  0  0  0  0
  7  8  1  0  0  0  0
  8  9  1  0  0  0  0
  8 20  2  0  0  0  0
  9 19  1  0  0  0  0
  9 10  1  0  0  0  0
 10 11  1  0  0  0  0
 10 32  1  0  0  0  0
 10 33  1  0  0  0  0
 11 12  1  0  0  0  0
 11 34  1  0  0  0  0
 11 35  1  0  0  0  0
 12 13  1  0  0  0  0
 12 36  1  0  0  0  0
 12 37  1  0  0  0  0
 13 14  1  0  0  0  0
 13 19  1  0  0  0  0
 13 38  1  0  0  0  0
 14 15  1  0  0  0  0
 15 16  1  0  0  0  0
 15 39  1  0  0  0  0
 15 40  1  0  0  0  0
 16 18  1  0  0  0  0
 16 17  1  0  0  0  0
 16 41  1  0  0  0  0
 17 18  1  0  0  0  0
 17 42  1  0  0  0  0
 17 43  1  0  0  0  0
 18 44  1  0  0  0  0
 18 45  1  0  0  0  0
 19 46  1  0  0  0  0
 19 47  1  0  0  0  0
 20 21  1  0  0  0  0
 21 22  2  0  0  0  0
 21 48  1  0  0  0  0
 22 23  1  0  0  0  0
 24 25  1  0  0  0  0
 24 49  1  0  0  0  0
 24 50  1  0  0  0  0
 25 26  1  0  0  0  0
 25 51  1  0  0  0  0
 25 52  1  0  0  0  0
 26 27  1  0  0  0  0
 27 53  1  0  0  0  0
 27 54  1  0  0  0  0
M  END
> <s_m_source_file>
AV-unprocessed.smi

> <i_m_source_file_index>
166

> <i_lp_mmshare_version>
43012

> <i_f3d_flags>
0

> <s_epik_input>
W0NIMl0xT1tDSDJdW0NIMl1bQ0BAXTEoW09IXSlbQ0gyXW4oW2NIXW4yKWMoYzIzKW5bY0hdbmMzTjRbQ0gyXVtDSDJdW0NIMl1bQ0BIXShbQ0gyXTQpT1tDSDJdW0NIXTVbQ0gyXVtDSDJdNQ==

> <s_epik_cmdline>
J2VwaWtfcHl0aG9uJywgJy1waCcsICc3LjAnLCAnLXRuJywgJzgnLCAnLW1hJywgJzIwMCcsICctbWV0YWxfYmluZGluZycsICctaW1hZScsICc8aW5maWxlLm1hZT4nLCAnLW9tYWUnLCAnPG91dGZpbGUubWFlPic=

> <r_lp_tautomer_probability>
1

> <r_epik_Ionization_Penalty>
0.00342552

> <r_epik_Ionization_Penalty_Charging>
0

> <r_epik_Ionization_Penalty_Neutral>
0.00342552

> <r_epik_State_Penalty>
0.0022204

> <r_epik_Charging_Adjusted_Penalty>
0.0022204

> <i_epik_Tot_Q>
0

> <i_epik_Tot_abs_Q>
0

> <r_epik_Metal_State_Penalty>
-0

> <b_epik_Metal_Only>
0

> <s_lp_Force_Field>
OPLS_2005

> <r_lp_Energy>
44.6649

> <b_lp_Chiralities_Consistent>
1

> <s_lp_Variant>
AV-unprocessed.smi:166-2

> <Gold.Version>
5.8.1

> <Gold.Id.Protein>
6NUR|6NUR_protein|mol2

> <Gold.PLP.Fitness>
51.9773

> <Gold.PLP.PLP>
-44.4876

> <Gold.PLP.part.hbond>
-3.1041

> <Gold.PLP.part.metal>
0.0000

> <Gold.PLP.part.buried>
-8.2758

> <Gold.PLP.part.nonpolar>
-33.6020

> <Gold.PLP.part.repulsive>
0.0527

> <Gold.PLP.ligand.clash>
0.0000

> <Gold.PLP.ligand.torsion>
0.9349

> <Gold.PLP.Chemscore.Hbond>
2.7960

> <Gold.PLP.Chemscore.CHOScore>
0.0000

> <Gold.PLP.Chemscore.Metal>
0.0000

> <Gold.Chemscore.Hbonds>
donor molecule, donor type, donor heavy atom, donor atom, acceptor molecule, acceptor atom, score
      L1  H     1    28       P1  8028  1.00
      P1  H  7997  8009       L1    22  0.88
      P1  H 10752 10765       L1    20  0.87

> <Gold.PLP.Chemscore.Internal.Correction>
0.9715

> <Gold.Rescore>
     Score         DG    S(hbond)    S(metal)    S(lipo)     H(rot)  DE(clash)    DE(int)     intcor
     15.57     -17.80       2.18        0.00     101.85       2.68       1.27       0.96       ----

> <Gold.Chemscore.Fitness>
15.5742

> <Gold.Chemscore.DG>
-17.8048

> <Gold.Chemscore.ZeroCoef>
-5.4800

> <Gold.Chemscore.Hbond>
2.1777

> <Gold.Chemscore.Metal>
0.0000

> <Gold.Chemscore.Lipo>
101.8489

> <Gold.Chemscore.Internal_Hbond>
0.0000

> <Gold.Chemscore.DEClash>
1.2694

> <Gold.Chemscore.DEInternal>
0.9612

> <Gold.Chemscore.Rot>
2.6817

> <Gold.Chemscore.Internal.Correction>
   9.000000E+99

> <Gold.Chemscore.Hbonds>
donor molecule, donor type, donor heavy atom, donor atom, acceptor molecule, acceptor atom, score
      L1  H     1    28       P1  8028  0.60
      P1  H  7997  8009       L1    22  0.16
      P1  H 10752 10765       L1    20  0.49

> <Gold.Chemscore.Hbond.Weighted>
-7.2736

> <Gold.Chemscore.Metal.Weighted>
-0.0000

> <Gold.Chemscore.Lipo.Weighted>
-11.9163

> <Gold.Chemscore.Internal_Hbond.Weighted>
0.0000

> <Gold.Chemscore.DEClash.Weighted>
1.2694

> <Gold.Chemscore.DEInternal.Weighted>
0.9612

> <Gold.Chemscore.Rot.Weighted>
6.8651

> <Gold.Chemscore.Internal.Correction.Weighted>
   9.000000E+99

> <Gold.Protein.RotatedTorsions>
[ 6907 6896 6895 6894 ] final  126.74 input  -60.11 | X-H torsion
[ 7974 7965 7964 7962 ] final  -31.80 input  175.53 | X-H torsion
[ 8008 7997 7996 7995 ] final -168.19 input   59.86 | X-H torsion
[ 10167 10162 10161 10158 ] final -102.71 input  -65.29 | X-H torsion
[ 10718 10713 10712 10709 ] final  135.67 input   66.30 | X-H torsion
[ 10763 10752 10751 10750 ] final -166.69 input  -60.55 | X-H torsion
[ 11005 11000 10999 10996 ] final  177.30 input  -57.11 | X-H torsion

> <Gold.Protein.ActiveResidues>
 VAL166  LYS551  ARG553  GLY616  TRP617  ASP618  TYR619  PRO620  LYS621  CYS622 
 ASP623  PHE694  ASN695  SER759  ASP760  ASP761  ALA762  ILE779  LEU786  VAL792 
 PHE793  MET794  SER795  GLU796  ALA797  LYS798  CYS799  TRP800  GLU811  SER814 

> <Gold.Protein.RotatedAtoms>
  152.3876  133.6633  159.6210 H   0  0  0  0  0  0  0  0  0  0  0  0  # atno 6907 bound_to 6896
  150.7791  133.9009  159.3350 H   0  0  0  0  0  0  0  0  0  0  0  0  # atno 6908 bound_to 6896
  151.6802  135.0964  160.0266 H   0  0  0  0  0  0  0  0  0  0  0  0  # atno 6909 bound_to 6896
  146.1039  140.5712  142.8808 H   0  0  0  0  0  0  0  0  0  0  0  0  # atno 7974 bound_to 7965
  155.8881  140.1020  157.1438 H   0  0  0  0  0  0  0  0  0  0  0  0  # atno 8008 bound_to 7997
  154.4012  140.1316  156.4344 H   0  0  0  0  0  0  0  0  0  0  0  0  # atno 8009 bound_to 7997
  155.7566  140.3464  155.5179 H   0  0  0  0  0  0  0  0  0  0  0  0  # atno 8010 bound_to 7997
  140.2278  143.3629  152.0913 H   0  0  0  0  0  0  0  0  0  0  0  0  # atno 10167 bound_to 10162
  157.4547  131.1069  150.9992 H   0  0  0  0  0  0  0  0  0  0  0  0  # atno 10718 bound_to 10713
  154.6808  135.2954  154.9616 H   0  0  0  0  0  0  0  0  0  0  0  0  # atno 10763 bound_to 10752
  154.0612  135.6631  153.4816 H   0  0  0  0  0  0  0  0  0  0  0  0  # atno 10764 bound_to 10752
  153.0546  135.5152  154.7850 H   0  0  0  0  0  0  0  0  0  0  0  0  # atno 10765 bound_to 10752
  140.3826  134.6933  157.4460 H   0  0  0  0  0  0  0  0  0  0  0  0  # atno 11005 bound_to 11000
  144.7455  140.5057  143.6839 LP  0  0  0  0  0  0  0  0  0  0  0  0  # atno 17320 bound_to 7965
  145.5799  139.1488  143.3241 LP  0  0  0  0  0  0  0  0  0  0  0  0  # atno 17321 bound_to 7965
  139.5121  144.6911  151.5757 LP  0  0  0  0  0  0  0  0  0  0  0  0  # atno 17342 bound_to 10162
  140.6208  143.9263  150.6524 LP  0  0  0  0  0  0  0  0  0  0  0  0  # atno 17343 bound_to 10162
  157.0810  130.5903  149.5420 LP  0  0  0  0  0  0  0  0  0  0  0  0  # atno 17370 bound_to 10713
  156.0002  130.5079  150.7634 LP  0  0  0  0  0  0  0  0  0  0  0  0  # atno 17371 bound_to 10713
  140.0467  134.6189  155.8912 LP  0  0  0  0  0  0  0  0  0  0  0  0  # atno 17394 bound_to 11000
  141.1918  133.6573  156.5474 LP  0  0  0  0  0  0  0  0  0  0  0  0  # atno 17395 bound_to 11000

$$$$
