AV-unprocessed.smi:3252|AV-procd|sdf|12443|dock3
  -GOLD-   2272018333D 1   1.00000     0.00000
 Structure written by MMmdl.
 36 37  0  0  0  0  0  0  0  0  1 V2000
  154.0424  141.6110  160.6354 C   0  0  0  0  0  0  0  0  0  0  0  0
  152.7874  142.3397  161.1373 C   0  0  0  0  0  0  0  0  0  0  0  0
  151.9990  142.9981  160.0972 N   0  0  0  0  0  0  0  0  0  0  0  0
  152.7185  144.0978  159.4595 C   0  0  0  0  0  0  0  0  0  0  0  0
  151.8886  144.7535  158.3431 C   0  0  0  0  0  0  0  0  0  0  0  0
  151.5023  143.7651  157.3951 O   0  0  0  0  0  0  0  0  0  0  0  0
  150.7378  142.7071  157.9686 C   0  0  1  0  0  0  0  0  0  0  0  0
  150.3602  141.7018  156.8672 C   0  0  0  0  0  0  0  0  0  0  0  0
  149.0970  142.0349  156.2183 N   0  0  0  0  0  0  0  0  0  0  0  0
  148.5601  141.2297  155.2031 C   0  0  0  0  0  0  0  0  0  0  0  0
  149.2996  140.1075  154.7734 C   0  0  0  0  0  0  0  0  0  0  0  0
  148.7702  139.2936  153.7528 C   0  0  0  0  0  0  0  0  0  0  0  0
  147.5209  139.6306  153.1958 C   0  0  0  0  0  0  0  0  0  0  0  0
  146.9319  138.8225  152.1420 C   0  0  0  0  0  0  0  0  0  0  0  0
  146.4628  138.1785  151.3030 N   0  0  0  0  0  0  0  0  0  0  0  0
  146.8575  140.7732  153.6869 C   0  0  0  0  0  0  0  0  0  0  0  0
  147.3618  141.5579  154.6633 N   0  0  0  0  0  0  0  0  0  0  0  0
  151.5871  142.0451  159.0718 C   0  0  0  0  0  0  0  0  0  0  0  0
  154.6323  141.2436  161.4752 H   0  0  0  0  0  0  0  0  0  0  0  0
  154.6775  142.2780  160.0519 H   0  0  0  0  0  0  0  0  0  0  0  0
  153.7938  140.7506  160.0147 H   0  0  0  0  0  0  0  0  0  0  0  0
  152.1601  141.6426  161.6946 H   0  0  0  0  0  0  0  0  0  0  0  0
  153.1135  143.0904  161.8583 H   0  0  0  0  0  0  0  0  0  0  0  0
  152.9768  144.8590  160.1950 H   0  0  0  0  0  0  0  0  0  0  0  0
  153.6584  143.7326  159.0420 H   0  0  0  0  0  0  0  0  0  0  0  0
  151.0026  145.2404  158.7537 H   0  0  0  0  0  0  0  0  0  0  0  0
  152.4723  145.5229  157.8378 H   0  0  0  0  0  0  0  0  0  0  0  0
  149.8278  143.1150  158.4130 H   0  0  0  0  0  0  0  0  0  0  0  0
  151.1676  141.5954  156.1423 H   0  0  0  0  0  0  0  0  0  0  0  0
  150.2295  140.7167  157.3154 H   0  0  0  0  0  0  0  0  0  0  0  0
  148.7490  142.9771  156.3214 H   0  0  0  0  0  0  0  0  0  0  0  0
  150.2557  139.8700  155.2168 H   0  0  0  0  0  0  0  0  0  0  0  0
  149.3181  138.4284  153.4082 H   0  0  0  0  0  0  0  0  0  0  0  0
  145.8981  141.0711  153.2890 H   0  0  0  0  0  0  0  0  0  0  0  0
  152.4679  141.5825  158.6232 H   0  0  0  0  0  0  0  0  0  0  0  0
  151.0131  141.2393  159.5309 H   0  0  0  0  0  0  0  0  0  0  0  0
  1  2  1  0  0  0  0
  1 19  1  0  0  0  0
  1 20  1  0  0  0  0
  1 21  1  0  0  0  0
  2  3  1  0  0  0  0
  2 22  1  0  0  0  0
  2 23  1  0  0  0  0
  3 18  1  0  0  0  0
  3  4  1  0  0  0  0
  4  5  1  0  0  0  0
  4 24  1  0  0  0  0
  4 25  1  0  0  0  0
  5  6  1  0  0  0  0
  5 26  1  0  0  0  0
  5 27  1  0  0  0  0
  6  7  1  0  0  0  0
  7  8  1  0  0  0  0
  7 18  1  0  0  0  0
  7 28  1  0  0  0  0
  8  9  1  0  0  0  0
  8 29  1  0  0  0  0
  8 30  1  0  0  0  0
  9 10  1  0  0  0  0
  9 31  1  0  0  0  0
 10 17  1  0  0  0  0
 10 11  2  0  0  0  0
 11 12  1  0  0  0  0
 11 32  1  0  0  0  0
 12 13  2  0  0  0  0
 12 33  1  0  0  0  0
 13 14  1  0  0  0  0
 13 16  1  0  0  0  0
 14 15  3  0  0  0  0
 16 17  2  0  0  0  0
 16 34  1  0  0  0  0
 18 35  1  0  0  0  0
 18 36  1  0  0  0  0
M  END
> <s_m_source_file>
AV-unprocessed.smi

> <i_m_source_file_index>
3252

> <i_lp_mmshare_version>
43012

> <i_f3d_flags>
0

> <s_epik_input>
W0NIM11bQ0gyXU4xW0NIMl1bQ0gyXU9bQ0BIXShbQ0gyXTEpW0NIMl1bTkhdYzJbY0hdW2NIXWMoQyNOKVtjSF1uMg==

> <s_epik_cmdline>
J2VwaWtfcHl0aG9uJywgJy1waCcsICc3LjAnLCAnLXRuJywgJzgnLCAnLW1hJywgJzIwMCcsICctbWV0YWxfYmluZGluZycsICctaW1hZScsICc8aW5maWxlLm1hZT4nLCAnLW9tYWUnLCAnPG91dGZpbGUubWFlPic=

> <r_epik_Ionization_Penalty>
0.797836

> <r_epik_Ionization_Penalty_Charging>
0

> <r_epik_Ionization_Penalty_Neutral>
0.797836

> <r_epik_State_Penalty>
0.828842

> <r_epik_Charging_Adjusted_Penalty>
0.828842

> <i_epik_Tot_Q>
0

> <i_epik_Tot_abs_Q>
0

> <r_epik_Metal_State_Penalty>
0.828842

> <b_epik_Metal_Only>
0

> <s_lp_Force_Field>
OPLS_2005

> <r_lp_Energy>
23.221

> <b_lp_Chiralities_Consistent>
1

> <s_lp_Variant>
AV-unprocessed.smi:3252-5

> <Gold.Version>
5.8.1

> <Gold.Id.Protein>
6NUR|6NUR_protein|mol2

> <Gold.PLP.Fitness>
43.7346

> <Gold.PLP.PLP>
-35.8802

> <Gold.PLP.part.hbond>
-2.0000

> <Gold.PLP.part.metal>
0.0000

> <Gold.PLP.part.buried>
2.2602

> <Gold.PLP.part.nonpolar>
-37.9298

> <Gold.PLP.part.repulsive>
1.4242

> <Gold.PLP.ligand.clash>
0.0000

> <Gold.PLP.ligand.torsion>
0.3693

> <Gold.PLP.Chemscore.Hbond>
1.9833

> <Gold.PLP.Chemscore.CHOScore>
0.8773

> <Gold.PLP.Chemscore.Metal>
0.0000

> <Gold.Chemscore.Hbonds>
donor molecule, donor type, donor heavy atom, donor atom, acceptor molecule, acceptor atom, score
      L1  H     9    31       P1  8028  0.90
      P1  H  7954  7966       L1    15  0.50
      L1  C    16    34       P1 10175  1.00

> <Gold.PLP.Chemscore.Internal.Correction>
0.0115

> <Gold.Rescore>
     Score         DG    S(hbond)    S(metal)    S(lipo)     H(rot)  DE(clash)    DE(int)     intcor
     15.99     -16.55       0.99        0.00      97.61       1.43       0.15       0.41       ----

> <Gold.Chemscore.Fitness>
15.9888

> <Gold.Chemscore.DG>
-16.5528

> <Gold.Chemscore.ZeroCoef>
-5.4800

> <Gold.Chemscore.Hbond>
0.9943

> <Gold.Chemscore.Metal>
0.0000

> <Gold.Chemscore.Lipo>
97.6115

> <Gold.Chemscore.Internal_Hbond>
0.0000

> <Gold.Chemscore.DEClash>
0.1522

> <Gold.Chemscore.DEInternal>
0.4118

> <Gold.Chemscore.Rot>
1.4331

> <Gold.Chemscore.Internal.Correction>
   9.000000E+99

> <Gold.Chemscore.Hbonds>
donor molecule, donor type, donor heavy atom, donor atom, acceptor molecule, acceptor atom, score
      L1  H     9    31       P1  8028  0.87
      P1  H  7954  7966       L1    15  0.20

> <Gold.Chemscore.Hbond.Weighted>
-3.3211

> <Gold.Chemscore.Metal.Weighted>
-0.0000

> <Gold.Chemscore.Lipo.Weighted>
-11.4206

> <Gold.Chemscore.Internal_Hbond.Weighted>
0.0000

> <Gold.Chemscore.DEClash.Weighted>
0.1522

> <Gold.Chemscore.DEInternal.Weighted>
0.4118

> <Gold.Chemscore.Rot.Weighted>
3.6688

> <Gold.Chemscore.Internal.Correction.Weighted>
   9.000000E+99

> <Gold.Protein.RotatedTorsions>
[ 6907 6896 6895 6894 ] final  -74.18 input  -60.11 | X-H torsion
[ 7974 7965 7964 7962 ] final    8.68 input  175.53 | X-H torsion
[ 8008 7997 7996 7995 ] final -111.95 input   59.86 | X-H torsion
[ 10167 10162 10161 10158 ] final -116.88 input  -65.29 | X-H torsion
[ 10718 10713 10712 10709 ] final -104.89 input   66.30 | X-H torsion
[ 10763 10752 10751 10750 ] final -177.90 input  -60.55 | X-H torsion
[ 11005 11000 10999 10996 ] final  -85.56 input  -57.11 | X-H torsion

> <Gold.Protein.ActiveResidues>
 VAL166  LYS551  ARG553  GLY616  TRP617  ASP618  TYR619  PRO620  LYS621  CYS622 
 ASP623  PHE694  ASN695  SER759  ASP760  ASP761  ALA762  ILE779  LEU786  VAL792 
 PHE793  MET794  SER795  GLU796  ALA797  LYS798  CYS799  TRP800  GLU811  SER814 

> <Gold.Protein.RotatedAtoms>
  150.7102  134.4907  159.5513 H   0  0  0  0  0  0  0  0  0  0  0  0  # atno 6907 bound_to 6896
  152.2525  134.8115  160.0453 H   0  0  0  0  0  0  0  0  0  0  0  0  # atno 6908 bound_to 6896
  151.8858  133.3470  159.3818 H   0  0  0  0  0  0  0  0  0  0  0  0  # atno 6909 bound_to 6896
  146.2413  139.9896  142.8427 H   0  0  0  0  0  0  0  0  0  0  0  0  # atno 7974 bound_to 7965
  154.9977  140.0394  157.2346 H   0  0  0  0  0  0  0  0  0  0  0  0  # atno 8008 bound_to 7997
  154.7572  140.2778  155.6221 H   0  0  0  0  0  0  0  0  0  0  0  0  # atno 8009 bound_to 7997
  156.2897  140.2635  156.2341 H   0  0  0  0  0  0  0  0  0  0  0  0  # atno 8010 bound_to 7997
  140.0744  143.4847  152.1961 H   0  0  0  0  0  0  0  0  0  0  0  0  # atno 10167 bound_to 10162
  156.0323  130.5537  150.7461 H   0  0  0  0  0  0  0  0  0  0  0  0  # atno 10718 bound_to 10713
  154.5544  135.2815  155.0978 H   0  0  0  0  0  0  0  0  0  0  0  0  # atno 10763 bound_to 10752
  154.2411  135.6357  153.5211 H   0  0  0  0  0  0  0  0  0  0  0  0  # atno 10764 bound_to 10752
  153.0012  135.5560  154.6120 H   0  0  0  0  0  0  0  0  0  0  0  0  # atno 10765 bound_to 10752
  141.1640  133.7406  156.9033 H   0  0  0  0  0  0  0  0  0  0  0  0  # atno 11005 bound_to 11000
  145.1515  140.9625  143.4430 LP  0  0  0  0  0  0  0  0  0  0  0  0  # atno 17320 bound_to 7965
  145.0200  139.3432  143.6077 LP  0  0  0  0  0  0  0  0  0  0  0  0  # atno 17321 bound_to 7965
  139.5817  144.7513  151.3624 LP  0  0  0  0  0  0  0  0  0  0  0  0  # atno 17342 bound_to 10162
  140.7109  143.7392  150.7566 LP  0  0  0  0  0  0  0  0  0  0  0  0  # atno 17343 bound_to 10162
  157.5018  131.0919  151.0305 LP  0  0  0  0  0  0  0  0  0  0  0  0  # atno 17370 bound_to 10713
  157.0684  130.5854  149.5398 LP  0  0  0  0  0  0  0  0  0  0  0  0  # atno 17371 bound_to 10713
  140.1567  134.9193  157.2663 LP  0  0  0  0  0  0  0  0  0  0  0  0  # atno 17394 bound_to 11000
  140.2659  134.3517  155.7390 LP  0  0  0  0  0  0  0  0  0  0  0  0  # atno 17395 bound_to 11000

$$$$
