AV-unprocessed.smi:261|AV-procd|sdf|1996|dock2
  -GOLD-   2262021183D 1   1.00000     0.00000
 Structure written by MMmdl.
 51 54  0  0  0  0  0  0  0  0  1 V2000
  152.4989  140.5641  159.5381 C   0  0  0  0  0  0  0  0  0  0  0  0
  152.2705  139.2045  159.2050 O   0  0  0  0  0  0  0  0  0  0  0  0
  151.9685  139.0005  157.8325 C   0  0  2  0  0  0  0  0  0  0  0  0
  150.6437  139.6365  157.3999 C   0  0  0  0  0  0  0  0  0  0  0  0
  150.2003  138.8061  156.1836 C   0  0  1  0  0  0  0  0  0  0  0  0
  150.7260  139.3981  154.8639 C   0  0  0  0  0  0  0  0  0  0  0  0
  149.8354  139.5618  153.8831 N   0  0  0  0  0  0  0  0  0  0  0  0
  151.9074  139.7141  154.7314 O   0  0  0  0  0  0  0  0  0  0  0  0
  150.7680  137.4833  156.4554 N   0  0  0  0  0  0  0  0  0  0  0  0
  150.2934  136.3309  155.9068 C   0  0  0  0  0  0  0  0  0  0  0  0
  151.1065  135.2409  155.8913 N   0  0  0  0  0  0  0  0  0  0  0  0
  150.6908  134.0837  155.3705 C   0  0  0  0  0  0  0  0  0  0  0  0
  149.5133  133.7955  154.8165 N   0  0  0  0  0  0  0  0  0  0  0  0
  148.6883  134.8803  154.8243 C   0  0  0  0  0  0  0  0  0  0  0  0
  148.9914  136.1739  155.3416 C   0  0  0  0  0  0  0  0  0  0  0  0
  147.8924  137.0091  155.1635 N   0  0  0  0  0  0  0  0  0  0  0  0
  146.9990  136.2578  154.5816 C   0  0  0  0  0  0  0  0  0  0  0  0
  147.3936  134.9621  154.3456 N   0  0  0  0  0  0  0  0  0  0  0  0
  146.6090  133.9102  153.7229 C   0  0  0  0  0  0  0  0  0  0  0  0
  147.0601  133.6157  152.2759 C   0  0  1  0  0  0  0  0  0  0  0  0
  148.1833  132.7569  152.3334 O   0  0  0  0  0  0  0  0  0  0  0  0
  145.9730  132.9192  151.4333 C   0  0  1  0  0  0  0  0  0  0  0  0
  144.6685  133.7069  151.2925 C   0  0  0  0  0  0  0  0  0  0  0  0
  144.0653  133.1765  150.0023 C   0  0  0  0  0  0  0  0  0  0  0  0
  145.2458  132.5104  149.2924 C   0  0  0  0  0  0  0  0  0  0  0  0
  146.3838  132.8414  150.0762 O   0  0  0  0  0  0  0  0  0  0  0  0
  151.7359  137.5168  157.5436 C   0  0  0  0  0  0  0  0  0  0  0  0
  152.7812  139.3616  157.1992 H   0  0  0  0  0  0  0  0  0  0  0  0
  149.1097  138.7640  156.1567 H   0  0  0  0  0  0  0  0  0  0  0  0
  152.7530  140.6419  160.5951 H   0  0  0  0  0  0  0  0  0  0  0  0
  151.6128  141.1748  159.3630 H   0  0  0  0  0  0  0  0  0  0  0  0
  153.3287  140.9771  158.9631 H   0  0  0  0  0  0  0  0  0  0  0  0
  149.9074  139.5283  158.1978 H   0  0  0  0  0  0  0  0  0  0  0  0
  150.7382  140.7023  157.1873 H   0  0  0  0  0  0  0  0  0  0  0  0
  150.1258  139.9509  152.9980 H   0  0  0  0  0  0  0  0  0  0  0  0
  148.8719  139.2998  154.0332 H   0  0  0  0  0  0  0  0  0  0  0  0
  151.4035  133.2730  155.4038 H   0  0  0  0  0  0  0  0  0  0  0  0
  146.0205  136.6291  154.3135 H   0  0  0  0  0  0  0  0  0  0  0  0
  146.6819  133.0103  154.3355 H   0  0  0  0  0  0  0  0  0  0  0  0
  145.5637  134.2191  153.7463 H   0  0  0  0  0  0  0  0  0  0  0  0
  147.3555  134.5476  151.7921 H   0  0  0  0  0  0  0  0  0  0  0  0
  148.3872  132.4736  151.4551 H   0  0  0  0  0  0  0  0  0  0  0  0
  145.7594  131.9184  151.8148 H   0  0  0  0  0  0  0  0  0  0  0  0
  144.0052  133.5840  152.1492 H   0  0  0  0  0  0  0  0  0  0  0  0
  144.8831  134.7708  151.1820 H   0  0  0  0  0  0  0  0  0  0  0  0
  143.2797  132.4469  150.2021 H   0  0  0  0  0  0  0  0  0  0  0  0
  143.6335  133.9832  149.4093 H   0  0  0  0  0  0  0  0  0  0  0  0
  145.1223  131.4265  149.2755 H   0  0  0  0  0  0  0  0  0  0  0  0
  145.3662  132.8560  148.2655 H   0  0  0  0  0  0  0  0  0  0  0  0
  152.6709  137.0239  157.2766 H   0  0  0  0  0  0  0  0  0  0  0  0
  151.3103  137.0143  158.4134 H   0  0  0  0  0  0  0  0  0  0  0  0
  1  2  1  0  0  0  0
  1 30  1  0  0  0  0
  1 31  1  0  0  0  0
  1 32  1  0  0  0  0
  2  3  1  0  0  0  0
  3 28  1  0  0  0  0
  3 27  1  0  0  0  0
  3  4  1  0  0  0  0
  4  5  1  0  0  0  0
  4 33  1  0  0  0  0
  4 34  1  0  0  0  0
  5 29  1  0  0  0  0
  5  6  1  0  0  0  0
  5  9  1  0  0  0  0
  6  7  1  0  0  0  0
  6  8  2  0  0  0  0
  7 35  1  0  0  0  0
  7 36  1  0  0  0  0
  9 10  1  0  0  0  0
  9 27  1  0  0  0  0
 10 15  1  0  0  0  0
 10 11  2  0  0  0  0
 11 12  1  0  0  0  0
 12 13  2  0  0  0  0
 12 37  1  0  0  0  0
 13 14  1  0  0  0  0
 14 18  1  0  0  0  0
 14 15  2  0  0  0  0
 15 16  1  0  0  0  0
 16 17  2  0  0  0  0
 17 18  1  0  0  0  0
 17 38  1  0  0  0  0
 18 19  1  0  0  0  0
 19 20  1  0  0  0  0
 19 39  1  0  0  0  0
 19 40  1  0  0  0  0
 20 21  1  0  0  0  0
 20 22  1  0  0  0  0
 20 41  1  0  0  0  0
 21 42  1  0  0  0  0
 22 26  1  0  0  0  0
 22 23  1  0  0  0  0
 22 43  1  0  0  0  0
 23 24  1  0  0  0  0
 23 44  1  0  0  0  0
 23 45  1  0  0  0  0
 24 25  1  0  0  0  0
 24 46  1  0  0  0  0
 24 47  1  0  0  0  0
 25 26  1  0  0  0  0
 25 48  1  0  0  0  0
 25 49  1  0  0  0  0
 27 50  1  0  0  0  0
 27 51  1  0  0  0  0
M  END
> <s_m_source_file>
AV-unprocessed.smi

> <i_m_source_file_index>
261

> <i_lp_mmshare_version>
43012

> <i_f3d_flags>
0

> <s_epik_input>
W0NIM11PW0NASF0xW0NIMl1bQ0BASF0oQyg9TylbTkgyXSlOKFtDSDJdMSljKG5bY0hdbjIpYyhjMjMpbltjSF1uM1tDSDJdW0NASF0oW09IXSlbQ0BASF00W0NIMl1bQ0gyXVtDSDJdTzQ=

> <s_epik_cmdline>
J2VwaWtfcHl0aG9uJywgJy1waCcsICc3LjAnLCAnLXRuJywgJzgnLCAnLW1hJywgJzIwMCcsICctbWV0YWxfYmluZGluZycsICctaW1hZScsICc8aW5maWxlLm1hZT4nLCAnLW9tYWUnLCAnPG91dGZpbGUubWFlPic=

> <r_lp_tautomer_probability>
1

> <r_epik_Ionization_Penalty>
0.000713824

> <r_epik_Ionization_Penalty_Charging>
0

> <r_epik_Ionization_Penalty_Neutral>
0.000713824

> <r_epik_State_Penalty>
0.000402132

> <r_epik_Charging_Adjusted_Penalty>
0.000402132

> <i_epik_Tot_Q>
0

> <i_epik_Tot_abs_Q>
0

> <r_epik_Metal_State_Penalty>
-0

> <b_epik_Metal_Only>
0

> <s_lp_Force_Field>
OPLS_2005

> <r_lp_Energy>
41.8336

> <b_lp_Chiralities_Consistent>
1

> <s_lp_Variant>
AV-unprocessed.smi:261-14

> <Gold.Version>
5.8.1

> <Gold.Id.Protein>
6NUR|6NUR_protein|mol2

> <Gold.PLP.Fitness>
42.9613

> <Gold.PLP.PLP>
-32.8912

> <Gold.PLP.part.hbond>
-4.0000

> <Gold.PLP.part.metal>
0.0000

> <Gold.PLP.part.buried>
-9.0579

> <Gold.PLP.part.nonpolar>
-20.7489

> <Gold.PLP.part.repulsive>
1.5960

> <Gold.PLP.ligand.clash>
0.0000

> <Gold.PLP.ligand.torsion>
0.8663

> <Gold.PLP.Chemscore.Hbond>
3.8947

> <Gold.PLP.Chemscore.CHOScore>
0.0000

> <Gold.PLP.Chemscore.Metal>
0.0000

> <Gold.Chemscore.Hbonds>
donor molecule, donor type, donor heavy atom, donor atom, acceptor molecule, acceptor atom, score
      L1  H     7    35       P1  7957  0.85
      L1  H    21    42       P1 10747  0.82
      P1  H  7989  7998       L1     8  0.82
      P1  H 10752 10763       L1    11  0.62

> <Gold.PLP.Chemscore.Internal.Correction>
0.1186

> <Gold.Rescore>
     Score         DG    S(hbond)    S(metal)    S(lipo)     H(rot)  DE(clash)    DE(int)     intcor
     14.66     -16.19       3.34        0.00      65.86       3.18       0.10       1.43       ----

> <Gold.Chemscore.Fitness>
14.6569

> <Gold.Chemscore.DG>
-16.1903

> <Gold.Chemscore.ZeroCoef>
-5.4800

> <Gold.Chemscore.Hbond>
3.3394

> <Gold.Chemscore.Metal>
0.0000

> <Gold.Chemscore.Lipo>
65.8577

> <Gold.Chemscore.Internal_Hbond>
0.0000

> <Gold.Chemscore.DEClash>
0.0998

> <Gold.Chemscore.DEInternal>
1.4335

> <Gold.Chemscore.Rot>
3.1831

> <Gold.Chemscore.Internal.Correction>
   9.000000E+99

> <Gold.Chemscore.Hbonds>
donor molecule, donor type, donor heavy atom, donor atom, acceptor molecule, acceptor atom, score
      L1  H     7    35       P1  7957  0.83
      L1  H    21    42       P1 10747  0.77
      P1  H  7989  7998       L1     8  0.14
      P1  H 10752 10763       L1    11  0.14

> <Gold.Chemscore.Hbond.Weighted>
-11.1536

> <Gold.Chemscore.Metal.Weighted>
-0.0000

> <Gold.Chemscore.Lipo.Weighted>
-7.7053

> <Gold.Chemscore.Internal_Hbond.Weighted>
0.0000

> <Gold.Chemscore.DEClash.Weighted>
0.0998

> <Gold.Chemscore.DEInternal.Weighted>
1.4335

> <Gold.Chemscore.Rot.Weighted>
8.1486

> <Gold.Chemscore.Internal.Correction.Weighted>
   9.000000E+99

> <Gold.Protein.RotatedTorsions>
[ 6907 6896 6895 6894 ] final   -1.83 input  -60.11 | X-H torsion
[ 7974 7965 7964 7962 ] final -162.56 input  175.53 | X-H torsion
[ 8008 7997 7996 7995 ] final -104.04 input   59.86 | X-H torsion
[ 10167 10162 10161 10158 ] final  -83.87 input  -65.29 | X-H torsion
[ 10718 10713 10712 10709 ] final -112.61 input   66.30 | X-H torsion
[ 10763 10752 10751 10750 ] final   73.70 input  -60.55 | X-H torsion
[ 11005 11000 10999 10996 ] final -122.56 input  -57.11 | X-H torsion

> <Gold.Protein.ActiveResidues>
 VAL166  LYS551  ARG553  GLY616  TRP617  ASP618  TYR619  PRO620  LYS621  CYS622 
 ASP623  PHE694  ASN695  SER759  ASP760  ASP761  ALA762  ILE779  LEU786  VAL792 
 PHE793  MET794  SER795  GLU796  ALA797  LYS798  CYS799  TRP800  GLU811  SER814 

> <Gold.Protein.RotatedAtoms>
  151.5397  135.1068  159.9922 H   0  0  0  0  0  0  0  0  0  0  0  0  # atno 6907 bound_to 6896
  152.4541  133.7684  159.6796 H   0  0  0  0  0  0  0  0  0  0  0  0  # atno 6908 bound_to 6896
  150.8479  133.7767  159.3061 H   0  0  0  0  0  0  0  0  0  0  0  0  # atno 6909 bound_to 6896
  144.7353  140.3235  143.6166 H   0  0  0  0  0  0  0  0  0  0  0  0  # atno 7974 bound_to 7965
  154.8795  140.0420  157.1774 H   0  0  0  0  0  0  0  0  0  0  0  0  # atno 8008 bound_to 7997
  154.8654  140.2950  155.5493 H   0  0  0  0  0  0  0  0  0  0  0  0  # atno 8009 bound_to 7997
  156.2999  140.2439  156.3634 H   0  0  0  0  0  0  0  0  0  0  0  0  # atno 8010 bound_to 7997
  140.4186  143.2593  151.8920 H   0  0  0  0  0  0  0  0  0  0  0  0  # atno 10167 bound_to 10162
  156.0716  130.5929  150.8531 H   0  0  0  0  0  0  0  0  0  0  0  0  # atno 10718 bound_to 10713
  153.0538  135.5053  154.7933 H   0  0  0  0  0  0  0  0  0  0  0  0  # atno 10763 bound_to 10752
  154.6774  135.2962  154.9662 H   0  0  0  0  0  0  0  0  0  0  0  0  # atno 10764 bound_to 10752
  154.0460  135.6710  153.4848 H   0  0  0  0  0  0  0  0  0  0  0  0  # atno 10765 bound_to 10752
  140.9986  134.0436  157.3566 H   0  0  0  0  0  0  0  0  0  0  0  0  # atno 11005 bound_to 11000
  145.7545  139.1804  143.2302 LP  0  0  0  0  0  0  0  0  0  0  0  0  # atno 17320 bound_to 7965
  146.1035  140.7515  142.9538 LP  0  0  0  0  0  0  0  0  0  0  0  0  # atno 17321 bound_to 7965
  139.4782  144.5461  151.8456 LP  0  0  0  0  0  0  0  0  0  0  0  0  # atno 17342 bound_to 10162
  140.4559  144.1791  150.5901 LP  0  0  0  0  0  0  0  0  0  0  0  0  # atno 17343 bound_to 10162
  157.5790  131.0946  150.9301 LP  0  0  0  0  0  0  0  0  0  0  0  0  # atno 17370 bound_to 10713
  156.9501  130.5416  149.5282 LP  0  0  0  0  0  0  0  0  0  0  0  0  # atno 17371 bound_to 10713
  139.9027  135.0170  156.7344 LP  0  0  0  0  0  0  0  0  0  0  0  0  # atno 17394 bound_to 11000
  140.6926  133.9377  155.7975 LP  0  0  0  0  0  0  0  0  0  0  0  0  # atno 17395 bound_to 11000

$$$$
