AV-unprocessed.smi:2069|AV-procd|sdf|8432|dock7
  -GOLD-   2272011133D 1   1.00000     0.00000
 Structure written by MMmdl.
 38 39  0  0  0  0  0  0  0  0  1 V2000
  143.5478  132.4864  149.0859 C   0  0  0  0  0  0  0  0  0  0  0  0
  144.5402  133.2461  149.8984 C   0  0  0  0  0  0  0  0  0  0  0  0
  145.6170  132.6731  150.4498 N   0  0  0  0  0  0  0  0  0  0  0  0
  146.3922  133.5812  151.1574 N   0  0  0  0  0  0  0  0  0  0  0  0
  145.8760  134.8173  151.1172 C   0  0  0  0  0  0  0  0  0  0  0  0
  146.4655  135.9404  151.7558 N   0  0  0  0  0  0  0  0  0  0  0  0
  145.8558  136.9318  152.4294 C   0  0  0  0  0  0  0  0  0  0  0  0
  144.6411  137.0304  152.6044 O   0  0  0  0  0  0  0  0  0  0  0  0
  146.7477  137.8208  152.8920 N   0  0  0  0  0  0  0  0  0  0  0  0
  146.4330  139.0185  153.6683 C   0  0  0  0  0  0  0  0  0  0  0  0
  147.5023  140.1379  153.5197 C   0  0  1  0  0  0  0  0  0  0  0  0
  146.8048  141.5190  153.6108 C   0  0  0  0  0  0  0  0  0  0  0  0
  148.6254  140.0009  154.4772 N   0  0  0  0  0  0  0  0  0  0  0  0
  149.6156  139.0030  154.0548 C   0  0  0  0  0  0  0  0  0  0  0  0
  150.7965  138.8803  155.0337 C   0  0  0  0  0  0  0  0  0  0  0  0
  151.4189  140.1469  155.1961 O   0  0  0  0  0  0  0  0  0  0  0  0
  150.5119  141.1258  155.6832 C   0  0  0  0  0  0  0  0  0  0  0  0
  149.3306  141.2676  154.7078 C   0  0  0  0  0  0  0  0  0  0  0  0
  144.3859  134.9723  150.2017 S   0  0  0  0  0  0  0  0  0  0  0  0
  143.6647  131.4134  149.2415 H   0  0  0  0  0  0  0  0  0  0  0  0
  143.6888  132.7043  148.0273 H   0  0  0  0  0  0  0  0  0  0  0  0
  142.5347  132.7706  149.3709 H   0  0  0  0  0  0  0  0  0  0  0  0
  147.4712  135.9949  151.6923 H   0  0  0  0  0  0  0  0  0  0  0  0
  147.7240  137.6573  152.6944 H   0  0  0  0  0  0  0  0  0  0  0  0
  145.4461  139.4116  153.4184 H   0  0  0  0  0  0  0  0  0  0  0  0
  146.3701  138.6663  154.6961 H   0  0  0  0  0  0  0  0  0  0  0  0
  147.9104  140.0558  152.5110 H   0  0  0  0  0  0  0  0  0  0  0  0
  145.9588  141.6039  152.9301 H   0  0  0  0  0  0  0  0  0  0  0  0
  147.4675  142.3380  153.3355 H   0  0  0  0  0  0  0  0  0  0  0  0
  146.4344  141.7070  154.6191 H   0  0  0  0  0  0  0  0  0  0  0  0
  149.1633  138.0159  153.9849 H   0  0  0  0  0  0  0  0  0  0  0  0
  149.9923  139.2522  153.0617 H   0  0  0  0  0  0  0  0  0  0  0  0
  150.4586  138.5051  156.0009 H   0  0  0  0  0  0  0  0  0  0  0  0
  151.5307  138.1697  154.6538 H   0  0  0  0  0  0  0  0  0  0  0  0
  150.1610  140.8464  156.6778 H   0  0  0  0  0  0  0  0  0  0  0  0
  151.0350  142.0768  155.7845 H   0  0  0  0  0  0  0  0  0  0  0  0
  149.6912  141.6691  153.7596 H   0  0  0  0  0  0  0  0  0  0  0  0
  148.6579  142.0107  155.1318 H   0  0  0  0  0  0  0  0  0  0  0  0
  1  2  1  0  0  0  0
  1 20  1  0  0  0  0
  1 21  1  0  0  0  0
  1 22  1  0  0  0  0
  2 19  1  0  0  0  0
  2  3  2  0  0  0  0
  3  4  1  0  0  0  0
  4  5  2  0  0  0  0
  5  6  1  0  0  0  0
  5 19  1  0  0  0  0
  6  7  1  0  0  0  0
  6 23  1  0  0  0  0
  7  8  2  0  0  0  0
  7  9  1  0  0  0  0
  9 10  1  0  0  0  0
  9 24  1  0  0  0  0
 10 11  1  0  0  0  0
 10 25  1  0  0  0  0
 10 26  1  0  0  0  0
 11 12  1  0  0  0  0
 11 13  1  0  0  0  0
 11 27  1  0  0  0  0
 12 28  1  0  0  0  0
 12 29  1  0  0  0  0
 12 30  1  0  0  0  0
 13 18  1  0  0  0  0
 13 14  1  0  0  0  0
 14 15  1  0  0  0  0
 14 31  1  0  0  0  0
 14 32  1  0  0  0  0
 15 16  1  0  0  0  0
 15 33  1  0  0  0  0
 15 34  1  0  0  0  0
 16 17  1  0  0  0  0
 17 18  1  0  0  0  0
 17 35  1  0  0  0  0
 17 36  1  0  0  0  0
 18 37  1  0  0  0  0
 18 38  1  0  0  0  0
M  END
> <s_m_source_file>
AV-unprocessed.smi

> <i_m_source_file_index>
2069

> <i_lp_mmshare_version>
43012

> <i_f3d_flags>
0

> <s_epik_input>
W0NIM11jMW5uYyhzMSlbTkhdQyg9TylbTkhdW0NIMl1bQ0BIXShbQ0gzXSlOMltDSDJdW0NIMl1PW0NIMl1bQ0gyXTI=

> <s_epik_cmdline>
J2VwaWtfcHl0aG9uJywgJy1waCcsICc3LjAnLCAnLXRuJywgJzgnLCAnLW1hJywgJzIwMCcsICctbWV0YWxfYmluZGluZycsICctaW1hZScsICc8aW5maWxlLm1hZT4nLCAnLW9tYWUnLCAnPG91dGZpbGUubWFlPic=

> <r_lp_tautomer_probability>
1

> <r_epik_Ionization_Penalty>
0.221104

> <r_epik_Ionization_Penalty_Charging>
0

> <r_epik_Ionization_Penalty_Neutral>
0.221104

> <r_epik_State_Penalty>
0.209349

> <r_epik_Charging_Adjusted_Penalty>
0.209349

> <i_epik_Tot_Q>
0

> <i_epik_Tot_abs_Q>
0

> <r_epik_Metal_State_Penalty>
0.561068

> <b_epik_Metal_Only>
0

> <s_lp_Force_Field>
OPLS_2005

> <r_lp_Energy>
28.2693

> <b_lp_Chiralities_Consistent>
1

> <s_lp_Variant>
AV-unprocessed.smi:2069-2

> <Gold.Version>
5.8.1

> <Gold.Id.Protein>
6NUR|6NUR_protein|mol2

> <Gold.PLP.Fitness>
37.7653

> <Gold.PLP.PLP>
-32.8578

> <Gold.PLP.part.hbond>
-2.8108

> <Gold.PLP.part.metal>
0.0000

> <Gold.PLP.part.buried>
-1.7436

> <Gold.PLP.part.nonpolar>
-28.5227

> <Gold.PLP.part.repulsive>
0.7710

> <Gold.PLP.ligand.clash>
0.0000

> <Gold.PLP.ligand.torsion>
1.3558

> <Gold.PLP.Chemscore.Hbond>
2.5303

> <Gold.PLP.Chemscore.CHOScore>
0.0000

> <Gold.PLP.Chemscore.Metal>
0.0000

> <Gold.Chemscore.Hbonds>
donor molecule, donor type, donor heavy atom, donor atom, acceptor molecule, acceptor atom, score
      L1  H     6    23       P1  7948  0.86
      L1  H     9    24       P1  7948  0.78
      P1  H  7989  7998       L1    16  0.85

> <Gold.PLP.Chemscore.Internal.Correction>
0.0282

> <Gold.Rescore>
     Score         DG    S(hbond)    S(metal)    S(lipo)     H(rot)  DE(clash)    DE(int)     intcor
     14.80     -16.10       1.75        0.00      75.82       1.60       0.01       1.29       ----

> <Gold.Chemscore.Fitness>
14.8012

> <Gold.Chemscore.DG>
-16.0979

> <Gold.Chemscore.ZeroCoef>
-5.4800

> <Gold.Chemscore.Hbond>
1.7507

> <Gold.Chemscore.Metal>
0.0000

> <Gold.Chemscore.Lipo>
75.8189

> <Gold.Chemscore.Internal_Hbond>
0.0000

> <Gold.Chemscore.DEClash>
0.0068

> <Gold.Chemscore.DEInternal>
1.2899

> <Gold.Chemscore.Rot>
1.6016

> <Gold.Chemscore.Internal.Correction>
   9.000000E+99

> <Gold.Chemscore.Hbonds>
donor molecule, donor type, donor heavy atom, donor atom, acceptor molecule, acceptor atom, score
      L1  H     6    23       P1  7948  0.84
      L1  H     9    24       P1  7948  0.74
      P1  H  7989  7998       L1    16  0.09

> <Gold.Chemscore.Hbond.Weighted>
-5.8472

> <Gold.Chemscore.Metal.Weighted>
-0.0000

> <Gold.Chemscore.Lipo.Weighted>
-8.8708

> <Gold.Chemscore.Internal_Hbond.Weighted>
0.0000

> <Gold.Chemscore.DEClash.Weighted>
0.0068

> <Gold.Chemscore.DEInternal.Weighted>
1.2899

> <Gold.Chemscore.Rot.Weighted>
4.1001

> <Gold.Chemscore.Internal.Correction.Weighted>
   9.000000E+99

> <Gold.Protein.RotatedTorsions>
[ 6907 6896 6895 6894 ] final -177.97 input  -60.11 | X-H torsion
[ 7974 7965 7964 7962 ] final   15.50 input  175.53 | X-H torsion
[ 8008 7997 7996 7995 ] final  -51.63 input   59.86 | X-H torsion
[ 10167 10162 10161 10158 ] final  110.78 input  -65.29 | X-H torsion
[ 10718 10713 10712 10709 ] final  -37.66 input   66.30 | X-H torsion
[ 10763 10752 10751 10750 ] final  -62.73 input  -60.55 | X-H torsion
[ 11005 11000 10999 10996 ] final   38.11 input  -57.11 | X-H torsion

> <Gold.Protein.ActiveResidues>
 VAL166  LYS551  ARG553  GLY616  TRP617  ASP618  TYR619  PRO620  LYS621  CYS622 
 ASP623  PHE694  ASN695  SER759  ASP760  ASP761  ALA762  ILE779  LEU786  VAL792 
 PHE793  MET794  SER795  GLU796  ALA797  LYS798  CYS799  TRP800  GLU811  SER814 

> <Gold.Protein.RotatedAtoms>
  151.6296  133.3333  159.3105 H   0  0  0  0  0  0  0  0  0  0  0  0  # atno 6907 bound_to 6896
  150.8063  134.7194  159.6659 H   0  0  0  0  0  0  0  0  0  0  0  0  # atno 6908 bound_to 6896
  152.4159  134.6047  160.0061 H   0  0  0  0  0  0  0  0  0  0  0  0  # atno 6909 bound_to 6896
  146.2277  139.8886  142.8558 H   0  0  0  0  0  0  0  0  0  0  0  0  # atno 7974 bound_to 7965
  154.4087  140.1243  156.4859 H   0  0  0  0  0  0  0  0  0  0  0  0  # atno 8008 bound_to 7997
  155.7038  140.3494  155.4925 H   0  0  0  0  0  0  0  0  0  0  0  0  # atno 8009 bound_to 7997
  155.9361  140.1078  157.1083 H   0  0  0  0  0  0  0  0  0  0  0  0  # atno 8010 bound_to 7997
  139.6662  144.7127  151.1773 H   0  0  0  0  0  0  0  0  0  0  0  0  # atno 10167 bound_to 10162
  156.3126  130.4254  149.8035 H   0  0  0  0  0  0  0  0  0  0  0  0  # atno 10718 bound_to 10713
  154.3043  135.6228  153.5438 H   0  0  0  0  0  0  0  0  0  0  0  0  # atno 10763 bound_to 10752
  152.9837  135.5686  154.5249 H   0  0  0  0  0  0  0  0  0  0  0  0  # atno 10764 bound_to 10752
  154.4886  135.2866  155.1491 H   0  0  0  0  0  0  0  0  0  0  0  0  # atno 10765 bound_to 10752
  140.2159  134.3700  155.8027 H   0  0  0  0  0  0  0  0  0  0  0  0  # atno 11005 bound_to 11000
  145.2441  141.0020  143.3919 LP  0  0  0  0  0  0  0  0  0  0  0  0  # atno 17320 bound_to 7965
  144.9428  139.4170  143.6440 LP  0  0  0  0  0  0  0  0  0  0  0  0  # atno 17321 bound_to 7965
  140.7600  143.5916  150.8791 LP  0  0  0  0  0  0  0  0  0  0  0  0  # atno 17342 bound_to 10162
  139.9577  143.6199  152.3011 LP  0  0  0  0  0  0  0  0  0  0  0  0  # atno 17343 bound_to 10162
  156.5373  130.8284  151.3257 LP  0  0  0  0  0  0  0  0  0  0  0  0  # atno 17370 bound_to 10713
  157.7394  130.9831  150.2314 LP  0  0  0  0  0  0  0  0  0  0  0  0  # atno 17371 bound_to 10713
  141.2225  133.7167  156.8495 LP  0  0  0  0  0  0  0  0  0  0  0  0  # atno 17394 bound_to 11000
  140.1901  134.8971  157.3051 LP  0  0  0  0  0  0  0  0  0  0  0  0  # atno 17395 bound_to 11000

$$$$
