AV-unprocessed.smi:1005|AV-procd|sdf|4382|dock1
  -GOLD-   22720 2303D 1   1.00000     0.00000
 Structure written by MMmdl.
 58 60  0  0  0  0  0  0  0  0  4 V2000
  152.5679  143.8026  160.3163 C   0  0  0  0  0  0  0  0  0  0  0  0
  152.2104  142.8501  159.1882 C   0  0  0  0  0  0  0  0  0  0  0  0
  151.2497  143.2617  158.2369 C   0  0  0  0  0  0  0  0  0  0  0  0
  150.9457  142.3699  157.2154 C   0  0  0  0  0  0  0  0  0  0  0  0
  150.0592  142.4746  156.1414 N   0  3  0  0  0  0  0  0  0  0  0  0
  150.1082  141.3343  155.3983 C   0  0  0  0  0  0  0  0  0  0  0  0
  151.0158  140.5038  155.9809 N   0  0  0  0  0  0  0  0  0  0  0  0
  151.4555  139.1577  155.5897 C   0  0  0  0  0  0  0  0  0  0  0  0
  150.3480  138.0964  155.7456 C   0  0  2  0  0  0  0  0  0  0  0  0
  149.9700  138.0135  157.1063 O   0  0  0  0  0  0  0  0  0  0  0  0
  150.8110  136.7052  155.2693 C   0  0  0  0  0  0  0  0  0  0  0  0
  149.6895  135.8911  154.7267 N   0  3  1  0  0  0  0  0  0  0  0  0
  150.0451  134.4882  154.3925 C   0  0  0  0  0  0  0  0  0  0  0  0
  150.0972  133.6032  155.6520 C   0  0  0  0  0  0  0  0  0  0  0  0
  148.8656  133.6964  156.3572 O   0  0  0  0  0  0  0  0  0  0  0  0
  148.5838  135.0208  156.7988 C   0  0  2  0  0  0  0  0  0  0  0  0
  147.2717  134.9791  157.6046 C   0  0  0  0  0  0  0  0  0  0  0  0
  147.4723  134.5324  159.0073 N   0  3  0  0  0  0  0  0  0  0  0  0
  148.0831  133.1872  159.1140 C   0  0  0  0  0  0  0  0  0  0  0  0
  148.2148  135.5298  159.8095 C   0  0  0  0  0  0  0  0  0  0  0  0
  148.4608  135.9315  155.5581 C   0  0  0  0  0  0  0  0  0  0  0  0
  151.5601  141.1062  157.1202 C   0  0  0  0  0  0  0  0  0  0  0  0
  152.5057  140.6830  158.0508 C   0  0  0  0  0  0  0  0  0  0  0  0
  152.8301  141.5768  159.0964 C   0  0  0  0  0  0  0  0  0  0  0  0
  153.8621  141.1453  160.1245 C   0  0  0  0  0  0  0  0  0  0  0  0
  152.0192  144.7414  160.2353 H   0  0  0  0  0  0  0  0  0  0  0  0
  153.6325  144.0368  160.2972 H   0  0  0  0  0  0  0  0  0  0  0  0
  152.3277  143.3585  161.2826 H   0  0  0  0  0  0  0  0  0  0  0  0
  150.7733  144.2292  158.3011 H   0  0  0  0  0  0  0  0  0  0  0  0
  149.5335  141.1292  154.5065 H   0  0  0  0  0  0  0  0  0  0  0  0
  151.8132  139.2015  154.5601 H   0  0  0  0  0  0  0  0  0  0  0  0
  152.3183  138.9021  156.2068 H   0  0  0  0  0  0  0  0  0  0  0  0
  149.4761  138.4168  155.1769 H   0  0  0  0  0  0  0  0  0  0  0  0
  150.6804  137.6296  157.5978 H   0  0  0  0  0  0  0  0  0  0  0  0
  151.5933  136.8050  154.5169 H   0  0  0  0  0  0  0  0  0  0  0  0
  151.2716  136.1877  156.1123 H   0  0  0  0  0  0  0  0  0  0  0  0
  149.2832  134.0993  153.7156 H   0  0  0  0  0  0  0  0  0  0  0  0
  150.9877  134.4350  153.8493 H   0  0  0  0  0  0  0  0  0  0  0  0
  150.2592  132.5630  155.3687 H   0  0  0  0  0  0  0  0  0  0  0  0
  150.9260  133.8814  156.3037 H   0  0  0  0  0  0  0  0  0  0  0  0
  149.3974  135.3795  157.4298 H   0  0  0  0  0  0  0  0  0  0  0  0
  146.7872  135.9569  157.6028 H   0  0  0  0  0  0  0  0  0  0  0  0
  146.5843  134.2981  157.1001 H   0  0  0  0  0  0  0  0  0  0  0  0
  149.0779  133.1731  158.6667 H   0  0  0  0  0  0  0  0  0  0  0  0
  147.4756  132.4300  158.6200 H   0  0  0  0  0  0  0  0  0  0  0  0
  148.1790  132.8923  160.1596 H   0  0  0  0  0  0  0  0  0  0  0  0
  149.2206  135.6791  159.4152 H   0  0  0  0  0  0  0  0  0  0  0  0
  148.2984  135.2064  160.8477 H   0  0  0  0  0  0  0  0  0  0  0  0
  147.6990  136.4906  159.8069 H   0  0  0  0  0  0  0  0  0  0  0  0
  148.2308  136.9576  155.8472 H   0  0  0  0  0  0  0  0  0  0  0  0
  147.6248  135.5963  154.9423 H   0  0  0  0  0  0  0  0  0  0  0  0
  152.9770  139.7142  157.9814 H   0  0  0  0  0  0  0  0  0  0  0  0
  154.2290  140.1381  159.9240 H   0  0  0  0  0  0  0  0  0  0  0  0
  153.4313  141.1487  161.1260 H   0  0  0  0  0  0  0  0  0  0  0  0
  154.7186  141.8199  160.1129 H   0  0  0  0  0  0  0  0  0  0  0  0
  146.5543  134.4736  159.4255 H   0  0  0  0  0  0  0  0  0  0  0  0
  149.4454  136.3416  153.8553 H   0  0  0  0  0  0  0  0  0  0  0  0
  149.4641  143.2650  155.9282 H   0  0  0  0  0  0  0  0  0  0  0  0
  1  2  1  0  0  0  0
  1 26  1  0  0  0  0
  1 27  1  0  0  0  0
  1 28  1  0  0  0  0
  2 24  1  0  0  0  0
  2  3  2  0  0  0  0
  3  4  1  0  0  0  0
  3 29  1  0  0  0  0
  4 22  2  0  0  0  0
  4  5  1  0  0  0  0
  5  6  2  0  0  0  0
  5 58  1  0  0  0  0
  6  7  1  0  0  0  0
  6 30  1  0  0  0  0
  7  8  1  0  0  0  0
  7 22  1  0  0  0  0
  8  9  1  0  0  0  0
  8 31  1  0  0  0  0
  8 32  1  0  0  0  0
  9 10  1  0  0  0  0
  9 11  1  0  0  0  0
  9 33  1  0  0  0  0
 10 34  1  0  0  0  0
 11 12  1  0  0  0  0
 11 35  1  0  0  0  0
 11 36  1  0  0  0  0
 12 21  1  0  0  0  0
 12 13  1  0  0  0  0
 12 57  1  0  0  0  0
 13 14  1  0  0  0  0
 13 37  1  0  0  0  0
 13 38  1  0  0  0  0
 14 15  1  0  0  0  0
 14 39  1  0  0  0  0
 14 40  1  0  0  0  0
 15 16  1  0  0  0  0
 16 17  1  0  0  0  0
 16 21  1  0  0  0  0
 16 41  1  0  0  0  0
 17 18  1  0  0  0  0
 17 42  1  0  0  0  0
 17 43  1  0  0  0  0
 18 19  1  0  0  0  0
 18 20  1  0  0  0  0
 18 56  1  0  0  0  0
 19 44  1  0  0  0  0
 19 45  1  0  0  0  0
 19 46  1  0  0  0  0
 20 47  1  0  0  0  0
 20 48  1  0  0  0  0
 20 49  1  0  0  0  0
 21 50  1  0  0  0  0
 21 51  1  0  0  0  0
 22 23  1  0  0  0  0
 23 24  2  0  0  0  0
 23 52  1  0  0  0  0
 24 25  1  0  0  0  0
 25 53  1  0  0  0  0
 25 54  1  0  0  0  0
 25 55  1  0  0  0  0
M  CHG  1   5   1
M  CHG  1  12   1
M  CHG  1  18   1
M  END
> <s_m_source_file>
AV-unprocessed.smi

> <i_m_source_file_index>
1005

> <i_lp_mmshare_version>
43012

> <i_f3d_flags>
0

> <s_epik_input>
W0NIM11jKFtjSF0xKWMoW0NIM10pW2NIXWMoYzEyKW4oW2NIXW4yKVtDSDJdW0NASF0oW09IXSlbQ0gyXU4zW0NIMl1bQ0gyXU9bQ0BIXShbQ0gyXTMpW0NIMl1OKFtDSDNdKVtDSDNd

> <s_epik_cmdline>
J2VwaWtfcHl0aG9uJywgJy1waCcsICc3LjAnLCAnLXRuJywgJzgnLCAnLW1hJywgJzIwMCcsICctbWV0YWxfYmluZGluZycsICctaW1hZScsICc8aW5maWxlLm1hZT4nLCAnLW9tYWUnLCAnPG91dGZpbGUubWFlPic=

> <r_epik_Ionization_Penalty>
2.30802

> <r_epik_Ionization_Penalty_Charging>
2.30798

> <r_epik_Ionization_Penalty_Neutral>
3.4851e-05

> <r_epik_State_Penalty>
2.52618

> <r_epik_Charging_Adjusted_Penalty>
4.83416

> <i_epik_Tot_Q>
3

> <i_epik_Tot_abs_Q>
3

> <r_epik_Metal_State_Penalty>
6.53149

> <b_epik_Metal_Only>
0

> <s_lp_Force_Field>
OPLS_2005

> <r_lp_Energy>
46.1367

> <b_lp_Chiralities_Consistent>
1

> <s_lp_Variant>
AV-unprocessed.smi:1005-21

> <Gold.Version>
5.8.1

> <Gold.Id.Protein>
6NUR|6NUR_protein|mol2

> <Gold.PLP.Fitness>
50.8679

> <Gold.PLP.PLP>
-40.0809

> <Gold.PLP.part.hbond>
-2.0000

> <Gold.PLP.part.metal>
0.0000

> <Gold.PLP.part.buried>
-3.9719

> <Gold.PLP.part.nonpolar>
-31.9250

> <Gold.PLP.part.repulsive>
0.2102

> <Gold.PLP.ligand.clash>
0.0000

> <Gold.PLP.ligand.torsion>
0.7269

> <Gold.PLP.Chemscore.Hbond>
4.0000

> <Gold.PLP.Chemscore.CHOScore>
0.0000

> <Gold.PLP.Chemscore.Metal>
0.0000

> <Gold.Chemscore.Hbonds>
donor molecule, donor type, donor heavy atom, donor atom, acceptor molecule, acceptor atom, score
      L1  H     5    58       P1  8028  2.00
      L1  H    12    57       P1  7948  1.98

> <Gold.PLP.Chemscore.Internal.Correction>
0.2409

> <Gold.Rescore>
     Score         DG    S(hbond)    S(metal)    S(lipo)     H(rot)  DE(clash)    DE(int)     intcor
     15.30     -18.03       1.84        0.00     110.60       2.56       0.27       2.45       ----

> <Gold.Chemscore.Fitness>
15.3046

> <Gold.Chemscore.DG>
-18.0286

> <Gold.Chemscore.ZeroCoef>
-5.4800

> <Gold.Chemscore.Hbond>
1.8423

> <Gold.Chemscore.Metal>
0.0000

> <Gold.Chemscore.Lipo>
110.6019

> <Gold.Chemscore.Internal_Hbond>
0.0000

> <Gold.Chemscore.DEClash>
0.2709

> <Gold.Chemscore.DEInternal>
2.4531

> <Gold.Chemscore.Rot>
2.5566

> <Gold.Chemscore.Internal.Correction>
   9.000000E+99

> <Gold.Chemscore.Hbonds>
donor molecule, donor type, donor heavy atom, donor atom, acceptor molecule, acceptor atom, score
      L1  H     5    58       P1  8028  0.98
      L1  H    12    57       P1  7948  0.69

> <Gold.Chemscore.Hbond.Weighted>
-6.1532

> <Gold.Chemscore.Metal.Weighted>
-0.0000

> <Gold.Chemscore.Lipo.Weighted>
-12.9404

> <Gold.Chemscore.Internal_Hbond.Weighted>
0.0000

> <Gold.Chemscore.DEClash.Weighted>
0.2709

> <Gold.Chemscore.DEInternal.Weighted>
2.4531

> <Gold.Chemscore.Rot.Weighted>
6.5450

> <Gold.Chemscore.Internal.Correction.Weighted>
   9.000000E+99

> <Gold.Protein.RotatedTorsions>
[ 6907 6896 6895 6894 ] final  169.20 input  -60.11 | X-H torsion
[ 7974 7965 7964 7962 ] final  -31.29 input  175.53 | X-H torsion
[ 8008 7997 7996 7995 ] final   27.80 input   59.86 | X-H torsion
[ 10167 10162 10161 10158 ] final   94.16 input  -65.29 | X-H torsion
[ 10718 10713 10712 10709 ] final  -97.51 input   66.30 | X-H torsion
[ 10763 10752 10751 10750 ] final  174.71 input  -60.55 | X-H torsion
[ 11005 11000 10999 10996 ] final  -85.43 input  -57.11 | X-H torsion

> <Gold.Protein.ActiveResidues>
 VAL166  LYS551  ARG553  GLY616  TRP617  ASP618  TYR619  PRO620  LYS621  CYS622 
 ASP623  PHE694  ASN695  SER759  ASP760  ASP761  ALA762  ILE779  LEU786  VAL792 
 PHE793  MET794  SER795  GLU796  ALA797  LYS798  CYS799  TRP800  GLU811  SER814 

> <Gold.Protein.RotatedAtoms>
  151.8356  133.3415  159.3626 H   0  0  0  0  0  0  0  0  0  0  0  0  # atno 6907 bound_to 6896
  150.7250  134.5440  159.5771 H   0  0  0  0  0  0  0  0  0  0  0  0  # atno 6908 bound_to 6896
  152.2903  134.7730  160.0430 H   0  0  0  0  0  0  0  0  0  0  0  0  # atno 6909 bound_to 6896
  146.1078  140.5649  142.8791 H   0  0  0  0  0  0  0  0  0  0  0  0  # atno 7974 bound_to 7965
  155.0486  140.3177  155.4700 H   0  0  0  0  0  0  0  0  0  0  0  0  # atno 8008 bound_to 7997
  156.2839  140.2150  156.5554 H   0  0  0  0  0  0  0  0  0  0  0  0  # atno 8009 bound_to 7997
  154.7230  140.0488  157.0644 H   0  0  0  0  0  0  0  0  0  0  0  0  # atno 8010 bound_to 7997
  139.8110  144.6773  150.9640 H   0  0  0  0  0  0  0  0  0  0  0  0  # atno 10167 bound_to 10162
  156.0085  130.5197  150.6385 H   0  0  0  0  0  0  0  0  0  0  0  0  # atno 10718 bound_to 10713
  154.4576  135.2766  155.1736 H   0  0  0  0  0  0  0  0  0  0  0  0  # atno 10763 bound_to 10752
  154.3537  135.6144  153.5659 H   0  0  0  0  0  0  0  0  0  0  0  0  # atno 10764 bound_to 10752
  152.9852  135.5817  154.4933 H   0  0  0  0  0  0  0  0  0  0  0  0  # atno 10765 bound_to 10752
  141.1641  133.7399  156.9014 H   0  0  0  0  0  0  0  0  0  0  0  0  # atno 11005 bound_to 11000
  144.7486  140.5132  143.6818 LP  0  0  0  0  0  0  0  0  0  0  0  0  # atno 17320 bound_to 7965
  145.5725  139.1484  143.3280 LP  0  0  0  0  0  0  0  0  0  0  0  0  # atno 17321 bound_to 7965
  140.7818  143.4185  151.0879 LP  0  0  0  0  0  0  0  0  0  0  0  0  # atno 17342 bound_to 10162
  139.7851  143.8299  152.3143 LP  0  0  0  0  0  0  0  0  0  0  0  0  # atno 17343 bound_to 10162
  157.4169  131.0831  151.1168 LP  0  0  0  0  0  0  0  0  0  0  0  0  # atno 17370 bound_to 10713
  157.1782  130.6297  149.5663 LP  0  0  0  0  0  0  0  0  0  0  0  0  # atno 17371 bound_to 10713
  140.1580  134.9185  157.2678 LP  0  0  0  0  0  0  0  0  0  0  0  0  # atno 17394 bound_to 11000
  140.2645  134.3533  155.7395 LP  0  0  0  0  0  0  0  0  0  0  0  0  # atno 17395 bound_to 11000

$$$$
