AV-unprocessed.smi:287|AV-procd|sdf|2197|dock5
  -GOLD-   2262022 03D 1   1.00000     0.00000
 Structure written by MMmdl.
 55 58  0  0  0  0  0  0  0  0  1 V2000
  147.1582  136.3844  162.7066 C   0  0  0  0  0  0  0  0  0  0  0  0
  147.6234  136.1363  161.3128 C   0  0  0  0  0  0  0  0  0  0  0  0
  147.6551  135.0331  160.5107 C   0  0  0  0  0  0  0  0  0  0  0  0
  148.2297  135.4272  159.2655 C   0  0  0  0  0  0  0  0  0  0  0  0
  148.4677  134.5186  158.0665 C   0  0  1  0  0  0  0  0  0  0  0  0
  149.1033  135.3211  156.9190 C   0  0  0  0  0  0  0  0  0  0  0  0
  149.3800  133.4725  158.3393 O   0  0  0  0  0  0  0  0  0  0  0  0
  147.1683  133.8367  157.5820 C   0  0  0  0  0  0  0  0  0  0  0  0
  147.3790  132.4623  157.1456 N   0  0  0  0  0  0  0  0  0  0  0  0
  147.4957  132.1577  155.8363 C   0  0  0  0  0  0  0  0  0  0  0  0
  148.4262  131.2197  155.5383 N   0  0  0  0  0  0  0  0  0  0  0  0
  148.6199  130.8430  154.2715 C   0  0  0  0  0  0  0  0  0  0  0  0
  148.0017  131.2723  153.1700 N   0  0  0  0  0  0  0  0  0  0  0  0
  147.0639  132.2198  153.4618 C   0  0  0  0  0  0  0  0  0  0  0  0
  146.7468  132.7169  154.7582 C   0  0  0  0  0  0  0  0  0  0  0  0
  145.7394  133.6695  154.6467 N   0  0  0  0  0  0  0  0  0  0  0  0
  145.4820  133.7239  153.3681 C   0  0  0  0  0  0  0  0  0  0  0  0
  146.2335  132.8784  152.5808 N   0  0  0  0  0  0  0  0  0  0  0  0
  146.2057  132.6808  151.0924 C   0  0  2  0  0  0  0  0  0  0  0  0
  145.7651  133.8703  150.5150 O   0  0  0  0  0  0  0  0  0  0  0  0
  144.3902  133.7934  150.1243 C   0  0  1  0  0  0  0  0  0  0  0  0
  144.3627  134.0171  148.5975 C   0  0  0  0  0  0  0  0  0  0  0  0
  143.0404  133.8886  148.1198 O   0  0  0  0  0  0  0  0  0  0  0  0
  143.9129  132.4037  150.6009 C   0  0  1  0  0  0  0  0  0  0  0  0
  142.9804  131.7894  149.7325 O   0  0  0  0  0  0  0  0  0  0  0  0
  145.1981  131.5983  150.6804 C   0  0  2  0  0  0  0  0  0  0  0  0
  145.0802  130.5346  151.6080 O   0  0  0  0  0  0  0  0  0  0  0  0
  148.4973  136.7675  159.4117 C   0  0  0  0  0  0  0  0  0  0  0  0
  149.0875  137.8120  158.5224 C   0  0  0  0  0  0  0  0  0  0  0  0
  148.1340  137.2040  160.6500 O   0  0  0  0  0  0  0  0  0  0  0  0
  147.2386  132.4609  150.8205 H   0  0  0  0  0  0  0  0  0  0  0  0
  143.8069  134.5690  150.6226 H   0  0  0  0  0  0  0  0  0  0  0  0
  143.4674  132.4982  151.5927 H   0  0  0  0  0  0  0  0  0  0  0  0
  145.4877  131.2223  149.6980 H   0  0  0  0  0  0  0  0  0  0  0  0
  147.0412  135.4465  163.2496 H   0  0  0  0  0  0  0  0  0  0  0  0
  146.1966  136.8979  162.7062 H   0  0  0  0  0  0  0  0  0  0  0  0
  147.8729  137.0021  163.2511 H   0  0  0  0  0  0  0  0  0  0  0  0
  147.3095  134.0481  160.7879 H   0  0  0  0  0  0  0  0  0  0  0  0
  148.4572  136.1412  156.6034 H   0  0  0  0  0  0  0  0  0  0  0  0
  149.2843  134.6941  156.0448 H   0  0  0  0  0  0  0  0  0  0  0  0
  150.0588  135.7536  157.2193 H   0  0  0  0  0  0  0  0  0  0  0  0
  149.7885  133.2124  157.5281 H   0  0  0  0  0  0  0  0  0  0  0  0
  146.4651  133.8040  158.4154 H   0  0  0  0  0  0  0  0  0  0  0  0
  146.6963  134.4204  156.7904 H   0  0  0  0  0  0  0  0  0  0  0  0
  147.3754  131.7669  157.8783 H   0  0  0  0  0  0  0  0  0  0  0  0
  149.3782  130.0891  154.1195 H   0  0  0  0  0  0  0  0  0  0  0  0
  144.7313  134.3894  152.9686 H   0  0  0  0  0  0  0  0  0  0  0  0
  144.7715  134.9914  148.3278 H   0  0  0  0  0  0  0  0  0  0  0  0
  144.9501  133.2615  148.0761 H   0  0  0  0  0  0  0  0  0  0  0  0
  142.4532  133.8792  148.8602 H   0  0  0  0  0  0  0  0  0  0  0  0
  142.1900  131.6161  150.2213 H   0  0  0  0  0  0  0  0  0  0  0  0
  145.9117  130.0875  151.6578 H   0  0  0  0  0  0  0  0  0  0  0  0
  148.5213  137.8947  157.5946 H   0  0  0  0  0  0  0  0  0  0  0  0
  150.1189  137.5655  158.2702 H   0  0  0  0  0  0  0  0  0  0  0  0
  149.0850  138.7898  159.0050 H   0  0  0  0  0  0  0  0  0  0  0  0
  1  2  1  0  0  0  0
  1 35  1  0  0  0  0
  1 36  1  0  0  0  0
  1 37  1  0  0  0  0
  2 30  1  0  0  0  0
  2  3  2  0  0  0  0
  3  4  1  0  0  0  0
  3 38  1  0  0  0  0
  4  5  1  0  0  0  0
  4 28  2  0  0  0  0
  5  6  1  0  0  0  0
  5  7  1  0  0  0  0
  5  8  1  0  0  0  0
  6 39  1  0  0  0  0
  6 40  1  0  0  0  0
  6 41  1  0  0  0  0
  7 42  1  0  0  0  0
  8  9  1  0  0  0  0
  8 43  1  0  0  0  0
  8 44  1  0  0  0  0
  9 10  1  0  0  0  0
  9 45  1  0  0  0  0
 10 15  1  0  0  0  0
 10 11  2  0  0  0  0
 11 12  1  0  0  0  0
 12 13  2  0  0  0  0
 12 46  1  0  0  0  0
 13 14  1  0  0  0  0
 14 18  1  0  0  0  0
 14 15  2  0  0  0  0
 15 16  1  0  0  0  0
 16 17  2  0  0  0  0
 17 18  1  0  0  0  0
 17 47  1  0  0  0  0
 18 19  1  0  0  0  0
 19 31  1  0  0  0  0
 19 26  1  0  0  0  0
 19 20  1  0  0  0  0
 20 21  1  0  0  0  0
 21 32  1  0  0  0  0
 21 22  1  0  0  0  0
 21 24  1  0  0  0  0
 22 23  1  0  0  0  0
 22 48  1  0  0  0  0
 22 49  1  0  0  0  0
 23 50  1  0  0  0  0
 24 33  1  0  0  0  0
 24 25  1  0  0  0  0
 24 26  1  0  0  0  0
 25 51  1  0  0  0  0
 26 34  1  0  0  0  0
 26 27  1  0  0  0  0
 27 52  1  0  0  0  0
 28 29  1  0  0  0  0
 28 30  1  0  0  0  0
 29 53  1  0  0  0  0
 29 54  1  0  0  0  0
 29 55  1  0  0  0  0
M  END
> <s_m_source_file>
AV-unprocessed.smi

> <i_m_source_file_index>
287

> <i_lp_mmshare_version>
43012

> <i_f3d_flags>
0

> <s_epik_input>
W0NIM11jMVtjSF1jKGMobzEpW0NIM10pW0NAQF0oW0NIM10pKFtPSF0pW0NIMl1bTkhdYyhuW2NIXW4yKWMoYzIzKW5bY0hdbjNbQ0BASF00T1tDQEhdKFtDSDJdW09IXSlbQ0BASF0oW09IXSlbQ0BIXTRbT0hd

> <s_epik_cmdline>
J2VwaWtfcHl0aG9uJywgJy1waCcsICc3LjAnLCAnLXRuJywgJzgnLCAnLW1hJywgJzIwMCcsICctbWV0YWxfYmluZGluZycsICctaW1hZScsICc8aW5maWxlLm1hZT4nLCAnLW9tYWUnLCAnPG91dGZpbGUubWFlPic=

> <r_lp_tautomer_probability>
1

> <r_epik_Ionization_Penalty>
0.000992612

> <r_epik_Ionization_Penalty_Charging>
0

> <r_epik_Ionization_Penalty_Neutral>
0.000992612

> <r_epik_State_Penalty>
-0

> <r_epik_Charging_Adjusted_Penalty>
0

> <i_epik_Tot_Q>
0

> <i_epik_Tot_abs_Q>
0

> <r_epik_Metal_State_Penalty>
-0

> <b_epik_Metal_Only>
0

> <s_epik_Chemistry_Notes>
This compound contains an acetal/aminal-like group ( X-CH(R)-Y where X, Y are N, S, or O) that may be acid/base labile, releasing an aldehyde.

> <s_lp_Force_Field>
OPLS_2005

> <r_lp_Energy>
44.9714

> <b_lp_Chiralities_Consistent>
1

> <s_lp_Variant>
AV-unprocessed.smi:287-21

> <Gold.Version>
5.8.1

> <Gold.Id.Protein>
6NUR|6NUR_protein|mol2

> <Gold.PLP.Fitness>
49.8297

> <Gold.PLP.PLP>
-38.4260

> <Gold.PLP.part.hbond>
-8.5017

> <Gold.PLP.part.metal>
0.0000

> <Gold.PLP.part.buried>
-2.2635

> <Gold.PLP.part.nonpolar>
-28.4571

> <Gold.PLP.part.repulsive>
1.2618

> <Gold.PLP.ligand.clash>
1.2456

> <Gold.PLP.ligand.torsion>
2.0010

> <Gold.PLP.Chemscore.Hbond>
5.5229

> <Gold.PLP.Chemscore.CHOScore>
0.0000

> <Gold.PLP.Chemscore.Metal>
0.0000

> <Gold.Chemscore.Hbonds>
donor molecule, donor type, donor heavy atom, donor atom, acceptor molecule, acceptor atom, score
      L1  H    23    50       P1 10186  0.93
      L1  H    25    51       P1 10952  0.45
      P1  H  6896  6907       L1     7  1.00
      P1  H  6931  6943       L1    30  0.80
      P1  H  6934  6947       L1    30  0.63
      P1  H 10192 10197       L1    23  0.70
      P1  H 10785 10796       L1    25  1.00

> <Gold.PLP.Chemscore.Internal.Correction>
0.0827

> <Gold.Rescore>
     Score         DG    S(hbond)    S(metal)    S(lipo)     H(rot)  DE(clash)    DE(int)     intcor
     10.18     -15.11       4.13        0.00      79.66       5.27       1.68       3.25       ----

> <Gold.Chemscore.Fitness>
10.1842

> <Gold.Chemscore.DG>
-15.1143

> <Gold.Chemscore.ZeroCoef>
-5.4800

> <Gold.Chemscore.Hbond>
4.1311

> <Gold.Chemscore.Metal>
0.0000

> <Gold.Chemscore.Lipo>
79.6620

> <Gold.Chemscore.Internal_Hbond>
0.0000

> <Gold.Chemscore.DEClash>
1.6848

> <Gold.Chemscore.DEInternal>
3.2453

> <Gold.Chemscore.Rot>
5.2672

> <Gold.Chemscore.Internal.Correction>
   9.000000E+99

> <Gold.Chemscore.Hbonds>
donor molecule, donor type, donor heavy atom, donor atom, acceptor molecule, acceptor atom, score
      L1  H    23    50       P1 10186  0.91
      L1  H    25    51       P1 10952  0.32
      P1  H  6896  6907       L1     7  0.25
      P1  H  6931  6943       L1    30  0.52
      P1  H  6934  6947       L1    30  0.59
      P1  H 10192 10197       L1    23  0.07
      P1  H 10785 10796       L1    25  0.30

> <Gold.Chemscore.Hbond.Weighted>
-13.7978

> <Gold.Chemscore.Metal.Weighted>
-0.0000

> <Gold.Chemscore.Lipo.Weighted>
-9.3205

> <Gold.Chemscore.Internal_Hbond.Weighted>
0.0000

> <Gold.Chemscore.DEClash.Weighted>
1.6848

> <Gold.Chemscore.DEInternal.Weighted>
3.2453

> <Gold.Chemscore.Rot.Weighted>
13.4839

> <Gold.Chemscore.Internal.Correction.Weighted>
   9.000000E+99

> <Gold.Protein.RotatedTorsions>
[ 6907 6896 6895 6894 ] final -117.27 input  -60.11 | X-H torsion
[ 7974 7965 7964 7962 ] final  179.35 input  175.53 | X-H torsion
[ 8008 7997 7996 7995 ] final -145.95 input   59.86 | X-H torsion
[ 10167 10162 10161 10158 ] final  -25.17 input  -65.29 | X-H torsion
[ 10718 10713 10712 10709 ] final  170.48 input   66.30 | X-H torsion
[ 10763 10752 10751 10750 ] final  -27.39 input  -60.55 | X-H torsion
[ 11005 11000 10999 10996 ] final  -33.52 input  -57.11 | X-H torsion

> <Gold.Protein.ActiveResidues>
 VAL166  LYS551  ARG553  GLY616  TRP617  ASP618  TYR619  PRO620  LYS621  CYS622 
 ASP623  PHE694  ASN695  SER759  ASP760  ASP761  ALA762  ILE779  LEU786  VAL792 
 PHE793  MET794  SER795  GLU796  ALA797  LYS798  CYS799  TRP800  GLU811  SER814 

> <Gold.Protein.RotatedAtoms>
  150.8123  133.8400  159.3176 H   0  0  0  0  0  0  0  0  0  0  0  0  # atno 6907 bound_to 6896
  151.6182  135.1032  160.0105 H   0  0  0  0  0  0  0  0  0  0  0  0  # atno 6908 bound_to 6896
  152.4215  133.7083  159.6521 H   0  0  0  0  0  0  0  0  0  0  0  0  # atno 6909 bound_to 6896
  144.7146  140.0534  143.6434 H   0  0  0  0  0  0  0  0  0  0  0  0  # atno 7974 bound_to 7965
  155.5515  140.0617  157.2849 H   0  0  0  0  0  0  0  0  0  0  0  0  # atno 8008 bound_to 7997
  154.4419  140.1901  156.0736 H   0  0  0  0  0  0  0  0  0  0  0  0  # atno 8009 bound_to 7997
  156.0513  140.3284  155.7358 H   0  0  0  0  0  0  0  0  0  0  0  0  # atno 8010 bound_to 7997
  140.7287  143.4288  151.0834 H   0  0  0  0  0  0  0  0  0  0  0  0  # atno 10167 bound_to 10162
  157.0075  131.0194  151.2813 H   0  0  0  0  0  0  0  0  0  0  0  0  # atno 10718 bound_to 10713
  153.7313  135.6938  153.4988 H   0  0  0  0  0  0  0  0  0  0  0  0  # atno 10763 bound_to 10752
  153.2134  135.4395  155.0405 H   0  0  0  0  0  0  0  0  0  0  0  0  # atno 10764 bound_to 10752
  154.8252  135.3442  154.6843 H   0  0  0  0  0  0  0  0  0  0  0  0  # atno 10765 bound_to 10752
  140.9641  133.7147  156.1417 H   0  0  0  0  0  0  0  0  0  0  0  0  # atno 11005 bound_to 11000
  145.9925  139.3026  143.0976 LP  0  0  0  0  0  0  0  0  0  0  0  0  # atno 17320 bound_to 7965
  145.8887  140.9317  143.0563 LP  0  0  0  0  0  0  0  0  0  0  0  0  # atno 17321 bound_to 7965
  139.7943  143.8174  152.3155 LP  0  0  0  0  0  0  0  0  0  0  0  0  # atno 17342 bound_to 10162
  139.8169  144.7312  150.9624 LP  0  0  0  0  0  0  0  0  0  0  0  0  # atno 17343 bound_to 10162
  157.5345  130.8080  149.7955 LP  0  0  0  0  0  0  0  0  0  0  0  0  # atno 17370 bound_to 10713
  156.0148  130.3818  150.2146 LP  0  0  0  0  0  0  0  0  0  0  0  0  # atno 17371 bound_to 10713
  140.7424  134.4135  157.5553 LP  0  0  0  0  0  0  0  0  0  0  0  0  # atno 17394 bound_to 11000
  139.8888  134.8846  156.2453 LP  0  0  0  0  0  0  0  0  0  0  0  0  # atno 17395 bound_to 11000

$$$$
