AV-unprocessed.smi:1032|AV-procd|sdf|4483|dock5
  -GOLD-   22720 2463D 1   1.00000     0.00000
 Structure written by MMmdl.
 46 47  0  0  0  0  0  0  0  0  2 V2000
  152.3522  145.2217  159.8082 C   0  0  0  0  0  0  0  0  0  0  0  0
  151.7604  143.9778  159.1309 C   0  0  2  0  0  0  0  0  0  0  0  0
  152.0786  143.9405  157.6265 C   0  0  0  0  0  0  0  0  0  0  0  0
  151.4550  142.7061  156.9527 C   0  0  0  0  0  0  0  0  0  0  0  0
  149.9869  142.6572  157.1737 N   0  3  1  0  0  0  0  0  0  0  0  0
  149.3370  141.5528  156.4212 C   0  0  0  0  0  0  0  0  0  0  0  0
  149.3607  141.7870  154.8970 C   0  0  1  0  0  0  0  0  0  0  0  0
  149.9448  140.6426  154.3051 O   0  0  0  0  0  0  0  0  0  0  0  0
  147.9394  141.9674  154.3278 C   0  0  0  0  0  0  0  0  0  0  0  0
  147.6101  140.9270  153.3588 N   0  0  0  0  0  0  0  0  0  0  0  0
  146.5851  140.0697  153.4701 C   0  0  0  0  0  0  0  0  0  0  0  0
  145.7862  140.0927  154.4058 O   0  0  0  0  0  0  0  0  0  0  0  0
  146.5547  139.2140  152.4333 N   0  0  0  0  0  0  0  0  0  0  0  0
  145.6629  138.1348  152.1798 C   0  0  0  0  0  0  0  0  0  0  0  0
  144.7602  137.7847  153.2056 C   0  0  0  0  0  0  0  0  0  0  0  0
  143.8530  136.7297  152.9839 C   0  0  0  0  0  0  0  0  0  0  0  0
  143.7951  136.0313  151.8308 N   0  0  0  0  0  0  0  0  0  0  0  0
  144.6527  136.3728  150.8462 C   0  0  0  0  0  0  0  0  0  0  0  0
  145.5985  137.4110  150.9639 C   0  0  0  0  0  0  0  0  0  0  0  0
  149.6535  142.6563  158.6229 C   0  0  0  0  0  0  0  0  0  0  0  0
  150.2376  143.8922  159.3272 C   0  0  0  0  0  0  0  0  0  0  0  0
  151.9420  146.1390  159.3844 H   0  0  0  0  0  0  0  0  0  0  0  0
  153.4357  145.2556  159.6891 H   0  0  0  0  0  0  0  0  0  0  0  0
  152.1391  145.2250  160.8776 H   0  0  0  0  0  0  0  0  0  0  0  0
  152.2130  143.1009  159.5964 H   0  0  0  0  0  0  0  0  0  0  0  0
  151.7033  144.8451  157.1458 H   0  0  0  0  0  0  0  0  0  0  0  0
  153.1581  143.9351  157.4725 H   0  0  0  0  0  0  0  0  0  0  0  0
  151.6655  142.7417  155.8831 H   0  0  0  0  0  0  0  0  0  0  0  0
  151.9132  141.7932  157.3367 H   0  0  0  0  0  0  0  0  0  0  0  0
  149.8405  140.6082  156.6342 H   0  0  0  0  0  0  0  0  0  0  0  0
  148.3129  141.4334  156.7781 H   0  0  0  0  0  0  0  0  0  0  0  0
  149.9630  142.6626  154.6557 H   0  0  0  0  0  0  0  0  0  0  0  0
  149.4628  139.8773  154.5811 H   0  0  0  0  0  0  0  0  0  0  0  0
  147.1938  142.0326  155.1226 H   0  0  0  0  0  0  0  0  0  0  0  0
  147.8837  142.9123  153.7866 H   0  0  0  0  0  0  0  0  0  0  0  0
  148.2137  140.8454  152.5537 H   0  0  0  0  0  0  0  0  0  0  0  0
  147.2493  139.3680  151.7175 H   0  0  0  0  0  0  0  0  0  0  0  0
  144.7597  138.3111  154.1489 H   0  0  0  0  0  0  0  0  0  0  0  0
  143.1529  136.4407  153.7538 H   0  0  0  0  0  0  0  0  0  0  0  0
  144.5801  135.8037  149.9312 H   0  0  0  0  0  0  0  0  0  0  0  0
  146.2361  137.6286  150.1221 H   0  0  0  0  0  0  0  0  0  0  0  0
  148.5735  142.6467  158.7650 H   0  0  0  0  0  0  0  0  0  0  0  0
  150.0393  141.7467  159.0860 H   0  0  0  0  0  0  0  0  0  0  0  0
  149.9996  143.8537  160.3908 H   0  0  0  0  0  0  0  0  0  0  0  0
  149.7614  144.7930  158.9368 H   0  0  0  0  0  0  0  0  0  0  0  0
  149.6171  143.5140  156.7859 H   0  0  0  0  0  0  0  0  0  0  0  0
  1  2  1  0  0  0  0
  1 22  1  0  0  0  0
  1 23  1  0  0  0  0
  1 24  1  0  0  0  0
  2 21  1  0  0  0  0
  2  3  1  0  0  0  0
  2 25  1  0  0  0  0
  3  4  1  0  0  0  0
  3 26  1  0  0  0  0
  3 27  1  0  0  0  0
  4  5  1  0  0  0  0
  4 28  1  0  0  0  0
  4 29  1  0  0  0  0
  5  6  1  0  0  0  0
  5 20  1  0  0  0  0
  5 46  1  0  0  0  0
  6  7  1  0  0  0  0
  6 30  1  0  0  0  0
  6 31  1  0  0  0  0
  7  8  1  0  0  0  0
  7  9  1  0  0  0  0
  7 32  1  0  0  0  0
  8 33  1  0  0  0  0
  9 10  1  0  0  0  0
  9 34  1  0  0  0  0
  9 35  1  0  0  0  0
 10 11  1  0  0  0  0
 10 36  1  0  0  0  0
 11 12  2  0  0  0  0
 11 13  1  0  0  0  0
 13 14  1  0  0  0  0
 13 37  1  0  0  0  0
 14 19  1  0  0  0  0
 14 15  2  0  0  0  0
 15 16  1  0  0  0  0
 15 38  1  0  0  0  0
 16 17  2  0  0  0  0
 16 39  1  0  0  0  0
 17 18  1  0  0  0  0
 18 19  2  0  0  0  0
 18 40  1  0  0  0  0
 19 41  1  0  0  0  0
 20 21  1  0  0  0  0
 20 42  1  0  0  0  0
 20 43  1  0  0  0  0
 21 44  1  0  0  0  0
 21 45  1  0  0  0  0
M  CHG  1   5   1
M  END
> <s_m_source_file>
AV-unprocessed.smi

> <i_m_source_file_index>
1032

> <i_lp_mmshare_version>
43012

> <i_f3d_flags>
0

> <s_epik_input>
W0NIM11bQ0hdMVtDSDJdW0NIMl1OKFtDSDJdW0NIMl0xKVtDSDJdW0NASF0oW09IXSlbQ0gyXVtOSF1DKD1PKVtOSF1jMltjSF1bY0hdbltjSF1bY0hdMg==

> <s_epik_cmdline>
J2VwaWtfcHl0aG9uJywgJy1waCcsICc3LjAnLCAnLXRuJywgJzgnLCAnLW1hJywgJzIwMCcsICctbWV0YWxfYmluZGluZycsICctaW1hZScsICc8aW5maWxlLm1hZT4nLCAnLW9tYWUnLCAnPG91dGZpbGUubWFlPic=

> <r_epik_Ionization_Penalty>
0.11743

> <r_epik_Ionization_Penalty_Charging>
0.00147689

> <r_epik_Ionization_Penalty_Neutral>
0.115954

> <r_epik_State_Penalty>
0.105552

> <r_epik_Charging_Adjusted_Penalty>
0.107029

> <i_epik_Tot_Q>
1

> <i_epik_Tot_abs_Q>
1

> <r_epik_Metal_State_Penalty>
0.0881315

> <b_epik_Metal_Only>
0

> <s_lp_Force_Field>
OPLS_2005

> <r_lp_Energy>
24.2585

> <b_lp_Chiralities_Consistent>
1

> <s_lp_Variant>
AV-unprocessed.smi:1032-2

> <Gold.Version>
5.8.1

> <Gold.Id.Protein>
6NUR|6NUR_protein|mol2

> <Gold.PLP.Fitness>
53.9789

> <Gold.PLP.PLP>
-39.5429

> <Gold.PLP.part.hbond>
-4.2223

> <Gold.PLP.part.metal>
0.0000

> <Gold.PLP.part.buried>
0.2272

> <Gold.PLP.part.nonpolar>
-36.4769

> <Gold.PLP.part.repulsive>
1.5908

> <Gold.PLP.ligand.clash>
0.0000

> <Gold.PLP.ligand.torsion>
1.5820

> <Gold.PLP.Chemscore.Hbond>
4.8383

> <Gold.PLP.Chemscore.CHOScore>
1.0000

> <Gold.PLP.Chemscore.Metal>
0.0000

> <Gold.Chemscore.Hbonds>
donor molecule, donor type, donor heavy atom, donor atom, acceptor molecule, acceptor atom, score
      L1  H     5    46       P1  8028  2.00
      L1  H    10    36       P1  7957  0.80
      P1  H  7989  7998       L1     8  0.74

> <Gold.PLP.Chemscore.Internal.Correction>
0.0852

> <Gold.Rescore>
     Score         DG    S(hbond)    S(metal)    S(lipo)     H(rot)  DE(clash)    DE(int)     intcor
     18.84     -24.59       3.58        0.00     111.17       2.29       2.83       2.93       ----

> <Gold.Chemscore.Fitness>
18.8394

> <Gold.Chemscore.DG>
-24.5928

> <Gold.Chemscore.ZeroCoef>
-5.4800

> <Gold.Chemscore.Hbond>
3.5807

> <Gold.Chemscore.Metal>
0.0000

> <Gold.Chemscore.Lipo>
111.1707

> <Gold.Chemscore.Internal_Hbond>
0.0000

> <Gold.Chemscore.DEClash>
2.8267

> <Gold.Chemscore.DEInternal>
2.9267

> <Gold.Chemscore.Rot>
2.2865

> <Gold.Chemscore.Internal.Correction>
   9.000000E+99

> <Gold.Chemscore.Hbonds>
donor molecule, donor type, donor heavy atom, donor atom, acceptor molecule, acceptor atom, score
      L1  H     5    46       P1  8028  0.99
      L1  H    10    36       P1  7957  0.78
      L1  H    13    37       P1  7957  0.02
      P1  H  7989  7998       L1     8  0.68

> <Gold.Chemscore.Hbond.Weighted>
-11.9594

> <Gold.Chemscore.Metal.Weighted>
-0.0000

> <Gold.Chemscore.Lipo.Weighted>
-13.0070

> <Gold.Chemscore.Internal_Hbond.Weighted>
0.0000

> <Gold.Chemscore.DEClash.Weighted>
2.8267

> <Gold.Chemscore.DEInternal.Weighted>
2.9267

> <Gold.Chemscore.Rot.Weighted>
5.8536

> <Gold.Chemscore.Internal.Correction.Weighted>
   9.000000E+99

> <Gold.Protein.RotatedTorsions>
[ 6907 6896 6895 6894 ] final  166.75 input  -60.11 | X-H torsion
[ 7974 7965 7964 7962 ] final -162.82 input  175.53 | X-H torsion
[ 8008 7997 7996 7995 ] final   11.04 input   59.86 | X-H torsion
[ 10167 10162 10161 10158 ] final  140.94 input  -65.29 | X-H torsion
[ 10718 10713 10712 10709 ] final   87.01 input   66.30 | X-H torsion
[ 10763 10752 10751 10750 ] final  120.76 input  -60.55 | X-H torsion
[ 11005 11000 10999 10996 ] final -171.45 input  -57.11 | X-H torsion

> <Gold.Protein.ActiveResidues>
 VAL166  LYS551  ARG553  GLY616  TRP617  ASP618  TYR619  PRO620  LYS621  CYS622 
 ASP623  PHE694  ASN695  SER759  ASP760  ASP761  ALA762  ILE779  LEU786  VAL792 
 PHE793  MET794  SER795  GLU796  ALA797  LYS798  CYS799  TRP800  GLU811  SER814 

> <Gold.Protein.RotatedAtoms>
  151.8740  133.3481  159.3743 H   0  0  0  0  0  0  0  0  0  0  0  0  # atno 6907 bound_to 6896
  150.7145  134.5085  159.5605 H   0  0  0  0  0  0  0  0  0  0  0  0  # atno 6908 bound_to 6896
  152.2623  134.8021  160.0479 H   0  0  0  0  0  0  0  0  0  0  0  0  # atno 6909 bound_to 6896
  144.7345  140.3196  143.6173 H   0  0  0  0  0  0  0  0  0  0  0  0  # atno 7974 bound_to 7965
  154.8016  140.2853  155.5917 H   0  0  0  0  0  0  0  0  0  0  0  0  # atno 8008 bound_to 7997
  156.2978  140.2585  156.2814 H   0  0  0  0  0  0  0  0  0  0  0  0  # atno 8009 bound_to 7997
  154.9552  140.0378  157.2153 H   0  0  0  0  0  0  0  0  0  0  0  0  # atno 8010 bound_to 7997
  139.5034  144.6202  151.6068 H   0  0  0  0  0  0  0  0  0  0  0  0  # atno 10167 bound_to 10162
  157.6935  131.0238  150.3058 H   0  0  0  0  0  0  0  0  0  0  0  0  # atno 10718 bound_to 10713
  153.6034  135.3443  155.2953 H   0  0  0  0  0  0  0  0  0  0  0  0  # atno 10763 bound_to 10752
  154.8632  135.4233  154.2387 H   0  0  0  0  0  0  0  0  0  0  0  0  # atno 10764 bound_to 10752
  153.3221  135.7039  153.7093 H   0  0  0  0  0  0  0  0  0  0  0  0  # atno 10765 bound_to 10752
  140.5080  134.5829  157.5010 H   0  0  0  0  0  0  0  0  0  0  0  0  # atno 11005 bound_to 11000
  145.7582  139.1816  143.2282 LP  0  0  0  0  0  0  0  0  0  0  0  0  # atno 17320 bound_to 7965
  146.1007  140.7547  142.9550 LP  0  0  0  0  0  0  0  0  0  0  0  0  # atno 17321 bound_to 7965
  140.5902  143.9792  150.6320 LP  0  0  0  0  0  0  0  0  0  0  0  0  # atno 17342 bound_to 10162
  140.2970  143.3286  152.1008 LP  0  0  0  0  0  0  0  0  0  0  0  0  # atno 17343 bound_to 10162
  156.3567  130.3840  149.7284 LP  0  0  0  0  0  0  0  0  0  0  0  0  # atno 17370 bound_to 10713
  156.4744  130.8012  151.3028 LP  0  0  0  0  0  0  0  0  0  0  0  0  # atno 17371 bound_to 10713
  139.9675  134.7349  156.0109 LP  0  0  0  0  0  0  0  0  0  0  0  0  # atno 17394 bound_to 11000
  141.1400  133.6566  156.3703 LP  0  0  0  0  0  0  0  0  0  0  0  0  # atno 17395 bound_to 11000

$$$$
