AV-unprocessed.smi:1045|AV-procd|sdf|4545|dock1
  -GOLD-   22720 2573D 1   1.00000     0.00000
 Structure written by MMmdl.
 42 43  0  0  0  0  0  0  0  0  1 V2000
  145.9213  132.6134  151.7314 C   0  0  0  0  0  0  0  0  0  0  0  0
  146.5554  133.1819  152.8634 O   0  0  0  0  0  0  0  0  0  0  0  0
  147.7341  132.4833  153.2345 C   0  0  0  0  0  0  0  0  0  0  0  0
  148.3369  133.1014  154.5062 C   0  0  1  0  0  0  0  0  0  0  0  0
  149.4623  132.2396  155.1008 C   0  0  0  0  0  0  0  0  0  0  0  0
  148.8171  134.4507  154.2189 N   0  0  0  0  0  0  0  0  0  0  0  0
  149.2540  135.3336  155.1278 C   0  0  0  0  0  0  0  0  0  0  0  0
  149.2914  135.1016  156.3356 O   0  0  0  0  0  0  0  0  0  0  0  0
  149.6231  136.4857  154.5419 N   0  0  0  0  0  0  0  0  0  0  0  0
  150.1304  137.6703  155.1427 C   0  0  0  0  0  0  0  0  0  0  0  0
  150.4752  137.6196  156.5073 C   0  0  0  0  0  0  0  0  0  0  0  0
  150.9705  138.7763  157.1381 C   0  0  0  0  0  0  0  0  0  0  0  0
  151.1071  139.9649  156.3833 C   0  0  0  0  0  0  0  0  0  0  0  0
  151.5996  141.1461  156.9731 N   0  0  0  0  0  0  0  0  0  0  0  0
  152.1300  141.1599  158.3279 C   0  0  0  0  0  0  0  0  0  0  0  0
  152.3993  142.6345  158.6229 C   0  0  0  0  0  0  0  0  0  0  0  0
  151.3070  143.3512  157.8292 C   0  0  0  0  0  0  0  0  0  0  0  0
  151.0890  142.4589  156.6017 C   0  0  0  0  0  0  0  0  0  0  0  0
  150.7566  140.0211  155.0766 N   0  0  0  0  0  0  0  0  0  0  0  0
  150.2821  138.9093  154.4756 C   0  0  0  0  0  0  0  0  0  0  0  0
  145.0217  133.1804  151.4922 H   0  0  0  0  0  0  0  0  0  0  0  0
  145.6269  131.5804  151.9213 H   0  0  0  0  0  0  0  0  0  0  0  0
  146.5760  132.6368  150.8594 H   0  0  0  0  0  0  0  0  0  0  0  0
  147.5024  131.4309  153.4084 H   0  0  0  0  0  0  0  0  0  0  0  0
  148.4614  132.5223  152.4218 H   0  0  0  0  0  0  0  0  0  0  0  0
  147.5341  133.1606  155.2435 H   0  0  0  0  0  0  0  0  0  0  0  0
  149.1063  131.2346  155.3280 H   0  0  0  0  0  0  0  0  0  0  0  0
  149.8406  132.6707  156.0282 H   0  0  0  0  0  0  0  0  0  0  0  0
  150.3019  132.1474  154.4111 H   0  0  0  0  0  0  0  0  0  0  0  0
  148.8180  134.7288  153.2483 H   0  0  0  0  0  0  0  0  0  0  0  0
  149.4758  136.5388  153.5446 H   0  0  0  0  0  0  0  0  0  0  0  0
  150.3646  136.7035  157.0693 H   0  0  0  0  0  0  0  0  0  0  0  0
  151.2309  138.7366  158.1851 H   0  0  0  0  0  0  0  0  0  0  0  0
  151.3836  140.7597  159.0158 H   0  0  0  0  0  0  0  0  0  0  0  0
  153.0363  140.5596  158.4127 H   0  0  0  0  0  0  0  0  0  0  0  0
  152.3766  142.8654  159.6883 H   0  0  0  0  0  0  0  0  0  0  0  0
  153.3799  142.9158  158.2363 H   0  0  0  0  0  0  0  0  0  0  0  0
  150.3916  143.3870  158.4212 H   0  0  0  0  0  0  0  0  0  0  0  0
  151.5744  144.3747  157.5651 H   0  0  0  0  0  0  0  0  0  0  0  0
  151.6583  142.8292  155.7484 H   0  0  0  0  0  0  0  0  0  0  0  0
  150.0346  142.4299  156.3256 H   0  0  0  0  0  0  0  0  0  0  0  0
  150.0079  139.0446  153.4416 H   0  0  0  0  0  0  0  0  0  0  0  0
  1  2  1  0  0  0  0
  1 21  1  0  0  0  0
  1 22  1  0  0  0  0
  1 23  1  0  0  0  0
  2  3  1  0  0  0  0
  3  4  1  0  0  0  0
  3 24  1  0  0  0  0
  3 25  1  0  0  0  0
  4  5  1  0  0  0  0
  4  6  1  0  0  0  0
  4 26  1  0  0  0  0
  5 27  1  0  0  0  0
  5 28  1  0  0  0  0
  5 29  1  0  0  0  0
  6  7  1  0  0  0  0
  6 30  1  0  0  0  0
  7  8  2  0  0  0  0
  7  9  1  0  0  0  0
  9 10  1  0  0  0  0
  9 31  1  0  0  0  0
 10 20  1  0  0  0  0
 10 11  2  0  0  0  0
 11 12  1  0  0  0  0
 11 32  1  0  0  0  0
 12 13  2  0  0  0  0
 12 33  1  0  0  0  0
 13 14  1  0  0  0  0
 13 19  1  0  0  0  0
 14 18  1  0  0  0  0
 14 15  1  0  0  0  0
 15 16  1  0  0  0  0
 15 34  1  0  0  0  0
 15 35  1  0  0  0  0
 16 17  1  0  0  0  0
 16 36  1  0  0  0  0
 16 37  1  0  0  0  0
 17 18  1  0  0  0  0
 17 38  1  0  0  0  0
 17 39  1  0  0  0  0
 18 40  1  0  0  0  0
 18 41  1  0  0  0  0
 19 20  2  0  0  0  0
 20 42  1  0  0  0  0
M  END
> <s_m_source_file>
AV-unprocessed.smi

> <i_m_source_file_index>
1045

> <i_lp_mmshare_version>
43012

> <i_f3d_flags>
0

> <s_epik_input>
W0NIM11PW0NIMl1bQ0BIXShbQ0gzXSlbTkhdQyg9TylbTkhdYzFbY0hdW2NIXWMobltjSF0xKU4yW0NIMl1bQ0gyXVtDSDJdW0NIMl0y

> <s_epik_cmdline>
J2VwaWtfcHl0aG9uJywgJy1waCcsICc3LjAnLCAnLXRuJywgJzgnLCAnLW1hJywgJzIwMCcsICctbWV0YWxfYmluZGluZycsICctaW1hZScsICc8aW5maWxlLm1hZT4nLCAnLW9tYWUnLCAnPG91dGZpbGUubWFlPic=

> <r_lp_tautomer_probability>
1

> <r_epik_Ionization_Penalty>
0.10064

> <r_epik_Ionization_Penalty_Charging>
0

> <r_epik_Ionization_Penalty_Neutral>
0.10064

> <r_epik_State_Penalty>
0.0900987

> <r_epik_Charging_Adjusted_Penalty>
0.0900987

> <i_epik_Tot_Q>
0

> <i_epik_Tot_abs_Q>
0

> <r_epik_Metal_State_Penalty>
0.076945

> <b_epik_Metal_Only>
0

> <s_lp_Force_Field>
OPLS_2005

> <r_lp_Energy>
29.4827

> <b_lp_Chiralities_Consistent>
1

> <s_lp_Variant>
AV-unprocessed.smi:1045-2

> <Gold.Version>
5.8.1

> <Gold.Id.Protein>
6NUR|6NUR_protein|mol2

> <Gold.PLP.Fitness>
43.0592

> <Gold.PLP.PLP>
-32.6564

> <Gold.PLP.part.hbond>
-3.1463

> <Gold.PLP.part.metal>
0.0000

> <Gold.PLP.part.buried>
-4.9553

> <Gold.PLP.part.nonpolar>
-25.3759

> <Gold.PLP.part.repulsive>
0.2358

> <Gold.PLP.ligand.clash>
0.0000

> <Gold.PLP.ligand.torsion>
0.3692

> <Gold.PLP.Chemscore.Hbond>
2.6220

> <Gold.PLP.Chemscore.CHOScore>
1.0000

> <Gold.PLP.Chemscore.Metal>
0.0000

> <Gold.Chemscore.Hbonds>
donor molecule, donor type, donor heavy atom, donor atom, acceptor molecule, acceptor atom, score
      L1  H     6    30       P1  7948  0.94
      L1  H     9    31       P1  7948  1.00
      P1  H  7989  7998       L1    19  0.95
      L1  C    20    42       P1  7957  1.00

> <Gold.PLP.Chemscore.Internal.Correction>
0.2752

> <Gold.Rescore>
     Score         DG    S(hbond)    S(metal)    S(lipo)     H(rot)  DE(clash)    DE(int)     intcor
     15.00     -16.97       1.90        0.00      74.75       1.41       0.04       1.92       ----

> <Gold.Chemscore.Fitness>
15.0035

> <Gold.Chemscore.DG>
-16.9696

> <Gold.Chemscore.ZeroCoef>
-5.4800

> <Gold.Chemscore.Hbond>
1.9012

> <Gold.Chemscore.Metal>
0.0000

> <Gold.Chemscore.Lipo>
74.7500

> <Gold.Chemscore.Internal_Hbond>
0.0000

> <Gold.Chemscore.DEClash>
0.0415

> <Gold.Chemscore.DEInternal>
1.9246

> <Gold.Chemscore.Rot>
1.4086

> <Gold.Chemscore.Internal.Correction>
   9.000000E+99

> <Gold.Chemscore.Hbonds>
donor molecule, donor type, donor heavy atom, donor atom, acceptor molecule, acceptor atom, score
      L1  H     6    30       P1  7948  0.19
      L1  H     9    31       P1  7948  0.78
      P1  H  7989  7998       L1    19  0.21

> <Gold.Chemscore.Hbond.Weighted>
-6.3499

> <Gold.Chemscore.Metal.Weighted>
-0.0000

> <Gold.Chemscore.Lipo.Weighted>
-8.7458

> <Gold.Chemscore.Internal_Hbond.Weighted>
0.0000

> <Gold.Chemscore.DEClash.Weighted>
0.0415

> <Gold.Chemscore.DEInternal.Weighted>
1.9246

> <Gold.Chemscore.Rot.Weighted>
3.6060

> <Gold.Chemscore.Internal.Correction.Weighted>
   9.000000E+99

> <Gold.Protein.RotatedTorsions>
[ 6907 6896 6895 6894 ] final  -56.60 input  -60.11 | X-H torsion
[ 7974 7965 7964 7962 ] final  -32.20 input  175.53 | X-H torsion
[ 8008 7997 7996 7995 ] final  -59.94 input   59.86 | X-H torsion
[ 10167 10162 10161 10158 ] final  -48.39 input  -65.29 | X-H torsion
[ 10718 10713 10712 10709 ] final   70.38 input   66.30 | X-H torsion
[ 10763 10752 10751 10750 ] final  -87.04 input  -60.55 | X-H torsion
[ 11005 11000 10999 10996 ] final  -96.12 input  -57.11 | X-H torsion

> <Gold.Protein.ActiveResidues>
 VAL166  LYS551  ARG553  GLY616  TRP617  ASP618  TYR619  PRO620  LYS621  CYS622 
 ASP623  PHE694  ASN695  SER759  ASP760  ASP761  ALA762  ILE779  LEU786  VAL792 
 PHE793  MET794  SER795  GLU796  ALA797  LYS798  CYS799  TRP800  GLU811  SER814 

> <Gold.Protein.RotatedAtoms>
  150.8154  134.7333  159.6724 H   0  0  0  0  0  0  0  0  0  0  0  0  # atno 6907 bound_to 6896
  152.4273  134.5842  159.9966 H   0  0  0  0  0  0  0  0  0  0  0  0  # atno 6908 bound_to 6896
  151.6040  133.3316  159.3089 H   0  0  0  0  0  0  0  0  0  0  0  0  # atno 6909 bound_to 6896
  146.1009  140.5762  142.8821 H   0  0  0  0  0  0  0  0  0  0  0  0  # atno 7974 bound_to 7965
  154.4375  140.1050  156.6195 H   0  0  0  0  0  0  0  0  0  0  0  0  # atno 8008 bound_to 7997
  155.5723  140.3489  155.4500 H   0  0  0  0  0  0  0  0  0  0  0  0  # atno 8009 bound_to 7997
  156.0380  140.1275  157.0175 H   0  0  0  0  0  0  0  0  0  0  0  0  # atno 8010 bound_to 7997
  140.6733  143.2742  151.4063 H   0  0  0  0  0  0  0  0  0  0  0  0  # atno 10167 bound_to 10162
  157.6397  130.9474  150.0643 H   0  0  0  0  0  0  0  0  0  0  0  0  # atno 10718 bound_to 10713
  154.6292  135.5427  153.7662 H   0  0  0  0  0  0  0  0  0  0  0  0  # atno 10763 bound_to 10752
  153.0276  135.6432  154.1326 H   0  0  0  0  0  0  0  0  0  0  0  0  # atno 10764 bound_to 10752
  154.1257  135.2917  155.3177 H   0  0  0  0  0  0  0  0  0  0  0  0  # atno 10765 bound_to 10752
  141.1421  133.8075  157.0529 H   0  0  0  0  0  0  0  0  0  0  0  0  # atno 11005 bound_to 11000
  144.7432  140.4997  143.6854 LP  0  0  0  0  0  0  0  0  0  0  0  0  # atno 17320 bound_to 7965
  145.5857  139.1492  143.3210 LP  0  0  0  0  0  0  0  0  0  0  0  0  # atno 17321 bound_to 7965
  139.6012  144.1291  152.2200 LP  0  0  0  0  0  0  0  0  0  0  0  0  # atno 17342 bound_to 10162
  140.0676  144.5806  150.7216 LP  0  0  0  0  0  0  0  0  0  0  0  0  # atno 17343 bound_to 10162
  156.1667  130.3645  149.9223 LP  0  0  0  0  0  0  0  0  0  0  0  0  # atno 17370 bound_to 10713
  156.7208  130.9006  151.3618 LP  0  0  0  0  0  0  0  0  0  0  0  0  # atno 17371 bound_to 10713
  140.0620  134.9749  157.1322 LP  0  0  0  0  0  0  0  0  0  0  0  0  # atno 17394 bound_to 11000
  140.3834  134.2262  155.7169 LP  0  0  0  0  0  0  0  0  0  0  0  0  # atno 17395 bound_to 11000

$$$$
