#       Name:                AV-unprocessed.smi:1911
#       Creating user name   scv26
#       Creation time:       Fri Mar 27 09:48:40 2020


#       File generated by GOLD software.
#

@<TRIPOS>MOLECULE
AV-unprocessed.smi:1911
    57    59     1
SMALL
NO_CHARGES


@<TRIPOS>ATOM
      1 ****        -3.8433  -7.1584  -0.8261 N.pl3          1 S1                -1.0000
      2 ****        -4.4527  -6.2496  -0.0406 C.2            1 S1                 0.0000
      3 ****        -5.6573  -6.1192   0.1696 O.2            1 S1                 0.0000
      4 ****        -3.4608  -5.2842   0.6179 C.3            1 S1                 0.0000
      5 ****        -3.7858  -3.8833   0.2500 N.4            1 S1                 1.0000
      6 ****        -3.3518  -3.5235  -1.1270 C.3            1 S1                 0.0000
      7 ****        -3.8281  -2.1109  -1.5109 C.3            1 S1                 0.0000
      8 ****        -3.3667  -1.0490  -0.4977 C.3            1 S1                 0.0000
      9 ****        -1.9260  -0.8216  -0.6115 N.am           1 S1                 0.0000
     10 ****        -1.2828   0.2849  -0.2110 C.2            1 S1                 0.0000
     11 ****        -1.8491   1.2476   0.3053 O.2            1 S1                 0.0000
     12 ****         0.0355   0.1987  -0.4604 N.am           1 S1                 0.0000
     13 ****         1.0596   1.1442  -0.1794 C.ar           1 S1                 0.0000
     14 ****         0.9360   2.2038   0.7536 C.ar           1 S1                 0.0000
     15 ****         2.0237   3.0763   0.9641 C.ar           1 S1                 0.0000
     16 ****         3.2293   2.8843   0.2490 C.ar           1 S1                 0.0000
     17 ****         4.3565   3.7116   0.4139 N.pl3          1 S1                 0.0000
     18 ****         5.4523   3.7185  -0.5468 C.3            1 S1                 0.0000
     19 ****         6.0672   5.1198  -0.4583 C.3            1 S1                 0.0000
     20 ****         5.6436   5.6251   0.9208 C.3            1 S1                 0.0000
     21 ****         4.2740   4.9779   1.1227 C.3            1 S1                 0.0000
     22 ****         3.3055   1.8480  -0.6195 N.pl3          1 S1                 1.0000
     23 ****         2.2890   0.9903  -0.8521 C.ar           1 S1                 0.0000
     24 ****        -3.7663  -1.4815   0.9267 C.3            1 S1                 0.0000
     25 ****        -3.2886  -2.9078   1.2529 C.3            1 S1                 0.0000
     26 ****        -2.8194  -7.1432  -0.9034 H              1 S1                 0.0000
     27 ****        -3.5607  -5.4191   1.6957 H              1 S1                 0.0000
     28 ****        -2.4209  -5.5101   0.3714 H              1 S1                 0.0000
     29 ****        -2.2650  -3.5889  -1.1957 H              1 S1                 0.0000
     30 ****        -3.7525  -4.2375  -1.8472 H              1 S1                 0.0000
     31 ****        -3.4798  -1.8566  -2.5126 H              1 S1                 0.0000
     32 ****        -4.9180  -2.1070  -1.5603 H              1 S1                 0.0000
     33 ****        -3.8757  -0.1134  -0.7370 H              1 S1                 0.0000
     34 ****        -1.3820  -1.5597  -1.0343 H              1 S1                 0.0000
     35 ****         0.3371  -0.6283  -0.9548 H              1 S1                 0.0000
     36 ****         0.0357   2.3618   1.3261 H              1 S1                 0.0000
     37 ****         1.9190   3.8786   1.6791 H              1 S1                 0.0000
     38 ****         6.1786   2.9591  -0.2553 H              1 S1                 0.0000
     39 ****         5.1197   3.5023  -1.5627 H              1 S1                 0.0000
     40 ****         7.1485   5.1172  -0.5978 H              1 S1                 0.0000
     41 ****         5.6324   5.7590  -1.2282 H              1 S1                 0.0000
     42 ****         6.3408   5.2598   1.6764 H              1 S1                 0.0000
     43 ****         5.6130   6.7129   0.9871 H              1 S1                 0.0000
     44 ****         3.4888   5.5921   0.6798 H              1 S1                 0.0000
     45 ****         4.0500   4.8364   2.1804 H              1 S1                 0.0000
     46 ****         2.4917   0.2105  -1.5723 H              1 S1                 0.0000
     47 ****        -3.3796  -0.7786   1.6654 H              1 S1                 0.0000
     48 ****        -4.8526  -1.4436   1.0180 H              1 S1                 0.0000
     49 ****        -3.6491  -3.1844   2.2445 H              1 S1                 0.0000
     50 ****        -2.1988  -2.9458   1.2912 H              1 S1                 0.0000
     51 ****        -4.7941  -3.8232   0.2671 H              1 S1                 0.0000
     52 ****         4.1791   1.7068  -1.1269 H              1 S1                 0.0000
     53 ****        -4.3799  -7.8377  -1.3267 LP             1 S1                 0.0000
     54 ****        -6.3111  -6.7352  -0.2698 LP             1 S1                 0.0000
     55 ****        -5.9830  -5.3971   0.7800 LP             1 S1                 0.0000
     56 ****        -2.8392   1.2295   0.4446 LP             1 S1                 0.0000
     57 ****        -1.3193   2.0481   0.5854 LP             1 S1                 0.0000
@<TRIPOS>BOND
    1    1    2 1     
    2    1   26 1     
    3    2    3 2     
    4    2    4 1     
    5    4    5 1     
    6    4   27 1     
    7    4   28 1     
    8    5   25 1     
    9    5    6 1     
   10    5   51 1     
   11    6    7 1     
   12    6   29 1     
   13    6   30 1     
   14    7    8 1     
   15    7   31 1     
   16    7   32 1     
   17    8    9 1     
   18    8   24 1     
   19    8   33 1     
   20    9   10 am    
   21    9   34 1     
   22   10   11 2     
   23   10   12 am    
   24   12   13 1     
   25   12   35 1     
   26   13   23 ar    
   27   13   14 ar    
   28   14   15 ar    
   29   14   36 1     
   30   15   16 ar    
   31   15   37 1     
   32   16   17 1     
   33   16   22 ar    
   34   17   21 1     
   35   17   18 1     
   36   18   19 1     
   37   18   38 1     
   38   18   39 1     
   39   19   20 1     
   40   19   40 1     
   41   19   41 1     
   42   20   21 1     
   43   20   42 1     
   44   20   43 1     
   45   21   44 1     
   46   21   45 1     
   47   22   23 ar    
   48   22   52 1     
   49   23   46 1     
   50   24   25 1     
   51   24   47 1     
   52   24   48 1     
   53   25   49 1     
   54   25   50 1     
   55    1   53 1     
   56    3   54 1     
   57    3   55 1     
   58   11   56 1     
   59   11   57 1     
@<TRIPOS>SUBSTRUCTURE
      1 S1             1
@<TRIPOS>SET
LONE_PAIRS      STATIC     ATOMS    <user>   **** ""
5 53 54 55 56 57
DONOR_HYDROGENS      STATIC     ATOMS    <user>   **** ""
5 26 51 34 35 52
ATOM$BLUE        STATIC     ATOMS    COLORGROUP SYSTEM
5 53 54 55 56 57
ATOM$RED        STATIC     ATOMS    COLORGROUP SYSTEM
5 26 51 34 35 52
