AV-unprocessed.smi:531|AV-procd|sdf|2846|dock1
  -GOLD-   2262023333D 1   1.00000     0.00000
 Structure written by MMmdl.
 46 48  0  0  0  0  0  0  0  0  1 V2000
  152.7026  137.7855  159.8351 C   0  0  0  0  0  0  0  0  0  0  0  0
  153.5203  137.3678  158.6110 C   0  0  0  0  0  0  0  0  0  0  0  0
  153.5329  138.4375  157.6811 O   0  0  0  0  0  0  0  0  0  0  0  0
  152.2387  138.7607  157.2024 C   0  0  0  0  0  0  0  0  0  0  0  0
  152.3661  139.8528  156.1346 C   0  0  0  0  0  0  0  0  0  0  0  0
  151.0844  140.5062  155.8841 N   0  0  0  0  0  0  0  0  0  0  0  0
  150.6242  141.6931  156.3697 C   0  0  0  0  0  0  0  0  0  0  0  0
  151.3678  142.4837  157.2488 N   0  0  0  0  0  0  0  0  0  0  0  0
  151.6272  143.9187  157.1255 C   0  0  0  0  0  0  0  0  0  0  0  0
  151.2779  144.6709  158.4228 C   0  0  0  0  0  0  0  0  0  0  0  0
  152.0762  144.1010  159.6032 C   0  0  0  0  0  0  0  0  0  0  0  0
  151.9037  142.5770  159.6676 C   0  0  0  0  0  0  0  0  0  0  0  0
  152.2169  141.9337  158.3046 C   0  0  0  0  0  0  0  0  0  0  0  0
  149.4323  142.0627  155.8927 N   0  0  0  0  0  0  0  0  0  0  0  0
  149.0921  141.0184  155.0478 C   0  0  0  0  0  0  0  0  0  0  0  0
  150.0755  140.0835  155.0151 C   0  0  0  0  0  0  0  0  0  0  0  0
  150.0000  138.8950  154.1529 C   0  0  0  0  0  0  0  0  0  0  0  0
  150.8864  138.0468  154.0834 O   0  0  0  0  0  0  0  0  0  0  0  0
  148.8558  138.8342  153.4292 N   0  0  0  0  0  0  0  0  0  0  0  0
  147.8261  139.7344  153.4234 C   0  0  0  0  0  0  0  0  0  0  0  0
  146.8480  139.5450  152.7005 O   0  0  0  0  0  0  0  0  0  0  0  0
  147.9354  140.8320  154.2381 N   0  0  0  0  0  0  0  0  0  0  0  0
  146.8665  141.8320  154.2710 C   0  0  0  0  0  0  0  0  0  0  0  0
  148.7546  138.0362  152.8193 H   0  0  0  0  0  0  0  0  0  0  0  0
  152.6686  136.9835  160.5728 H   0  0  0  0  0  0  0  0  0  0  0  0
  151.6767  138.0282  159.5565 H   0  0  0  0  0  0  0  0  0  0  0  0
  153.1372  138.6631  160.3144 H   0  0  0  0  0  0  0  0  0  0  0  0
  154.5385  137.1181  158.9127 H   0  0  0  0  0  0  0  0  0  0  0  0
  153.0820  136.4786  158.1556 H   0  0  0  0  0  0  0  0  0  0  0  0
  151.7687  137.8726  156.7767 H   0  0  0  0  0  0  0  0  0  0  0  0
  151.6083  139.1080  158.0225 H   0  0  0  0  0  0  0  0  0  0  0  0
  153.1064  140.5927  156.4320 H   0  0  0  0  0  0  0  0  0  0  0  0
  152.7571  139.4316  155.2139 H   0  0  0  0  0  0  0  0  0  0  0  0
  152.6834  144.0625  156.8935 H   0  0  0  0  0  0  0  0  0  0  0  0
  151.0864  144.3340  156.2762 H   0  0  0  0  0  0  0  0  0  0  0  0
  151.4896  145.7342  158.3080 H   0  0  0  0  0  0  0  0  0  0  0  0
  150.2102  144.5872  158.6281 H   0  0  0  0  0  0  0  0  0  0  0  0
  153.1326  144.3431  159.4798 H   0  0  0  0  0  0  0  0  0  0  0  0
  151.7560  144.5615  160.5381 H   0  0  0  0  0  0  0  0  0  0  0  0
  152.5534  142.1593  160.4372 H   0  0  0  0  0  0  0  0  0  0  0  0
  150.8807  142.3348  159.9591 H   0  0  0  0  0  0  0  0  0  0  0  0
  152.0679  140.8554  158.3703 H   0  0  0  0  0  0  0  0  0  0  0  0
  153.2650  142.0861  158.0435 H   0  0  0  0  0  0  0  0  0  0  0  0
  145.8926  141.3598  154.4088 H   0  0  0  0  0  0  0  0  0  0  0  0
  146.8450  142.3929  153.3359 H   0  0  0  0  0  0  0  0  0  0  0  0
  146.9905  142.5473  155.0841 H   0  0  0  0  0  0  0  0  0  0  0  0
  1  2  1  0  0  0  0
  1 25  1  0  0  0  0
  1 26  1  0  0  0  0
  1 27  1  0  0  0  0
  2  3  1  0  0  0  0
  2 28  1  0  0  0  0
  2 29  1  0  0  0  0
  3  4  1  0  0  0  0
  4  5  1  0  0  0  0
  4 30  1  0  0  0  0
  4 31  1  0  0  0  0
  5  6  1  0  0  0  0
  5 32  1  0  0  0  0
  5 33  1  0  0  0  0
  6 16  1  0  0  0  0
  6  7  1  0  0  0  0
  7  8  1  0  0  0  0
  7 14  2  0  0  0  0
  8 13  1  0  0  0  0
  8  9  1  0  0  0  0
  9 10  1  0  0  0  0
  9 34  1  0  0  0  0
  9 35  1  0  0  0  0
 10 11  1  0  0  0  0
 10 36  1  0  0  0  0
 10 37  1  0  0  0  0
 11 12  1  0  0  0  0
 11 38  1  0  0  0  0
 11 39  1  0  0  0  0
 12 13  1  0  0  0  0
 12 40  1  0  0  0  0
 12 41  1  0  0  0  0
 13 42  1  0  0  0  0
 13 43  1  0  0  0  0
 14 15  1  0  0  0  0
 15 22  1  0  0  0  0
 15 16  2  0  0  0  0
 16 17  1  0  0  0  0
 17 18  2  0  0  0  0
 17 19  1  0  0  0  0
 19 24  1  0  0  0  0
 19 20  1  0  0  0  0
 20 21  2  0  0  0  0
 20 22  1  0  0  0  0
 22 23  1  0  0  0  0
 23 44  1  0  0  0  0
 23 45  1  0  0  0  0
 23 46  1  0  0  0  0
M  END
> <s_m_source_file>
AV-unprocessed.smi

> <i_m_source_file_index>
531

> <i_lp_mmshare_version>
43012

> <i_f3d_flags>
0

> <s_epik_input>
W0NIM11uMWMoPU8pW25IXWMoPU8pYyhjMTIpbihbQ0gyXVtDSDJdT1tDSDJdW0NIM10pYyhuMilOM1tDSDJdW0NIMl1bQ0gyXVtDSDJdW0NIMl0z

> <s_epik_cmdline>
J2VwaWtfcHl0aG9uJywgJy1waCcsICc3LjAnLCAnLXRuJywgJzgnLCAnLW1hJywgJzIwMCcsICctbWV0YWxfYmluZGluZycsICctaW1hZScsICc8aW5maWxlLm1hZT4nLCAnLW9tYWUnLCAnPG91dGZpbGUubWFlPic=

> <r_lp_tautomer_probability>
1

> <r_epik_Ionization_Penalty>
0.000274134

> <r_epik_Ionization_Penalty_Charging>
0.000122674

> <r_epik_Ionization_Penalty_Neutral>
0.00015146

> <r_epik_State_Penalty>
-0

> <r_epik_Charging_Adjusted_Penalty>
0.000122674

> <i_epik_Tot_Q>
0

> <i_epik_Tot_abs_Q>
0

> <r_epik_Metal_State_Penalty>
0.0938197

> <b_epik_Metal_Only>
0

> <s_lp_Force_Field>
OPLS_2005

> <r_lp_Energy>
38.5132

> <b_lp_Chiralities_Consistent>
1

> <s_lp_Variant>
AV-unprocessed.smi:531-1

> <Gold.Version>
5.8.1

> <Gold.Id.Protein>
6NUR|6NUR_protein|mol2

> <Gold.PLP.Fitness>
46.6814

> <Gold.PLP.PLP>
-42.2765

> <Gold.PLP.part.hbond>
-3.0000

> <Gold.PLP.part.metal>
0.0000

> <Gold.PLP.part.buried>
-2.6538

> <Gold.PLP.part.nonpolar>
-39.3871

> <Gold.PLP.part.repulsive>
3.3134

> <Gold.PLP.ligand.clash>
0.0000

> <Gold.PLP.ligand.torsion>
1.0595

> <Gold.PLP.Chemscore.Hbond>
2.0000

> <Gold.PLP.Chemscore.CHOScore>
0.0000

> <Gold.PLP.Chemscore.Metal>
0.0000

> <Gold.Chemscore.Hbonds>
donor molecule, donor type, donor heavy atom, donor atom, acceptor molecule, acceptor atom, score
      L1  H    19    24       P1  7948  1.00
      P1  H  7997  8010       L1     3  0.98

> <Gold.PLP.Chemscore.Internal.Correction>
0.5239

> <Gold.Rescore>
     Score         DG    S(hbond)    S(metal)    S(lipo)     H(rot)  DE(clash)    DE(int)     intcor
     14.02     -17.97       1.79        0.00      91.10       1.62       1.74       2.21       ----

> <Gold.Chemscore.Fitness>
14.0171

> <Gold.Chemscore.DG>
-17.9663

> <Gold.Chemscore.ZeroCoef>
-5.4800

> <Gold.Chemscore.Hbond>
1.7891

> <Gold.Chemscore.Metal>
0.0000

> <Gold.Chemscore.Lipo>
91.1016

> <Gold.Chemscore.Internal_Hbond>
0.0000

> <Gold.Chemscore.DEClash>
1.7417

> <Gold.Chemscore.DEInternal>
2.2075

> <Gold.Chemscore.Rot>
1.6204

> <Gold.Chemscore.Internal.Correction>
   9.000000E+99

> <Gold.Chemscore.Hbonds>
donor molecule, donor type, donor heavy atom, donor atom, acceptor molecule, acceptor atom, score
      L1  H    19    24       P1  7948  0.93
      P1  H  7997  8010       L1     3  0.49

> <Gold.Chemscore.Hbond.Weighted>
-5.9755

> <Gold.Chemscore.Metal.Weighted>
-0.0000

> <Gold.Chemscore.Lipo.Weighted>
-10.6589

> <Gold.Chemscore.Internal_Hbond.Weighted>
0.0000

> <Gold.Chemscore.DEClash.Weighted>
1.7417

> <Gold.Chemscore.DEInternal.Weighted>
2.2075

> <Gold.Chemscore.Rot.Weighted>
4.1481

> <Gold.Chemscore.Internal.Correction.Weighted>
   9.000000E+99

> <Gold.Protein.RotatedTorsions>
[ 6907 6896 6895 6894 ] final -107.39 input  -60.11 | X-H torsion
[ 7974 7965 7964 7962 ] final  -16.91 input  175.53 | X-H torsion
[ 8008 7997 7996 7995 ] final   24.16 input   59.86 | X-H torsion
[ 10167 10162 10161 10158 ] final  121.69 input  -65.29 | X-H torsion
[ 10718 10713 10712 10709 ] final  -69.99 input   66.30 | X-H torsion
[ 10763 10752 10751 10750 ] final -142.38 input  -60.55 | X-H torsion
[ 11005 11000 10999 10996 ] final  153.87 input  -57.11 | X-H torsion

> <Gold.Protein.ActiveResidues>
 VAL166  LYS551  ARG553  GLY616  TRP617  ASP618  TYR619  PRO620  LYS621  CYS622 
 ASP623  PHE694  ASN695  SER759  ASP760  ASP761  ALA762  ILE779  LEU786  VAL792 
 PHE793  MET794  SER795  GLU796  ALA797  LYS798  CYS799  TRP800  GLU811  SER814 

> <Gold.Protein.RotatedAtoms>
  150.7441  133.9834  159.3583 H   0  0  0  0  0  0  0  0  0  0  0  0  # atno 6907 bound_to 6896
  151.7777  135.0768  160.0378 H   0  0  0  0  0  0  0  0  0  0  0  0  # atno 6908 bound_to 6896
  152.3295  133.5906  159.5836 H   0  0  0  0  0  0  0  0  0  0  0  0  # atno 6909 bound_to 6896
  146.1966  140.3703  142.8438 H   0  0  0  0  0  0  0  0  0  0  0  0  # atno 7974 bound_to 7965
  154.9920  140.3115  155.4902 H   0  0  0  0  0  0  0  0  0  0  0  0  # atno 8008 bound_to 7997
  156.2938  140.2247  156.4965 H   0  0  0  0  0  0  0  0  0  0  0  0  # atno 8009 bound_to 7997
  154.7695  140.0453  157.1028 H   0  0  0  0  0  0  0  0  0  0  0  0  # atno 8010 bound_to 7997
  139.5904  144.7023  151.3305 H   0  0  0  0  0  0  0  0  0  0  0  0  # atno 10167 bound_to 10162
  156.0429  130.4323  150.2229 H   0  0  0  0  0  0  0  0  0  0  0  0  # atno 10718 bound_to 10713
  154.8511  135.3497  154.6019 H   0  0  0  0  0  0  0  0  0  0  0  0  # atno 10763 bound_to 10752
  153.6627  135.6989  153.5177 H   0  0  0  0  0  0  0  0  0  0  0  0  # atno 10764 bound_to 10752
  153.2804  135.4265  155.1031 H   0  0  0  0  0  0  0  0  0  0  0  0  # atno 10765 bound_to 10752
  140.1437  134.8722  157.2364 H   0  0  0  0  0  0  0  0  0  0  0  0  # atno 11005 bound_to 11000
  144.8593  140.7116  143.6118 LP  0  0  0  0  0  0  0  0  0  0  0  0  # atno 17320 bound_to 7965
  145.3624  139.1678  143.4376 LP  0  0  0  0  0  0  0  0  0  0  0  0  # atno 17321 bound_to 7965
  140.7168  143.7245  150.7670 LP  0  0  0  0  0  0  0  0  0  0  0  0  # atno 17342 bound_to 10162
  140.0799  143.4979  152.2535 LP  0  0  0  0  0  0  0  0  0  0  0  0  # atno 17343 bound_to 10162
  157.0322  131.0011  151.3309 LP  0  0  0  0  0  0  0  0  0  0  0  0  # atno 17370 bound_to 10713
  157.5269  130.8033  149.7872 LP  0  0  0  0  0  0  0  0  0  0  0  0  # atno 17371 bound_to 10713
  140.2690  134.3482  155.7380 LP  0  0  0  0  0  0  0  0  0  0  0  0  # atno 17394 bound_to 11000
  141.2189  133.7412  156.9195 LP  0  0  0  0  0  0  0  0  0  0  0  0  # atno 17395 bound_to 11000

$$$$
