AV-unprocessed.smi:3110|AV-procd|sdf|11831|dock10
  -GOLD-   2272017203D 1   1.00000     0.00000
 Structure written by MMmdl.
 33 34  0  0  0  0  0  0  0  0  1 V2000
  152.9860  139.6497  156.9767 O   0  0  0  0  0  0  0  0  0  0  0  0
  152.0580  140.0093  157.7013 C   0  0  0  0  0  0  0  0  0  0  0  0
  152.2678  140.1595  159.2116 C   0  0  0  0  0  0  0  0  0  0  0  0
  152.9171  141.5021  159.6068 C   0  0  1  0  0  0  0  0  0  0  0  0
  152.0934  142.6849  159.1673 C   0  0  0  0  0  0  0  0  0  0  0  0
  151.8630  143.5478  160.1543 C   0  0  0  0  0  0  0  0  0  0  0  0
  152.4848  143.1157  161.4530 C   0  0  0  0  0  0  0  0  0  0  0  0
  153.0657  141.7199  161.1368 C   0  0  0  0  0  0  0  0  0  0  0  0
  150.8298  140.2888  157.2392 N   0  0  0  0  0  0  0  0  0  0  0  0
  150.4212  140.1994  155.8427 C   0  0  0  0  0  0  0  0  0  0  0  0
  149.8305  141.5274  155.3404 C   0  0  0  0  0  0  0  0  0  0  0  0
  148.5322  141.3321  154.7283 N   0  0  0  0  0  0  0  0  0  0  0  0
  148.2442  140.5914  153.5896 C   0  0  0  0  0  0  0  0  0  0  0  0
  146.8855  140.6902  153.3907 C   0  0  0  0  0  0  0  0  0  0  0  0
  146.3212  141.4804  154.3893 N   0  0  0  0  0  0  0  0  0  0  0  0
  147.3572  141.8250  155.1434 C   0  0  0  0  0  0  0  0  0  0  0  0
  151.2943  140.0657  159.6944 H   0  0  0  0  0  0  0  0  0  0  0  0
  152.8764  139.3331  159.5828 H   0  0  0  0  0  0  0  0  0  0  0  0
  153.8910  141.5994  159.1246 H   0  0  0  0  0  0  0  0  0  0  0  0
  151.7536  142.8020  158.1487 H   0  0  0  0  0  0  0  0  0  0  0  0
  151.3084  144.4697  160.0591 H   0  0  0  0  0  0  0  0  0  0  0  0
  153.2642  143.8214  161.7422 H   0  0  0  0  0  0  0  0  0  0  0  0
  151.7376  143.0752  162.2460 H   0  0  0  0  0  0  0  0  0  0  0  0
  152.5062  140.9654  161.6918 H   0  0  0  0  0  0  0  0  0  0  0  0
  154.1068  141.6385  161.4513 H   0  0  0  0  0  0  0  0  0  0  0  0
  150.1269  140.5796  157.9035 H   0  0  0  0  0  0  0  0  0  0  0  0
  151.2979  139.9353  155.2504 H   0  0  0  0  0  0  0  0  0  0  0  0
  149.7038  139.3866  155.7153 H   0  0  0  0  0  0  0  0  0  0  0  0
  149.7199  142.2383  156.1606 H   0  0  0  0  0  0  0  0  0  0  0  0
  150.4950  141.9881  154.6083 H   0  0  0  0  0  0  0  0  0  0  0  0
  149.0074  140.0696  153.0313 H   0  0  0  0  0  0  0  0  0  0  0  0
  146.2751  140.2558  152.6124 H   0  0  0  0  0  0  0  0  0  0  0  0
  147.2591  142.4475  156.0208 H   0  0  0  0  0  0  0  0  0  0  0  0
  1  2  2  0  0  0  0
  2  3  1  0  0  0  0
  2  9  1  0  0  0  0
  3  4  1  0  0  0  0
  3 17  1  0  0  0  0
  3 18  1  0  0  0  0
  4  8  1  0  0  0  0
  4  5  1  0  0  0  0
  4 19  1  0  0  0  0
  5  6  2  0  0  0  0
  5 20  1  0  0  0  0
  6  7  1  0  0  0  0
  6 21  1  0  0  0  0
  7  8  1  0  0  0  0
  7 22  1  0  0  0  0
  7 23  1  0  0  0  0
  8 24  1  0  0  0  0
  8 25  1  0  0  0  0
  9 10  1  0  0  0  0
  9 26  1  0  0  0  0
 10 11  1  0  0  0  0
 10 27  1  0  0  0  0
 10 28  1  0  0  0  0
 11 12  1  0  0  0  0
 11 29  1  0  0  0  0
 11 30  1  0  0  0  0
 12 16  1  0  0  0  0
 12 13  1  0  0  0  0
 13 14  2  0  0  0  0
 13 31  1  0  0  0  0
 14 15  1  0  0  0  0
 14 32  1  0  0  0  0
 15 16  2  0  0  0  0
 16 33  1  0  0  0  0
M  END
> <s_m_source_file>
AV-unprocessed.smi

> <i_m_source_file_index>
3110

> <i_lp_mmshare_version>
43012

> <i_f3d_flags>
0

> <s_epik_input>
W0NIMl0xW0NIMl1bQ0hdPVtDSF1bQ0BIXTFbQ0gyXUMoPU8pW05IXVtDSDJdW0NIMl1uMltjSF1bY0hdbltjSF0y

> <s_epik_cmdline>
J2VwaWtfcHl0aG9uJywgJy1waCcsICc3LjAnLCAnLXRuJywgJzgnLCAnLW1hJywgJzIwMCcsICctbWV0YWxfYmluZGluZycsICctaW1hZScsICc8aW5maWxlLm1hZT4nLCAnLW9tYWUnLCAnPG91dGZpbGUubWFlPic=

> <r_lp_tautomer_probability>
1

> <r_epik_Ionization_Penalty>
0.593629

> <r_epik_Ionization_Penalty_Charging>
0.593629

> <r_epik_Ionization_Penalty_Neutral>
1.57355e-08

> <r_epik_State_Penalty>
0.607413

> <r_epik_Charging_Adjusted_Penalty>
1.20104

> <i_epik_Tot_Q>
0

> <i_epik_Tot_abs_Q>
0

> <r_epik_Metal_State_Penalty>
0.299385

> <b_epik_Metal_Only>
0

> <s_lp_Force_Field>
OPLS_2005

> <r_lp_Energy>
16.9466

> <b_lp_Chiralities_Consistent>
1

> <s_lp_Variant>
AV-unprocessed.smi:3110-4

> <Gold.Version>
5.8.1

> <Gold.Id.Protein>
6NUR|6NUR_protein|mol2

> <Gold.PLP.Fitness>
44.1311

> <Gold.PLP.PLP>
-34.3106

> <Gold.PLP.part.hbond>
-1.0000

> <Gold.PLP.part.metal>
0.0000

> <Gold.PLP.part.buried>
-0.8986

> <Gold.PLP.part.nonpolar>
-33.3276

> <Gold.PLP.part.repulsive>
0.1965

> <Gold.PLP.ligand.clash>
0.0000

> <Gold.PLP.ligand.torsion>
0.6961

> <Gold.PLP.Chemscore.Hbond>
1.0000

> <Gold.PLP.Chemscore.CHOScore>
2.7247

> <Gold.PLP.Chemscore.Metal>
0.0000

> <Gold.Chemscore.Hbonds>
donor molecule, donor type, donor heavy atom, donor atom, acceptor molecule, acceptor atom, score
      P1  H  7997  8010       L1     1  0.91
      L1  C    13    31       P1  7957  0.84
      L1  C    14    32       P1 10175  0.75
      L1  C    16    33       P1  8028  0.20

> <Gold.PLP.Chemscore.Internal.Correction>
0.0384

> <Gold.Rescore>
     Score         DG    S(hbond)    S(metal)    S(lipo)     H(rot)  DE(clash)    DE(int)     intcor
     13.41     -14.40       1.00        0.00      91.84       2.01       0.14       0.85       ----

> <Gold.Chemscore.Fitness>
13.4081

> <Gold.Chemscore.DG>
-14.4022

> <Gold.Chemscore.ZeroCoef>
-5.4800

> <Gold.Chemscore.Hbond>
0.9955

> <Gold.Chemscore.Metal>
0.0000

> <Gold.Chemscore.Lipo>
91.8379

> <Gold.Chemscore.Internal_Hbond>
0.0000

> <Gold.Chemscore.DEClash>
0.1440

> <Gold.Chemscore.DEInternal>
0.8501

> <Gold.Chemscore.Rot>
2.0108

> <Gold.Chemscore.Internal.Correction>
   9.000000E+99

> <Gold.Chemscore.Hbonds>
donor molecule, donor type, donor heavy atom, donor atom, acceptor molecule, acceptor atom, score
      P1  H  7997  8010       L1     1  0.87

> <Gold.Chemscore.Hbond.Weighted>
-3.3249

> <Gold.Chemscore.Metal.Weighted>
-0.0000

> <Gold.Chemscore.Lipo.Weighted>
-10.7450

> <Gold.Chemscore.Internal_Hbond.Weighted>
0.0000

> <Gold.Chemscore.DEClash.Weighted>
0.1440

> <Gold.Chemscore.DEInternal.Weighted>
0.8501

> <Gold.Chemscore.Rot.Weighted>
5.1477

> <Gold.Chemscore.Internal.Correction.Weighted>
   9.000000E+99

> <Gold.Protein.RotatedTorsions>
[ 6907 6896 6895 6894 ] final  -15.89 input  -60.11 | X-H torsion
[ 7974 7965 7964 7962 ] final   10.90 input  175.53 | X-H torsion
[ 8008 7997 7996 7995 ] final   58.34 input   59.86 | X-H torsion
[ 10167 10162 10161 10158 ] final  -80.30 input  -65.29 | X-H torsion
[ 10718 10713 10712 10709 ] final  104.49 input   66.30 | X-H torsion
[ 10763 10752 10751 10750 ] final   18.02 input  -60.55 | X-H torsion
[ 11005 11000 10999 10996 ] final  -30.63 input  -57.11 | X-H torsion

> <Gold.Protein.ActiveResidues>
 VAL166  LYS551  ARG553  GLY616  TRP617  ASP618  TYR619  PRO620  LYS621  CYS622 
 ASP623  PHE694  ASN695  SER759  ASP760  ASP761  ALA762  ILE779  LEU786  VAL792 
 PHE793  MET794  SER795  GLU796  ALA797  LYS798  CYS799  TRP800  GLU811  SER814 

> <Gold.Protein.RotatedAtoms>
  151.3170  135.0809  159.9291 H   0  0  0  0  0  0  0  0  0  0  0  0  # atno 6907 bound_to 6896
  152.5265  133.9678  159.7758 H   0  0  0  0  0  0  0  0  0  0  0  0  # atno 6908 bound_to 6896
  150.9992  133.6021  159.2727 H   0  0  0  0  0  0  0  0  0  0  0  0  # atno 6909 bound_to 6896
  146.2380  139.9565  142.8464 H   0  0  0  0  0  0  0  0  0  0  0  0  # atno 7974 bound_to 7965
  155.5485  140.3486  155.4463 H   0  0  0  0  0  0  0  0  0  0  0  0  # atno 8008 bound_to 7997
  156.0600  140.1338  156.9978 H   0  0  0  0  0  0  0  0  0  0  0  0  # atno 8009 bound_to 7997
  154.4475  140.0987  156.6488 H   0  0  0  0  0  0  0  0  0  0  0  0  # atno 8010 bound_to 7997
  140.4515  143.2481  151.8481 H   0  0  0  0  0  0  0  0  0  0  0  0  # atno 10167 bound_to 10162
  157.6738  131.0805  150.5714 H   0  0  0  0  0  0  0  0  0  0  0  0  # atno 10718 bound_to 10713
  153.1287  135.6735  153.9215 H   0  0  0  0  0  0  0  0  0  0  0  0  # atno 10763 bound_to 10752
  153.8708  135.3070  155.3443 H   0  0  0  0  0  0  0  0  0  0  0  0  # atno 10764 bound_to 10752
  154.7688  135.4950  153.9687 H   0  0  0  0  0  0  0  0  0  0  0  0  # atno 10765 bound_to 10752
  140.9399  133.7285  156.1060 H   0  0  0  0  0  0  0  0  0  0  0  0  # atno 11005 bound_to 11000
  145.1812  140.9768  143.4265 LP  0  0  0  0  0  0  0  0  0  0  0  0  # atno 17320 bound_to 7965
  144.9940  139.3661  143.6200 LP  0  0  0  0  0  0  0  0  0  0  0  0  # atno 17321 bound_to 7965
  139.4797  144.5114  151.8927 LP  0  0  0  0  0  0  0  0  0  0  0  0  # atno 17342 bound_to 10162
  140.4201  144.2254  150.5887 LP  0  0  0  0  0  0  0  0  0  0  0  0  # atno 17343 bound_to 10162
  156.6016  130.4356  149.5895 LP  0  0  0  0  0  0  0  0  0  0  0  0  # atno 17370 bound_to 10713
  156.2502  130.6902  151.1637 LP  0  0  0  0  0  0  0  0  0  0  0  0  # atno 17371 bound_to 10713
  140.7748  134.3792  157.5500 LP  0  0  0  0  0  0  0  0  0  0  0  0  # atno 17394 bound_to 11000
  139.8817  134.9045  156.2878 LP  0  0  0  0  0  0  0  0  0  0  0  0  # atno 17395 bound_to 11000

$$$$
