#       Name:                AV-unprocessed.smi:3068
#       Creating user name   scv26
#       Creation time:       Fri Mar 27 17:10:11 2020


#       File generated by GOLD software.
#

@<TRIPOS>MOLECULE
AV-unprocessed.smi:3068
    45    47     1
SMALL
NO_CHARGES


@<TRIPOS>ATOM
      1 ****        -2.1119  -5.4567  -1.2261 N.1            1 S1                 0.0000
      2 ****        -2.6652  -4.4406  -1.2521 C.1            1 S1                 0.0000
      3 ****        -3.3604  -3.1602  -1.2842 C.ar           1 S1                 0.0000
      4 ****        -4.7123  -3.2009  -1.2458 N.ar           1 S1                 0.0000
      5 ****        -5.3676  -2.0208  -1.2707 C.ar           1 S1                 0.0000
      6 ****        -4.6770  -0.7949  -1.3340 C.ar           1 S1                 0.0000
      7 ****        -3.3283  -0.7443  -1.3731 N.ar           1 S1                 0.0000
      8 ****        -2.6580  -1.9234  -1.3481 C.ar           1 S1                 0.0000
      9 ****        -1.2529  -1.8846  -1.3859 N.pl3          1 S1                 0.0000
     10 ****        -0.5338  -0.6204  -1.3171 C.3            1 S1                 0.0000
     11 ****         0.9845  -0.8411  -1.1674 C.3            1 S1                 0.0000
     12 ****         1.7909   0.4710  -1.1934 C.3            1 S1                 0.0000
     13 ****         1.5906   1.2532   0.0494 N.4            1 S1                 1.0000
     14 ****         2.3317   2.5402   0.0265 C.3            1 S1                 0.0000
     15 ****         2.0405   3.3722   1.2854 C.3            1 S1                 0.0000
     16 ****         2.3672   2.5736   2.5533 C.3            1 S1                 0.0000
     17 ****         1.6080   1.2404   2.5417 C.3            1 S1                 0.0000
     18 ****         1.8973   0.4387   1.2565 C.3            1 S1                 0.0000
     19 ****         1.0883  -0.8721   1.2295 C.3            1 S1                 0.0000
     20 ****         1.3173  -1.5738   0.0122 O.3            1 S1                 0.0000
     21 ****        -6.4465  -2.0551  -1.2391 H              1 S1                 0.0000
     22 ****        -5.2069   0.1459  -1.3524 H              1 S1                 0.0000
     23 ****        -0.7272  -2.7467  -1.3471 H              1 S1                 0.0000
     24 ****        -0.7298  -0.0670  -2.2363 H              1 S1                 0.0000
     25 ****        -0.9237  -0.0132  -0.5002 H              1 S1                 0.0000
     26 ****         1.3128  -1.4462  -2.0135 H              1 S1                 0.0000
     27 ****         2.8524   0.2436  -1.3027 H              1 S1                 0.0000
     28 ****         1.5063   1.0690  -2.0601 H              1 S1                 0.0000
     29 ****         3.4025   2.3443  -0.0527 H              1 S1                 0.0000
     30 ****         2.0474   3.1093  -0.8594 H              1 S1                 0.0000
     31 ****         2.6225   4.2940   1.2658 H              1 S1                 0.0000
     32 ****         0.9905   3.6680   1.2964 H              1 S1                 0.0000
     33 ****         3.4407   2.3879   2.6081 H              1 S1                 0.0000
     34 ****         2.1037   3.1501   3.4407 H              1 S1                 0.0000
     35 ****         1.8835   0.6538   3.4188 H              1 S1                 0.0000
     36 ****         0.5373   1.4336   2.6238 H              1 S1                 0.0000
     37 ****         2.9594   0.1872   1.2328 H              1 S1                 0.0000
     38 ****         1.3935  -1.5148   2.0557 H              1 S1                 0.0000
     39 ****         0.0235  -0.6835   1.3681 H              1 S1                 0.0000
     40 ****         0.6081   1.4833   0.0952 H              1 S1                 0.0000
     41 ****        -1.6338  -6.3347  -1.2036 LP             1 S1                 0.0000
     42 ****        -5.2058  -4.0694  -1.2008 LP             1 S1                 0.0000
     43 ****        -2.8424   0.1285  -1.4187 LP             1 S1                 0.0000
     44 ****         2.2873  -1.8130  -0.0323 LP             1 S1                 0.0000
     45 ****         0.7682  -2.4094   0.0258 LP             1 S1                 0.0000
@<TRIPOS>BOND
    1    1    2 3     
    2    2    3 1     
    3    3    8 ar    
    4    3    4 ar    
    5    4    5 ar    
    6    5    6 ar    
    7    5   21 1     
    8    6    7 ar    
    9    6   22 1     
   10    7    8 ar    
   11    8    9 1     
   12    9   10 1     
   13    9   23 1     
   14   10   11 1     
   15   10   24 1     
   16   10   25 1     
   17   11   20 1     
   18   11   12 1     
   19   11   26 1     
   20   12   13 1     
   21   12   27 1     
   22   12   28 1     
   23   13   18 1     
   24   13   14 1     
   25   13   40 1     
   26   14   15 1     
   27   14   29 1     
   28   14   30 1     
   29   15   16 1     
   30   15   31 1     
   31   15   32 1     
   32   16   17 1     
   33   16   33 1     
   34   16   34 1     
   35   17   18 1     
   36   17   35 1     
   37   17   36 1     
   38   18   19 1     
   39   18   37 1     
   40   19   20 1     
   41   19   38 1     
   42   19   39 1     
   43    1   41 1     
   44    4   42 1     
   45    7   43 1     
   46   20   44 1     
   47   20   45 1     
@<TRIPOS>SUBSTRUCTURE
      1 S1             1
@<TRIPOS>SET
LONE_PAIRS      STATIC     ATOMS    <user>   **** ""
5 41 42 43 44 45
DONOR_HYDROGENS      STATIC     ATOMS    <user>   **** ""
2 23 40
ATOM$BLUE        STATIC     ATOMS    COLORGROUP SYSTEM
5 41 42 43 44 45
ATOM$RED        STATIC     ATOMS    COLORGROUP SYSTEM
2 23 40
