#       Name:                AV-unprocessed.smi:3005
#       Creating user name   scv26
#       Creation time:       Fri Mar 27 16:37:28 2020


#       File generated by GOLD software.
#

@<TRIPOS>MOLECULE
AV-unprocessed.smi:3005
    38    39     1
SMALL
NO_CHARGES


@<TRIPOS>ATOM
      1 ****        -3.0052  -1.2195   1.0582 C.3            1 S1                 0.0000
      2 ****        -2.0671  -0.0930   1.3675 C.2            1 S1                 0.0000
      3 ****        -0.7197  -0.2017   1.0125 N.2            1 S1                 0.0000
      4 ****        -0.0087   0.8782   1.3460 C.2            1 S1                 0.0000
      5 ****         1.7150   1.1127   1.0593 S.3            1 S1                 0.0000
      6 ****         2.0899  -0.4068   0.1370 C.3            1 S1                 0.0000
      7 ****         3.5653  -0.4799  -0.2667 C.2            1 S1                 0.0000
      8 ****         4.4268  -0.6917   0.5867 O.2            1 S1                 0.0000
      9 ****         3.8852  -0.3564  -1.6220 N.am           1 S1                 0.0000
     10 ****         3.0991  -1.0133  -2.6558 C.3            1 S1                 0.0000
     11 ****         4.4031  -1.0745  -3.4575 C.3            1 S1                 0.0000
     12 ****         5.1533  -0.8479  -2.1412 C.3            1 S1                 0.0000
     13 ****        -0.9689   2.1180   2.1376 S.3            1 S1                 0.0000
     14 ****        -2.3773   1.0977   1.9833 C.2            1 S1                 0.0000
     15 ****        -3.7100   1.5543   2.4896 C.3            1 S1                 0.0000
     16 ****        -4.5613   2.1334   1.3574 C.2            1 S1                 0.0000
     17 ****        -5.7269   1.5335   1.1031 N.am           1 S1                 0.0000
     18 ****        -4.1712   3.1075   0.7167 O.2            1 S1                 0.0000
     19 ****        -3.7906  -0.8983   0.3738 H              1 S1                 0.0000
     20 ****        -3.4860  -1.5898   1.9637 H              1 S1                 0.0000
     21 ****        -2.4890  -2.0601   0.5935 H              1 S1                 0.0000
     22 ****         1.8594  -1.2707   0.7611 H              1 S1                 0.0000
     23 ****         1.4351  -0.4561  -0.7323 H              1 S1                 0.0000
     24 ****         2.7273  -1.9970  -2.3615 H              1 S1                 0.0000
     25 ****         2.3257  -0.3828  -3.0960 H              1 S1                 0.0000
     26 ****         4.5972  -2.0409  -3.9237 H              1 S1                 0.0000
     27 ****         4.5145  -0.2518  -4.1661 H              1 S1                 0.0000
     28 ****         5.9364  -0.0906  -2.1877 H              1 S1                 0.0000
     29 ****         5.4906  -1.7760  -1.6748 H              1 S1                 0.0000
     30 ****        -4.2308   0.7253   2.9710 H              1 S1                 0.0000
     31 ****        -3.5795   2.3209   3.2542 H              1 S1                 0.0000
     32 ****        -6.3235   1.8795   0.3658 H              1 S1                 0.0000
     33 ****        -6.0074   0.7336   1.6519 H              1 S1                 0.0000
     34 ****        -0.3299  -1.0024   0.5576 LP             1 S1                 0.0000
     35 ****         4.1631  -0.8160   1.5433 LP             1 S1                 0.0000
     36 ****         5.3903  -0.7395   0.3234 LP             1 S1                 0.0000
     37 ****        -3.2905   3.5286   0.9337 LP             1 S1                 0.0000
     38 ****        -4.7346   3.4787  -0.0213 LP             1 S1                 0.0000
@<TRIPOS>BOND
    1    1    2 1     
    2    1   19 1     
    3    1   20 1     
    4    1   21 1     
    5    2   14 2     
    6    2    3 1     
    7    3    4 2     
    8    4    5 1     
    9    4   13 1     
   10    5    6 1     
   11    6    7 1     
   12    6   22 1     
   13    6   23 1     
   14    7    8 2     
   15    7    9 am    
   16    9   12 1     
   17    9   10 1     
   18   10   11 1     
   19   10   24 1     
   20   10   25 1     
   21   11   12 1     
   22   11   26 1     
   23   11   27 1     
   24   12   28 1     
   25   12   29 1     
   26   13   14 1     
   27   14   15 1     
   28   15   16 1     
   29   15   30 1     
   30   15   31 1     
   31   16   17 am    
   32   16   18 2     
   33   17   32 1     
   34   17   33 1     
   35    3   34 1     
   36    8   35 1     
   37    8   36 1     
   38   18   37 1     
   39   18   38 1     
@<TRIPOS>SUBSTRUCTURE
      1 S1             1
@<TRIPOS>SET
LONE_PAIRS      STATIC     ATOMS    <user>   **** ""
5 34 35 36 37 38
DONOR_HYDROGENS      STATIC     ATOMS    <user>   **** ""
2 32 33
ATOM$BLUE        STATIC     ATOMS    COLORGROUP SYSTEM
5 34 35 36 37 38
ATOM$RED        STATIC     ATOMS    COLORGROUP SYSTEM
2 32 33
