AV-unprocessed.smi:447|AV-procd|sdf|2600|dock3
  -GOLD-   2262022593D 1   1.00000     0.00000
 Structure written by MMmdl.
 45 47  0  0  0  0  0  0  0  0  1 V2000
  151.8286  135.6195  152.4053 C   0  0  0  0  0  0  0  0  0  0  0  0
  151.6582  136.8067  153.3465 C   0  0  0  0  0  0  0  0  0  0  0  0
  150.9691  136.6957  154.3600 O   0  0  0  0  0  0  0  0  0  0  0  0
  152.2928  137.9354  152.9953 N   0  0  0  0  0  0  0  0  0  0  0  0
  152.2507  139.2003  153.7268 C   0  0  1  0  0  0  0  0  0  0  0  0
  153.1081  140.2627  153.0243 C   0  0  0  0  0  0  0  0  0  0  0  0
  150.8070  139.6197  153.8454 C   0  0  0  0  0  0  0  0  0  0  0  0
  149.8330  139.0076  153.1643 N   0  0  0  0  0  0  0  0  0  0  0  0
  148.7012  139.6921  153.5587 C   0  0  0  0  0  0  0  0  0  0  0  0
  147.3469  139.5157  153.1947 C   0  0  0  0  0  0  0  0  0  0  0  0
  146.3476  140.3507  153.7367 C   0  0  0  0  0  0  0  0  0  0  0  0
  146.6876  141.3710  154.6487 C   0  0  0  0  0  0  0  0  0  0  0  0
  148.0311  141.5631  155.0239 C   0  0  0  0  0  0  0  0  0  0  0  0
  149.0246  140.7273  154.4792 C   0  0  0  0  0  0  0  0  0  0  0  0
  150.4050  140.6523  154.6337 N   0  0  0  0  0  0  0  0  0  0  0  0
  151.2060  141.5246  155.4837 C   0  0  0  0  0  0  0  0  0  0  0  0
  150.5204  141.8353  156.8302 C   0  0  1  0  0  0  0  0  0  0  0  0
  149.9199  140.6700  157.3625 O   0  0  0  0  0  0  0  0  0  0  0  0
  151.4927  142.4752  157.8084 C   0  0  0  0  0  0  0  0  0  0  0  0
  152.6403  141.7686  158.2284 C   0  0  0  0  0  0  0  0  0  0  0  0
  153.5409  142.3543  159.1394 C   0  0  0  0  0  0  0  0  0  0  0  0
  153.2975  143.6487  159.6376 C   0  0  0  0  0  0  0  0  0  0  0  0
  152.1522  144.3569  159.2256 C   0  0  0  0  0  0  0  0  0  0  0  0
  151.2516  143.7720  158.3143 C   0  0  0  0  0  0  0  0  0  0  0  0
  151.3751  135.8346  151.4375 H   0  0  0  0  0  0  0  0  0  0  0  0
  151.3521  134.7284  152.8153 H   0  0  0  0  0  0  0  0  0  0  0  0
  152.8857  135.4009  152.2522 H   0  0  0  0  0  0  0  0  0  0  0  0
  152.8315  137.9304  152.1411 H   0  0  0  0  0  0  0  0  0  0  0  0
  152.6624  139.0346  154.7208 H   0  0  0  0  0  0  0  0  0  0  0  0
  153.0843  141.2055  153.5716 H   0  0  0  0  0  0  0  0  0  0  0  0
  152.7530  140.4561  152.0115 H   0  0  0  0  0  0  0  0  0  0  0  0
  154.1493  139.9458  152.9584 H   0  0  0  0  0  0  0  0  0  0  0  0
  147.0767  138.7367  152.4973 H   0  0  0  0  0  0  0  0  0  0  0  0
  145.3155  140.2076  153.4520 H   0  0  0  0  0  0  0  0  0  0  0  0
  145.9163  142.0058  155.0598 H   0  0  0  0  0  0  0  0  0  0  0  0
  148.2949  142.3435  155.7223 H   0  0  0  0  0  0  0  0  0  0  0  0
  152.1938  141.0894  155.6309 H   0  0  0  0  0  0  0  0  0  0  0  0
  151.3794  142.4548  154.9410 H   0  0  0  0  0  0  0  0  0  0  0  0
  149.7077  142.5400  156.6485 H   0  0  0  0  0  0  0  0  0  0  0  0
  148.9843  140.8008  157.3895 H   0  0  0  0  0  0  0  0  0  0  0  0
  152.8343  140.7739  157.8543 H   0  0  0  0  0  0  0  0  0  0  0  0
  154.4185  141.8104  159.4571 H   0  0  0  0  0  0  0  0  0  0  0  0
  153.9875  144.0975  160.3369 H   0  0  0  0  0  0  0  0  0  0  0  0
  151.9637  145.3488  159.6093 H   0  0  0  0  0  0  0  0  0  0  0  0
  150.3734  144.3212  158.0063 H   0  0  0  0  0  0  0  0  0  0  0  0
  1  2  1  0  0  0  0
  1 25  1  0  0  0  0
  1 26  1  0  0  0  0
  1 27  1  0  0  0  0
  2  3  2  0  0  0  0
  2  4  1  0  0  0  0
  4  5  1  0  0  0  0
  4 28  1  0  0  0  0
  5  6  1  0  0  0  0
  5  7  1  0  0  0  0
  5 29  1  0  0  0  0
  6 30  1  0  0  0  0
  6 31  1  0  0  0  0
  6 32  1  0  0  0  0
  7 15  1  0  0  0  0
  7  8  2  0  0  0  0
  8  9  1  0  0  0  0
  9 14  2  0  0  0  0
  9 10  1  0  0  0  0
 10 11  2  0  0  0  0
 10 33  1  0  0  0  0
 11 12  1  0  0  0  0
 11 34  1  0  0  0  0
 12 13  2  0  0  0  0
 12 35  1  0  0  0  0
 13 14  1  0  0  0  0
 13 36  1  0  0  0  0
 14 15  1  0  0  0  0
 15 16  1  0  0  0  0
 16 17  1  0  0  0  0
 16 37  1  0  0  0  0
 16 38  1  0  0  0  0
 17 18  1  0  0  0  0
 17 19  1  0  0  0  0
 17 39  1  0  0  0  0
 18 40  1  0  0  0  0
 19 24  1  0  0  0  0
 19 20  2  0  0  0  0
 20 21  1  0  0  0  0
 20 41  1  0  0  0  0
 21 22  2  0  0  0  0
 21 42  1  0  0  0  0
 22 23  1  0  0  0  0
 22 43  1  0  0  0  0
 23 24  2  0  0  0  0
 23 44  1  0  0  0  0
 24 45  1  0  0  0  0
M  END
> <s_m_source_file>
AV-unprocessed.smi

> <i_m_source_file_index>
447

> <i_lp_mmshare_version>
43012

> <i_f3d_flags>
0

> <s_epik_input>
W0NIM11DKD1PKVtOSF1bQ0BIXShbQ0gzXSljKG4xKW4oYyhjMTIpW2NIXVtjSF1bY0hdW2NIXTIpW0NIMl1bQ0BIXShbT0hdKWMzW2NIXVtjSF1bY0hdW2NIXVtjSF0z

> <s_epik_cmdline>
J2VwaWtfcHl0aG9uJywgJy1waCcsICc3LjAnLCAnLXRuJywgJzgnLCAnLW1hJywgJzIwMCcsICctbWV0YWxfYmluZGluZycsICctaW1hZScsICc8aW5maWxlLm1hZT4nLCAnLW9tYWUnLCAnPG91dGZpbGUubWFlPic=

> <r_epik_Ionization_Penalty>
0.13301

> <r_epik_Ionization_Penalty_Charging>
0

> <r_epik_Ionization_Penalty_Neutral>
0.13301

> <r_epik_State_Penalty>
0.122384

> <r_epik_Charging_Adjusted_Penalty>
0.122384

> <i_epik_Tot_Q>
0

> <i_epik_Tot_abs_Q>
0

> <r_epik_Metal_State_Penalty>
0.0997374

> <b_epik_Metal_Only>
0

> <s_lp_Force_Field>
OPLS_2005

> <r_lp_Energy>
8.36794

> <b_lp_Chiralities_Consistent>
1

> <s_lp_Variant>
AV-unprocessed.smi:447-4

> <Gold.Version>
5.8.1

> <Gold.Id.Protein>
6NUR|6NUR_protein|mol2

> <Gold.PLP.Fitness>
49.6844

> <Gold.PLP.PLP>
-50.7320

> <Gold.PLP.part.hbond>
0.0000

> <Gold.PLP.part.metal>
0.0000

> <Gold.PLP.part.buried>
-1.3910

> <Gold.PLP.part.nonpolar>
-50.7534

> <Gold.PLP.part.repulsive>
1.5231

> <Gold.PLP.ligand.clash>
0.0000

> <Gold.PLP.ligand.torsion>
0.5702

> <Gold.PLP.Chemscore.Hbond>
0.0000

> <Gold.PLP.Chemscore.CHOScore>
0.0000

> <Gold.PLP.Chemscore.Metal>
0.0000

> <Gold.PLP.Chemscore.Internal.Correction>
0.0928

> <Gold.Rescore>
     Score         DG    S(hbond)    S(metal)    S(lipo)     H(rot)  DE(clash)    DE(int)     intcor
     14.21     -16.08       0.00        0.00     142.11       2.35       0.93       0.95       ----

> <Gold.Chemscore.Fitness>
14.2052

> <Gold.Chemscore.DG>
-16.0843

> <Gold.Chemscore.ZeroCoef>
-5.4800

> <Gold.Chemscore.Hbond>
0.0000

> <Gold.Chemscore.Metal>
0.0000

> <Gold.Chemscore.Lipo>
142.1144

> <Gold.Chemscore.Internal_Hbond>
0.0000

> <Gold.Chemscore.DEClash>
0.9266

> <Gold.Chemscore.DEInternal>
0.9525

> <Gold.Chemscore.Rot>
2.3528

> <Gold.Chemscore.Internal.Correction>
   9.000000E+99

> <Gold.Chemscore.Hbond.Weighted>
-0.0000

> <Gold.Chemscore.Metal.Weighted>
-0.0000

> <Gold.Chemscore.Lipo.Weighted>
-16.6274

> <Gold.Chemscore.Internal_Hbond.Weighted>
0.0000

> <Gold.Chemscore.DEClash.Weighted>
0.9266

> <Gold.Chemscore.DEInternal.Weighted>
0.9525

> <Gold.Chemscore.Rot.Weighted>
6.0231

> <Gold.Chemscore.Internal.Correction.Weighted>
   9.000000E+99

> <Gold.Protein.RotatedTorsions>
[ 6907 6896 6895 6894 ] final   -2.80 input  -60.11 | X-H torsion
[ 7974 7965 7964 7962 ] final    8.22 input  175.53 | X-H torsion
[ 8008 7997 7996 7995 ] final   93.63 input   59.86 | X-H torsion
[ 10167 10162 10161 10158 ] final   -6.52 input  -65.29 | X-H torsion
[ 10718 10713 10712 10709 ] final -113.07 input   66.30 | X-H torsion
[ 10763 10752 10751 10750 ] final   35.62 input  -60.55 | X-H torsion
[ 11005 11000 10999 10996 ] final  -82.03 input  -57.11 | X-H torsion

> <Gold.Protein.ActiveResidues>
 VAL166  LYS551  ARG553  GLY616  TRP617  ASP618  TYR619  PRO620  LYS621  CYS622 
 ASP623  PHE694  ASN695  SER759  ASP760  ASP761  ALA762  ILE779  LEU786  VAL792 
 PHE793  MET794  SER795  GLU796  ALA797  LYS798  CYS799  TRP800  GLU811  SER814 

> <Gold.Protein.RotatedAtoms>
  151.5241  135.1067  159.9885 H   0  0  0  0  0  0  0  0  0  0  0  0  # atno 6907 bound_to 6896
  152.4608  133.7813  159.6863 H   0  0  0  0  0  0  0  0  0  0  0  0  # atno 6908 bound_to 6896
  150.8569  133.7637  159.3031 H   0  0  0  0  0  0  0  0  0  0  0  0  # atno 6909 bound_to 6896
  146.2418  139.9966  142.8420 H   0  0  0  0  0  0  0  0  0  0  0  0  # atno 7974 bound_to 7965
  156.0489  140.3310  155.7328 H   0  0  0  0  0  0  0  0  0  0  0  0  # atno 8008 bound_to 7997
  155.5632  140.0621  157.2841 H   0  0  0  0  0  0  0  0  0  0  0  0  # atno 8009 bound_to 7997
  154.4426  140.1874  156.0792 H   0  0  0  0  0  0  0  0  0  0  0  0  # atno 8010 bound_to 7997
  140.6999  143.6185  150.8635 H   0  0  0  0  0  0  0  0  0  0  0  0  # atno 10167 bound_to 10162
  156.0744  130.5954  150.8593 H   0  0  0  0  0  0  0  0  0  0  0  0  # atno 10718 bound_to 10713
  153.0111  135.6328  154.1855 H   0  0  0  0  0  0  0  0  0  0  0  0  # atno 10763 bound_to 10752
  154.1597  135.2824  155.3114 H   0  0  0  0  0  0  0  0  0  0  0  0  # atno 10764 bound_to 10752
  154.5991  135.5593  153.7416 H   0  0  0  0  0  0  0  0  0  0  0  0  # atno 10765 bound_to 10752
  141.1664  133.7225  156.8511 H   0  0  0  0  0  0  0  0  0  0  0  0  # atno 11005 bound_to 11000
  145.1454  140.9594  143.4464 LP  0  0  0  0  0  0  0  0  0  0  0  0  # atno 17320 bound_to 7965
  145.0256  139.3386  143.6050 LP  0  0  0  0  0  0  0  0  0  0  0  0  # atno 17321 bound_to 7965
  139.9906  143.5851  152.2911 LP  0  0  0  0  0  0  0  0  0  0  0  0  # atno 17342 bound_to 10162
  139.6505  144.7660  151.2158 LP  0  0  0  0  0  0  0  0  0  0  0  0  # atno 17343 bound_to 10162
  157.5832  131.0946  150.9238 LP  0  0  0  0  0  0  0  0  0  0  0  0  # atno 17370 bound_to 10713
  156.9429  130.5391  149.5280 LP  0  0  0  0  0  0  0  0  0  0  0  0  # atno 17371 bound_to 10713
  140.1915  134.8962  157.3065 LP  0  0  0  0  0  0  0  0  0  0  0  0  # atno 17394 bound_to 11000
  140.2285  134.3937  155.7532 LP  0  0  0  0  0  0  0  0  0  0  0  0  # atno 17395 bound_to 11000

$$$$
