AV-unprocessed.smi:113|AV-procd|sdf|1097|dock10
  -GOLD-   2262018203D 1   1.00000     0.00000
 Structure written by MMmdl.
 52 55  0  0  0  0  0  0  0  0  1 V2000
  151.1221  138.0896  158.7608 C   0  0  0  0  0  0  0  0  0  0  0  0
  151.2125  139.5574  158.3991 C   0  0  0  0  0  0  0  0  0  0  0  0
  150.6268  140.0448  157.2173 C   0  0  0  0  0  0  0  0  0  0  0  0
  150.7354  141.4215  156.9148 C   0  0  0  0  0  0  0  0  0  0  0  0
  150.1129  142.0052  155.6414 C   0  0  0  0  0  0  0  0  0  0  0  0
  148.7705  141.5565  155.2993 N   0  0  0  0  0  0  0  0  0  0  0  0
  148.5969  140.8695  154.0730 C   0  0  0  0  0  0  0  0  0  0  0  0
  149.5427  140.6622  153.3097 O   0  0  0  0  0  0  0  0  0  0  0  0
  147.2311  140.4148  153.8025 C   0  0  0  0  0  0  0  0  0  0  0  0
  146.9696  139.6648  152.5058 C   0  0  0  0  0  0  0  0  0  0  0  0
  146.2490  140.6617  154.7027 C   0  0  0  0  0  0  0  0  0  0  0  0
  146.4443  141.3410  155.8922 N   0  0  0  0  0  0  0  0  0  0  0  0
  145.2915  141.5044  156.8580 C   0  0  2  0  0  0  0  0  0  0  0  0
  144.7398  140.1719  157.3951 C   0  0  0  0  0  0  0  0  0  0  0  0
  143.2333  140.3088  157.1973 C   0  0  2  0  0  0  0  0  0  0  0  0
  142.7867  139.4286  156.1832 O   0  0  0  0  0  0  0  0  0  0  0  0
  143.0379  141.7920  156.8326 C   0  0  2  0  0  0  0  0  0  0  0  0
  141.8310  142.1471  155.9458 C   0  0  0  0  0  0  0  0  0  0  0  0
  141.9084  141.4640  154.7121 O   0  0  0  0  0  0  0  0  0  0  0  0
  144.2538  142.1566  156.1992 O   0  0  0  0  0  0  0  0  0  0  0  0
  147.7392  141.7869  156.2372 C   0  0  0  0  0  0  0  0  0  0  0  0
  147.9589  142.3345  157.3195 O   0  0  0  0  0  0  0  0  0  0  0  0
  151.4379  142.2504  157.8312 C   0  0  0  0  0  0  0  0  0  0  0  0
  151.5895  143.6402  157.6058 C   0  0  0  0  0  0  0  0  0  0  0  0
  152.2897  144.4427  158.5244 C   0  0  0  0  0  0  0  0  0  0  0  0
  152.8452  143.8652  159.6780 C   0  0  0  0  0  0  0  0  0  0  0  0
  152.6988  142.4858  159.9096 C   0  0  0  0  0  0  0  0  0  0  0  0
  152.0000  141.6610  159.0021 C   0  0  0  0  0  0  0  0  0  0  0  0
  151.8825  140.3410  159.2662 N   0  0  0  0  0  0  0  0  0  0  0  0
  150.3186  137.5984  158.2110 H   0  0  0  0  0  0  0  0  0  0  0  0
  150.9259  137.9650  159.8264 H   0  0  0  0  0  0  0  0  0  0  0  0
  152.0584  137.5850  158.5219 H   0  0  0  0  0  0  0  0  0  0  0  0
  150.1047  139.3618  156.5644 H   0  0  0  0  0  0  0  0  0  0  0  0
  150.0874  143.0942  155.7022 H   0  0  0  0  0  0  0  0  0  0  0  0
  150.7501  141.7989  154.7800 H   0  0  0  0  0  0  0  0  0  0  0  0
  145.9195  139.3914  152.3989 H   0  0  0  0  0  0  0  0  0  0  0  0
  147.5585  138.7473  152.4715 H   0  0  0  0  0  0  0  0  0  0  0  0
  147.2427  140.2796  151.6473 H   0  0  0  0  0  0  0  0  0  0  0  0
  145.2544  140.3062  154.4740 H   0  0  0  0  0  0  0  0  0  0  0  0
  145.6513  142.1450  157.6642 H   0  0  0  0  0  0  0  0  0  0  0  0
  145.1641  139.3101  156.8783 H   0  0  0  0  0  0  0  0  0  0  0  0
  144.9985  140.0897  158.4510 H   0  0  0  0  0  0  0  0  0  0  0  0
  142.6909  140.0625  158.1108 H   0  0  0  0  0  0  0  0  0  0  0  0
  142.1369  138.8483  156.5489 H   0  0  0  0  0  0  0  0  0  0  0  0
  142.9831  142.3729  157.7554 H   0  0  0  0  0  0  0  0  0  0  0  0
  140.9085  141.8445  156.4418 H   0  0  0  0  0  0  0  0  0  0  0  0
  141.7569  143.2211  155.7740 H   0  0  0  0  0  0  0  0  0  0  0  0
  142.1372  142.0835  154.0364 H   0  0  0  0  0  0  0  0  0  0  0  0
  151.1743  144.1161  156.7307 H   0  0  0  0  0  0  0  0  0  0  0  0
  152.3997  145.5018  158.3429 H   0  0  0  0  0  0  0  0  0  0  0  0
  153.3829  144.4791  160.3856 H   0  0  0  0  0  0  0  0  0  0  0  0
  153.1302  142.0531  160.8005 H   0  0  0  0  0  0  0  0  0  0  0  0
  1  2  1  0  0  0  0
  1 30  1  0  0  0  0
  1 31  1  0  0  0  0
  1 32  1  0  0  0  0
  2 29  1  0  0  0  0
  2  3  2  0  0  0  0
  3  4  1  0  0  0  0
  3 33  1  0  0  0  0
  4  5  1  0  0  0  0
  4 23  2  0  0  0  0
  5  6  1  0  0  0  0
  5 34  1  0  0  0  0
  5 35  1  0  0  0  0
  6 21  1  0  0  0  0
  6  7  1  0  0  0  0
  7  8  2  0  0  0  0
  7  9  1  0  0  0  0
  9 10  1  0  0  0  0
  9 11  2  0  0  0  0
 10 36  1  0  0  0  0
 10 37  1  0  0  0  0
 10 38  1  0  0  0  0
 11 12  1  0  0  0  0
 11 39  1  0  0  0  0
 12 13  1  0  0  0  0
 12 21  1  0  0  0  0
 13 20  1  0  0  0  0
 13 14  1  0  0  0  0
 13 40  1  0  0  0  0
 14 15  1  0  0  0  0
 14 41  1  0  0  0  0
 14 42  1  0  0  0  0
 15 16  1  0  0  0  0
 15 17  1  0  0  0  0
 15 43  1  0  0  0  0
 16 44  1  0  0  0  0
 17 18  1  0  0  0  0
 17 20  1  0  0  0  0
 17 45  1  0  0  0  0
 18 19  1  0  0  0  0
 18 46  1  0  0  0  0
 18 47  1  0  0  0  0
 19 48  1  0  0  0  0
 21 22  2  0  0  0  0
 23 28  1  0  0  0  0
 23 24  1  0  0  0  0
 24 25  2  0  0  0  0
 24 49  1  0  0  0  0
 25 26  1  0  0  0  0
 25 50  1  0  0  0  0
 26 27  2  0  0  0  0
 26 51  1  0  0  0  0
 27 28  1  0  0  0  0
 27 52  1  0  0  0  0
 28 29  2  0  0  0  0
M  END
> <s_m_source_file>
AV-unprocessed.smi

> <i_m_source_file_index>
113

> <i_lp_mmshare_version>
43012

> <i_f3d_flags>
0

> <s_epik_input>
W2NIXTFbY0hdW2NIXVtjSF1jKGMxMiluYyhbQ0gzXSlbY0hdYzJbQ0gyXW4zYyg9TyljKFtDSDNdKVtjSF1uKGMzPU8pW0NAQEhdNFtDSDJdW0NAQEhdKFtPSF0pW0NASF0oTzQpW0NIMl1bT0hd

> <s_epik_cmdline>
J2VwaWtfcHl0aG9uJywgJy1waCcsICc3LjAnLCAnLXRuJywgJzgnLCAnLW1hJywgJzIwMCcsICctbWV0YWxfYmluZGluZycsICctaW1hZScsICc8aW5maWxlLm1hZT4nLCAnLW9tYWUnLCAnPG91dGZpbGUubWFlPic=

> <r_lp_tautomer_probability>
1

> <r_epik_Ionization_Penalty>
0.214728

> <r_epik_Ionization_Penalty_Charging>
3.04883e-08

> <r_epik_Ionization_Penalty_Neutral>
0.214728

> <r_epik_State_Penalty>
0.204913

> <r_epik_Charging_Adjusted_Penalty>
0.204913

> <i_epik_Tot_Q>
0

> <i_epik_Tot_abs_Q>
0

> <r_epik_Metal_State_Penalty>
0.000244761

> <b_epik_Metal_Only>
0

> <s_epik_Chemistry_Notes>
This compound contains an acetal/aminal-like group ( X-CH(R)-Y where X, Y are N, S, or O) that may be acid/base labile, releasing an aldehyde.

> <s_lp_Force_Field>
OPLS_2005

> <r_lp_Energy>
37.3201

> <b_lp_Chiralities_Consistent>
1

> <s_lp_Variant>
AV-unprocessed.smi:113-7

> <Gold.Version>
5.8.1

> <Gold.Id.Protein>
6NUR|6NUR_protein|mol2

> <Gold.PLP.Fitness>
47.7890

> <Gold.PLP.PLP>
-38.4514

> <Gold.PLP.part.hbond>
-4.0000

> <Gold.PLP.part.metal>
0.0000

> <Gold.PLP.part.buried>
-1.6525

> <Gold.PLP.part.nonpolar>
-38.4217

> <Gold.PLP.part.repulsive>
6.2185

> <Gold.PLP.ligand.clash>
0.0000

> <Gold.PLP.ligand.torsion>
0.2673

> <Gold.PLP.Chemscore.Hbond>
2.2860

> <Gold.PLP.Chemscore.CHOScore>
0.9939

> <Gold.PLP.Chemscore.Metal>
0.0000

> <Gold.Chemscore.Hbonds>
donor molecule, donor type, donor heavy atom, donor atom, acceptor molecule, acceptor atom, score
      L1  H    19    48       P1 10174  0.99
      P1  H  7989  7998       L1     8  0.29
      P1  H  8011  8017       L1     8  1.00
      L1  C    11    39       P1 10175  0.97

> <Gold.PLP.Chemscore.Internal.Correction>
0.0325

> <Gold.Rescore>
     Score         DG    S(hbond)    S(metal)    S(lipo)     H(rot)  DE(clash)    DE(int)     intcor
     11.13     -16.44       1.54        0.00     114.15       2.95       3.77       1.55       ----

> <Gold.Chemscore.Fitness>
11.1302

> <Gold.Chemscore.DG>
-16.4449

> <Gold.Chemscore.ZeroCoef>
-5.4800

> <Gold.Chemscore.Hbond>
1.5428

> <Gold.Chemscore.Metal>
0.0000

> <Gold.Chemscore.Lipo>
114.1523

> <Gold.Chemscore.Internal_Hbond>
0.0000

> <Gold.Chemscore.DEClash>
3.7674

> <Gold.Chemscore.DEInternal>
1.5473

> <Gold.Chemscore.Rot>
2.9469

> <Gold.Chemscore.Internal.Correction>
   9.000000E+99

> <Gold.Chemscore.Hbonds>
donor molecule, donor type, donor heavy atom, donor atom, acceptor molecule, acceptor atom, score
      L1  H    19    48       P1 10174  0.46
      P1  H  7989  7998       L1     8  0.28
      P1  H  8011  8017       L1     8  0.47

> <Gold.Chemscore.Hbond.Weighted>
-5.1530

> <Gold.Chemscore.Metal.Weighted>
-0.0000

> <Gold.Chemscore.Lipo.Weighted>
-13.3558

> <Gold.Chemscore.Internal_Hbond.Weighted>
0.0000

> <Gold.Chemscore.DEClash.Weighted>
3.7674

> <Gold.Chemscore.DEInternal.Weighted>
1.5473

> <Gold.Chemscore.Rot.Weighted>
7.5439

> <Gold.Chemscore.Internal.Correction.Weighted>
   9.000000E+99

> <Gold.Protein.RotatedTorsions>
[ 6907 6896 6895 6894 ] final -112.63 input  -60.11 | X-H torsion
[ 7974 7965 7964 7962 ] final -125.49 input  175.53 | X-H torsion
[ 8008 7997 7996 7995 ] final   72.21 input   59.86 | X-H torsion
[ 10167 10162 10161 10158 ] final  -98.64 input  -65.29 | X-H torsion
[ 10718 10713 10712 10709 ] final   28.18 input   66.30 | X-H torsion
[ 10763 10752 10751 10750 ] final -179.99 input  -60.55 | X-H torsion
[ 11005 11000 10999 10996 ] final   21.63 input  -57.11 | X-H torsion

> <Gold.Protein.ActiveResidues>
 VAL166  LYS551  ARG553  GLY616  TRP617  ASP618  TYR619  PRO620  LYS621  CYS622 
 ASP623  PHE694  ASN695  SER759  ASP760  ASP761  ALA762  ILE779  LEU786  VAL792 
 PHE793  MET794  SER795  GLU796  ALA797  LYS798  CYS799  TRP800  GLU811  SER814 

> <Gold.Protein.RotatedAtoms>
  150.7772  133.9061  159.3355 H   0  0  0  0  0  0  0  0  0  0  0  0  # atno 6907 bound_to 6896
  151.6933  135.0941  160.0247 H   0  0  0  0  0  0  0  0  0  0  0  0  # atno 6908 bound_to 6896
  152.3812  133.6510  159.6198 H   0  0  0  0  0  0  0  0  0  0  0  0  # atno 6909 bound_to 6896
  144.9971  140.7786  143.4519 H   0  0  0  0  0  0  0  0  0  0  0  0  # atno 7974 bound_to 7965
  155.7655  140.3485  155.5220 H   0  0  0  0  0  0  0  0  0  0  0  0  # atno 8008 bound_to 7997
  155.8873  140.1012  157.1464 H   0  0  0  0  0  0  0  0  0  0  0  0  # atno 8009 bound_to 7997
  154.4030  140.1311  156.4258 H   0  0  0  0  0  0  0  0  0  0  0  0  # atno 8010 bound_to 7997
  140.2708  143.3345  152.0536 H   0  0  0  0  0  0  0  0  0  0  0  0  # atno 10167 bound_to 10162
  157.2300  130.7019  149.6309 H   0  0  0  0  0  0  0  0  0  0  0  0  # atno 10718 bound_to 10713
  154.5280  135.2798  155.1205 H   0  0  0  0  0  0  0  0  0  0  0  0  # atno 10763 bound_to 10752
  154.2736  135.6299  153.5323 H   0  0  0  0  0  0  0  0  0  0  0  0  # atno 10764 bound_to 10752
  152.9950  135.5634  154.5786 H   0  0  0  0  0  0  0  0  0  0  0  0  # atno 10765 bound_to 10752
  140.3895  134.1835  155.7662 H   0  0  0  0  0  0  0  0  0  0  0  0  # atno 11005 bound_to 11000
  145.2205  139.2161  143.5095 LP  0  0  0  0  0  0  0  0  0  0  0  0  # atno 17320 bound_to 7965
  146.3444  140.2061  142.8589 LP  0  0  0  0  0  0  0  0  0  0  0  0  # atno 17321 bound_to 7965
  139.4989  144.6657  151.6361 LP  0  0  0  0  0  0  0  0  0  0  0  0  # atno 17342 bound_to 10162
  140.5891  143.9812  150.6313 LP  0  0  0  0  0  0  0  0  0  0  0  0  # atno 17343 bound_to 10162
  155.9676  130.4492  150.5649 LP  0  0  0  0  0  0  0  0  0  0  0  0  # atno 17370 bound_to 10713
  157.3488  131.0730  151.1730 LP  0  0  0  0  0  0  0  0  0  0  0  0  # atno 17371 bound_to 10713
  141.1896  133.8235  157.0951 LP  0  0  0  0  0  0  0  0  0  0  0  0  # atno 17394 bound_to 11000
  140.0418  134.9850  157.0975 LP  0  0  0  0  0  0  0  0  0  0  0  0  # atno 17395 bound_to 11000

$$$$
