AV-unprocessed.smi:2667|AV-procd|sdf|10334|dock5
  -GOLD-   2272014353D 1   1.00000     0.00000
 Structure written by MMmdl.
 44 46  0  0  0  0  0  0  0  0  1 V2000
  149.1440  133.0305  154.2074 C   0  0  0  0  0  0  0  0  0  0  0  0
  148.6998  132.7482  155.6515 C   0  0  0  0  0  0  0  0  0  0  0  0
  149.3472  133.6713  156.6955 C   0  0  0  0  0  0  0  0  0  0  0  0
  149.9741  133.1842  157.6375 O   0  0  0  0  0  0  0  0  0  0  0  0
  149.1800  135.1420  156.5089 C   0  0  0  0  0  0  0  0  0  0  0  0
  148.4414  135.6811  155.4297 C   0  0  0  0  0  0  0  0  0  0  0  0
  148.3083  137.0747  155.2808 C   0  0  0  0  0  0  0  0  0  0  0  0
  148.9037  137.9622  156.1985 C   0  0  0  0  0  0  0  0  0  0  0  0
  148.7269  139.3102  155.9729 O   0  0  0  0  0  0  0  0  0  0  0  0
  149.4270  140.2314  156.7999 C   0  0  0  0  0  0  0  0  0  0  0  0
  150.7355  140.6611  156.1154 C   0  0  2  0  0  0  0  0  0  0  0  0
  150.9966  139.7819  155.0364 O   0  0  0  0  0  0  0  0  0  0  0  0
  151.9258  140.8544  157.0929 C   0  0  0  0  0  0  0  0  0  0  0  0
  151.7957  141.9981  157.9809 N   0  0  0  0  0  0  0  0  0  0  0  0
  151.1342  143.1455  157.7338 C   0  0  0  0  0  0  0  0  0  0  0  0
  151.1494  144.0753  158.6843 N   0  0  0  0  0  0  0  0  0  0  0  0
  151.9046  143.4574  159.6665 C   0  0  0  0  0  0  0  0  0  0  0  0
  152.2980  143.9156  160.9444 C   0  0  0  0  0  0  0  0  0  0  0  0
  153.0785  143.0977  161.7879 C   0  0  0  0  0  0  0  0  0  0  0  0
  153.4735  141.8104  161.3695 C   0  0  0  0  0  0  0  0  0  0  0  0
  153.0921  141.3321  160.1017 C   0  0  0  0  0  0  0  0  0  0  0  0
  152.3192  142.1531  159.2601 C   0  0  0  0  0  0  0  0  0  0  0  0
  149.6403  137.4247  157.2821 C   0  0  0  0  0  0  0  0  0  0  0  0
  149.7753  136.0309  157.4322 C   0  0  0  0  0  0  0  0  0  0  0  0
  148.6547  132.3452  153.5153 H   0  0  0  0  0  0  0  0  0  0  0  0
  150.2208  132.9031  154.0895 H   0  0  0  0  0  0  0  0  0  0  0  0
  148.8867  134.0453  153.9022 H   0  0  0  0  0  0  0  0  0  0  0  0
  147.6166  132.8520  155.7200 H   0  0  0  0  0  0  0  0  0  0  0  0
  148.9395  131.7153  155.9049 H   0  0  0  0  0  0  0  0  0  0  0  0
  147.9661  135.0445  154.6988 H   0  0  0  0  0  0  0  0  0  0  0  0
  147.7399  137.4658  154.4498 H   0  0  0  0  0  0  0  0  0  0  0  0
  148.8095  141.1044  157.0190 H   0  0  0  0  0  0  0  0  0  0  0  0
  149.6704  139.7496  157.7481 H   0  0  0  0  0  0  0  0  0  0  0  0
  150.5443  141.6269  155.6460 H   0  0  0  0  0  0  0  0  0  0  0  0
  150.2127  139.2867  154.8553 H   0  0  0  0  0  0  0  0  0  0  0  0
  152.0344  139.9632  157.7123 H   0  0  0  0  0  0  0  0  0  0  0  0
  152.8679  140.9456  156.5510 H   0  0  0  0  0  0  0  0  0  0  0  0
  150.6175  143.3093  156.7994 H   0  0  0  0  0  0  0  0  0  0  0  0
  151.9989  144.8988  161.2760 H   0  0  0  0  0  0  0  0  0  0  0  0
  153.3742  143.4592  162.7617 H   0  0  0  0  0  0  0  0  0  0  0  0
  154.0694  141.1898  162.0225 H   0  0  0  0  0  0  0  0  0  0  0  0
  153.3887  140.3456  159.7805 H   0  0  0  0  0  0  0  0  0  0  0  0
  150.1147  138.0607  158.0137 H   0  0  0  0  0  0  0  0  0  0  0  0
  150.3453  135.6532  158.2691 H   0  0  0  0  0  0  0  0  0  0  0  0
  1  2  1  0  0  0  0
  1 25  1  0  0  0  0
  1 26  1  0  0  0  0
  1 27  1  0  0  0  0
  2  3  1  0  0  0  0
  2 28  1  0  0  0  0
  2 29  1  0  0  0  0
  3  4  2  0  0  0  0
  3  5  1  0  0  0  0
  5 24  1  0  0  0  0
  5  6  2  0  0  0  0
  6  7  1  0  0  0  0
  6 30  1  0  0  0  0
  7  8  2  0  0  0  0
  7 31  1  0  0  0  0
  8  9  1  0  0  0  0
  8 23  1  0  0  0  0
  9 10  1  0  0  0  0
 10 11  1  0  0  0  0
 10 32  1  0  0  0  0
 10 33  1  0  0  0  0
 11 12  1  0  0  0  0
 11 13  1  0  0  0  0
 11 34  1  0  0  0  0
 12 35  1  0  0  0  0
 13 14  1  0  0  0  0
 13 36  1  0  0  0  0
 13 37  1  0  0  0  0
 14 22  1  0  0  0  0
 14 15  1  0  0  0  0
 15 16  2  0  0  0  0
 15 38  1  0  0  0  0
 16 17  1  0  0  0  0
 17 22  2  0  0  0  0
 17 18  1  0  0  0  0
 18 19  2  0  0  0  0
 18 39  1  0  0  0  0
 19 20  1  0  0  0  0
 19 40  1  0  0  0  0
 20 21  2  0  0  0  0
 20 41  1  0  0  0  0
 21 22  1  0  0  0  0
 21 42  1  0  0  0  0
 23 24  2  0  0  0  0
 23 43  1  0  0  0  0
 24 44  1  0  0  0  0
M  END
> <s_m_source_file>
AV-unprocessed.smi

> <i_m_source_file_index>
2667

> <i_lp_mmshare_version>
43012

> <i_f3d_flags>
0

> <s_epik_input>
W0NIM11bQ0gyXUMoPU8pYzFbY0hdW2NIXWMoW2NIXVtjSF0xKU9bQ0gyXVtDQEhdKFtPSF0pW0NIMl1uKFtjSF1uMiljKGMyMylbY0hdW2NIXVtjSF1bY0hdMw==

> <s_epik_cmdline>
J2VwaWtfcHl0aG9uJywgJy1waCcsICc3LjAnLCAnLXRuJywgJzgnLCAnLW1hJywgJzIwMCcsICctbWV0YWxfYmluZGluZycsICctaW1hZScsICc8aW5maWxlLm1hZT4nLCAnLW9tYWUnLCAnPG91dGZpbGUubWFlPic=

> <r_lp_tautomer_probability>
0.9999

> <r_epik_Ionization_Penalty>
0.0583018

> <r_epik_Ionization_Penalty_Charging>
0

> <r_epik_Ionization_Penalty_Neutral>
0.0583018

> <r_epik_State_Penalty>
0.0504087

> <r_epik_Charging_Adjusted_Penalty>
0.0504087

> <i_epik_Tot_Q>
0

> <i_epik_Tot_abs_Q>
0

> <r_epik_Metal_State_Penalty>
5.26129e-05

> <b_epik_Metal_Only>
0

> <s_lp_Force_Field>
OPLS_2005

> <r_lp_Energy>
26.5089

> <b_lp_Chiralities_Consistent>
1

> <s_lp_Variant>
AV-unprocessed.smi:2667-1

> <Gold.Version>
5.8.1

> <Gold.Id.Protein>
6NUR|6NUR_protein|mol2

> <Gold.PLP.Fitness>
46.1636

> <Gold.PLP.PLP>
-39.6479

> <Gold.PLP.part.hbond>
-2.0000

> <Gold.PLP.part.metal>
0.0000

> <Gold.PLP.part.buried>
-6.7949

> <Gold.PLP.part.nonpolar>
-31.4628

> <Gold.PLP.part.repulsive>
0.1098

> <Gold.PLP.ligand.clash>
0.0000

> <Gold.PLP.ligand.torsion>
1.3298

> <Gold.PLP.Chemscore.Hbond>
2.0000

> <Gold.PLP.Chemscore.CHOScore>
1.0000

> <Gold.PLP.Chemscore.Metal>
0.0000

> <Gold.Chemscore.Hbonds>
donor molecule, donor type, donor heavy atom, donor atom, acceptor molecule, acceptor atom, score
      P1  H  6896  6907       L1     4  1.00
      P1  H  7989  7998       L1    12  1.00
      L1  C    15    38       P1  8028  1.00

> <Gold.PLP.Chemscore.Internal.Correction>
0.1752

> <Gold.Rescore>
     Score         DG    S(hbond)    S(metal)    S(lipo)     H(rot)  DE(clash)    DE(int)     intcor
     15.99     -17.54       1.96        0.00     101.83       2.49       0.06       1.50       ----

> <Gold.Chemscore.Fitness>
15.9859

> <Gold.Chemscore.DG>
-17.5431

> <Gold.Chemscore.ZeroCoef>
-5.4800

> <Gold.Chemscore.Hbond>
1.9556

> <Gold.Chemscore.Metal>
0.0000

> <Gold.Chemscore.Lipo>
101.8283

> <Gold.Chemscore.Internal_Hbond>
0.0000

> <Gold.Chemscore.DEClash>
0.0559

> <Gold.Chemscore.DEInternal>
1.5012

> <Gold.Chemscore.Rot>
2.4932

> <Gold.Chemscore.Internal.Correction>
   9.000000E+99

> <Gold.Chemscore.Hbonds>
donor molecule, donor type, donor heavy atom, donor atom, acceptor molecule, acceptor atom, score
      P1  H  6896  6907       L1     4  0.96
      P1  H  7989  7998       L1    12  0.56

> <Gold.Chemscore.Hbond.Weighted>
-6.5318

> <Gold.Chemscore.Metal.Weighted>
-0.0000

> <Gold.Chemscore.Lipo.Weighted>
-11.9139

> <Gold.Chemscore.Internal_Hbond.Weighted>
0.0000

> <Gold.Chemscore.DEClash.Weighted>
0.0559

> <Gold.Chemscore.DEInternal.Weighted>
1.5012

> <Gold.Chemscore.Rot.Weighted>
6.3826

> <Gold.Chemscore.Internal.Correction.Weighted>
   9.000000E+99

> <Gold.Protein.RotatedTorsions>
[ 6907 6896 6895 6894 ] final -145.28 input  -60.11 | X-H torsion
[ 7974 7965 7964 7962 ] final  143.56 input  175.53 | X-H torsion
[ 8008 7997 7996 7995 ] final  109.25 input   59.86 | X-H torsion
[ 10167 10162 10161 10158 ] final   44.81 input  -65.29 | X-H torsion
[ 10718 10713 10712 10709 ] final  110.78 input   66.30 | X-H torsion
[ 10763 10752 10751 10750 ] final  -45.54 input  -60.55 | X-H torsion
[ 11005 11000 10999 10996 ] final   92.65 input  -57.11 | X-H torsion

> <Gold.Protein.ActiveResidues>
 VAL166  LYS551  ARG553  GLY616  TRP617  ASP618  TYR619  PRO620  LYS621  CYS622 
 ASP623  PHE694  ASN695  SER759  ASP760  ASP761  ALA762  ILE779  LEU786  VAL792 
 PHE793  MET794  SER795  GLU796  ALA797  LYS798  CYS799  TRP800  GLU811  SER814 

> <Gold.Protein.RotatedAtoms>
  151.1255  133.5073  159.2600 H   0  0  0  0  0  0  0  0  0  0  0  0  # atno 6907 bound_to 6896
  151.1814  135.0362  159.8804 H   0  0  0  0  0  0  0  0  0  0  0  0  # atno 6908 bound_to 6896
  152.5458  134.1107  159.8410 H   0  0  0  0  0  0  0  0  0  0  0  0  # atno 6909 bound_to 6896
  144.8910  139.5558  143.5798 H   0  0  0  0  0  0  0  0  0  0  0  0  # atno 7974 bound_to 7965
  156.1965  140.3061  155.9438 H   0  0  0  0  0  0  0  0  0  0  0  0  # atno 8008 bound_to 7997
  155.3053  140.0448  157.3049 H   0  0  0  0  0  0  0  0  0  0  0  0  # atno 8009 bound_to 7997
  154.5516  140.2293  155.8484 H   0  0  0  0  0  0  0  0  0  0  0  0  # atno 8010 bound_to 7997
  140.3305  144.2595  150.6169 H   0  0  0  0  0  0  0  0  0  0  0  0  # atno 10167 bound_to 10162
  157.6478  131.0939  150.6651 H   0  0  0  0  0  0  0  0  0  0  0  0  # atno 10718 bound_to 10713
  154.0302  135.6658  153.4780 H   0  0  0  0  0  0  0  0  0  0  0  0  # atno 10763 bound_to 10752
  153.0544  135.5065  154.7940 H   0  0  0  0  0  0  0  0  0  0  0  0  # atno 10764 bound_to 10752
  154.6883  135.3057  154.9481 H   0  0  0  0  0  0  0  0  0  0  0  0  # atno 10765 bound_to 10752
  139.8820  134.8745  156.3603 H   0  0  0  0  0  0  0  0  0  0  0  0  # atno 11005 bound_to 11000
  146.3054  139.7562  142.9060 LP  0  0  0  0  0  0  0  0  0  0  0  0  # atno 17320 bound_to 7965
  145.3783  141.0354  143.3192 LP  0  0  0  0  0  0  0  0  0  0  0  0  # atno 17321 bound_to 7965
  140.5402  143.2225  151.8098 LP  0  0  0  0  0  0  0  0  0  0  0  0  # atno 17342 bound_to 10162
  139.4857  144.4610  151.9541 LP  0  0  0  0  0  0  0  0  0  0  0  0  # atno 17343 bound_to 10162
  156.6966  130.4611  149.5584 LP  0  0  0  0  0  0  0  0  0  0  0  0  # atno 17370 bound_to 10713
  156.1824  130.6507  151.0967 LP  0  0  0  0  0  0  0  0  0  0  0  0  # atno 17371 bound_to 10713
  140.9534  133.7436  156.0302 LP  0  0  0  0  0  0  0  0  0  0  0  0  # atno 17394 bound_to 11000
  140.8078  134.3434  157.5421 LP  0  0  0  0  0  0  0  0  0  0  0  0  # atno 17395 bound_to 11000

$$$$
