#       Name:                AV-unprocessed.smi:1100
#       Creating user name   scv26
#       Creation time:       Fri Mar 27 03:29:54 2020


#       File generated by GOLD software.
#

@<TRIPOS>MOLECULE
AV-unprocessed.smi:1100
    50    51     1
SMALL
NO_CHARGES


@<TRIPOS>ATOM
      1 ****        -1.9794   1.2258  -1.3463 C.3            1 S1                 0.0000
      2 ****        -1.1659  -0.0462  -1.6882 C.3            1 S1                 0.0000
      3 ****         0.3499   0.2842  -1.7312 C.3            1 S1                 0.0000
      4 ****         0.8467   0.8613  -0.4854 N.am           1 S1                 0.0000
      5 ****         1.0981   0.1678   0.6340 C.2            1 S1                 0.0000
      6 ****         0.9329  -1.0485   0.7193 O.2            1 S1                 0.0000
      7 ****         1.5283   0.9801   1.6164 N.am           1 S1                 0.0000
      8 ****         1.9180   0.6570   2.9238 C.2            1 S1                 0.0000
      9 ****         2.0727  -0.6920   3.4496 C.2            1 S1                 0.0000
     10 ****         2.4488  -0.8960   4.7277 C.2            1 S1                 0.0000
     11 ****         2.7189   0.2186   5.6391 C.2            1 S1                 0.0000
     12 ****         3.0501   0.0437   6.8120 O.2            1 S1                 0.0000
     13 ****         2.5815   1.4650   5.1016 N.am           1 S1                 0.0000
     14 ****         2.8348   2.6481   5.9274 C.3            1 S1                 0.0000
     15 ****         2.1850   1.6709   3.7670 C.2            1 S1                 0.0000
     16 ****        -1.5869  -0.7016  -2.9694 N.4            1 S1                 1.0000
     17 ****        -1.1676  -2.1280  -3.0434 C.3            1 S1                 0.0000
     18 ****        -1.5277  -2.7411  -4.4060 C.3            1 S1                 0.0000
     19 ****        -2.9261  -2.6248  -4.6228 O.3            1 S1                 0.0000
     20 ****        -3.3365  -1.2660  -4.6578 C.3            1 S1                 0.0000
     21 ****        -3.0328  -0.5920  -3.3087 C.3            1 S1                 0.0000
     22 ****        -1.6347   1.6888  -0.4218 H              1 S1                 0.0000
     23 ****        -3.0351   1.0058  -1.1875 H              1 S1                 0.0000
     24 ****        -1.9000   1.9749  -2.1348 H              1 S1                 0.0000
     25 ****        -1.3497  -0.7587  -0.8823 H              1 S1                 0.0000
     26 ****         0.9536  -0.5932  -1.9605 H              1 S1                 0.0000
     27 ****         0.5461   0.9995  -2.5306 H              1 S1                 0.0000
     28 ****         1.0074   1.8581  -0.4753 H              1 S1                 0.0000
     29 ****         1.5779   1.9635   1.3941 H              1 S1                 0.0000
     30 ****         1.9061  -1.5625   2.8367 H              1 S1                 0.0000
     31 ****         2.5608  -1.9076   5.0896 H              1 S1                 0.0000
     32 ****         2.8033   3.5755   5.3546 H              1 S1                 0.0000
     33 ****         3.8196   2.5931   6.3937 H              1 S1                 0.0000
     34 ****         2.0880   2.7246   6.7186 H              1 S1                 0.0000
     35 ****         2.1040   2.7081   3.4748 H              1 S1                 0.0000
     36 ****        -0.0951  -2.2324  -2.8901 H              1 S1                 0.0000
     37 ****        -1.6543  -2.6931  -2.2468 H              1 S1                 0.0000
     38 ****        -0.9763  -2.2549  -5.2123 H              1 S1                 0.0000
     39 ****        -1.2555  -3.7965  -4.4261 H              1 S1                 0.0000
     40 ****        -2.8372  -0.7433  -5.4756 H              1 S1                 0.0000
     41 ****        -4.4065  -1.2267  -4.8636 H              1 S1                 0.0000
     42 ****        -3.6314  -1.0478  -2.5183 H              1 S1                 0.0000
     43 ****        -3.3360   0.4513  -3.3907 H              1 S1                 0.0000
     44 ****        -1.0978  -0.2141  -3.7064 H              1 S1                 0.0000
     45 ****         0.5968  -1.5639  -0.0689 LP             1 S1                 0.0000
     46 ****         1.1347  -1.5215   1.5769 LP             1 S1                 0.0000
     47 ****         3.1429  -0.8845   7.1723 LP             1 S1                 0.0000
     48 ****         3.2263   0.8299   7.4044 LP             1 S1                 0.0000
     49 ****        -3.4096  -3.0912  -3.8820 LP             1 S1                 0.0000
     50 ****        -3.1566  -3.0563  -5.4949 LP             1 S1                 0.0000
@<TRIPOS>BOND
    1    1    2 1     
    2    1   22 1     
    3    1   23 1     
    4    1   24 1     
    5    2    3 1     
    6    2   16 1     
    7    2   25 1     
    8    3    4 1     
    9    3   26 1     
   10    3   27 1     
   11    4    5 am    
   12    4   28 1     
   13    5    6 2     
   14    5    7 am    
   15    7    8 1     
   16    7   29 1     
   17    8   15 2     
   18    8    9 1     
   19    9   10 2     
   20    9   30 1     
   21   10   11 1     
   22   10   31 1     
   23   11   12 2     
   24   11   13 am    
   25   13   14 1     
   26   13   15 1     
   27   14   32 1     
   28   14   33 1     
   29   14   34 1     
   30   15   35 1     
   31   16   21 1     
   32   16   17 1     
   33   16   44 1     
   34   17   18 1     
   35   17   36 1     
   36   17   37 1     
   37   18   19 1     
   38   18   38 1     
   39   18   39 1     
   40   19   20 1     
   41   20   21 1     
   42   20   40 1     
   43   20   41 1     
   44   21   42 1     
   45   21   43 1     
   46    6   45 1     
   47    6   46 1     
   48   12   47 1     
   49   12   48 1     
   50   19   49 1     
   51   19   50 1     
@<TRIPOS>SUBSTRUCTURE
      1 S1             1
@<TRIPOS>SET
LONE_PAIRS      STATIC     ATOMS    <user>   **** ""
6 45 46 47 48 49 50
DONOR_HYDROGENS      STATIC     ATOMS    <user>   **** ""
3 28 29 44
ATOM$BLUE        STATIC     ATOMS    COLORGROUP SYSTEM
6 45 46 47 48 49 50
ATOM$RED        STATIC     ATOMS    COLORGROUP SYSTEM
3 28 29 44
