#       Name:                AV-unprocessed.smi:1641
#       Creating user name   scv26
#       Creation time:       Fri Mar 27 07:24:52 2020


#       File generated by GOLD software.
#

@<TRIPOS>MOLECULE
AV-unprocessed.smi:1641
    48    49     1
SMALL
NO_CHARGES


@<TRIPOS>ATOM
      1 ****        -3.8184   7.4989  -1.1591 C.3            1 S1                 0.0000
      2 ****        -3.2974   6.1028  -1.1880 C.2            1 S1                 0.0000
      3 ****        -2.3894   5.6873  -2.0795 N.2            1 S1                 0.0000
      4 ****        -2.0548   4.3515  -1.9063 N.2            1 S1                 0.0000
      5 ****        -2.7217   3.7978  -0.8843 C.2            1 S1                 0.0000
      6 ****        -2.5699   2.4434  -0.4847 N.am           1 S1                 0.0000
      7 ****        -1.7711   1.5024  -1.0182 C.2            1 S1                 0.0000
      8 ****        -1.0115   1.6684  -1.9729 O.2            1 S1                 0.0000
      9 ****        -1.8958   0.3332  -0.3733 N.am           1 S1                 0.0000
     10 ****        -1.1720  -0.8868  -0.7131 C.3            1 S1                 0.0000
     11 ****         0.2732  -0.8558  -0.1794 C.3            1 S1                 0.0000
     12 ****         1.0438  -2.0690  -0.5615 N.4            1 S1                 1.0000
     13 ****         2.5134  -1.8666  -0.5481 C.3            1 S1                 0.0000
     14 ****         3.0691  -1.8906   0.8904 C.3            1 S1                 0.0000
     15 ****         4.5962  -1.7674   0.9214 C.3            1 S1                 0.0000
     16 ****         2.7130  -3.1269   1.4997 O.3            1 S1                 0.0000
     17 ****         1.3046  -3.3079   1.6028 C.3            1 S1                 0.0000
     18 ****         1.0484  -4.6290   2.3359 C.3            1 S1                 0.0000
     19 ****         0.6855  -3.3005   0.1881 C.3            1 S1                 0.0000
     20 ****        -3.8241   4.8746  -0.0435 S.3            1 S1                 0.0000
     21 ****        -3.7463   7.9545  -2.1473 H              1 S1                 0.0000
     22 ****        -3.2404   8.0961  -0.4539 H              1 S1                 0.0000
     23 ****        -4.8635   7.5042  -0.8493 H              1 S1                 0.0000
     24 ****        -3.1376   2.1592   0.3000 H              1 S1                 0.0000
     25 ****        -2.5440   0.2806   0.3992 H              1 S1                 0.0000
     26 ****        -1.7273  -1.7202  -0.2845 H              1 S1                 0.0000
     27 ****        -1.1773  -1.0331  -1.7946 H              1 S1                 0.0000
     28 ****         0.7727   0.0183  -0.5992 H              1 S1                 0.0000
     29 ****         0.2790  -0.7174   0.9016 H              1 S1                 0.0000
     30 ****         2.9725  -2.6681  -1.1289 H              1 S1                 0.0000
     31 ****         2.7768  -0.9366  -1.0534 H              1 S1                 0.0000
     32 ****         2.6472  -1.0679   1.4702 H              1 S1                 0.0000
     33 ****         4.9234  -0.8291   0.4728 H              1 S1                 0.0000
     34 ****         5.0704  -2.5836   0.3757 H              1 S1                 0.0000
     35 ****         4.9680  -1.7923   1.9461 H              1 S1                 0.0000
     36 ****         0.8841  -2.5006   2.2038 H              1 S1                 0.0000
     37 ****        -0.0199  -4.8128   2.4529 H              1 S1                 0.0000
     38 ****         1.4934  -4.6144   3.3311 H              1 S1                 0.0000
     39 ****         1.4759  -5.4725   1.7932 H              1 S1                 0.0000
     40 ****        -0.3947  -3.4302   0.2394 H              1 S1                 0.0000
     41 ****         1.0646  -4.1550  -0.3745 H              1 S1                 0.0000
     42 ****         0.8004  -2.2375  -1.5275 H              1 S1                 0.0000
     43 ****        -1.9970   6.2724  -2.7891 LP             1 S1                 0.0000
     44 ****        -1.3951   3.8610  -2.4758 LP             1 S1                 0.0000
     45 ****        -0.9542   2.5627  -2.4167 LP             1 S1                 0.0000
     46 ****        -0.4518   0.9089  -2.3045 LP             1 S1                 0.0000
     47 ****         3.1065  -3.1549   2.4186 LP             1 S1                 0.0000
     48 ****         3.0915  -3.8733   0.9522 LP             1 S1                 0.0000
@<TRIPOS>BOND
    1    1    2 1     
    2    1   21 1     
    3    1   22 1     
    4    1   23 1     
    5    2   20 1     
    6    2    3 2     
    7    3    4 1     
    8    4    5 2     
    9    5    6 1     
   10    5   20 1     
   11    6    7 am    
   12    6   24 1     
   13    7    8 2     
   14    7    9 am    
   15    9   10 1     
   16    9   25 1     
   17   10   11 1     
   18   10   26 1     
   19   10   27 1     
   20   11   12 1     
   21   11   28 1     
   22   11   29 1     
   23   12   19 1     
   24   12   13 1     
   25   12   42 1     
   26   13   14 1     
   27   13   30 1     
   28   13   31 1     
   29   14   15 1     
   30   14   16 1     
   31   14   32 1     
   32   15   33 1     
   33   15   34 1     
   34   15   35 1     
   35   16   17 1     
   36   17   18 1     
   37   17   19 1     
   38   17   36 1     
   39   18   37 1     
   40   18   38 1     
   41   18   39 1     
   42   19   40 1     
   43   19   41 1     
   44    3   43 1     
   45    4   44 1     
   46    8   45 1     
   47    8   46 1     
   48   16   47 1     
   49   16   48 1     
@<TRIPOS>SUBSTRUCTURE
      1 S1             1
@<TRIPOS>SET
LONE_PAIRS      STATIC     ATOMS    <user>   **** ""
6 43 44 45 46 47 48
DONOR_HYDROGENS      STATIC     ATOMS    <user>   **** ""
3 24 25 42
ATOM$BLUE        STATIC     ATOMS    COLORGROUP SYSTEM
6 43 44 45 46 47 48
ATOM$RED        STATIC     ATOMS    COLORGROUP SYSTEM
3 24 25 42
