AV-unprocessed.smi:2025|AV-procd|sdf|8197|dock1
  -GOLD-   2272010453D 1   1.00000     0.00000
 Structure written by MMmdl.
 39 40  0  0  0  0  0  0  0  0  1 V2000
  149.5165  142.0228  156.3450 C   0  0  0  0  0  0  0  0  0  0  0  0
  151.0137  142.1196  156.6761 C   0  0  2  0  0  0  0  0  0  0  0  0
  151.5564  140.7663  156.7742 N   0  0  0  0  0  0  0  0  0  0  0  0
  151.4962  139.8283  155.8163 C   0  0  0  0  0  0  0  0  0  0  0  0
  150.9669  140.0125  154.7194 O   0  0  0  0  0  0  0  0  0  0  0  0
  152.1627  138.4863  156.1474 C   0  0  0  0  0  0  0  0  0  0  0  0
  151.1964  137.4391  156.5039 N   0  0  0  0  0  0  0  0  0  0  0  0
  150.5463  137.4955  157.7235 C   0  0  0  0  0  0  0  0  0  0  0  0
  149.6575  136.5667  158.1376 C   0  0  0  0  0  0  0  0  0  0  0  0
  149.3248  135.4247  157.2953 C   0  0  0  0  0  0  0  0  0  0  0  0
  148.5278  134.5461  157.6279 O   0  0  0  0  0  0  0  0  0  0  0  0
  149.9961  135.3941  156.0515 N   0  0  0  0  0  0  0  0  0  0  0  0
  149.6946  134.2747  155.1838 C   0  0  0  0  0  0  0  0  0  0  0  0
  150.9350  136.3635  155.6272 C   0  0  0  0  0  0  0  0  0  0  0  0
  151.5164  136.2905  154.5420 O   0  0  0  0  0  0  0  0  0  0  0  0
  151.2780  142.8891  157.9875 C   0  0  2  0  0  0  0  0  0  0  0  0
  151.5438  144.3843  157.8042 C   0  0  0  0  0  0  0  0  0  0  0  0
  152.3237  144.7153  159.0555 C   0  0  0  0  0  0  0  0  0  0  0  0
  153.1870  143.4694  159.2227 C   0  0  0  0  0  0  0  0  0  0  0  0
  152.4509  142.3993  158.6364 O   0  0  0  0  0  0  0  0  0  0  0  0
  149.0755  143.0096  156.2036 H   0  0  0  0  0  0  0  0  0  0  0  0
  148.9645  141.5219  157.1409 H   0  0  0  0  0  0  0  0  0  0  0  0
  149.3551  141.4622  155.4236 H   0  0  0  0  0  0  0  0  0  0  0  0
  151.4982  142.6508  155.8547 H   0  0  0  0  0  0  0  0  0  0  0  0
  152.0195  140.5265  157.6385 H   0  0  0  0  0  0  0  0  0  0  0  0
  152.7447  138.1743  155.2791 H   0  0  0  0  0  0  0  0  0  0  0  0
  152.8867  138.6200  156.9533 H   0  0  0  0  0  0  0  0  0  0  0  0
  150.7634  138.3222  158.3844 H   0  0  0  0  0  0  0  0  0  0  0  0
  149.1881  136.6689  159.1051 H   0  0  0  0  0  0  0  0  0  0  0  0
  150.1450  134.4033  154.2002 H   0  0  0  0  0  0  0  0  0  0  0  0
  148.6098  134.2252  155.0740 H   0  0  0  0  0  0  0  0  0  0  0  0
  150.0877  133.3799  155.6691 H   0  0  0  0  0  0  0  0  0  0  0  0
  150.4420  142.7586  158.6770 H   0  0  0  0  0  0  0  0  0  0  0  0
  152.1623  144.5606  156.9227 H   0  0  0  0  0  0  0  0  0  0  0  0
  150.6302  144.9710  157.7054 H   0  0  0  0  0  0  0  0  0  0  0  0
  152.9086  145.6314  158.9694 H   0  0  0  0  0  0  0  0  0  0  0  0
  151.6444  144.8197  159.9026 H   0  0  0  0  0  0  0  0  0  0  0  0
  154.1265  143.5792  158.6800 H   0  0  0  0  0  0  0  0  0  0  0  0
  153.4216  143.2654  160.2677 H   0  0  0  0  0  0  0  0  0  0  0  0
  1  2  1  0  0  0  0
  1 21  1  0  0  0  0
  1 22  1  0  0  0  0
  1 23  1  0  0  0  0
  2  3  1  0  0  0  0
  2 16  1  0  0  0  0
  2 24  1  0  0  0  0
  3  4  1  0  0  0  0
  3 25  1  0  0  0  0
  4  5  2  0  0  0  0
  4  6  1  0  0  0  0
  6  7  1  0  0  0  0
  6 26  1  0  0  0  0
  6 27  1  0  0  0  0
  7 14  1  0  0  0  0
  7  8  1  0  0  0  0
  8  9  2  0  0  0  0
  8 28  1  0  0  0  0
  9 10  1  0  0  0  0
  9 29  1  0  0  0  0
 10 11  2  0  0  0  0
 10 12  1  0  0  0  0
 12 13  1  0  0  0  0
 12 14  1  0  0  0  0
 13 30  1  0  0  0  0
 13 31  1  0  0  0  0
 13 32  1  0  0  0  0
 14 15  2  0  0  0  0
 16 20  1  0  0  0  0
 16 17  1  0  0  0  0
 16 33  1  0  0  0  0
 17 18  1  0  0  0  0
 17 34  1  0  0  0  0
 17 35  1  0  0  0  0
 18 19  1  0  0  0  0
 18 36  1  0  0  0  0
 18 37  1  0  0  0  0
 19 20  1  0  0  0  0
 19 38  1  0  0  0  0
 19 39  1  0  0  0  0
M  END
> <s_m_source_file>
AV-unprocessed.smi

> <i_m_source_file_index>
2025

> <i_lp_mmshare_version>
43012

> <i_f3d_flags>
0

> <s_epik_input>
TzFbQ0gyXVtDSDJdW0NIMl1bQ0BIXTFbQ0BIXShbQ0gzXSlbTkhdQyg9TylbQ0gyXW4yW2NIXVtjSF1jKD1PKW4oW0NIM10pYzI9Tw==

> <s_epik_cmdline>
J2VwaWtfcHl0aG9uJywgJy1waCcsICc3LjAnLCAnLXRuJywgJzgnLCAnLW1hJywgJzIwMCcsICctbWV0YWxfYmluZGluZycsICctaW1hZScsICc8aW5maWxlLm1hZT4nLCAnLW9tYWUnLCAnPG91dGZpbGUubWFlPic=

> <r_lp_tautomer_probability>
1

> <r_epik_Ionization_Penalty>
3.54787e-08

> <r_epik_Ionization_Penalty_Charging>
1.24654e-08

> <r_epik_Ionization_Penalty_Neutral>
2.30132e-08

> <r_epik_State_Penalty>
-0

> <r_epik_Charging_Adjusted_Penalty>
1.24654e-08

> <i_epik_Tot_Q>
0

> <i_epik_Tot_abs_Q>
0

> <r_epik_Metal_State_Penalty>
-0

> <b_epik_Metal_Only>
0

> <s_lp_Force_Field>
OPLS_2005

> <r_lp_Energy>
25.7594

> <b_lp_Chiralities_Consistent>
1

> <s_lp_Variant>
AV-unprocessed.smi:2025-1

> <Gold.Version>
5.8.1

> <Gold.Id.Protein>
6NUR|6NUR_protein|mol2

> <Gold.PLP.Fitness>
36.4677

> <Gold.PLP.PLP>
-32.8611

> <Gold.PLP.part.hbond>
-2.0000

> <Gold.PLP.part.metal>
0.0000

> <Gold.PLP.part.buried>
-3.3348

> <Gold.PLP.part.nonpolar>
-28.4275

> <Gold.PLP.part.repulsive>
0.6572

> <Gold.PLP.ligand.clash>
0.0000

> <Gold.PLP.ligand.torsion>
1.2299

> <Gold.PLP.Chemscore.Hbond>
2.0000

> <Gold.PLP.Chemscore.CHOScore>
0.0000

> <Gold.PLP.Chemscore.Metal>
0.0000

> <Gold.Chemscore.Hbonds>
donor molecule, donor type, donor heavy atom, donor atom, acceptor molecule, acceptor atom, score
      P1  H  7989  7998       L1     5  1.00
      P1  H 10752 10764       L1    15  1.00

> <Gold.PLP.Chemscore.Internal.Correction>
0.0664

> <Gold.Rescore>
     Score         DG    S(hbond)    S(metal)    S(lipo)     H(rot)  DE(clash)    DE(int)     intcor
     14.28     -17.08       1.98        0.00      82.45       1.82       0.37       2.43       ----

> <Gold.Chemscore.Fitness>
14.2802

> <Gold.Chemscore.DG>
-17.0799

> <Gold.Chemscore.ZeroCoef>
-5.4800

> <Gold.Chemscore.Hbond>
1.9821

> <Gold.Chemscore.Metal>
0.0000

> <Gold.Chemscore.Lipo>
82.4455

> <Gold.Chemscore.Internal_Hbond>
0.0000

> <Gold.Chemscore.DEClash>
0.3703

> <Gold.Chemscore.DEInternal>
2.4294

> <Gold.Chemscore.Rot>
1.8228

> <Gold.Chemscore.Internal.Correction>
   9.000000E+99

> <Gold.Chemscore.Hbonds>
donor molecule, donor type, donor heavy atom, donor atom, acceptor molecule, acceptor atom, score
      P1  H  7989  7998       L1     5  0.99
      P1  H 10752 10764       L1    15  0.94

> <Gold.Chemscore.Hbond.Weighted>
-6.6203

> <Gold.Chemscore.Metal.Weighted>
-0.0000

> <Gold.Chemscore.Lipo.Weighted>
-9.6461

> <Gold.Chemscore.Internal_Hbond.Weighted>
0.0000

> <Gold.Chemscore.DEClash.Weighted>
0.3703

> <Gold.Chemscore.DEInternal.Weighted>
2.4294

> <Gold.Chemscore.Rot.Weighted>
4.6665

> <Gold.Chemscore.Internal.Correction.Weighted>
   9.000000E+99

> <Gold.Protein.RotatedTorsions>
[ 6907 6896 6895 6894 ] final  -37.67 input  -60.11 | X-H torsion
[ 7974 7965 7964 7962 ] final -159.17 input  175.53 | X-H torsion
[ 8008 7997 7996 7995 ] final  120.96 input   59.86 | X-H torsion
[ 10167 10162 10161 10158 ] final -138.17 input  -65.29 | X-H torsion
[ 10718 10713 10712 10709 ] final   94.43 input   66.30 | X-H torsion
[ 10763 10752 10751 10750 ] final  -67.98 input  -60.55 | X-H torsion
[ 11005 11000 10999 10996 ] final  -95.35 input  -57.11 | X-H torsion

> <Gold.Protein.ActiveResidues>
 VAL166  LYS551  ARG553  GLY616  TRP617  ASP618  TYR619  PRO620  LYS621  CYS622 
 ASP623  PHE694  ASN695  SER759  ASP760  ASP761  ALA762  ILE779  LEU786  VAL792 
 PHE793  MET794  SER795  GLU796  ALA797  LYS798  CYS799  TRP800  GLU811  SER814 

> <Gold.Protein.RotatedAtoms>
  151.0119  134.9403  159.8011 H   0  0  0  0  0  0  0  0  0  0  0  0  # atno 6907 bound_to 6896
  152.5304  134.3017  159.9091 H   0  0  0  0  0  0  0  0  0  0  0  0  # atno 6908 bound_to 6896
  151.3024  133.4075  159.2675 H   0  0  0  0  0  0  0  0  0  0  0  0  # atno 6909 bound_to 6896
  144.7476  140.3723  143.6073 H   0  0  0  0  0  0  0  0  0  0  0  0  # atno 7974 bound_to 7965
  156.2666  140.2819  156.1233 H   0  0  0  0  0  0  0  0  0  0  0  0  # atno 8008 bound_to 7997
  155.1132  140.0391  157.2747 H   0  0  0  0  0  0  0  0  0  0  0  0  # atno 8009 bound_to 7997
  154.6726  140.2591  155.6997 H   0  0  0  0  0  0  0  0  0  0  0  0  # atno 8010 bound_to 7997
  139.8505  143.7205  152.2658 H   0  0  0  0  0  0  0  0  0  0  0  0  # atno 10167 bound_to 10162
  157.6948  131.0512  150.4185 H   0  0  0  0  0  0  0  0  0  0  0  0  # atno 10718 bound_to 10713
  154.3824  135.6071  153.5798 H   0  0  0  0  0  0  0  0  0  0  0  0  # atno 10763 bound_to 10752
  152.9788  135.5864  154.4394 H   0  0  0  0  0  0  0  0  0  0  0  0  # atno 10764 bound_to 10752
  154.4165  135.2845  155.1981 H   0  0  0  0  0  0  0  0  0  0  0  0  # atno 10765 bound_to 10752
  141.1444  133.8020  157.0423 H   0  0  0  0  0  0  0  0  0  0  0  0  # atno 11005 bound_to 11000
  145.7065  139.1674  143.2563 LP  0  0  0  0  0  0  0  0  0  0  0  0  # atno 17320 bound_to 7965
  146.1378  140.7099  142.9381 LP  0  0  0  0  0  0  0  0  0  0  0  0  # atno 17321 bound_to 7965
  139.7470  144.7544  151.0564 LP  0  0  0  0  0  0  0  0  0  0  0  0  # atno 17342 bound_to 10162
  140.7788  143.4905  150.9900 LP  0  0  0  0  0  0  0  0  0  0  0  0  # atno 17343 bound_to 10162
  156.4562  130.4022  149.6604 LP  0  0  0  0  0  0  0  0  0  0  0  0  # atno 17370 bound_to 10713
  156.3736  130.7543  151.2529 LP  0  0  0  0  0  0  0  0  0  0  0  0  # atno 17371 bound_to 10713
  140.0684  134.9716  157.1426 LP  0  0  0  0  0  0  0  0  0  0  0  0  # atno 17394 bound_to 11000
  140.3746  134.2353  155.7175 LP  0  0  0  0  0  0  0  0  0  0  0  0  # atno 17395 bound_to 11000

$$$$
