AV-unprocessed.smi:1128|AV-procd|sdf|4842|dock8
  -GOLD-   22720 3413D 1   1.00000     0.00000
 Structure written by MMmdl.
 38 39  0  0  0  0  0  0  0  0  1 V2000
  149.5948  140.5375  157.3934 O   0  0  0  0  0  0  0  0  0  0  0  0
  149.2981  141.6643  156.9984 C   0  0  0  0  0  0  0  0  0  0  0  0
  150.1477  142.7013  157.0275 N   0  0  0  0  0  0  0  0  0  0  0  0
  151.5203  142.6655  157.5250 C   0  0  0  0  0  0  0  0  0  0  0  0
  151.6057  143.0065  159.0266 C   0  0  2  0  0  0  0  0  0  0  0  0
  151.5229  144.5275  159.3000 C   0  0  0  0  0  0  0  0  0  0  0  0
  151.8880  144.8878  160.7290 C   0  0  0  0  0  0  0  0  0  0  0  0
  152.5118  144.0452  161.5689 C   0  0  0  0  0  0  0  0  0  0  0  0
  152.9299  142.6396  161.1802 C   0  0  0  0  0  0  0  0  0  0  0  0
  152.8823  142.4174  159.6570 C   0  0  0  0  0  0  0  0  0  0  0  0
  148.1083  142.0393  156.4927 N   0  0  0  0  0  0  0  0  0  0  0  0
  146.9363  141.2899  156.2875 C   0  0  0  0  0  0  0  0  0  0  0  0
  146.4027  140.4058  157.1716 C   0  0  0  0  0  0  0  0  0  0  0  0
  145.1817  139.6707  156.8863 C   0  0  0  0  0  0  0  0  0  0  0  0
  144.6265  138.6441  157.8616 C   0  0  0  0  0  0  0  0  0  0  0  0
  144.6039  137.4243  157.3229 F   0  0  0  0  0  0  0  0  0  0  0  0
  145.3609  138.5972  158.9732 F   0  0  0  0  0  0  0  0  0  0  0  0
  143.3809  138.9711  158.2021 F   0  0  0  0  0  0  0  0  0  0  0  0
  144.6153  139.8892  155.6855 C   0  0  0  0  0  0  0  0  0  0  0  0
  145.1541  140.7981  154.7727 N   0  0  0  0  0  0  0  0  0  0  0  0
  146.2785  141.5163  154.9892 C   0  0  0  0  0  0  0  0  0  0  0  0
  146.6900  142.2963  154.1309 O   0  0  0  0  0  0  0  0  0  0  0  0
  144.6642  140.9145  153.8974 H   0  0  0  0  0  0  0  0  0  0  0  0
  149.8172  143.5909  156.6833 H   0  0  0  0  0  0  0  0  0  0  0  0
  151.8972  141.6563  157.3572 H   0  0  0  0  0  0  0  0  0  0  0  0
  152.1681  143.3274  156.9475 H   0  0  0  0  0  0  0  0  0  0  0  0
  150.7558  142.5327  159.5212 H   0  0  0  0  0  0  0  0  0  0  0  0
  152.1944  145.0724  158.6355 H   0  0  0  0  0  0  0  0  0  0  0  0
  150.5147  144.8906  159.0987 H   0  0  0  0  0  0  0  0  0  0  0  0
  151.6299  145.8827  161.0610 H   0  0  0  0  0  0  0  0  0  0  0  0
  152.7289  144.3566  162.5801 H   0  0  0  0  0  0  0  0  0  0  0  0
  153.9368  142.4471  161.5515 H   0  0  0  0  0  0  0  0  0  0  0  0
  152.2654  141.9378  161.6850 H   0  0  0  0  0  0  0  0  0  0  0  0
  152.9556  141.3501  159.4454 H   0  0  0  0  0  0  0  0  0  0  0  0
  153.7555  142.8811  159.1958 H   0  0  0  0  0  0  0  0  0  0  0  0
  148.0254  143.0121  156.2350 H   0  0  0  0  0  0  0  0  0  0  0  0
  146.8681  140.2142  158.1234 H   0  0  0  0  0  0  0  0  0  0  0  0
  143.7228  139.3930  155.3335 H   0  0  0  0  0  0  0  0  0  0  0  0
  1  2  2  0  0  0  0
  2  3  1  0  0  0  0
  2 11  1  0  0  0  0
  3  4  1  0  0  0  0
  3 24  1  0  0  0  0
  4  5  1  0  0  0  0
  4 25  1  0  0  0  0
  4 26  1  0  0  0  0
  5 10  1  0  0  0  0
  5  6  1  0  0  0  0
  5 27  1  0  0  0  0
  6  7  1  0  0  0  0
  6 28  1  0  0  0  0
  6 29  1  0  0  0  0
  7  8  2  0  0  0  0
  7 30  1  0  0  0  0
  8  9  1  0  0  0  0
  8 31  1  0  0  0  0
  9 10  1  0  0  0  0
  9 32  1  0  0  0  0
  9 33  1  0  0  0  0
 10 34  1  0  0  0  0
 10 35  1  0  0  0  0
 11 12  1  0  0  0  0
 11 36  1  0  0  0  0
 12 21  1  0  0  0  0
 12 13  2  0  0  0  0
 13 14  1  0  0  0  0
 13 37  1  0  0  0  0
 14 15  1  0  0  0  0
 14 19  2  0  0  0  0
 15 16  1  0  0  0  0
 15 17  1  0  0  0  0
 15 18  1  0  0  0  0
 19 20  1  0  0  0  0
 19 38  1  0  0  0  0
 20 23  1  0  0  0  0
 20 21  1  0  0  0  0
 21 22  2  0  0  0  0
M  END
> <s_m_source_file>
AV-unprocessed.smi

> <i_m_source_file_index>
1128

> <i_lp_mmshare_version>
43012

> <i_f3d_flags>
0

> <s_epik_input>
Tz1jMVtuSF1bY0hdYyhDKEYpKEYpRilbY0hdYzFbTkhdQyg9TylbTkhdW0NIMl1bQ0BASF0yW0NIMl1bQ0hdPVtDSF1bQ0gyXVtDSDJdMg==

> <s_epik_cmdline>
J2VwaWtfcHl0aG9uJywgJy1waCcsICc3LjAnLCAnLXRuJywgJzgnLCAnLW1hJywgJzIwMCcsICctbWV0YWxfYmluZGluZycsICctaW1hZScsICc8aW5maWxlLm1hZT4nLCAnLW9tYWUnLCAnPG91dGZpbGUubWFlPic=

> <r_lp_tautomer_probability>
1

> <r_epik_Ionization_Penalty>
0.00381734

> <r_epik_Ionization_Penalty_Charging>
0.00379608

> <r_epik_Ionization_Penalty_Neutral>
2.12611e-05

> <r_epik_State_Penalty>
-0

> <r_epik_Charging_Adjusted_Penalty>
0.00379608

> <i_epik_Tot_Q>
0

> <i_epik_Tot_abs_Q>
0

> <r_epik_Metal_State_Penalty>
0.371155

> <b_epik_Metal_Only>
0

> <s_lp_Force_Field>
OPLS_2005

> <r_lp_Energy>
20.2087

> <b_lp_Chiralities_Consistent>
1

> <s_lp_Variant>
AV-unprocessed.smi:1128-1

> <Gold.Version>
5.8.1

> <Gold.Id.Protein>
6NUR|6NUR_protein|mol2

> <Gold.PLP.Fitness>
40.7195

> <Gold.PLP.PLP>
-32.9841

> <Gold.PLP.part.hbond>
-3.0000

> <Gold.PLP.part.metal>
0.0000

> <Gold.PLP.part.buried>
-5.7364

> <Gold.PLP.part.nonpolar>
-24.1207

> <Gold.PLP.part.repulsive>
0.2155

> <Gold.PLP.ligand.clash>
0.0000

> <Gold.PLP.ligand.torsion>
0.7763

> <Gold.PLP.Chemscore.Hbond>
2.9760

> <Gold.PLP.Chemscore.CHOScore>
0.1082

> <Gold.PLP.Chemscore.Metal>
0.0000

> <Gold.Chemscore.Hbonds>
donor molecule, donor type, donor heavy atom, donor atom, acceptor molecule, acceptor atom, score
      L1  H     3    24       P1  8028  1.00
      L1  H    11    36       P1  8028  1.00
      L1  H    20    23       P1 10175  1.00

> <Gold.PLP.Chemscore.Internal.Correction>
0.0354

> <Gold.Rescore>
     Score         DG    S(hbond)    S(metal)    S(lipo)     H(rot)  DE(clash)    DE(int)     intcor
     20.29     -21.03       2.74        0.00      83.32       1.30       0.09       0.64       ----

> <Gold.Chemscore.Fitness>
20.2883

> <Gold.Chemscore.DG>
-21.0257

> <Gold.Chemscore.ZeroCoef>
-5.4800

> <Gold.Chemscore.Hbond>
2.7352

> <Gold.Chemscore.Metal>
0.0000

> <Gold.Chemscore.Lipo>
83.3153

> <Gold.Chemscore.Internal_Hbond>
0.0000

> <Gold.Chemscore.DEClash>
0.0931

> <Gold.Chemscore.DEInternal>
0.6443

> <Gold.Chemscore.Rot>
1.3038

> <Gold.Chemscore.Internal.Correction>
   9.000000E+99

> <Gold.Chemscore.Hbonds>
donor molecule, donor type, donor heavy atom, donor atom, acceptor molecule, acceptor atom, score
      L1  H     3    24       P1  8028  0.99
      L1  H    11    36       P1  8028  0.47
      L1  H    20    23       P1 10175  0.90

> <Gold.Chemscore.Hbond.Weighted>
-9.1356

> <Gold.Chemscore.Metal.Weighted>
-0.0000

> <Gold.Chemscore.Lipo.Weighted>
-9.7479

> <Gold.Chemscore.Internal_Hbond.Weighted>
0.0000

> <Gold.Chemscore.DEClash.Weighted>
0.0931

> <Gold.Chemscore.DEInternal.Weighted>
0.6443

> <Gold.Chemscore.Rot.Weighted>
3.3377

> <Gold.Chemscore.Internal.Correction.Weighted>
   9.000000E+99

> <Gold.Protein.RotatedTorsions>
[ 6907 6896 6895 6894 ] final -130.31 input  -60.11 | X-H torsion
[ 7974 7965 7964 7962 ] final  145.95 input  175.53 | X-H torsion
[ 8008 7997 7996 7995 ] final  -84.89 input   59.86 | X-H torsion
[ 10167 10162 10161 10158 ] final   69.55 input  -65.29 | X-H torsion
[ 10718 10713 10712 10709 ] final  106.09 input   66.30 | X-H torsion
[ 10763 10752 10751 10750 ] final -150.46 input  -60.55 | X-H torsion
[ 11005 11000 10999 10996 ] final  -21.23 input  -57.11 | X-H torsion

> <Gold.Protein.ActiveResidues>
 VAL166  LYS551  ARG553  GLY616  TRP617  ASP618  TYR619  PRO620  LYS621  CYS622 
 ASP623  PHE694  ASN695  SER759  ASP760  ASP761  ALA762  ILE779  LEU786  VAL792 
 PHE793  MET794  SER795  GLU796  ALA797  LYS798  CYS799  TRP800  GLU811  SER814 

> <Gold.Protein.RotatedAtoms>
  150.9383  133.6686  159.2795 H   0  0  0  0  0  0  0  0  0  0  0  0  # atno 6907 bound_to 6896
  151.4084  135.0980  159.9587 H   0  0  0  0  0  0  0  0  0  0  0  0  # atno 6908 bound_to 6896
  152.5058  133.8861  159.7425 H   0  0  0  0  0  0  0  0  0  0  0  0  # atno 6909 bound_to 6896
  144.8710  139.5845  143.5886 H   0  0  0  0  0  0  0  0  0  0  0  0  # atno 7974 bound_to 7965
  154.6347  140.0599  156.9774 H   0  0  0  0  0  0  0  0  0  0  0  0  # atno 8008 bound_to 7997
  155.1610  140.3282  155.4393 H   0  0  0  0  0  0  0  0  0  0  0  0  # atno 8009 bound_to 7997
  156.2501  140.1930  156.6718 H   0  0  0  0  0  0  0  0  0  0  0  0  # atno 8010 bound_to 7997
  140.0666  144.5188  150.7256 H   0  0  0  0  0  0  0  0  0  0  0  0  # atno 10167 bound_to 10162
  157.6681  131.0843  150.5954 H   0  0  0  0  0  0  0  0  0  0  0  0  # atno 10718 bound_to 10713
  154.8118  135.3284  154.7285 H   0  0  0  0  0  0  0  0  0  0  0  0  # atno 10763 bound_to 10752
  153.7933  135.6909  153.4872 H   0  0  0  0  0  0  0  0  0  0  0  0  # atno 10764 bound_to 10752
  153.1902  135.4554  155.0086 H   0  0  0  0  0  0  0  0  0  0  0  0  # atno 10765 bound_to 10752
  140.8541  133.7835  155.9999 H   0  0  0  0  0  0  0  0  0  0  0  0  # atno 11005 bound_to 11000
  146.2930  139.7195  142.9147 LP  0  0  0  0  0  0  0  0  0  0  0  0  # atno 17320 bound_to 7965
  145.4130  141.0398  143.3006 LP  0  0  0  0  0  0  0  0  0  0  0  0  # atno 17321 bound_to 7965
  140.7146  143.2533  151.4475 LP  0  0  0  0  0  0  0  0  0  0  0  0  # atno 17342 bound_to 10162
  139.5861  144.1601  152.2030 LP  0  0  0  0  0  0  0  0  0  0  0  0  # atno 17343 bound_to 10162
  156.6255  130.4417  149.5806 LP  0  0  0  0  0  0  0  0  0  0  0  0  # atno 17370 bound_to 10713
  156.2323  130.6802  151.1475 LP  0  0  0  0  0  0  0  0  0  0  0  0  # atno 17371 bound_to 10713
  140.8757  134.2672  157.5169 LP  0  0  0  0  0  0  0  0  0  0  0  0  # atno 17394 bound_to 11000
  139.8705  134.9590  156.4317 LP  0  0  0  0  0  0  0  0  0  0  0  0  # atno 17395 bound_to 11000

$$$$
