#       Name:                AV-unprocessed.smi:618
#       Creating user name   scv26
#       Creation time:       Thu Mar 26 23:59:57 2020


#       File generated by GOLD software.
#

@<TRIPOS>MOLECULE
AV-unprocessed.smi:618
    46    48     1
SMALL
NO_CHARGES


@<TRIPOS>ATOM
      1 ****        -1.1296   1.7312  -1.5138 O.2            1 S1                 0.0000
      2 ****        -1.6456   0.6320  -1.7156 C.2            1 S1                 0.0000
      3 ****        -0.9397  -0.5000  -1.8420 N.am           1 S1                 0.0000
      4 ****         0.5149  -0.5913  -1.7729 C.3            1 S1                 0.0000
      5 ****         1.0306  -0.4912  -0.3264 C.3            1 S1                 0.0000
      6 ****         2.5760  -0.5167  -0.2634 C.3            1 S1                 0.0000
      7 ****         2.9804  -0.5347   1.1542 N.4            1 S1                 1.0000
      8 ****         4.4186  -0.5429   1.4726 C.3            1 S1                 0.0000
      9 ****         4.5071  -1.1656   2.8807 C.3            1 S1                 0.0000
     10 ****         3.0789  -1.6275   3.2241 C.3            1 S1                 0.0000
     11 ****         2.3997  -1.6793   1.8597 C.3            1 S1                 0.0000
     12 ****         0.8700  -1.5787   1.8029 C.3            1 S1                 0.0000
     13 ****         0.4921  -1.5857   0.4252 O.3            1 S1                 0.0000
     14 ****        -2.9647   0.3957  -1.8139 N.am           1 S1                 0.0000
     15 ****        -4.0384   1.3251  -1.7587 C.ar           1 S1                 0.0000
     16 ****        -3.9072   2.7128  -2.0085 C.ar           1 S1                 0.0000
     17 ****        -5.0543   3.5266  -1.9422 C.ar           1 S1                 0.0000
     18 ****        -6.2901   2.9245  -1.6367 C.ar           1 S1                 0.0000
     19 ****        -6.4322   1.6018  -1.4089 N.ar           1 S1                 0.0000
     20 ****        -5.3281   0.8276  -1.4746 C.ar           1 S1                 0.0000
     21 ****        -1.4431  -1.3612  -1.9986 H              1 S1                 0.0000
     22 ****         0.8194  -1.5410  -2.2135 H              1 S1                 0.0000
     23 ****         0.9588   0.1920  -2.3897 H              1 S1                 0.0000
     24 ****         0.6789   0.4414   0.1185 H              1 S1                 0.0000
     25 ****         2.9706  -1.3961  -0.7750 H              1 S1                 0.0000
     26 ****         2.9953   0.3628  -0.7534 H              1 S1                 0.0000
     27 ****         4.9576  -1.1618   0.7535 H              1 S1                 0.0000
     28 ****         4.8326   0.4650   1.4335 H              1 S1                 0.0000
     29 ****         5.1958  -2.0114   2.8729 H              1 S1                 0.0000
     30 ****         4.8745  -0.4504   3.6173 H              1 S1                 0.0000
     31 ****         3.0566  -2.5858   3.7441 H              1 S1                 0.0000
     32 ****         2.5917  -0.8868   3.8601 H              1 S1                 0.0000
     33 ****         2.7131  -2.5966   1.3560 H              1 S1                 0.0000
     34 ****         0.4105  -2.4296   2.3060 H              1 S1                 0.0000
     35 ****         0.5082  -0.6734   2.2931 H              1 S1                 0.0000
     36 ****        -3.2376  -0.5729  -1.8952 H              1 S1                 0.0000
     37 ****        -2.9615   3.1655  -2.2620 H              1 S1                 0.0000
     38 ****        -4.9885   4.5886  -2.1268 H              1 S1                 0.0000
     39 ****        -7.1890   3.5204  -1.5800 H              1 S1                 0.0000
     40 ****        -5.4803  -0.2259  -1.2898 H              1 S1                 0.0000
     41 ****         2.5963   0.2928   1.5879 H              1 S1                 0.0000
     42 ****        -0.1357   1.8104  -1.4363 LP             1 S1                 0.0000
     43 ****        -1.7042   2.5450  -1.4274 LP             1 S1                 0.0000
     44 ****         0.8133  -2.4389   0.0143 LP             1 S1                 0.0000
     45 ****        -0.5056  -1.5447   0.3715 LP             1 S1                 0.0000
     46 ****        -7.3268   1.2078  -1.1982 LP             1 S1                 0.0000
@<TRIPOS>BOND
    1    1    2 2     
    2    2    3 am    
    3    2   14 am    
    4    3    4 1     
    5    3   21 1     
    6    4    5 1     
    7    4   22 1     
    8    4   23 1     
    9    5   13 1     
   10    5    6 1     
   11    5   24 1     
   12    6    7 1     
   13    6   25 1     
   14    6   26 1     
   15    7   11 1     
   16    7    8 1     
   17    7   41 1     
   18    8    9 1     
   19    8   27 1     
   20    8   28 1     
   21    9   10 1     
   22    9   29 1     
   23    9   30 1     
   24   10   11 1     
   25   10   31 1     
   26   10   32 1     
   27   11   12 1     
   28   11   33 1     
   29   12   13 1     
   30   12   34 1     
   31   12   35 1     
   32   14   15 1     
   33   14   36 1     
   34   15   20 ar    
   35   15   16 ar    
   36   16   17 ar    
   37   16   37 1     
   38   17   18 ar    
   39   17   38 1     
   40   18   19 ar    
   41   18   39 1     
   42   19   20 ar    
   43   20   40 1     
   44    1   42 1     
   45    1   43 1     
   46   13   44 1     
   47   13   45 1     
   48   19   46 1     
@<TRIPOS>SUBSTRUCTURE
      1 S1             1
@<TRIPOS>SET
LONE_PAIRS      STATIC     ATOMS    <user>   **** ""
5 42 43 44 45 46
DONOR_HYDROGENS      STATIC     ATOMS    <user>   **** ""
3 21 41 36
ATOM$BLUE        STATIC     ATOMS    COLORGROUP SYSTEM
5 42 43 44 45 46
ATOM$RED        STATIC     ATOMS    COLORGROUP SYSTEM
3 21 41 36
