#       Name:                AV-unprocessed.smi:1308
#       Creating user name   scv26
#       Creation time:       Fri Mar 27 05:01:01 2020


#       File generated by GOLD software.
#

@<TRIPOS>MOLECULE
AV-unprocessed.smi:1308
    50    50     1
SMALL
NO_CHARGES


@<TRIPOS>ATOM
      1 ****        -3.3029  -2.0469  -4.7491 C.3            1 S1                 0.0000
      2 ****        -2.9373  -1.1373  -3.5955 C.2            1 S1                 0.0000
      3 ****        -2.6680   0.0905  -3.8288 N.2            1 S1                 0.0000
      4 ****        -2.3232   0.9378  -2.7623 C.2            1 S1                 0.0000
      5 ****        -2.0086   2.3768  -3.1321 C.3            1 S1                 0.0000
      6 ****        -2.2742   0.4746  -1.4808 C.2            1 S1                 0.0000
      7 ****        -1.8897   1.3518  -0.2878 C.3            1 S1                 0.0000
      8 ****        -0.3891   1.5542  -0.0633 C.2            1 S1                 0.0000
      9 ****         0.0382   2.6623   0.2597 O.2            1 S1                 0.0000
     10 ****         0.3924   0.4742  -0.2252 N.am           1 S1                 0.0000
     11 ****         1.8455   0.4275  -0.0871 C.3            1 S1                 0.0000
     12 ****         2.4454  -0.1845  -1.3603 C.3            1 S1                 0.0000
     13 ****         2.2464  -0.3689   1.1700 C.3            1 S1                 0.0000
     14 ****         1.7493   0.2594   2.4863 C.3            1 S1                 0.0000
     15 ****         2.2877  -0.4288   3.7568 C.3            1 S1                 0.0000
     16 ****         1.7676  -1.8682   3.9097 C.3            1 S1                 0.0000
     17 ****         1.9481   0.3991   5.0054 C.3            1 S1                 0.0000
     18 ****        -2.5895  -0.9474  -1.2546 C.2            1 S1                 0.0000
     19 ****        -2.5408  -1.4206  -0.1199 O.2            1 S1                 0.0000
     20 ****        -2.9175  -1.7033  -2.3406 N.pl3          1 S1                -1.0000
     21 ****        -3.1500  -1.5478  -5.7069 H              1 S1                 0.0000
     22 ****        -4.3503  -2.3418  -4.6792 H              1 S1                 0.0000
     23 ****        -2.6875  -2.9471  -4.7327 H              1 S1                 0.0000
     24 ****        -2.7346   3.0533  -2.6812 H              1 S1                 0.0000
     25 ****        -2.0398   2.5230  -4.2125 H              1 S1                 0.0000
     26 ****        -1.0127   2.6543  -2.7865 H              1 S1                 0.0000
     27 ****        -2.3498   2.3318  -0.4171 H              1 S1                 0.0000
     28 ****        -2.3245   0.9642   0.6338 H              1 S1                 0.0000
     29 ****        -0.0625  -0.3908  -0.4818 H              1 S1                 0.0000
     30 ****         2.2467   1.4380   0.0068 H              1 S1                 0.0000
     31 ****         3.5338  -0.2147  -1.3070 H              1 S1                 0.0000
     32 ****         2.1751   0.4003  -2.2403 H              1 S1                 0.0000
     33 ****         2.0905  -1.2039  -1.5167 H              1 S1                 0.0000
     34 ****         1.8718  -1.3889   1.0808 H              1 S1                 0.0000
     35 ****         3.3336  -0.4458   1.2051 H              1 S1                 0.0000
     36 ****         2.0514   1.3075   2.4994 H              1 S1                 0.0000
     37 ****         0.6590   0.2605   2.5111 H              1 S1                 0.0000
     38 ****         3.3752  -0.4712   3.6842 H              1 S1                 0.0000
     39 ****         0.6779  -1.8947   3.9397 H              1 S1                 0.0000
     40 ****         2.1352  -2.3209   4.8309 H              1 S1                 0.0000
     41 ****         2.0949  -2.5048   3.0882 H              1 S1                 0.0000
     42 ****         0.8695   0.4874   5.1400 H              1 S1                 0.0000
     43 ****         2.3578   1.4071   4.9342 H              1 S1                 0.0000
     44 ****         2.3600  -0.0580   5.9055 H              1 S1                 0.0000
     45 ****        -2.7025   0.4452  -4.7631 LP             1 S1                 0.0000
     46 ****        -0.5945   3.4281   0.3750 LP             1 S1                 0.0000
     47 ****         1.0181   2.7969   0.4069 LP             1 S1                 0.0000
     48 ****        -2.2865  -0.8399   0.6535 LP             1 S1                 0.0000
     49 ****        -2.7555  -2.3859   0.0290 LP             1 S1                 0.0000
     50 ****        -3.1441  -2.6705  -2.2255 LP             1 S1                 0.0000
@<TRIPOS>BOND
    1    1    2 1     
    2    1   21 1     
    3    1   22 1     
    4    1   23 1     
    5    2   20 1     
    6    2    3 2     
    7    3    4 1     
    8    4    5 1     
    9    4    6 2     
   10    5   24 1     
   11    5   25 1     
   12    5   26 1     
   13    6    7 1     
   14    6   18 1     
   15    7    8 1     
   16    7   27 1     
   17    7   28 1     
   18    8    9 2     
   19    8   10 am    
   20   10   11 1     
   21   10   29 1     
   22   11   12 1     
   23   11   13 1     
   24   11   30 1     
   25   12   31 1     
   26   12   32 1     
   27   12   33 1     
   28   13   14 1     
   29   13   34 1     
   30   13   35 1     
   31   14   15 1     
   32   14   36 1     
   33   14   37 1     
   34   15   16 1     
   35   15   17 1     
   36   15   38 1     
   37   16   39 1     
   38   16   40 1     
   39   16   41 1     
   40   17   42 1     
   41   17   43 1     
   42   17   44 1     
   43   18   19 2     
   44   18   20 1     
   45    3   45 1     
   46    9   46 1     
   47    9   47 1     
   48   19   48 1     
   49   19   49 1     
   50   20   50 1     
@<TRIPOS>SUBSTRUCTURE
      1 S1             1
@<TRIPOS>SET
LONE_PAIRS      STATIC     ATOMS    <user>   **** ""
6 45 46 47 48 49 50
DONOR_HYDROGENS      STATIC     ATOMS    <user>   **** ""
1 29
ATOM$BLUE        STATIC     ATOMS    COLORGROUP SYSTEM
6 45 46 47 48 49 50
ATOM$RED        STATIC     ATOMS    COLORGROUP SYSTEM
1 29
