AV-unprocessed.smi:1107|AV-procd|sdf|4785|dock1
  -GOLD-   22720 3333D 1   1.00000     0.00000
 Structure written by MMmdl.
 48 49  0  0  0  0  0  0  0  0  3 V2000
  152.6853  141.6147  157.8807 C   0  0  0  0  0  0  0  0  0  0  0  0
  152.1050  140.6127  156.9054 C   0  0  0  0  0  0  0  0  0  0  0  0
  151.0189  140.8963  156.2937 N   0  0  0  0  0  0  0  0  0  0  0  0
  150.4674  139.9676  155.3949 C   0  0  0  0  0  0  0  0  0  0  0  0
  149.1541  140.3714  154.7483 C   0  0  0  0  0  0  0  0  0  0  0  0
  151.0825  138.7754  155.1486 C   0  0  0  0  0  0  0  0  0  0  0  0
  150.5025  137.6924  154.2374 C   0  0  0  0  0  0  0  0  0  0  0  0
  150.3337  136.3228  154.8991 C   0  0  0  0  0  0  0  0  0  0  0  0
  150.7803  136.1237  156.0278 O   0  0  0  0  0  0  0  0  0  0  0  0
  149.6455  135.4065  154.1994 N   0  0  0  0  0  0  0  0  0  0  0  0
  149.1625  134.1214  154.6945 C   0  0  2  0  0  0  0  0  0  0  0  0
  150.2995  133.3976  155.4278 C   0  0  0  0  0  0  0  0  0  0  0  0
  148.6099  133.2784  153.5225 C   0  0  0  0  0  0  0  0  0  0  0  0
  147.5250  133.9534  152.7598 N   0  3  0  0  0  0  0  0  0  0  0  0
  146.8166  133.0168  151.8480 C   0  0  0  0  0  0  0  0  0  0  0  0
  145.7635  133.7425  150.9928 C   0  0  0  0  0  0  0  0  0  0  0  0
  144.7754  134.5214  151.8689 C   0  0  0  0  0  0  0  0  0  0  0  0
  145.5398  135.4681  152.8022 C   0  0  0  0  0  0  0  0  0  0  0  0
  146.5783  134.6978  153.6327 C   0  0  0  0  0  0  0  0  0  0  0  0
  152.3362  138.4908  155.8675 C   0  0  0  0  0  0  0  0  0  0  0  0
  152.9242  137.4256  155.6865 O   0  0  0  0  0  0  0  0  0  0  0  0
  152.7928  139.4315  156.7409 N   0  5  0  0  0  0  0  0  0  0  0  0
  152.3588  142.6270  157.6388 H   0  0  0  0  0  0  0  0  0  0  0  0
  153.7755  141.5953  157.8534 H   0  0  0  0  0  0  0  0  0  0  0  0
  152.3603  141.3809  158.8947 H   0  0  0  0  0  0  0  0  0  0  0  0
  148.3832  139.6244  154.9379 H   0  0  0  0  0  0  0  0  0  0  0  0
  149.2786  140.4767  153.6703 H   0  0  0  0  0  0  0  0  0  0  0  0
  148.7978  141.3252  155.1391 H   0  0  0  0  0  0  0  0  0  0  0  0
  149.5299  138.0009  153.8560 H   0  0  0  0  0  0  0  0  0  0  0  0
  151.1320  137.5894  153.3520 H   0  0  0  0  0  0  0  0  0  0  0  0
  149.3449  135.6699  153.2715 H   0  0  0  0  0  0  0  0  0  0  0  0
  148.3660  134.2774  155.4227 H   0  0  0  0  0  0  0  0  0  0  0  0
  149.9638  132.4374  155.8206 H   0  0  0  0  0  0  0  0  0  0  0  0
  150.6616  133.9885  156.2698 H   0  0  0  0  0  0  0  0  0  0  0  0
  151.1452  133.2090  154.7656 H   0  0  0  0  0  0  0  0  0  0  0  0
  149.4362  133.0739  152.8395 H   0  0  0  0  0  0  0  0  0  0  0  0
  148.2626  132.3069  153.8772 H   0  0  0  0  0  0  0  0  0  0  0  0
  147.5377  132.5341  151.1872 H   0  0  0  0  0  0  0  0  0  0  0  0
  146.3435  132.2279  152.4346 H   0  0  0  0  0  0  0  0  0  0  0  0
  146.2565  134.4274  150.3040 H   0  0  0  0  0  0  0  0  0  0  0  0
  145.2264  133.0228  150.3745 H   0  0  0  0  0  0  0  0  0  0  0  0
  144.0820  135.0852  151.2445 H   0  0  0  0  0  0  0  0  0  0  0  0
  144.1747  133.8267  152.4574 H   0  0  0  0  0  0  0  0  0  0  0  0
  146.0385  136.2410  152.2163 H   0  0  0  0  0  0  0  0  0  0  0  0
  144.8421  135.9835  153.4627 H   0  0  0  0  0  0  0  0  0  0  0  0
  146.0765  134.0006  154.3053 H   0  0  0  0  0  0  0  0  0  0  0  0
  147.1187  135.4062  154.2593 H   0  0  0  0  0  0  0  0  0  0  0  0
  147.9734  134.6365  152.1648 H   0  0  0  0  0  0  0  0  0  0  0  0
  1  2  1  0  0  0  0
  1 23  1  0  0  0  0
  1 24  1  0  0  0  0
  1 25  1  0  0  0  0
  2 22  1  0  0  0  0
  2  3  2  0  0  0  0
  3  4  1  0  0  0  0
  4  5  1  0  0  0  0
  4  6  2  0  0  0  0
  5 26  1  0  0  0  0
  5 27  1  0  0  0  0
  5 28  1  0  0  0  0
  6  7  1  0  0  0  0
  6 20  1  0  0  0  0
  7  8  1  0  0  0  0
  7 29  1  0  0  0  0
  7 30  1  0  0  0  0
  8  9  2  0  0  0  0
  8 10  1  0  0  0  0
 10 11  1  0  0  0  0
 10 31  1  0  0  0  0
 11 12  1  0  0  0  0
 11 13  1  0  0  0  0
 11 32  1  0  0  0  0
 12 33  1  0  0  0  0
 12 34  1  0  0  0  0
 12 35  1  0  0  0  0
 13 14  1  0  0  0  0
 13 36  1  0  0  0  0
 13 37  1  0  0  0  0
 14 19  1  0  0  0  0
 14 15  1  0  0  0  0
 14 48  1  0  0  0  0
 15 16  1  0  0  0  0
 15 38  1  0  0  0  0
 15 39  1  0  0  0  0
 16 17  1  0  0  0  0
 16 40  1  0  0  0  0
 16 41  1  0  0  0  0
 17 18  1  0  0  0  0
 17 42  1  0  0  0  0
 17 43  1  0  0  0  0
 18 19  1  0  0  0  0
 18 44  1  0  0  0  0
 18 45  1  0  0  0  0
 19 46  1  0  0  0  0
 19 47  1  0  0  0  0
 20 21  2  0  0  0  0
 20 22  1  0  0  0  0
M  CHG  1  14   1
M  CHG  1  22  -1
M  END
> <s_m_source_file>
AV-unprocessed.smi

> <i_m_source_file_index>
1107

> <i_lp_mmshare_version>
43012

> <i_f3d_flags>
0

> <s_epik_input>
W0NIM11jMW5jKFtDSDNdKWMoYyg9TylbbkhdMSlbQ0gyXUMoPU8pW05IXVtDQEhdKFtDSDNdKVtDSDJdTjJbQ0gyXVtDSDJdW0NIMl1bQ0gyXVtDSDJdMg==

> <s_epik_cmdline>
J2VwaWtfcHl0aG9uJywgJy1waCcsICc3LjAnLCAnLXRuJywgJzgnLCAnLW1hJywgJzIwMCcsICctbWV0YWxfYmluZGluZycsICctaW1hZScsICc8aW5maWxlLm1hZT4nLCAnLW9tYWUnLCAnPG91dGZpbGUubWFlPic=

> <r_lp_tautomer_probability>
0.839158

> <r_epik_Ionization_Penalty>
6.34615

> <r_epik_Ionization_Penalty_Charging>
0.00266072

> <r_epik_Ionization_Penalty_Neutral>
6.34348

> <r_epik_State_Penalty>
4.30851

> <r_epik_Charging_Adjusted_Penalty>
4.31117

> <i_epik_Tot_Q>
0

> <i_epik_Tot_abs_Q>
2

> <r_epik_Metal_State_Penalty>
0.75957

> <b_epik_Metal_Only>
1

> <s_lp_Force_Field>
OPLS_2005

> <r_lp_Energy>
18.3813

> <b_lp_Chiralities_Consistent>
1

> <s_lp_Variant>
AV-unprocessed.smi:1107-5

> <Gold.Version>
5.8.1

> <Gold.Id.Protein>
6NUR|6NUR_protein|mol2

> <Gold.PLP.Fitness>
48.6273

> <Gold.PLP.PLP>
-33.0517

> <Gold.PLP.part.hbond>
-4.4835

> <Gold.PLP.part.metal>
0.0000

> <Gold.PLP.part.buried>
-3.1790

> <Gold.PLP.part.nonpolar>
-26.0320

> <Gold.PLP.part.repulsive>
0.1062

> <Gold.PLP.ligand.clash>
0.0000

> <Gold.PLP.ligand.torsion>
0.3407

> <Gold.PLP.Chemscore.Hbond>
5.3944

> <Gold.PLP.Chemscore.CHOScore>
0.0000

> <Gold.PLP.Chemscore.Metal>
0.0000

> <Gold.Chemscore.Hbonds>
donor molecule, donor type, donor heavy atom, donor atom, acceptor molecule, acceptor atom, score
      L1  H    10    31       P1  7948  0.99
      L1  H    14    48       P1  7948  2.00
      P1  H  7997  8010       L1    22  1.80
      P1  H 10752 10764       L1    21  0.47

> <Gold.PLP.Chemscore.Internal.Correction>
0.0736

> <Gold.Rescore>
     Score         DG    S(hbond)    S(metal)    S(lipo)     H(rot)  DE(clash)    DE(int)     intcor
     15.29     -17.06       2.76        0.00      62.21       1.92       0.01       1.77       ----

> <Gold.Chemscore.Fitness>
15.2873

> <Gold.Chemscore.DG>
-17.0587

> <Gold.Chemscore.ZeroCoef>
-5.4800

> <Gold.Chemscore.Hbond>
2.7617

> <Gold.Chemscore.Metal>
0.0000

> <Gold.Chemscore.Lipo>
62.2084

> <Gold.Chemscore.Internal_Hbond>
0.0000

> <Gold.Chemscore.DEClash>
0.0060

> <Gold.Chemscore.DEInternal>
1.7654

> <Gold.Chemscore.Rot>
1.9233

> <Gold.Chemscore.Internal.Correction>
   9.000000E+99

> <Gold.Chemscore.Hbonds>
donor molecule, donor type, donor heavy atom, donor atom, acceptor molecule, acceptor atom, score
      L1  H    10    31       P1  7948  0.24
      L1  H    14    48       P1  7948  0.34
      P1  H  7997  8010       L1    22  0.17
      P1  H 10752 10764       L1    21  0.44

> <Gold.Chemscore.Hbond.Weighted>
-9.2240

> <Gold.Chemscore.Metal.Weighted>
-0.0000

> <Gold.Chemscore.Lipo.Weighted>
-7.2784

> <Gold.Chemscore.Internal_Hbond.Weighted>
0.0000

> <Gold.Chemscore.DEClash.Weighted>
0.0060

> <Gold.Chemscore.DEInternal.Weighted>
1.7654

> <Gold.Chemscore.Rot.Weighted>
4.9237

> <Gold.Chemscore.Internal.Correction.Weighted>
   9.000000E+99

> <Gold.Protein.RotatedTorsions>
[ 6907 6896 6895 6894 ] final  174.11 input  -60.11 | X-H torsion
[ 7974 7965 7964 7962 ] final   76.51 input  175.53 | X-H torsion
[ 8008 7997 7996 7995 ] final   72.98 input   59.86 | X-H torsion
[ 10167 10162 10161 10158 ] final  -45.60 input  -65.29 | X-H torsion
[ 10718 10713 10712 10709 ] final   12.04 input   66.30 | X-H torsion
[ 10763 10752 10751 10750 ] final  -38.23 input  -60.55 | X-H torsion
[ 11005 11000 10999 10996 ] final   -0.33 input  -57.11 | X-H torsion

> <Gold.Protein.ActiveResidues>
 VAL166  LYS551  ARG553  GLY616  TRP617  ASP618  TYR619  PRO620  LYS621  CYS622 
 ASP623  PHE694  ASN695  SER759  ASP760  ASP761  ALA762  ILE779  LEU786  VAL792 
 PHE793  MET794  SER795  GLU796  ALA797  LYS798  CYS799  TRP800  GLU811  SER814 

> <Gold.Protein.RotatedAtoms>
  151.7575  133.3331  159.3408 H   0  0  0  0  0  0  0  0  0  0  0  0  # atno 6907 bound_to 6896
  150.7511  134.6136  159.6108 H   0  0  0  0  0  0  0  0  0  0  0  0  # atno 6908 bound_to 6896
  152.3428  134.7114  160.0310 H   0  0  0  0  0  0  0  0  0  0  0  0  # atno 6909 bound_to 6896
  145.7020  139.2586  143.1700 H   0  0  0  0  0  0  0  0  0  0  0  0  # atno 7974 bound_to 7965
  155.7769  140.3483  155.5276 H   0  0  0  0  0  0  0  0  0  0  0  0  # atno 8008 bound_to 7997
  155.8767  140.0995  157.1534 H   0  0  0  0  0  0  0  0  0  0  0  0  # atno 8009 bound_to 7997
  154.4021  140.1330  156.4133 H   0  0  0  0  0  0  0  0  0  0  0  0  # atno 8010 bound_to 7997
  140.6852  143.2872  151.3661 H   0  0  0  0  0  0  0  0  0  0  0  0  # atno 10167 bound_to 10162
  157.0043  130.6092  149.5700 H   0  0  0  0  0  0  0  0  0  0  0  0  # atno 10718 bound_to 10713
  153.9093  135.6794  153.4751 H   0  0  0  0  0  0  0  0  0  0  0  0  # atno 10763 bound_to 10752
  153.1087  135.4793  154.8994 H   0  0  0  0  0  0  0  0  0  0  0  0  # atno 10764 bound_to 10752
  154.7535  135.3191  154.8469 H   0  0  0  0  0  0  0  0  0  0  0  0  # atno 10765 bound_to 10752
  140.6351  133.9540  155.8295 H   0  0  0  0  0  0  0  0  0  0  0  0  # atno 11005 bound_to 11000
  146.0789  140.7786  142.9651 LP  0  0  0  0  0  0  0  0  0  0  0  0  # atno 17320 bound_to 7965
  144.6966  140.3458  143.7191 LP  0  0  0  0  0  0  0  0  0  0  0  0  # atno 17321 bound_to 7965
  139.6204  144.0918  152.2386 LP  0  0  0  0  0  0  0  0  0  0  0  0  # atno 17342 bound_to 10162
  140.0361  144.6044  150.7449 LP  0  0  0  0  0  0  0  0  0  0  0  0  # atno 17343 bound_to 10162
  156.0159  130.5253  150.8133 LP  0  0  0  0  0  0  0  0  0  0  0  0  # atno 17370 bound_to 10713
  157.5367  131.0939  150.9883 LP  0  0  0  0  0  0  0  0  0  0  0  0  # atno 17371 bound_to 10713
  141.0647  134.0294  157.3610 LP  0  0  0  0  0  0  0  0  0  0  0  0  # atno 17394 bound_to 11000
  139.9101  135.0188  156.7655 LP  0  0  0  0  0  0  0  0  0  0  0  0  # atno 17395 bound_to 11000

$$$$
