AV-unprocessed.smi:862|AV-procd|sdf|3979|dock2
  -GOLD-   22720 1453D 1   1.00000     0.00000
 Structure written by MMmdl.
 44 46  0  0  0  0  0  0  0  0  2 V2000
  142.8076  134.7047  153.7644 N   0  0  0  0  0  0  0  0  0  0  0  0
  143.4846  134.8311  152.6189 C   0  0  0  0  0  0  0  0  0  0  0  0
  143.6421  133.8704  151.8679 O   0  0  0  0  0  0  0  0  0  0  0  0
  143.9298  136.0833  152.3434 N   0  0  0  0  0  0  0  0  0  0  0  0
  143.8200  137.2561  153.2267 C   0  0  0  0  0  0  0  0  0  0  0  0
  145.2022  137.5416  153.8418 C   0  0  0  0  0  0  0  0  0  0  0  0
  146.2675  137.7602  152.7468 C   0  0  0  0  0  0  0  0  0  0  0  0
  147.6040  137.9024  153.3650 N   0  3  0  0  0  0  0  0  0  0  0  0
  148.1731  139.2686  153.3588 C   0  0  1  0  0  0  0  0  0  0  0  0
  147.1017  140.3636  153.3366 C   0  0  0  0  0  0  0  0  0  0  0  0
  147.7782  141.6043  153.9368 C   0  0  0  0  0  0  0  0  0  0  0  0
  149.0214  141.1051  154.6905 C   0  0  0  0  0  0  0  0  0  0  0  0
  148.9472  139.5719  154.6458 C   0  0  2  0  0  0  0  0  0  0  0  0
  150.2475  138.9210  154.6998 N   0  0  0  0  0  0  0  0  0  0  0  0
  151.4559  139.5116  155.0472 C   0  0  0  0  0  0  0  0  0  0  0  0
  152.4133  138.5248  154.9787 C   0  0  0  0  0  0  0  0  0  0  0  0
  151.8212  137.3240  154.5969 N   0  0  0  0  0  0  0  0  0  0  0  0
  150.5407  137.6354  154.4498 C   0  0  0  0  0  0  0  0  0  0  0  0
  146.2403  136.6066  151.7176 C   0  0  0  0  0  0  0  0  0  0  0  0
  144.8112  136.3578  151.2020 C   0  0  0  0  0  0  0  0  0  0  0  0
  142.4377  133.8025  154.0275 H   0  0  0  0  0  0  0  0  0  0  0  0
  142.6582  135.5081  154.3568 H   0  0  0  0  0  0  0  0  0  0  0  0
  143.4873  138.1149  152.6419 H   0  0  0  0  0  0  0  0  0  0  0  0
  143.0812  137.1433  154.0197 H   0  0  0  0  0  0  0  0  0  0  0  0
  145.1448  138.4186  154.4875 H   0  0  0  0  0  0  0  0  0  0  0  0
  145.4903  136.7052  154.4807 H   0  0  0  0  0  0  0  0  0  0  0  0
  146.0204  138.6906  152.2340 H   0  0  0  0  0  0  0  0  0  0  0  0
  147.5462  137.6004  154.3269 H   0  0  0  0  0  0  0  0  0  0  0  0
  148.8350  139.4010  152.5025 H   0  0  0  0  0  0  0  0  0  0  0  0
  146.7140  140.5501  152.3345 H   0  0  0  0  0  0  0  0  0  0  0  0
  146.2586  140.0746  153.9663 H   0  0  0  0  0  0  0  0  0  0  0  0
  148.0740  142.2993  153.1500 H   0  0  0  0  0  0  0  0  0  0  0  0
  147.0950  142.1367  154.5991 H   0  0  0  0  0  0  0  0  0  0  0  0
  149.9152  141.4721  154.1849 H   0  0  0  0  0  0  0  0  0  0  0  0
  149.0562  141.4759  155.7153 H   0  0  0  0  0  0  0  0  0  0  0  0
  148.3588  139.2352  155.5017 H   0  0  0  0  0  0  0  0  0  0  0  0
  151.5353  140.5569  155.3078 H   0  0  0  0  0  0  0  0  0  0  0  0
  153.4736  138.5854  155.1755 H   0  0  0  0  0  0  0  0  0  0  0  0
  149.7978  136.9080  154.1565 H   0  0  0  0  0  0  0  0  0  0  0  0
  146.8934  136.8263  150.8732 H   0  0  0  0  0  0  0  0  0  0  0  0
  146.6234  135.6922  152.1742 H   0  0  0  0  0  0  0  0  0  0  0  0
  144.8136  135.5485  150.4702 H   0  0  0  0  0  0  0  0  0  0  0  0
  144.4468  137.2358  150.6667 H   0  0  0  0  0  0  0  0  0  0  0  0
  148.2376  137.2864  152.8756 H   0  0  0  0  0  0  0  0  0  0  0  0
  1  2  1  0  0  0  0
  1 21  1  0  0  0  0
  1 22  1  0  0  0  0
  2  3  2  0  0  0  0
  2  4  1  0  0  0  0
  4 20  1  0  0  0  0
  4  5  1  0  0  0  0
  5  6  1  0  0  0  0
  5 23  1  0  0  0  0
  5 24  1  0  0  0  0
  6  7  1  0  0  0  0
  6 25  1  0  0  0  0
  6 26  1  0  0  0  0
  7  8  1  0  0  0  0
  7 19  1  0  0  0  0
  7 27  1  0  0  0  0
  8  9  1  0  0  0  0
  8 28  1  0  0  0  0
  8 44  1  0  0  0  0
  9 13  1  0  0  0  0
  9 10  1  0  0  0  0
  9 29  1  0  0  0  0
 10 11  1  0  0  0  0
 10 30  1  0  0  0  0
 10 31  1  0  0  0  0
 11 12  1  0  0  0  0
 11 32  1  0  0  0  0
 11 33  1  0  0  0  0
 12 13  1  0  0  0  0
 12 34  1  0  0  0  0
 12 35  1  0  0  0  0
 13 14  1  0  0  0  0
 13 36  1  0  0  0  0
 14 18  1  0  0  0  0
 14 15  1  0  0  0  0
 15 16  2  0  0  0  0
 15 37  1  0  0  0  0
 16 17  1  0  0  0  0
 16 38  1  0  0  0  0
 17 18  2  0  0  0  0
 18 39  1  0  0  0  0
 19 20  1  0  0  0  0
 19 40  1  0  0  0  0
 19 41  1  0  0  0  0
 20 42  1  0  0  0  0
 20 43  1  0  0  0  0
M  CHG  1   8   1
M  END
> <s_m_source_file>
AV-unprocessed.smi

> <i_m_source_file_index>
862

> <i_lp_mmshare_version>
43012

> <i_f3d_flags>
0

> <s_epik_input>
W05IMl1DKD1PKU4xW0NIMl1bQ0gyXVtDSF0oW0NIMl1bQ0gyXTEpW05IXVtDQEBIXTJbQ0gyXVtDSDJdW0NIMl1bQ0BIXTJuM1tjSF1bY0hdbltjSF0z

> <s_epik_cmdline>
J2VwaWtfcHl0aG9uJywgJy1waCcsICc3LjAnLCAnLXRuJywgJzgnLCAnLW1hJywgJzIwMCcsICctbWV0YWxfYmluZGluZycsICctaW1hZScsICc8aW5maWxlLm1hZT4nLCAnLW9tYWUnLCAnPG91dGZpbGUubWFlPic=

> <r_lp_tautomer_probability>
1

> <r_epik_Ionization_Penalty>
0.0731506

> <r_epik_Ionization_Penalty_Charging>
0.0731

> <r_epik_Ionization_Penalty_Neutral>
5.05966e-05

> <r_epik_State_Penalty>
0.128895

> <r_epik_Charging_Adjusted_Penalty>
0.201995

> <i_epik_Tot_Q>
1

> <i_epik_Tot_abs_Q>
1

> <r_epik_Metal_State_Penalty>
0.113934

> <b_epik_Metal_Only>
0

> <s_lp_Force_Field>
OPLS_2005

> <r_lp_Energy>
55.4297

> <b_lp_Chiralities_Consistent>
1

> <s_lp_Variant>
AV-unprocessed.smi:862-4

> <Gold.Version>
5.8.1

> <Gold.Id.Protein>
6NUR|6NUR_protein|mol2

> <Gold.PLP.Fitness>
44.6561

> <Gold.PLP.PLP>
-32.6732

> <Gold.PLP.part.hbond>
-3.0000

> <Gold.PLP.part.metal>
0.0000

> <Gold.PLP.part.buried>
4.3197

> <Gold.PLP.part.nonpolar>
-35.4726

> <Gold.PLP.part.repulsive>
0.3333

> <Gold.PLP.ligand.clash>
0.0000

> <Gold.PLP.ligand.torsion>
1.4601

> <Gold.PLP.Chemscore.Hbond>
3.9600

> <Gold.PLP.Chemscore.CHOScore>
0.9893

> <Gold.PLP.Chemscore.Metal>
0.0000

> <Gold.Chemscore.Hbonds>
donor molecule, donor type, donor heavy atom, donor atom, acceptor molecule, acceptor atom, score
      L1  H     1    21       P1 10957  0.63
      L1  H     8    44       P1  7948  2.00
      P1  H 10752 10765       L1    17  0.98
      L1  C    18    39       P1  7948  1.00

> <Gold.PLP.Chemscore.Internal.Correction>
0.0550

> <Gold.Rescore>
     Score         DG    S(hbond)    S(metal)    S(lipo)     H(rot)  DE(clash)    DE(int)     intcor
     15.25     -18.89       2.89        0.00      68.02       1.64       2.16       1.48       ----

> <Gold.Chemscore.Fitness>
15.2480

> <Gold.Chemscore.DG>
-18.8906

> <Gold.Chemscore.ZeroCoef>
-5.4800

> <Gold.Chemscore.Hbond>
2.8904

> <Gold.Chemscore.Metal>
0.0000

> <Gold.Chemscore.Lipo>
68.0173

> <Gold.Chemscore.Internal_Hbond>
0.0000

> <Gold.Chemscore.DEClash>
2.1598

> <Gold.Chemscore.DEInternal>
1.4829

> <Gold.Chemscore.Rot>
1.6411

> <Gold.Chemscore.Internal.Correction>
   9.000000E+99

> <Gold.Chemscore.Hbonds>
donor molecule, donor type, donor heavy atom, donor atom, acceptor molecule, acceptor atom, score
      L1  H     1    21       P1 10957  0.61
      L1  H     8    44       P1  7948  0.99
      P1  H 10752 10765       L1    17  0.85

> <Gold.Chemscore.Hbond.Weighted>
-9.6539

> <Gold.Chemscore.Metal.Weighted>
-0.0000

> <Gold.Chemscore.Lipo.Weighted>
-7.9580

> <Gold.Chemscore.Internal_Hbond.Weighted>
0.0000

> <Gold.Chemscore.DEClash.Weighted>
2.1598

> <Gold.Chemscore.DEInternal.Weighted>
1.4829

> <Gold.Chemscore.Rot.Weighted>
4.2013

> <Gold.Chemscore.Internal.Correction.Weighted>
   9.000000E+99

> <Gold.Protein.RotatedTorsions>
[ 6907 6896 6895 6894 ] final -153.49 input  -60.11 | X-H torsion
[ 7974 7965 7964 7962 ] final   79.45 input  175.53 | X-H torsion
[ 8008 7997 7996 7995 ] final  -29.31 input   59.86 | X-H torsion
[ 10167 10162 10161 10158 ] final  -60.38 input  -65.29 | X-H torsion
[ 10718 10713 10712 10709 ] final -111.75 input   66.30 | X-H torsion
[ 10763 10752 10751 10750 ] final  160.15 input  -60.55 | X-H torsion
[ 11005 11000 10999 10996 ] final  168.91 input  -57.11 | X-H torsion

> <Gold.Protein.ActiveResidues>
 VAL166  LYS551  ARG553  GLY616  TRP617  ASP618  TYR619  PRO620  LYS621  CYS622 
 ASP623  PHE694  ASN695  SER759  ASP760  ASP761  ALA762  ILE779  LEU786  VAL792 
 PHE793  MET794  SER795  GLU796  ALA797  LYS798  CYS799  TRP800  GLU811  SER814 

> <Gold.Protein.RotatedAtoms>
  151.2433  133.4388  159.2608 H   0  0  0  0  0  0  0  0  0  0  0  0  # atno 6907 bound_to 6896
  151.0685  134.9783  159.8307 H   0  0  0  0  0  0  0  0  0  0  0  0  # atno 6908 bound_to 6896
  152.5409  134.2379  159.8903 H   0  0  0  0  0  0  0  0  0  0  0  0  # atno 6909 bound_to 6896
  145.6641  139.2479  143.1906 H   0  0  0  0  0  0  0  0  0  0  0  0  # atno 7974 bound_to 7965
  154.4295  140.1822  156.1227 H   0  0  0  0  0  0  0  0  0  0  0  0  # atno 8008 bound_to 7997
  156.0130  140.3348  155.6935 H   0  0  0  0  0  0  0  0  0  0  0  0  # atno 8009 bound_to 7997
  155.6084  140.0647  157.2704 H   0  0  0  0  0  0  0  0  0  0  0  0  # atno 8010 bound_to 7997
  140.6075  143.2377  151.5788 H   0  0  0  0  0  0  0  0  0  0  0  0  # atno 10167 bound_to 10162
  156.0665  130.5884  150.8416 H   0  0  0  0  0  0  0  0  0  0  0  0  # atno 10718 bound_to 10713
  154.2429  135.2774  155.2847 H   0  0  0  0  0  0  0  0  0  0  0  0  # atno 10763 bound_to 10752
  154.5530  135.5669  153.6942 H   0  0  0  0  0  0  0  0  0  0  0  0  # atno 10764 bound_to 10752
  152.9996  135.6279  154.2573 H   0  0  0  0  0  0  0  0  0  0  0  0  # atno 10765 bound_to 10752
  140.2922  134.7664  157.3848 H   0  0  0  0  0  0  0  0  0  0  0  0  # atno 11005 bound_to 11000
  146.1101  140.7439  142.9507 LP  0  0  0  0  0  0  0  0  0  0  0  0  # atno 17320 bound_to 7965
  144.7079  140.3925  143.7103 LP  0  0  0  0  0  0  0  0  0  0  0  0  # atno 17321 bound_to 7965
  139.5336  144.2846  152.1202 LP  0  0  0  0  0  0  0  0  0  0  0  0  # atno 17342 bound_to 10162
  140.2038  144.4631  150.6418 LP  0  0  0  0  0  0  0  0  0  0  0  0  # atno 17343 bound_to 10162
  157.5710  131.0946  150.9418 LP  0  0  0  0  0  0  0  0  0  0  0  0  # atno 17370 bound_to 10713
  156.9634  130.5464  149.5287 LP  0  0  0  0  0  0  0  0  0  0  0  0  # atno 17371 bound_to 10713
  140.1185  134.5251  155.8204 LP  0  0  0  0  0  0  0  0  0  0  0  0  # atno 17394 bound_to 11000
  141.2144  133.6748  156.6822 LP  0  0  0  0  0  0  0  0  0  0  0  0  # atno 17395 bound_to 11000

$$$$
