AV-unprocessed.smi:34|AV-procd|sdf|223|dock6
  -GOLD-   2262015543D 1   1.00000     0.00000
 Structure written by MMmdl.
 55 59  0  0  0  0  0  0  0  0  1 V2000
  153.2080  140.2790  158.1445 O   0  0  0  0  0  0  0  0  0  0  0  0
  152.2643  141.0600  158.0191 C   0  0  0  0  0  0  0  0  0  0  0  0
  151.1995  140.8382  157.0564 N   0  0  0  0  0  0  0  0  0  0  0  0
  151.0247  139.7802  156.2299 C   0  0  0  0  0  0  0  0  0  0  0  0
  151.0643  139.8970  154.8768 N   0  0  0  0  0  0  0  0  0  0  0  0
  150.8808  138.8231  154.1040 C   0  0  0  0  0  0  0  0  0  0  0  0
  150.6477  137.5621  154.4723 N   0  0  0  0  0  0  0  0  0  0  0  0
  150.6074  137.4323  155.8296 C   0  0  0  0  0  0  0  0  0  0  0  0
  150.7859  138.4883  156.7676 C   0  0  0  0  0  0  0  0  0  0  0  0
  150.6791  137.9936  158.0602 N   0  0  0  0  0  0  0  0  0  0  0  0
  150.4496  136.7196  157.8920 C   0  0  0  0  0  0  0  0  0  0  0  0
  150.3850  136.2947  156.5832 N   0  0  0  0  0  0  0  0  0  0  0  0
  150.1238  134.8962  156.1054 C   0  0  2  0  0  0  0  0  0  0  0  0
  149.3537  134.2066  157.0471 O   0  0  0  0  0  0  0  0  0  0  0  0
  150.0869  133.0948  157.5541 C   0  0  1  0  0  0  0  0  0  0  0  0
  149.1433  131.9717  158.0011 C   0  0  0  0  0  0  0  0  0  0  0  0
  148.2891  132.4549  159.0256 O   0  0  0  0  0  0  0  0  0  0  0  0
  148.5931  132.2314  160.3190 C   0  0  0  0  0  0  0  0  0  0  0  0
  149.5301  131.5197  160.6864 O   0  0  0  0  0  0  0  0  0  0  0  0
  147.6788  132.9385  161.2617 C   0  0  0  0  0  0  0  0  0  0  0  0
  146.3527  132.4727  161.4206 C   0  0  0  0  0  0  0  0  0  0  0  0
  145.4655  133.1200  162.3024 C   0  0  0  0  0  0  0  0  0  0  0  0
  145.8930  134.2421  163.0354 C   0  0  0  0  0  0  0  0  0  0  0  0
  147.2094  134.7158  162.8861 C   0  0  0  0  0  0  0  0  0  0  0  0
  148.0987  134.0689  162.0058 C   0  0  0  0  0  0  0  0  0  0  0  0
  151.0454  132.7279  156.4204 C   0  0  1  0  0  0  0  0  0  0  0  0
  150.4167  132.0209  155.4786 F   0  0  0  0  0  0  0  0  0  0  0  0
  151.4165  134.0891  155.8621 C   0  0  2  0  0  0  0  0  0  0  0  0
  152.5651  134.6064  156.5112 O   0  0  0  0  0  0  0  0  0  0  0  0
  152.1926  142.3412  158.7982 C   0  0  0  0  0  0  0  0  0  0  0  0
  152.6897  142.3928  160.1199 C   0  0  0  0  0  0  0  0  0  0  0  0
  152.6133  143.5857  160.8648 C   0  0  0  0  0  0  0  0  0  0  0  0
  152.0320  144.7351  160.2977 C   0  0  0  0  0  0  0  0  0  0  0  0
  151.5235  144.6898  158.9859 C   0  0  0  0  0  0  0  0  0  0  0  0
  151.5996  143.4975  158.2395 C   0  0  0  0  0  0  0  0  0  0  0  0
  150.4936  141.5582  157.0067 H   0  0  0  0  0  0  0  0  0  0  0  0
  150.9261  138.9996  153.0394 H   0  0  0  0  0  0  0  0  0  0  0  0
  150.3135  136.0483  158.7275 H   0  0  0  0  0  0  0  0  0  0  0  0
  149.5314  135.0246  155.1985 H   0  0  0  0  0  0  0  0  0  0  0  0
  150.6688  133.4357  158.4109 H   0  0  0  0  0  0  0  0  0  0  0  0
  148.5330  131.6424  157.1593 H   0  0  0  0  0  0  0  0  0  0  0  0
  149.7136  131.1083  158.3466 H   0  0  0  0  0  0  0  0  0  0  0  0
  146.0021  131.6123  160.8688 H   0  0  0  0  0  0  0  0  0  0  0  0
  144.4558  132.7542  162.4161 H   0  0  0  0  0  0  0  0  0  0  0  0
  145.2121  134.7384  163.7111 H   0  0  0  0  0  0  0  0  0  0  0  0
  147.5392  135.5775  163.4477 H   0  0  0  0  0  0  0  0  0  0  0  0
  149.1017  134.4590  161.9141 H   0  0  0  0  0  0  0  0  0  0  0  0
  151.9011  132.1375  156.7507 H   0  0  0  0  0  0  0  0  0  0  0  0
  151.6236  134.0478  154.7923 H   0  0  0  0  0  0  0  0  0  0  0  0
  152.8578  133.9746  157.1502 H   0  0  0  0  0  0  0  0  0  0  0  0
  153.1376  141.5189  160.5707 H   0  0  0  0  0  0  0  0  0  0  0  0
  153.0003  143.6177  161.8726 H   0  0  0  0  0  0  0  0  0  0  0  0
  151.9729  145.6492  160.8698 H   0  0  0  0  0  0  0  0  0  0  0  0
  151.0715  145.5697  158.5521 H   0  0  0  0  0  0  0  0  0  0  0  0
  151.1945  143.4829  157.2382 H   0  0  0  0  0  0  0  0  0  0  0  0
  1  2  2  0  0  0  0
  2  3  1  0  0  0  0
  2 30  1  0  0  0  0
  3  4  1  0  0  0  0
  3 36  1  0  0  0  0
  4  9  1  0  0  0  0
  4  5  2  0  0  0  0
  5  6  1  0  0  0  0
  6  7  2  0  0  0  0
  6 37  1  0  0  0  0
  7  8  1  0  0  0  0
  8 12  1  0  0  0  0
  8  9  2  0  0  0  0
  9 10  1  0  0  0  0
 10 11  2  0  0  0  0
 11 12  1  0  0  0  0
 11 38  1  0  0  0  0
 12 13  1  0  0  0  0
 13 28  1  0  0  0  0
 13 14  1  0  0  0  0
 13 39  1  0  0  0  0
 14 15  1  0  0  0  0
 15 16  1  0  0  0  0
 15 26  1  0  0  0  0
 15 40  1  0  0  0  0
 16 17  1  0  0  0  0
 16 41  1  0  0  0  0
 16 42  1  0  0  0  0
 17 18  1  0  0  0  0
 18 19  2  0  0  0  0
 18 20  1  0  0  0  0
 20 25  1  0  0  0  0
 20 21  2  0  0  0  0
 21 22  1  0  0  0  0
 21 43  1  0  0  0  0
 22 23  2  0  0  0  0
 22 44  1  0  0  0  0
 23 24  1  0  0  0  0
 23 45  1  0  0  0  0
 24 25  2  0  0  0  0
 24 46  1  0  0  0  0
 25 47  1  0  0  0  0
 26 27  1  0  0  0  0
 26 28  1  0  0  0  0
 26 48  1  0  0  0  0
 28 29  1  0  0  0  0
 28 49  1  0  0  0  0
 29 50  1  0  0  0  0
 30 35  1  0  0  0  0
 30 31  2  0  0  0  0
 31 32  1  0  0  0  0
 31 51  1  0  0  0  0
 32 33  2  0  0  0  0
 32 52  1  0  0  0  0
 33 34  1  0  0  0  0
 33 53  1  0  0  0  0
 34 35  2  0  0  0  0
 34 54  1  0  0  0  0
 35 55  1  0  0  0  0
M  END
> <s_m_source_file>
AV-unprocessed.smi

> <i_m_source_file_index>
34

> <i_lp_mmshare_version>
43012

> <i_f3d_flags>
0

> <s_epik_input>
W2NIXTFbY0hdW2NIXVtjSF1bY0hdYzFDKD1PKVtOSF1jKG5bY0hdbjIpYyhjMjMpbltjSF1uM1tDQEBIXTRPW0NASF0oW0NAQEhdKEYpW0NASF00W09IXSlbQ0gyXU9DKD1PKWM1W2NIXVtjSF1bY0hdW2NIXVtjSF01

> <s_epik_cmdline>
J2VwaWtfcHl0aG9uJywgJy1waCcsICc3LjAnLCAnLXRuJywgJzgnLCAnLW1hJywgJzIwMCcsICctbWV0YWxfYmluZGluZycsICctaW1hZScsICc8aW5maWxlLm1hZT4nLCAnLW9tYWUnLCAnPG91dGZpbGUubWFlPic=

> <r_lp_tautomer_probability>
1

> <r_epik_Ionization_Penalty>
0.00257489

> <r_epik_Ionization_Penalty_Charging>
0

> <r_epik_Ionization_Penalty_Neutral>
0.00257489

> <r_epik_State_Penalty>
0.00519398

> <r_epik_Charging_Adjusted_Penalty>
0.00519398

> <i_epik_Tot_Q>
0

> <i_epik_Tot_abs_Q>
0

> <r_epik_Metal_State_Penalty>
0.335891

> <b_epik_Metal_Only>
0

> <s_epik_Chemistry_Notes>
This compound has an ester and may undergo hydrolysis at high or low pH. This compound contains an acetal/aminal-like group ( X-CH(R)-Y where X, Y are N, S, or O) that may be acid/base labile, releasing an aldehyde.

> <s_lp_Force_Field>
OPLS_2005

> <r_lp_Energy>
53.1328

> <b_lp_Chiralities_Consistent>
1

> <s_lp_Variant>
AV-unprocessed.smi:34-9

> <Gold.Version>
5.8.1

> <Gold.Id.Protein>
6NUR|6NUR_protein|mol2

> <Gold.PLP.Fitness>
59.4452

> <Gold.PLP.PLP>
-55.9147

> <Gold.PLP.part.hbond>
-3.0027

> <Gold.PLP.part.metal>
0.0000

> <Gold.PLP.part.buried>
-6.0487

> <Gold.PLP.part.nonpolar>
-45.5568

> <Gold.PLP.part.repulsive>
0.3445

> <Gold.PLP.ligand.clash>
0.0000

> <Gold.PLP.ligand.torsion>
3.4361

> <Gold.PLP.Chemscore.Hbond>
2.3991

> <Gold.PLP.Chemscore.CHOScore>
1.0000

> <Gold.PLP.Chemscore.Metal>
0.0000

> <Gold.Chemscore.Hbonds>
donor molecule, donor type, donor heavy atom, donor atom, acceptor molecule, acceptor atom, score
      P1  H  7989  7998       L1     5  0.60
      P1  H  7997  8008       L1     1  0.91
      P1  H 10752 10764       L1    29  0.80
      L1  C     6    37       P1  7957  1.00

> <Gold.PLP.Chemscore.Internal.Correction>
0.2053

> <Gold.Rescore>
     Score         DG    S(hbond)    S(metal)    S(lipo)     H(rot)  DE(clash)    DE(int)     intcor
     16.82     -20.62       1.96        0.00     132.91       2.72       0.51       3.29       ----

> <Gold.Chemscore.Fitness>
16.8183

> <Gold.Chemscore.DG>
-20.6187

> <Gold.Chemscore.ZeroCoef>
-5.4800

> <Gold.Chemscore.Hbond>
1.9628

> <Gold.Chemscore.Metal>
0.0000

> <Gold.Chemscore.Lipo>
132.9050

> <Gold.Chemscore.Internal_Hbond>
0.0000

> <Gold.Chemscore.DEClash>
0.5070

> <Gold.Chemscore.DEInternal>
3.2934

> <Gold.Chemscore.Rot>
2.7215

> <Gold.Chemscore.Internal.Correction>
   9.000000E+99

> <Gold.Chemscore.Hbonds>
donor molecule, donor type, donor heavy atom, donor atom, acceptor molecule, acceptor atom, score
      P1  H  7989  7998       L1     5  0.04
      P1  H  7997  8008       L1     1  0.88
      P1  H 10752 10764       L1    29  0.24

> <Gold.Chemscore.Hbond.Weighted>
-6.5559

> <Gold.Chemscore.Metal.Weighted>
-0.0000

> <Gold.Chemscore.Lipo.Weighted>
-15.5499

> <Gold.Chemscore.Internal_Hbond.Weighted>
0.0000

> <Gold.Chemscore.DEClash.Weighted>
0.5070

> <Gold.Chemscore.DEInternal.Weighted>
3.2934

> <Gold.Chemscore.Rot.Weighted>
6.9670

> <Gold.Chemscore.Internal.Correction.Weighted>
   9.000000E+99

> <Gold.Protein.RotatedTorsions>
[ 6907 6896 6895 6894 ] final  -88.61 input  -60.11 | X-H torsion
[ 7974 7965 7964 7962 ] final   -0.81 input  175.53 | X-H torsion
[ 8008 7997 7996 7995 ] final  -78.80 input   59.86 | X-H torsion
[ 10167 10162 10161 10158 ] final -153.90 input  -65.29 | X-H torsion
[ 10718 10713 10712 10709 ] final -168.34 input   66.30 | X-H torsion
[ 10763 10752 10751 10750 ] final  -13.29 input  -60.55 | X-H torsion
[ 11005 11000 10999 10996 ] final  -55.28 input  -57.11 | X-H torsion

> <Gold.Protein.ActiveResidues>
 VAL166  LYS551  ARG553  GLY616  TRP617  ASP618  TYR619  PRO620  LYS621  CYS622 
 ASP623  PHE694  ASN695  SER759  ASP760  ASP761  ALA762  ILE779  LEU786  VAL792 
 PHE793  MET794  SER795  GLU796  ALA797  LYS798  CYS799  TRP800  GLU811  SER814 

> <Gold.Protein.RotatedAtoms>
  150.6869  134.2715  159.4589 H   0  0  0  0  0  0  0  0  0  0  0  0  # atno 6907 bound_to 6896
  152.0637  134.9575  160.0584 H   0  0  0  0  0  0  0  0  0  0  0  0  # atno 6908 bound_to 6896
  152.0993  133.4206  159.4616 H   0  0  0  0  0  0  0  0  0  0  0  0  # atno 6909 bound_to 6896
  146.2424  140.1325  142.8337 H   0  0  0  0  0  0  0  0  0  0  0  0  # atno 7974 bound_to 7965
  154.5724  140.0688  156.8984 H   0  0  0  0  0  0  0  0  0  0  0  0  # atno 8008 bound_to 7997
  155.2610  140.3358  155.4255 H   0  0  0  0  0  0  0  0  0  0  0  0  # atno 8009 bound_to 7997
  156.2128  140.1766  156.7641 H   0  0  0  0  0  0  0  0  0  0  0  0  # atno 8010 bound_to 7997
  139.7058  143.9189  152.2448 H   0  0  0  0  0  0  0  0  0  0  0  0  # atno 10167 bound_to 10162
  156.6955  130.9176  151.3074 H   0  0  0  0  0  0  0  0  0  0  0  0  # atno 10718 bound_to 10713
  153.5111  135.7016  153.5780 H   0  0  0  0  0  0  0  0  0  0  0  0  # atno 10763 bound_to 10752
  153.3870  135.3905  155.1897 H   0  0  0  0  0  0  0  0  0  0  0  0  # atno 10764 bound_to 10752
  154.8703  135.3849  154.4591 H   0  0  0  0  0  0  0  0  0  0  0  0  # atno 10765 bound_to 10752
  141.1066  133.6613  156.4447 H   0  0  0  0  0  0  0  0  0  0  0  0  # atno 11005 bound_to 11000
  145.0314  140.8873  143.5107 LP  0  0  0  0  0  0  0  0  0  0  0  0  # atno 17320 bound_to 7965
  145.1390  139.2584  143.5500 LP  0  0  0  0  0  0  0  0  0  0  0  0  # atno 17321 bound_to 7965
  139.9044  144.6893  150.8630 LP  0  0  0  0  0  0  0  0  0  0  0  0  # atno 17342 bound_to 10162
  140.7721  143.3489  151.2054 LP  0  0  0  0  0  0  0  0  0  0  0  0  # atno 17343 bound_to 10162
  157.6993  130.9315  150.0736 LP  0  0  0  0  0  0  0  0  0  0  0  0  # atno 17370 bound_to 10713
  156.1766  130.3648  149.9091 LP  0  0  0  0  0  0  0  0  0  0  0  0  # atno 17371 bound_to 10713
  140.4885  134.6598  157.5201 LP  0  0  0  0  0  0  0  0  0  0  0  0  # atno 17394 bound_to 11000
  139.9940  134.6941  155.9641 LP  0  0  0  0  0  0  0  0  0  0  0  0  # atno 17395 bound_to 11000

$$$$
