AV-unprocessed.smi:2529|AV-procd|sdf|9960|dock3
  -GOLD-   2272014 03D 1   1.00000     0.00000
 Structure written by MMmdl.
 44 46  0  0  0  0  0  0  0  0  1 V2000
  144.1081  140.1362  156.1534 C   0  0  0  0  0  0  0  0  0  0  0  0
  145.5932  140.4915  155.9941 C   0  0  2  0  0  0  0  0  0  0  0  0
  145.7928  141.6504  155.0020 C   0  0  0  0  0  0  0  0  0  0  0  0
  147.2791  142.0184  154.8447 C   0  0  0  0  0  0  0  0  0  0  0  0
  148.1652  140.8129  154.4400 C   0  0  1  0  0  0  0  0  0  0  0  0
  147.7925  140.3782  153.1438 O   0  0  0  0  0  0  0  0  0  0  0  0
  149.6910  141.1230  154.3967 C   0  0  0  0  0  0  0  0  0  0  0  0
  150.3765  141.0685  155.7032 N   0  0  0  0  0  0  0  0  0  0  0  0
  149.8401  141.8855  156.7173 C   0  0  0  0  0  0  0  0  0  0  0  0
  150.3605  141.9378  157.9015 N   0  0  0  0  0  0  0  0  0  0  0  0
  151.4918  141.1701  158.1984 C   0  0  0  0  0  0  0  0  0  0  0  0
  152.0419  141.2476  159.6158 C   0  0  0  0  0  0  0  0  0  0  0  0
  152.5421  142.6289  160.0688 C   0  0  0  0  0  0  0  0  0  0  0  0
  153.6825  141.9062  160.7944 C   0  0  0  0  0  0  0  0  0  0  0  0
  153.4828  140.7467  159.8122 C   0  0  0  0  0  0  0  0  0  0  0  0
  152.0479  140.3710  157.2571 C   0  0  0  0  0  0  0  0  0  0  0  0
  151.4866  140.2982  155.9079 C   0  0  0  0  0  0  0  0  0  0  0  0
  151.9765  139.5908  155.0276 O   0  0  0  0  0  0  0  0  0  0  0  0
  147.9110  139.6236  155.3977 C   0  0  0  0  0  0  0  0  0  0  0  0
  146.4204  139.2718  155.5529 C   0  0  0  0  0  0  0  0  0  0  0  0
  143.6758  139.8037  155.2090 H   0  0  0  0  0  0  0  0  0  0  0  0
  143.5336  140.9968  156.4971 H   0  0  0  0  0  0  0  0  0  0  0  0
  143.9713  139.3372  156.8824 H   0  0  0  0  0  0  0  0  0  0  0  0
  145.9608  140.8146  156.9693 H   0  0  0  0  0  0  0  0  0  0  0  0
  145.3765  141.3809  154.0304 H   0  0  0  0  0  0  0  0  0  0  0  0
  145.2376  142.5267  155.3386 H   0  0  0  0  0  0  0  0  0  0  0  0
  147.3668  142.8230  154.1138 H   0  0  0  0  0  0  0  0  0  0  0  0
  147.6360  142.4238  155.7920 H   0  0  0  0  0  0  0  0  0  0  0  0
  148.5772  140.2167  152.6428 H   0  0  0  0  0  0  0  0  0  0  0  0
  150.1731  140.4183  153.7175 H   0  0  0  0  0  0  0  0  0  0  0  0
  149.8637  142.0906  153.9201 H   0  0  0  0  0  0  0  0  0  0  0  0
  148.9609  142.4662  156.4331 H   0  0  0  0  0  0  0  0  0  0  0  0
  151.3560  140.8053  160.3405 H   0  0  0  0  0  0  0  0  0  0  0  0
  152.9003  143.2535  159.2483 H   0  0  0  0  0  0  0  0  0  0  0  0
  151.8570  143.1718  160.7205 H   0  0  0  0  0  0  0  0  0  0  0  0
  154.6530  142.3989  160.7291 H   0  0  0  0  0  0  0  0  0  0  0  0
  153.4299  141.6400  161.8221 H   0  0  0  0  0  0  0  0  0  0  0  0
  153.5645  139.7532  160.2535 H   0  0  0  0  0  0  0  0  0  0  0  0
  154.1069  140.8461  158.9220 H   0  0  0  0  0  0  0  0  0  0  0  0
  152.9170  139.7759  157.4964 H   0  0  0  0  0  0  0  0  0  0  0  0
  148.4611  138.7429  155.0630 H   0  0  0  0  0  0  0  0  0  0  0  0
  148.3077  139.8666  156.3846 H   0  0  0  0  0  0  0  0  0  0  0  0
  146.3129  138.4679  156.2819 H   0  0  0  0  0  0  0  0  0  0  0  0
  146.0326  138.8821  154.6109 H   0  0  0  0  0  0  0  0  0  0  0  0
  1  2  1  0  0  0  0
  1 21  1  0  0  0  0
  1 22  1  0  0  0  0
  1 23  1  0  0  0  0
  2 20  1  0  0  0  0
  2  3  1  0  0  0  0
  2 24  1  0  0  0  0
  3  4  1  0  0  0  0
  3 25  1  0  0  0  0
  3 26  1  0  0  0  0
  4  5  1  0  0  0  0
  4 27  1  0  0  0  0
  4 28  1  0  0  0  0
  5  6  1  0  0  0  0
  5  7  1  0  0  0  0
  5 19  1  0  0  0  0
  6 29  1  0  0  0  0
  7  8  1  0  0  0  0
  7 30  1  0  0  0  0
  7 31  1  0  0  0  0
  8 17  1  0  0  0  0
  8  9  1  0  0  0  0
  9 10  2  0  0  0  0
  9 32  1  0  0  0  0
 10 11  1  0  0  0  0
 11 12  1  0  0  0  0
 11 16  2  0  0  0  0
 12 15  1  0  0  0  0
 12 13  1  0  0  0  0
 12 33  1  0  0  0  0
 13 14  1  0  0  0  0
 13 34  1  0  0  0  0
 13 35  1  0  0  0  0
 14 15  1  0  0  0  0
 14 36  1  0  0  0  0
 14 37  1  0  0  0  0
 15 38  1  0  0  0  0
 15 39  1  0  0  0  0
 16 17  1  0  0  0  0
 16 40  1  0  0  0  0
 17 18  2  0  0  0  0
 19 20  1  0  0  0  0
 19 41  1  0  0  0  0
 19 42  1  0  0  0  0
 20 43  1  0  0  0  0
 20 44  1  0  0  0  0
M  END
> <s_m_source_file>
AV-unprocessed.smi

> <i_m_source_file_index>
2529

> <i_lp_mmshare_version>
43012

> <i_f3d_flags>
0

> <s_epik_input>
W0NIMl0xW0NIMl1bQ0BIXShbQ0gzXSlbQ0gyXVtDSDJdW0NAQF0xKFtPSF0pW0NIMl1uMltjSF1uYyhbY0hdYzI9TylbQ0hdM1tDSDJdW0NIMl1bQ0gyXTM=

> <s_epik_cmdline>
J2VwaWtfcHl0aG9uJywgJy1waCcsICc3LjAnLCAnLXRuJywgJzgnLCAnLW1hJywgJzIwMCcsICctbWV0YWxfYmluZGluZycsICctaW1hZScsICc8aW5maWxlLm1hZT4nLCAnLW9tYWUnLCAnPG91dGZpbGUubWFlPic=

> <r_lp_tautomer_probability>
1

> <r_epik_Ionization_Penalty>
9.15498e-05

> <r_epik_Ionization_Penalty_Charging>
1.67865e-07

> <r_epik_Ionization_Penalty_Neutral>
9.13819e-05

> <r_epik_State_Penalty>
-0

> <r_epik_Charging_Adjusted_Penalty>
1.67865e-07

> <i_epik_Tot_Q>
0

> <i_epik_Tot_abs_Q>
0

> <r_epik_Metal_State_Penalty>
-0

> <b_epik_Metal_Only>
0

> <s_lp_Force_Field>
OPLS_2005

> <r_lp_Energy>
32.8679

> <b_lp_Chiralities_Consistent>
1

> <s_lp_Variant>
AV-unprocessed.smi:2529-1

> <Gold.Version>
5.8.1

> <Gold.Id.Protein>
6NUR|6NUR_protein|mol2

> <Gold.PLP.Fitness>
42.8871

> <Gold.PLP.PLP>
-35.2894

> <Gold.PLP.part.hbond>
-2.0000

> <Gold.PLP.part.metal>
0.0000

> <Gold.PLP.part.buried>
-1.8288

> <Gold.PLP.part.nonpolar>
-30.8918

> <Gold.PLP.part.repulsive>
0.0970

> <Gold.PLP.ligand.clash>
0.0000

> <Gold.PLP.ligand.torsion>
0.5967

> <Gold.PLP.Chemscore.Hbond>
1.8352

> <Gold.PLP.Chemscore.CHOScore>
0.9513

> <Gold.PLP.Chemscore.Metal>
0.0000

> <Gold.Chemscore.Hbonds>
donor molecule, donor type, donor heavy atom, donor atom, acceptor molecule, acceptor atom, score
      L1  H     6    29       P1  7957  1.00
      P1  H  7989  7998       L1    18  0.79
      L1  C     9    32       P1  8028  0.97

> <Gold.PLP.Chemscore.Internal.Correction>
0.4317

> <Gold.Rescore>
     Score         DG    S(hbond)    S(metal)    S(lipo)     H(rot)  DE(clash)    DE(int)     intcor
     14.52     -15.17       1.59        0.00      76.71       1.80       0.04       0.62       ----

> <Gold.Chemscore.Fitness>
14.5180

> <Gold.Chemscore.DG>
-15.1726

> <Gold.Chemscore.ZeroCoef>
-5.4800

> <Gold.Chemscore.Hbond>
1.5921

> <Gold.Chemscore.Metal>
0.0000

> <Gold.Chemscore.Lipo>
76.7075

> <Gold.Chemscore.Internal_Hbond>
0.0000

> <Gold.Chemscore.DEClash>
0.0375

> <Gold.Chemscore.DEInternal>
0.6171

> <Gold.Chemscore.Rot>
1.7968

> <Gold.Chemscore.Internal.Correction>
   9.000000E+99

> <Gold.Chemscore.Hbonds>
donor molecule, donor type, donor heavy atom, donor atom, acceptor molecule, acceptor atom, score
      L1  H     6    29       P1  7957  0.99
      P1  H  7989  7998       L1    18  0.13

> <Gold.Chemscore.Hbond.Weighted>
-5.3176

> <Gold.Chemscore.Metal.Weighted>
-0.0000

> <Gold.Chemscore.Lipo.Weighted>
-8.9748

> <Gold.Chemscore.Internal_Hbond.Weighted>
0.0000

> <Gold.Chemscore.DEClash.Weighted>
0.0375

> <Gold.Chemscore.DEInternal.Weighted>
0.6171

> <Gold.Chemscore.Rot.Weighted>
4.5997

> <Gold.Chemscore.Internal.Correction.Weighted>
   9.000000E+99

> <Gold.Protein.RotatedTorsions>
[ 6907 6896 6895 6894 ] final   52.61 input  -60.11 | X-H torsion
[ 7974 7965 7964 7962 ] final  -29.35 input  175.53 | X-H torsion
[ 8008 7997 7996 7995 ] final  -66.14 input   59.86 | X-H torsion
[ 10167 10162 10161 10158 ] final  -71.14 input  -65.29 | X-H torsion
[ 10718 10713 10712 10709 ] final  -68.46 input   66.30 | X-H torsion
[ 10763 10752 10751 10750 ] final  -21.34 input  -60.55 | X-H torsion
[ 11005 11000 10999 10996 ] final  -81.87 input  -57.11 | X-H torsion

> <Gold.Protein.ActiveResidues>
 VAL166  LYS551  ARG553  GLY616  TRP617  ASP618  TYR619  PRO620  LYS621  CYS622 
 ASP623  PHE694  ASN695  SER759  ASP760  ASP761  ALA762  ILE779  LEU786  VAL792 
 PHE793  MET794  SER795  GLU796  ALA797  LYS798  CYS799  TRP800  GLU811  SER814 

> <Gold.Protein.RotatedAtoms>
  152.3251  134.7331  160.0303 H   0  0  0  0  0  0  0  0  0  0  0  0  # atno 6907 bound_to 6896
  151.7766  133.3340  159.3467 H   0  0  0  0  0  0  0  0  0  0  0  0  # atno 6908 bound_to 6896
  150.7391  134.5901  159.6027 H   0  0  0  0  0  0  0  0  0  0  0  0  # atno 6909 bound_to 6896
  146.1223  140.5401  142.8730 H   0  0  0  0  0  0  0  0  0  0  0  0  # atno 7974 bound_to 7965
  154.4715  140.0919  156.7157 H   0  0  0  0  0  0  0  0  0  0  0  0  # atno 8008 bound_to 7997
  155.4710  140.3464  155.4307 H   0  0  0  0  0  0  0  0  0  0  0  0  # atno 8009 bound_to 7997
  156.1047  140.1431  156.9408 H   0  0  0  0  0  0  0  0  0  0  0  0  # atno 8010 bound_to 7997
  140.5297  143.2323  151.7284 H   0  0  0  0  0  0  0  0  0  0  0  0  # atno 10167 bound_to 10162
  156.0504  130.4295  150.2004 H   0  0  0  0  0  0  0  0  0  0  0  0  # atno 10718 bound_to 10713
  153.6345  135.6987  153.5263 H   0  0  0  0  0  0  0  0  0  0  0  0  # atno 10763 bound_to 10752
  153.2832  135.4179  155.1098 H   0  0  0  0  0  0  0  0  0  0  0  0  # atno 10764 bound_to 10752
  154.8514  135.3607  154.5888 H   0  0  0  0  0  0  0  0  0  0  0  0  # atno 10765 bound_to 10752
  141.1665  133.7217  156.8486 H   0  0  0  0  0  0  0  0  0  0  0  0  # atno 11005 bound_to 11000
  144.7608  140.5418  143.6736 LP  0  0  0  0  0  0  0  0  0  0  0  0  # atno 17320 bound_to 7965
  145.5440  139.1475  143.3431 LP  0  0  0  0  0  0  0  0  0  0  0  0  # atno 17321 bound_to 7965
  139.4950  144.4133  152.0057 LP  0  0  0  0  0  0  0  0  0  0  0  0  # atno 17342 bound_to 10162
  140.3234  144.3401  150.6004 LP  0  0  0  0  0  0  0  0  0  0  0  0  # atno 17343 bound_to 10162
  157.0088  130.9944  151.3371 LP  0  0  0  0  0  0  0  0  0  0  0  0  # atno 17370 bound_to 10713
  157.5424  130.8129  149.8045 LP  0  0  0  0  0  0  0  0  0  0  0  0  # atno 17371 bound_to 10713
  140.1932  134.8951  157.3084 LP  0  0  0  0  0  0  0  0  0  0  0  0  # atno 17394 bound_to 11000
  140.2268  134.3957  155.7540 LP  0  0  0  0  0  0  0  0  0  0  0  0  # atno 17395 bound_to 11000

$$$$
