AV-unprocessed.smi:1166|AV-procd|sdf|4934|dock2
  -GOLD-   22720 3513D 1   1.00000     0.00000
 Structure written by MMmdl.
 47 48  0  0  0  0  0  0  0  0  2 V2000
  143.5677  132.4186  148.9373 C   0  0  0  0  0  0  0  0  0  0  0  0
  144.4424  132.5560  150.0965 N   0  0  0  0  0  0  0  0  0  0  0  0
  145.1819  131.4063  150.6004 C   0  0  0  0  0  0  0  0  0  0  0  0
  144.5992  133.8165  150.7125 C   0  0  0  0  0  0  0  0  0  0  0  0
  145.8536  134.3256  151.1294 C   0  0  0  0  0  0  0  0  0  0  0  0
  145.9283  135.5950  151.7386 C   0  0  0  0  0  0  0  0  0  0  0  0
  144.7537  136.3497  151.9375 C   0  0  0  0  0  0  0  0  0  0  0  0
  144.8836  137.6292  152.5431 N   0  0  0  0  0  0  0  0  0  0  0  0
  145.9060  138.1148  153.2681 C   0  0  0  0  0  0  0  0  0  0  0  0
  146.9505  137.5139  153.5176 O   0  0  0  0  0  0  0  0  0  0  0  0
  145.6549  139.3649  153.6824 N   0  0  0  0  0  0  0  0  0  0  0  0
  146.5655  140.1910  154.4690 C   0  0  2  0  0  0  0  0  0  0  0  0
  145.9807  141.5967  154.6846 C   0  0  0  0  0  0  0  0  0  0  0  0
  146.9798  142.4595  155.4632 C   0  0  0  0  0  0  0  0  0  0  0  0
  148.3440  142.5133  154.7533 C   0  0  0  0  0  0  0  0  0  0  0  0
  148.8670  141.1605  154.4731 N   0  0  0  0  0  0  0  0  0  0  0  0
  150.1039  140.4764  155.4885 S   0  0  0  0  0  0  0  0  0  0  0  0
  150.6878  141.8928  156.5069 C   0  0  0  0  0  0  0  0  0  0  0  0
  149.4619  139.5025  156.3845 O   0  0  0  0  0  0  0  0  0  0  0  0
  151.2115  140.0486  154.6203 O   0  0  0  0  0  0  0  0  0  0  0  0
  147.9294  140.2737  153.7559 C   0  0  0  0  0  0  0  0  0  0  0  0
  143.5257  135.8030  151.4944 C   0  0  0  0  0  0  0  0  0  0  0  0
  143.5000  134.5835  150.9147 N   0  3  0  0  0  0  0  0  0  0  0  0
  142.5551  132.7440  149.1785 H   0  0  0  0  0  0  0  0  0  0  0  0
  143.5125  131.3826  148.6025 H   0  0  0  0  0  0  0  0  0  0  0  0
  143.9375  133.0201  148.1060 H   0  0  0  0  0  0  0  0  0  0  0  0
  146.2549  131.5987  150.5752 H   0  0  0  0  0  0  0  0  0  0  0  0
  144.9905  130.5167  149.9998 H   0  0  0  0  0  0  0  0  0  0  0  0
  144.8911  131.1843  151.6276 H   0  0  0  0  0  0  0  0  0  0  0  0
  146.7646  133.7623  150.9923 H   0  0  0  0  0  0  0  0  0  0  0  0
  146.8863  135.9817  152.0546 H   0  0  0  0  0  0  0  0  0  0  0  0
  144.1239  138.2703  152.3664 H   0  0  0  0  0  0  0  0  0  0  0  0
  144.7712  139.7824  153.4292 H   0  0  0  0  0  0  0  0  0  0  0  0
  146.7100  139.7189  155.4409 H   0  0  0  0  0  0  0  0  0  0  0  0
  145.7611  142.0641  153.7236 H   0  0  0  0  0  0  0  0  0  0  0  0
  145.0378  141.5410  155.2299 H   0  0  0  0  0  0  0  0  0  0  0  0
  146.5848  143.4692  155.5776 H   0  0  0  0  0  0  0  0  0  0  0  0
  147.0964  142.0641  156.4714 H   0  0  0  0  0  0  0  0  0  0  0  0
  148.2403  143.0435  153.8059 H   0  0  0  0  0  0  0  0  0  0  0  0
  149.0589  143.0830  155.3461 H   0  0  0  0  0  0  0  0  0  0  0  0
  151.4903  141.5524  157.1609 H   0  0  0  0  0  0  0  0  0  0  0  0
  149.8721  142.2714  157.1203 H   0  0  0  0  0  0  0  0  0  0  0  0
  151.0694  142.6824  155.8621 H   0  0  0  0  0  0  0  0  0  0  0  0
  148.3628  139.2798  153.6453 H   0  0  0  0  0  0  0  0  0  0  0  0
  147.7966  140.6642  152.7461 H   0  0  0  0  0  0  0  0  0  0  0  0
  142.5641  136.2882  151.5658 H   0  0  0  0  0  0  0  0  0  0  0  0
  142.5976  134.2198  150.6082 H   0  0  0  0  0  0  0  0  0  0  0  0
  1  2  1  0  0  0  0
  1 24  1  0  0  0  0
  1 25  1  0  0  0  0
  1 26  1  0  0  0  0
  2  3  1  0  0  0  0
  2  4  1  0  0  0  0
  3 27  1  0  0  0  0
  3 28  1  0  0  0  0
  3 29  1  0  0  0  0
  4 23  1  0  0  0  0
  4  5  2  0  0  0  0
  5  6  1  0  0  0  0
  5 30  1  0  0  0  0
  6  7  2  0  0  0  0
  6 31  1  0  0  0  0
  7  8  1  0  0  0  0
  7 22  1  0  0  0  0
  8  9  1  0  0  0  0
  8 32  1  0  0  0  0
  9 10  2  0  0  0  0
  9 11  1  0  0  0  0
 11 12  1  0  0  0  0
 11 33  1  0  0  0  0
 12 21  1  0  0  0  0
 12 13  1  0  0  0  0
 12 34  1  0  0  0  0
 13 14  1  0  0  0  0
 13 35  1  0  0  0  0
 13 36  1  0  0  0  0
 14 15  1  0  0  0  0
 14 37  1  0  0  0  0
 14 38  1  0  0  0  0
 15 16  1  0  0  0  0
 15 39  1  0  0  0  0
 15 40  1  0  0  0  0
 16 17  1  0  0  0  0
 16 21  1  0  0  0  0
 17 18  1  0  0  0  0
 17 19  2  0  0  0  0
 17 20  2  0  0  0  0
 18 41  1  0  0  0  0
 18 42  1  0  0  0  0
 18 43  1  0  0  0  0
 21 44  1  0  0  0  0
 21 45  1  0  0  0  0
 22 23  2  0  0  0  0
 22 46  1  0  0  0  0
 23 47  1  0  0  0  0
M  CHG  1  23   1
M  END
> <s_m_source_file>
AV-unprocessed.smi

> <i_m_source_file_index>
1166

> <i_lp_mmshare_version>
43012

> <i_f3d_flags>
0

> <s_epik_input>
W0NIM11OKFtDSDNdKWMxW2NIXVtjSF1jKFtjSF1uMSlbTkhdQyg9TylbTkhdW0NAQEhdMltDSDJdW0NIMl1bQ0gyXU4oW0NIMl0yKVMoPU8pKD1PKVtDSDNd

> <s_epik_cmdline>
J2VwaWtfcHl0aG9uJywgJy1waCcsICc3LjAnLCAnLXRuJywgJzgnLCAnLW1hJywgJzIwMCcsICctbWV0YWxfYmluZGluZycsICctaW1hZScsICc8aW5maWxlLm1hZT4nLCAnLW9tYWUnLCAnPG91dGZpbGUubWFlPic=

> <r_lp_tautomer_probability>
0.999994

> <r_epik_Ionization_Penalty>
0.276583

> <r_epik_Ionization_Penalty_Charging>
0.276565

> <r_epik_Ionization_Penalty_Neutral>
1.87575e-05

> <r_epik_State_Penalty>
0.268949

> <r_epik_Charging_Adjusted_Penalty>
0.545513

> <i_epik_Tot_Q>
1

> <i_epik_Tot_abs_Q>
1

> <r_epik_Metal_State_Penalty>
0.551815

> <b_epik_Metal_Only>
0

> <s_lp_Force_Field>
OPLS_2005

> <r_lp_Energy>
7.52153

> <b_lp_Chiralities_Consistent>
1

> <s_lp_Variant>
AV-unprocessed.smi:1166-1

> <Gold.Version>
5.8.1

> <Gold.Id.Protein>
6NUR|6NUR_protein|mol2

> <Gold.PLP.Fitness>
44.0009

> <Gold.PLP.PLP>
-32.6176

> <Gold.PLP.part.hbond>
-4.7238

> <Gold.PLP.part.metal>
0.0000

> <Gold.PLP.part.buried>
3.1815

> <Gold.PLP.part.nonpolar>
-33.7819

> <Gold.PLP.part.repulsive>
1.5652

> <Gold.PLP.ligand.clash>
0.0000

> <Gold.PLP.ligand.torsion>
2.0084

> <Gold.PLP.Chemscore.Hbond>
4.4462

> <Gold.PLP.Chemscore.CHOScore>
0.0000

> <Gold.PLP.Chemscore.Metal>
0.0000

> <Gold.Chemscore.Hbonds>
donor molecule, donor type, donor heavy atom, donor atom, acceptor molecule, acceptor atom, score
      L1  H     8    32       P1 10175  0.44
      L1  H    11    33       P1 10175  1.00
      L1  H    23    47       P1 10186  1.95
      P1  H  7989  7998       L1    20  0.80

> <Gold.PLP.Chemscore.Internal.Correction>
2.0616

> <Gold.Rescore>
     Score         DG    S(hbond)    S(metal)    S(lipo)     H(rot)  DE(clash)    DE(int)     intcor
     14.52     -21.95       3.04        0.00      75.88       1.00       2.99       4.44       ----

> <Gold.Chemscore.Fitness>
14.5158

> <Gold.Chemscore.DG>
-21.9469

> <Gold.Chemscore.ZeroCoef>
-5.4800

> <Gold.Chemscore.Hbond>
3.0386

> <Gold.Chemscore.Metal>
0.0000

> <Gold.Chemscore.Lipo>
75.8799

> <Gold.Chemscore.Internal_Hbond>
0.0000

> <Gold.Chemscore.DEClash>
2.9926

> <Gold.Chemscore.DEInternal>
4.4385

> <Gold.Chemscore.Rot>
1.0000

> <Gold.Chemscore.Internal.Correction>
   9.000000E+99

> <Gold.Chemscore.Hbonds>
donor molecule, donor type, donor heavy atom, donor atom, acceptor molecule, acceptor atom, score
      L1  H     8    32       P1 10175  0.44
      L1  H    11    33       P1 10175  0.98
      L1  H    23    47       P1 10186  0.56
      P1  H  7989  7998       L1    20  0.77

> <Gold.Chemscore.Hbond.Weighted>
-10.1489

> <Gold.Chemscore.Metal.Weighted>
-0.0000

> <Gold.Chemscore.Lipo.Weighted>
-8.8779

> <Gold.Chemscore.Internal_Hbond.Weighted>
0.0000

> <Gold.Chemscore.DEClash.Weighted>
2.9926

> <Gold.Chemscore.DEInternal.Weighted>
4.4385

> <Gold.Chemscore.Rot.Weighted>
2.5600

> <Gold.Chemscore.Internal.Correction.Weighted>
   9.000000E+99

> <Gold.Protein.RotatedTorsions>
[ 6907 6896 6895 6894 ] final   46.94 input  -60.11 | X-H torsion
[ 7974 7965 7964 7962 ] final -137.03 input  175.53 | X-H torsion
[ 8008 7997 7996 7995 ] final  -97.53 input   59.86 | X-H torsion
[ 10167 10162 10161 10158 ] final -139.70 input  -65.29 | X-H torsion
[ 10718 10713 10712 10709 ] final  179.81 input   66.30 | X-H torsion
[ 10763 10752 10751 10750 ] final   48.75 input  -60.55 | X-H torsion
[ 11005 11000 10999 10996 ] final -119.31 input  -57.11 | X-H torsion

> <Gold.Protein.ActiveResidues>
 VAL166  LYS551  ARG553  GLY616  TRP617  ASP618  TYR619  PRO620  LYS621  CYS622 
 ASP623  PHE694  ASN695  SER759  ASP760  ASP761  ALA762  ILE779  LEU786  VAL792 
 PHE793  MET794  SER795  GLU796  ALA797  LYS798  CYS799  TRP800  GLU811  SER814 

> <Gold.Protein.RotatedAtoms>
  152.2622  134.8021  160.0428 H   0  0  0  0  0  0  0  0  0  0  0  0  # atno 6907 bound_to 6896
  151.8664  133.3462  159.3728 H   0  0  0  0  0  0  0  0  0  0  0  0  # atno 6908 bound_to 6896
  150.7121  134.5083  159.5639 H   0  0  0  0  0  0  0  0  0  0  0  0  # atno 6909 bound_to 6896
  144.8876  140.6597  143.5166 H   0  0  0  0  0  0  0  0  0  0  0  0  # atno 7974 bound_to 7965
  154.7890  140.0462  157.1186 H   0  0  0  0  0  0  0  0  0  0  0  0  # atno 8008 bound_to 7997
  154.9613  140.3078  155.5010 H   0  0  0  0  0  0  0  0  0  0  0  0  # atno 8009 bound_to 7997
  156.2947  140.2270  156.4699 H   0  0  0  0  0  0  0  0  0  0  0  0  # atno 8010 bound_to 7997
  139.8354  143.7392  152.2665 H   0  0  0  0  0  0  0  0  0  0  0  0  # atno 10167 bound_to 10162
  156.8702  130.9781  151.3074 H   0  0  0  0  0  0  0  0  0  0  0  0  # atno 10718 bound_to 10713
  152.9790  135.5934  154.3977 H   0  0  0  0  0  0  0  0  0  0  0  0  # atno 10763 bound_to 10752
  154.3625  135.2767  155.2313 H   0  0  0  0  0  0  0  0  0  0  0  0  # atno 10764 bound_to 10752
  154.4304  135.6037  153.6120 H   0  0  0  0  0  0  0  0  0  0  0  0  # atno 10765 bound_to 10752
  141.0224  134.0104  157.3263 H   0  0  0  0  0  0  0  0  0  0  0  0  # atno 11005 bound_to 11000
  145.3840  139.1630  143.4265 LP  0  0  0  0  0  0  0  0  0  0  0  0  # atno 17320 bound_to 7965
  146.3034  140.3923  142.8696 LP  0  0  0  0  0  0  0  0  0  0  0  0  # atno 17321 bound_to 7965
  139.7612  144.7506  151.0361 LP  0  0  0  0  0  0  0  0  0  0  0  0  # atno 17342 bound_to 10162
  140.7803  143.4748  151.0097 LP  0  0  0  0  0  0  0  0  0  0  0  0  # atno 17343 bound_to 10162
  157.6200  130.8648  149.9093 LP  0  0  0  0  0  0  0  0  0  0  0  0  # atno 17370 bound_to 10713
  156.0730  130.3682  150.0735 LP  0  0  0  0  0  0  0  0  0  0  0  0  # atno 17371 bound_to 10713
  139.9154  135.0196  156.7862 LP  0  0  0  0  0  0  0  0  0  0  0  0  # atno 17394 bound_to 11000
  140.6550  133.9697  155.7774 LP  0  0  0  0  0  0  0  0  0  0  0  0  # atno 17395 bound_to 11000

$$$$
