AV-unprocessed.smi:2529|AV-procd|sdf|9960|dock5
  -GOLD-   2272014 03D 1   1.00000     0.00000
 Structure written by MMmdl.
 44 46  0  0  0  0  0  0  0  0  1 V2000
  145.9216  137.7430  154.7966 C   0  0  0  0  0  0  0  0  0  0  0  0
  147.2845  138.3949  155.0704 C   0  0  2  0  0  0  0  0  0  0  0  0
  147.9216  138.9344  153.7781 C   0  0  0  0  0  0  0  0  0  0  0  0
  149.2843  139.5979  154.0467 C   0  0  0  0  0  0  0  0  0  0  0  0
  150.2807  138.6664  154.7826 C   0  0  1  0  0  0  0  0  0  0  0  0
  150.6042  137.5749  153.9388 O   0  0  0  0  0  0  0  0  0  0  0  0
  151.6227  139.3486  155.1821 C   0  0  0  0  0  0  0  0  0  0  0  0
  151.5129  140.3681  156.2444 N   0  0  0  0  0  0  0  0  0  0  0  0
  150.6553  141.4522  155.9745 C   0  0  0  0  0  0  0  0  0  0  0  0
  150.4859  142.4182  156.8196 N   0  0  0  0  0  0  0  0  0  0  0  0
  151.1704  142.4027  158.0397 C   0  0  0  0  0  0  0  0  0  0  0  0
  150.9085  143.5485  159.0072 C   0  0  0  0  0  0  0  0  0  0  0  0
  151.3283  144.9463  158.5243 C   0  0  0  0  0  0  0  0  0  0  0  0
  151.7831  145.2346  159.9593 C   0  0  0  0  0  0  0  0  0  0  0  0
  151.9275  143.7203  160.1464 C   0  0  0  0  0  0  0  0  0  0  0  0
  152.0093  141.3846  158.3456 C   0  0  0  0  0  0  0  0  0  0  0  0
  152.2270  140.2839  157.4065 C   0  0  0  0  0  0  0  0  0  0  0  0
  152.9921  139.3510  157.6507 O   0  0  0  0  0  0  0  0  0  0  0  0
  149.6135  138.0693  156.0454 C   0  0  0  0  0  0  0  0  0  0  0  0
  148.2478  137.4168  155.7645 C   0  0  0  0  0  0  0  0  0  0  0  0
  146.0179  136.8876  154.1270 H   0  0  0  0  0  0  0  0  0  0  0  0
  145.2338  138.4514  154.3341 H   0  0  0  0  0  0  0  0  0  0  0  0
  145.4608  137.3929  155.7206 H   0  0  0  0  0  0  0  0  0  0  0  0
  147.1169  139.2383  155.7420 H   0  0  0  0  0  0  0  0  0  0  0  0
  148.0438  138.1227  153.0597 H   0  0  0  0  0  0  0  0  0  0  0  0
  147.2538  139.6579  153.3092 H   0  0  0  0  0  0  0  0  0  0  0  0
  149.7031  139.9374  153.0988 H   0  0  0  0  0  0  0  0  0  0  0  0
  149.1194  140.4929  154.6475 H   0  0  0  0  0  0  0  0  0  0  0  0
  149.8311  137.3290  153.4544 H   0  0  0  0  0  0  0  0  0  0  0  0
  152.3250  138.5787  155.5054 H   0  0  0  0  0  0  0  0  0  0  0  0
  152.1044  139.7743  154.2991 H   0  0  0  0  0  0  0  0  0  0  0  0
  150.1488  141.4177  155.0085 H   0  0  0  0  0  0  0  0  0  0  0  0
  149.8822  143.5375  159.3788 H   0  0  0  0  0  0  0  0  0  0  0  0
  152.1610  144.9318  157.8185 H   0  0  0  0  0  0  0  0  0  0  0  0
  150.5091  145.5724  158.1698 H   0  0  0  0  0  0  0  0  0  0  0  0
  152.7140  145.7965  160.0415 H   0  0  0  0  0  0  0  0  0  0  0  0
  150.9926  145.6648  160.5764 H   0  0  0  0  0  0  0  0  0  0  0  0
  151.5971  143.3448  161.1150 H   0  0  0  0  0  0  0  0  0  0  0  0
  152.9293  143.3659  159.8959 H   0  0  0  0  0  0  0  0  0  0  0  0
  152.5285  141.3765  159.2928 H   0  0  0  0  0  0  0  0  0  0  0  0
  150.2760  137.3415  156.5162 H   0  0  0  0  0  0  0  0  0  0  0  0
  149.4672  138.8607  156.7820 H   0  0  0  0  0  0  0  0  0  0  0  0
  147.8126  137.0712  156.7028 H   0  0  0  0  0  0  0  0  0  0  0  0
  148.3829  136.5283  155.1465 H   0  0  0  0  0  0  0  0  0  0  0  0
  1  2  1  0  0  0  0
  1 21  1  0  0  0  0
  1 22  1  0  0  0  0
  1 23  1  0  0  0  0
  2 20  1  0  0  0  0
  2  3  1  0  0  0  0
  2 24  1  0  0  0  0
  3  4  1  0  0  0  0
  3 25  1  0  0  0  0
  3 26  1  0  0  0  0
  4  5  1  0  0  0  0
  4 27  1  0  0  0  0
  4 28  1  0  0  0  0
  5  6  1  0  0  0  0
  5  7  1  0  0  0  0
  5 19  1  0  0  0  0
  6 29  1  0  0  0  0
  7  8  1  0  0  0  0
  7 30  1  0  0  0  0
  7 31  1  0  0  0  0
  8 17  1  0  0  0  0
  8  9  1  0  0  0  0
  9 10  2  0  0  0  0
  9 32  1  0  0  0  0
 10 11  1  0  0  0  0
 11 12  1  0  0  0  0
 11 16  2  0  0  0  0
 12 15  1  0  0  0  0
 12 13  1  0  0  0  0
 12 33  1  0  0  0  0
 13 14  1  0  0  0  0
 13 34  1  0  0  0  0
 13 35  1  0  0  0  0
 14 15  1  0  0  0  0
 14 36  1  0  0  0  0
 14 37  1  0  0  0  0
 15 38  1  0  0  0  0
 15 39  1  0  0  0  0
 16 17  1  0  0  0  0
 16 40  1  0  0  0  0
 17 18  2  0  0  0  0
 19 20  1  0  0  0  0
 19 41  1  0  0  0  0
 19 42  1  0  0  0  0
 20 43  1  0  0  0  0
 20 44  1  0  0  0  0
M  END
> <s_m_source_file>
AV-unprocessed.smi

> <i_m_source_file_index>
2529

> <i_lp_mmshare_version>
43012

> <i_f3d_flags>
0

> <s_epik_input>
W0NIMl0xW0NIMl1bQ0BIXShbQ0gzXSlbQ0gyXVtDSDJdW0NAQF0xKFtPSF0pW0NIMl1uMltjSF1uYyhbY0hdYzI9TylbQ0hdM1tDSDJdW0NIMl1bQ0gyXTM=

> <s_epik_cmdline>
J2VwaWtfcHl0aG9uJywgJy1waCcsICc3LjAnLCAnLXRuJywgJzgnLCAnLW1hJywgJzIwMCcsICctbWV0YWxfYmluZGluZycsICctaW1hZScsICc8aW5maWxlLm1hZT4nLCAnLW9tYWUnLCAnPG91dGZpbGUubWFlPic=

> <r_lp_tautomer_probability>
1

> <r_epik_Ionization_Penalty>
9.15498e-05

> <r_epik_Ionization_Penalty_Charging>
1.67865e-07

> <r_epik_Ionization_Penalty_Neutral>
9.13819e-05

> <r_epik_State_Penalty>
-0

> <r_epik_Charging_Adjusted_Penalty>
1.67865e-07

> <i_epik_Tot_Q>
0

> <i_epik_Tot_abs_Q>
0

> <r_epik_Metal_State_Penalty>
-0

> <b_epik_Metal_Only>
0

> <s_lp_Force_Field>
OPLS_2005

> <r_lp_Energy>
32.8679

> <b_lp_Chiralities_Consistent>
1

> <s_lp_Variant>
AV-unprocessed.smi:2529-1

> <Gold.Version>
5.8.1

> <Gold.Id.Protein>
6NUR|6NUR_protein|mol2

> <Gold.PLP.Fitness>
41.6621

> <Gold.PLP.PLP>
-36.4736

> <Gold.PLP.part.hbond>
-3.0000

> <Gold.PLP.part.metal>
0.0000

> <Gold.PLP.part.buried>
-0.7409

> <Gold.PLP.part.nonpolar>
-32.4339

> <Gold.PLP.part.repulsive>
0.9806

> <Gold.PLP.ligand.clash>
0.0000

> <Gold.PLP.ligand.torsion>
0.2886

> <Gold.PLP.Chemscore.Hbond>
1.7780

> <Gold.PLP.Chemscore.CHOScore>
0.0000

> <Gold.PLP.Chemscore.Metal>
0.0000

> <Gold.Chemscore.Hbonds>
donor molecule, donor type, donor heavy atom, donor atom, acceptor molecule, acceptor atom, score
      L1  H     6    29       P1  7948  0.81
      P1  H  7997  8010       L1    18  0.65

> <Gold.PLP.Chemscore.Internal.Correction>
0.4317

> <Gold.Rescore>
     Score         DG    S(hbond)    S(metal)    S(lipo)     H(rot)  DE(clash)    DE(int)     intcor
     11.71     -13.52       0.54        0.00      92.65       1.80       0.27       1.54       ----

> <Gold.Chemscore.Fitness>
11.7147

> <Gold.Chemscore.DG>
-13.5212

> <Gold.Chemscore.ZeroCoef>
-5.4800

> <Gold.Chemscore.Hbond>
0.5392

> <Gold.Chemscore.Metal>
0.0000

> <Gold.Chemscore.Lipo>
92.6508

> <Gold.Chemscore.Internal_Hbond>
0.0000

> <Gold.Chemscore.DEClash>
0.2715

> <Gold.Chemscore.DEInternal>
1.5350

> <Gold.Chemscore.Rot>
1.7968

> <Gold.Chemscore.Internal.Correction>
   9.000000E+99

> <Gold.Chemscore.Hbonds>
donor molecule, donor type, donor heavy atom, donor atom, acceptor molecule, acceptor atom, score
      L1  H     6    29       P1  7948  0.46
      P1  H  7997  8010       L1    18  0.06

> <Gold.Chemscore.Hbond.Weighted>
-1.8008

> <Gold.Chemscore.Metal.Weighted>
-0.0000

> <Gold.Chemscore.Lipo.Weighted>
-10.8401

> <Gold.Chemscore.Internal_Hbond.Weighted>
0.0000

> <Gold.Chemscore.DEClash.Weighted>
0.2715

> <Gold.Chemscore.DEInternal.Weighted>
1.5350

> <Gold.Chemscore.Rot.Weighted>
4.5997

> <Gold.Chemscore.Internal.Correction.Weighted>
   9.000000E+99

> <Gold.Protein.RotatedTorsions>
[ 6907 6896 6895 6894 ] final  -54.04 input  -60.11 | X-H torsion
[ 7974 7965 7964 7962 ] final  129.04 input  175.53 | X-H torsion
[ 8008 7997 7996 7995 ] final   62.15 input   59.86 | X-H torsion
[ 10167 10162 10161 10158 ] final   96.35 input  -65.29 | X-H torsion
[ 10718 10713 10712 10709 ] final  -15.73 input   66.30 | X-H torsion
[ 10763 10752 10751 10750 ] final  100.14 input  -60.55 | X-H torsion
[ 11005 11000 10999 10996 ] final   26.75 input  -57.11 | X-H torsion

> <Gold.Protein.ActiveResidues>
 VAL166  LYS551  ARG553  GLY616  TRP617  ASP618  TYR619  PRO620  LYS621  CYS622 
 ASP623  PHE694  ASN695  SER759  ASP760  ASP761  ALA762  ILE779  LEU786  VAL792 
 PHE793  MET794  SER795  GLU796  ALA797  LYS798  CYS799  TRP800  GLU811  SER814 

> <Gold.Protein.RotatedAtoms>
  150.8373  134.7651  159.6903 H   0  0  0  0  0  0  0  0  0  0  0  0  # atno 6907 bound_to 6896
  152.4467  134.5476  159.9867 H   0  0  0  0  0  0  0  0  0  0  0  0  # atno 6908 bound_to 6896
  151.5623  133.3363  159.3009 H   0  0  0  0  0  0  0  0  0  0  0  0  # atno 6909 bound_to 6896
  145.0330  139.4029  143.5140 H   0  0  0  0  0  0  0  0  0  0  0  0  # atno 7974 bound_to 7965
  155.6098  140.3495  155.4619 H   0  0  0  0  0  0  0  0  0  0  0  0  # atno 8008 bound_to 7997
  156.0163  140.1244  157.0427 H   0  0  0  0  0  0  0  0  0  0  0  0  # atno 8009 bound_to 7997
  154.4299  140.1071  156.5886 H   0  0  0  0  0  0  0  0  0  0  0  0  # atno 8010 bound_to 7997
  139.7902  144.6855  150.9902 H   0  0  0  0  0  0  0  0  0  0  0  0  # atno 10167 bound_to 10162
  156.5976  130.4815  149.6253 H   0  0  0  0  0  0  0  0  0  0  0  0  # atno 10718 bound_to 10713
  153.3102  135.4089  155.1329 H   0  0  0  0  0  0  0  0  0  0  0  0  # atno 10763 bound_to 10752
  154.8573  135.3562  154.5734 H   0  0  0  0  0  0  0  0  0  0  0  0  # atno 10764 bound_to 10752
  153.6163  135.7066  153.5386 H   0  0  0  0  0  0  0  0  0  0  0  0  # atno 10765 bound_to 10752
  140.3337  134.2409  155.7699 H   0  0  0  0  0  0  0  0  0  0  0  0  # atno 11005 bound_to 11000
  146.3501  139.9890  142.8687 LP  0  0  0  0  0  0  0  0  0  0  0  0  # atno 17320 bound_to 7965
  145.1746  140.9737  143.4302 LP  0  0  0  0  0  0  0  0  0  0  0  0  # atno 17321 bound_to 7965
  140.7820  143.4388  151.0582 LP  0  0  0  0  0  0  0  0  0  0  0  0  # atno 17342 bound_to 10162
  139.8065  143.8010  152.3168 LP  0  0  0  0  0  0  0  0  0  0  0  0  # atno 17343 bound_to 10162
  156.2497  130.6899  151.1633 LP  0  0  0  0  0  0  0  0  0  0  0  0  # atno 17370 bound_to 10713
  157.7288  131.0629  150.5804 LP  0  0  0  0  0  0  0  0  0  0  0  0  # atno 17371 bound_to 10713
  141.2057  133.7854  157.0220 LP  0  0  0  0  0  0  0  0  0  0  0  0  # atno 17394 bound_to 11000
  140.0839  134.9632  157.1668 LP  0  0  0  0  0  0  0  0  0  0  0  0  # atno 17395 bound_to 11000

$$$$
