AV-unprocessed.smi:704|AV-procd|sdf|3442|dock9
  -GOLD-   22720 0433D 1   1.00000     0.00000
 Structure written by MMmdl.
 38 39  0  0  0  0  0  0  0  0  1 V2000
  151.3998  145.4726  160.3505 C   0  0  0  0  0  0  0  0  0  0  0  0
  151.5510  144.5658  159.2637 O   0  0  0  0  0  0  0  0  0  0  0  0
  152.0839  143.3160  159.5164 C   0  0  0  0  0  0  0  0  0  0  0  0
  152.9724  143.1870  160.5337 N   0  0  0  0  0  0  0  0  0  0  0  0
  153.4965  141.9688  160.7794 C   0  0  0  0  0  0  0  0  0  0  0  0
  153.1717  140.8247  160.0278 C   0  0  0  0  0  0  0  0  0  0  0  0
  152.2499  140.9553  158.9726 C   0  0  0  0  0  0  0  0  0  0  0  0
  151.6797  142.2250  158.7119 C   0  0  0  0  0  0  0  0  0  0  0  0
  150.7540  142.4706  157.6609 N   0  0  0  0  0  0  0  0  0  0  0  0
  150.4744  141.6995  156.5968 C   0  0  0  0  0  0  0  0  0  0  0  0
  151.0007  140.6158  156.3445 O   0  0  0  0  0  0  0  0  0  0  0  0
  149.5156  142.2504  155.8391 N   0  0  0  0  0  0  0  0  0  0  0  0
  148.9585  141.6576  154.6254 C   0  0  2  0  0  0  0  0  0  0  0  0
  147.6239  142.3181  154.2482 C   0  0  0  0  0  0  0  0  0  0  0  0
  146.7831  141.1975  153.6444 C   0  0  0  0  0  0  0  0  0  0  0  0
  147.1689  139.9668  154.4608 C   0  0  0  0  0  0  0  0  0  0  0  0
  148.6618  140.1421  154.8011 C   0  0  1  0  0  0  0  0  0  0  0  0
  149.5674  139.2700  153.9155 C   0  0  0  0  0  0  0  0  0  0  0  0
  148.9645  138.4460  153.0547 N   0  0  0  0  0  0  0  0  0  0  0  0
  150.7920  139.3399  154.0043 O   0  0  0  0  0  0  0  0  0  0  0  0
  150.9659  146.4035  159.9853 H   0  0  0  0  0  0  0  0  0  0  0  0
  152.3609  145.7129  160.8072 H   0  0  0  0  0  0  0  0  0  0  0  0
  150.7302  145.0728  161.1133 H   0  0  0  0  0  0  0  0  0  0  0  0
  154.2006  141.9051  161.5958 H   0  0  0  0  0  0  0  0  0  0  0  0
  153.6233  139.8696  160.2521 H   0  0  0  0  0  0  0  0  0  0  0  0
  152.0114  140.0868  158.3787 H   0  0  0  0  0  0  0  0  0  0  0  0
  150.1793  143.2927  157.7772 H   0  0  0  0  0  0  0  0  0  0  0  0
  149.1361  143.1412  156.1249 H   0  0  0  0  0  0  0  0  0  0  0  0
  149.6558  141.8251  153.8012 H   0  0  0  0  0  0  0  0  0  0  0  0
  147.1201  142.6962  155.1394 H   0  0  0  0  0  0  0  0  0  0  0  0
  147.7524  143.1570  153.5634 H   0  0  0  0  0  0  0  0  0  0  0  0
  145.7138  141.4076  153.6797 H   0  0  0  0  0  0  0  0  0  0  0  0
  147.0610  141.0502  152.5999 H   0  0  0  0  0  0  0  0  0  0  0  0
  146.5884  139.9466  155.3841 H   0  0  0  0  0  0  0  0  0  0  0  0
  146.9479  139.0414  153.9264 H   0  0  0  0  0  0  0  0  0  0  0  0
  148.8065  139.8390  155.8402 H   0  0  0  0  0  0  0  0  0  0  0  0
  149.5173  137.8642  152.4419 H   0  0  0  0  0  0  0  0  0  0  0  0
  147.9563  138.4188  153.0099 H   0  0  0  0  0  0  0  0  0  0  0  0
  1  2  1  0  0  0  0
  1 21  1  0  0  0  0
  1 22  1  0  0  0  0
  1 23  1  0  0  0  0
  2  3  1  0  0  0  0
  3  8  1  0  0  0  0
  3  4  2  0  0  0  0
  4  5  1  0  0  0  0
  5  6  2  0  0  0  0
  5 24  1  0  0  0  0
  6  7  1  0  0  0  0
  6 25  1  0  0  0  0
  7  8  2  0  0  0  0
  7 26  1  0  0  0  0
  8  9  1  0  0  0  0
  9 10  1  0  0  0  0
  9 27  1  0  0  0  0
 10 11  2  0  0  0  0
 10 12  1  0  0  0  0
 12 13  1  0  0  0  0
 12 28  1  0  0  0  0
 13 17  1  0  0  0  0
 13 14  1  0  0  0  0
 13 29  1  0  0  0  0
 14 15  1  0  0  0  0
 14 30  1  0  0  0  0
 14 31  1  0  0  0  0
 15 16  1  0  0  0  0
 15 32  1  0  0  0  0
 15 33  1  0  0  0  0
 16 17  1  0  0  0  0
 16 34  1  0  0  0  0
 16 35  1  0  0  0  0
 17 18  1  0  0  0  0
 17 36  1  0  0  0  0
 18 19  1  0  0  0  0
 18 20  2  0  0  0  0
 19 37  1  0  0  0  0
 19 38  1  0  0  0  0
M  END
> <s_m_source_file>
AV-unprocessed.smi

> <i_m_source_file_index>
704

> <i_lp_mmshare_version>
43012

> <i_f3d_flags>
0

> <s_epik_input>
W0NIM11PYzFuW2NIXVtjSF1bY0hdYzFbTkhdQyg9TylbTkhdW0NAQEhdMltDSDJdW0NIMl1bQ0gyXVtDQEhdMkMoPU8pW05IMl0=

> <s_epik_cmdline>
J2VwaWtfcHl0aG9uJywgJy1waCcsICc3LjAnLCAnLXRuJywgJzgnLCAnLW1hJywgJzIwMCcsICctbWV0YWxfYmluZGluZycsICctaW1hZScsICc8aW5maWxlLm1hZT4nLCAnLW9tYWUnLCAnPG91dGZpbGUubWFlPic=

> <r_lp_tautomer_probability>
1

> <r_epik_Ionization_Penalty>
9.09123e-05

> <r_epik_Ionization_Penalty_Charging>
0

> <r_epik_Ionization_Penalty_Neutral>
9.09123e-05

> <r_epik_State_Penalty>
-0

> <r_epik_Charging_Adjusted_Penalty>
0

> <i_epik_Tot_Q>
0

> <i_epik_Tot_abs_Q>
0

> <r_epik_Metal_State_Penalty>
-0

> <b_epik_Metal_Only>
0

> <s_lp_Force_Field>
OPLS_2005

> <r_lp_Energy>
16.6187

> <b_lp_Chiralities_Consistent>
1

> <s_lp_Variant>
AV-unprocessed.smi:704-1

> <Gold.Version>
5.8.1

> <Gold.Id.Protein>
6NUR|6NUR_protein|mol2

> <Gold.PLP.Fitness>
46.3124

> <Gold.PLP.PLP>
-39.6701

> <Gold.PLP.part.hbond>
-3.8976

> <Gold.PLP.part.metal>
0.0000

> <Gold.PLP.part.buried>
-2.4952

> <Gold.PLP.part.nonpolar>
-32.8505

> <Gold.PLP.part.repulsive>
0.5043

> <Gold.PLP.ligand.clash>
0.3207

> <Gold.PLP.ligand.torsion>
0.6724

> <Gold.PLP.Chemscore.Hbond>
2.7680

> <Gold.PLP.Chemscore.CHOScore>
0.0000

> <Gold.PLP.Chemscore.Metal>
0.0000

> <Gold.Chemscore.Hbonds>
donor molecule, donor type, donor heavy atom, donor atom, acceptor molecule, acceptor atom, score
      L1  H    12    28       P1  8028  0.90
      L1  H    19    37       P1  7948  0.50
      P1  H  7989  7998       L1    20  1.00

> <Gold.PLP.Chemscore.Internal.Correction>
0.0039

> <Gold.Rescore>
     Score         DG    S(hbond)    S(metal)    S(lipo)     H(rot)  DE(clash)    DE(int)     intcor
     13.66     -18.57       2.67        0.00      76.47       1.86       0.07       4.84       ----

> <Gold.Chemscore.Fitness>
13.6649

> <Gold.Chemscore.DG>
-18.5727

> <Gold.Chemscore.ZeroCoef>
-5.4800

> <Gold.Chemscore.Hbond>
2.6705

> <Gold.Chemscore.Metal>
0.0000

> <Gold.Chemscore.Lipo>
76.4705

> <Gold.Chemscore.Internal_Hbond>
0.0000

> <Gold.Chemscore.DEClash>
0.0725

> <Gold.Chemscore.DEInternal>
4.8353

> <Gold.Chemscore.Rot>
1.8648

> <Gold.Chemscore.Internal.Correction>
   9.000000E+99

> <Gold.Chemscore.Hbonds>
donor molecule, donor type, donor heavy atom, donor atom, acceptor molecule, acceptor atom, score
      L1  H    12    28       P1  8028  0.88
      L1  H    19    37       P1  7948  0.30
      P1  H  7989  7998       L1    20  0.96

> <Gold.Chemscore.Hbond.Weighted>
-8.9195

> <Gold.Chemscore.Metal.Weighted>
-0.0000

> <Gold.Chemscore.Lipo.Weighted>
-8.9471

> <Gold.Chemscore.Internal_Hbond.Weighted>
0.0000

> <Gold.Chemscore.DEClash.Weighted>
0.0725

> <Gold.Chemscore.DEInternal.Weighted>
4.8353

> <Gold.Chemscore.Rot.Weighted>
4.7739

> <Gold.Chemscore.Internal.Correction.Weighted>
   9.000000E+99

> <Gold.Protein.RotatedTorsions>
[ 6907 6896 6895 6894 ] final  -47.60 input  -60.11 | X-H torsion
[ 7974 7965 7964 7962 ] final   40.08 input  175.53 | X-H torsion
[ 8008 7997 7996 7995 ] final  150.33 input   59.86 | X-H torsion
[ 10167 10162 10161 10158 ] final  146.94 input  -65.29 | X-H torsion
[ 10718 10713 10712 10709 ] final  -75.37 input   66.30 | X-H torsion
[ 10763 10752 10751 10750 ] final -132.62 input  -60.55 | X-H torsion
[ 11005 11000 10999 10996 ] final  172.40 input  -57.11 | X-H torsion

> <Gold.Protein.ActiveResidues>
 VAL166  LYS551  ARG553  GLY616  TRP617  ASP618  TYR619  PRO620  LYS621  CYS622 
 ASP623  PHE694  ASN695  SER759  ASP760  ASP761  ALA762  ILE779  LEU786  VAL792 
 PHE793  MET794  SER795  GLU796  ALA797  LYS798  CYS799  TRP800  GLU811  SER814 

> <Gold.Protein.RotatedAtoms>
  150.8991  134.8402  159.7347 H   0  0  0  0  0  0  0  0  0  0  0  0  # atno 6907 bound_to 6896
  152.4882  134.4529  159.9590 H   0  0  0  0  0  0  0  0  0  0  0  0  # atno 6908 bound_to 6896
  151.4583  133.3560  159.2840 H   0  0  0  0  0  0  0  0  0  0  0  0  # atno 6909 bound_to 6896
  146.0933  139.5575  142.9461 H   0  0  0  0  0  0  0  0  0  0  0  0  # atno 7974 bound_to 7965
  156.2720  140.2077  156.6000 H   0  0  0  0  0  0  0  0  0  0  0  0  # atno 8008 bound_to 7997
  154.6914  140.0530  157.0391 H   0  0  0  0  0  0  0  0  0  0  0  0  # atno 8009 bound_to 7997
  155.0861  140.3191  155.4590 H   0  0  0  0  0  0  0  0  0  0  0  0  # atno 8010 bound_to 7997
  139.4898  144.5793  151.6904 H   0  0  0  0  0  0  0  0  0  0  0  0  # atno 10167 bound_to 10162
  156.0210  130.4439  150.3033 H   0  0  0  0  0  0  0  0  0  0  0  0  # atno 10718 bound_to 10713
  154.8741  135.3792  154.4439 H   0  0  0  0  0  0  0  0  0  0  0  0  # atno 10763 bound_to 10752
  153.5121  135.7029  153.5780 H   0  0  0  0  0  0  0  0  0  0  0  0  # atno 10764 bound_to 10752
  153.4065  135.3935  155.1988 H   0  0  0  0  0  0  0  0  0  0  0  0  # atno 10765 bound_to 10752
  140.3293  134.7371  157.4122 H   0  0  0  0  0  0  0  0  0  0  0  0  # atno 11005 bound_to 11000
  145.5997  141.0357  143.2025 LP  0  0  0  0  0  0  0  0  0  0  0  0  # atno 17320 bound_to 7965
  144.7376  139.7540  143.7323 LP  0  0  0  0  0  0  0  0  0  0  0  0  # atno 17321 bound_to 7965
  140.5395  144.0601  150.6083 LP  0  0  0  0  0  0  0  0  0  0  0  0  # atno 17342 bound_to 10162
  140.3619  143.2903  152.0374 LP  0  0  0  0  0  0  0  0  0  0  0  0  # atno 17343 bound_to 10162
  157.1135  131.0228  151.3038 LP  0  0  0  0  0  0  0  0  0  0  0  0  # atno 17370 bound_to 10713
  157.4685  130.7695  149.7301 LP  0  0  0  0  0  0  0  0  0  0  0  0  # atno 17371 bound_to 10713
  140.0875  134.5647  155.8478 LP  0  0  0  0  0  0  0  0  0  0  0  0  # atno 17394 bound_to 11000
  141.2067  133.6658  156.6261 LP  0  0  0  0  0  0  0  0  0  0  0  0  # atno 17395 bound_to 11000

$$$$
