AV-unprocessed.smi:3241|AV-procd|sdf|12389|dock1
  -GOLD-   2272018253D 1   1.00000     0.00000
 Structure written by MMmdl.
 43 44  0  0  0  0  0  0  0  0  1 V2000
  152.8831  142.4082  162.0171 C   0  0  0  0  0  0  0  0  0  0  0  0
  152.7424  143.3620  160.8185 C   0  0  2  0  0  0  0  0  0  0  0  0
  151.9559  144.6271  161.2161 C   0  0  0  0  0  0  0  0  0  0  0  0
  151.8001  145.5951  160.0334 C   0  0  0  0  0  0  0  0  0  0  0  0
  151.1349  144.9012  158.8364 C   0  0  0  0  0  0  0  0  0  0  0  0
  151.9139  143.6429  158.4245 C   0  0  0  0  0  0  0  0  0  0  0  0
  152.0804  142.6660  159.6075 C   0  0  1  0  0  0  0  0  0  0  0  0
  152.9199  141.5835  159.2283 O   0  0  0  0  0  0  0  0  0  0  0  0
  152.5728  140.9536  158.0038 C   0  0  0  0  0  0  0  0  0  0  0  0
  151.1749  140.3512  158.1716 C   0  0  0  0  0  0  0  0  0  0  0  0
  150.5947  140.0501  156.8682 N   0  0  0  0  0  0  0  0  0  0  0  0
  151.4540  139.2405  156.0107 C   0  0  0  0  0  0  0  0  0  0  0  0
  150.7166  138.8016  154.7350 C   0  0  0  0  0  0  0  0  0  0  0  0
  149.5806  139.6576  154.4375 N   0  0  0  0  0  0  0  0  0  0  0  0
  148.2851  139.2892  154.1409 C   0  0  0  0  0  0  0  0  0  0  0  0
  147.5694  140.4365  153.9506 C   0  0  0  0  0  0  0  0  0  0  0  0
  148.5267  141.4696  154.1529 C   0  0  0  0  0  0  0  0  0  0  0  0
  149.7291  141.0006  154.4439 N   0  0  0  0  0  0  0  0  0  0  0  0
  151.9111  142.0456  162.3528 H   0  0  0  0  0  0  0  0  0  0  0  0
  153.3627  142.9051  162.8607 H   0  0  0  0  0  0  0  0  0  0  0  0
  153.4912  141.5395  161.7639 H   0  0  0  0  0  0  0  0  0  0  0  0
  153.7462  143.6720  160.5236 H   0  0  0  0  0  0  0  0  0  0  0  0
  150.9691  144.3463  161.5869 H   0  0  0  0  0  0  0  0  0  0  0  0
  152.4598  145.1364  162.0384 H   0  0  0  0  0  0  0  0  0  0  0  0
  151.2103  146.4606  160.3364 H   0  0  0  0  0  0  0  0  0  0  0  0
  152.7795  145.9748  159.7393 H   0  0  0  0  0  0  0  0  0  0  0  0
  150.1100  144.6298  159.0929 H   0  0  0  0  0  0  0  0  0  0  0  0
  151.0713  145.5914  157.9947 H   0  0  0  0  0  0  0  0  0  0  0  0
  151.3973  143.1570  157.5970 H   0  0  0  0  0  0  0  0  0  0  0  0
  152.8965  143.9315  158.0486 H   0  0  0  0  0  0  0  0  0  0  0  0
  151.1020  142.2935  159.9172 H   0  0  0  0  0  0  0  0  0  0  0  0
  152.5840  141.6604  157.1722 H   0  0  0  0  0  0  0  0  0  0  0  0
  153.2904  140.1654  157.7765 H   0  0  0  0  0  0  0  0  0  0  0  0
  151.2347  139.4384  158.7652 H   0  0  0  0  0  0  0  0  0  0  0  0
  150.5423  141.0466  158.7245 H   0  0  0  0  0  0  0  0  0  0  0  0
  149.7035  139.5798  156.9951 H   0  0  0  0  0  0  0  0  0  0  0  0
  152.3461  139.8066  155.7413 H   0  0  0  0  0  0  0  0  0  0  0  0
  151.7968  138.3565  156.5498 H   0  0  0  0  0  0  0  0  0  0  0  0
  151.3965  138.7909  153.8814 H   0  0  0  0  0  0  0  0  0  0  0  0
  150.3490  137.7818  154.8537 H   0  0  0  0  0  0  0  0  0  0  0  0
  147.9835  138.2532  154.0950 H   0  0  0  0  0  0  0  0  0  0  0  0
  146.5213  140.5247  153.7056 H   0  0  0  0  0  0  0  0  0  0  0  0
  148.3843  142.5389  154.1002 H   0  0  0  0  0  0  0  0  0  0  0  0
  1  2  1  0  0  0  0
  1 19  1  0  0  0  0
  1 20  1  0  0  0  0
  1 21  1  0  0  0  0
  2  7  1  0  0  0  0
  2  3  1  0  0  0  0
  2 22  1  0  0  0  0
  3  4  1  0  0  0  0
  3 23  1  0  0  0  0
  3 24  1  0  0  0  0
  4  5  1  0  0  0  0
  4 25  1  0  0  0  0
  4 26  1  0  0  0  0
  5  6  1  0  0  0  0
  5 27  1  0  0  0  0
  5 28  1  0  0  0  0
  6  7  1  0  0  0  0
  6 29  1  0  0  0  0
  6 30  1  0  0  0  0
  7  8  1  0  0  0  0
  7 31  1  0  0  0  0
  8  9  1  0  0  0  0
  9 10  1  0  0  0  0
  9 32  1  0  0  0  0
  9 33  1  0  0  0  0
 10 11  1  0  0  0  0
 10 34  1  0  0  0  0
 10 35  1  0  0  0  0
 11 12  1  0  0  0  0
 11 36  1  0  0  0  0
 12 13  1  0  0  0  0
 12 37  1  0  0  0  0
 12 38  1  0  0  0  0
 13 14  1  0  0  0  0
 13 39  1  0  0  0  0
 13 40  1  0  0  0  0
 14 18  1  0  0  0  0
 14 15  1  0  0  0  0
 15 16  2  0  0  0  0
 15 41  1  0  0  0  0
 16 17  1  0  0  0  0
 16 42  1  0  0  0  0
 17 18  2  0  0  0  0
 17 43  1  0  0  0  0
M  END
> <s_m_source_file>
AV-unprocessed.smi

> <i_m_source_file_index>
3241

> <i_lp_mmshare_version>
43012

> <i_f3d_flags>
0

> <s_epik_input>
W0NIM11bQ0BASF0xW0NIMl1bQ0gyXVtDSDJdW0NIMl1bQ0BIXTFPW0NIMl1bQ0gyXVtOSF1bQ0gyXVtDSDJdbjJbY0hdW2NIXVtjSF1uMg==

> <s_epik_cmdline>
J2VwaWtfcHl0aG9uJywgJy1waCcsICc3LjAnLCAnLXRuJywgJzgnLCAnLW1hJywgJzIwMCcsICctbWV0YWxfYmluZGluZycsICctaW1hZScsICc8aW5maWxlLm1hZT4nLCAnLW9tYWUnLCAnPG91dGZpbGUubWFlPic=

> <r_lp_tautomer_probability>
1

> <r_epik_Ionization_Penalty>
2.47055

> <r_epik_Ionization_Penalty_Charging>
0

> <r_epik_Ionization_Penalty_Neutral>
2.47055

> <r_epik_State_Penalty>
2.6322

> <r_epik_Charging_Adjusted_Penalty>
2.6322

> <i_epik_Tot_Q>
0

> <i_epik_Tot_abs_Q>
0

> <r_epik_Metal_State_Penalty>
2.63108

> <b_epik_Metal_Only>
0

> <s_lp_Force_Field>
OPLS_2005

> <r_lp_Energy>
15.2111

> <b_lp_Chiralities_Consistent>
1

> <s_lp_Variant>
AV-unprocessed.smi:3241-5

> <Gold.Version>
5.8.1

> <Gold.Id.Protein>
6NUR|6NUR_protein|mol2

> <Gold.PLP.Fitness>
47.0765

> <Gold.PLP.PLP>
-44.1911

> <Gold.PLP.part.hbond>
-1.3840

> <Gold.PLP.part.metal>
0.0000

> <Gold.PLP.part.buried>
-1.7649

> <Gold.PLP.part.nonpolar>
-39.9979

> <Gold.PLP.part.repulsive>
0.1553

> <Gold.PLP.ligand.clash>
0.0000

> <Gold.PLP.ligand.torsion>
0.5283

> <Gold.PLP.Chemscore.Hbond>
0.2305

> <Gold.PLP.Chemscore.CHOScore>
1.0000

> <Gold.PLP.Chemscore.Metal>
0.0000

> <Gold.Chemscore.Hbonds>
donor molecule, donor type, donor heavy atom, donor atom, acceptor molecule, acceptor atom, score
      P1  H  7989  7998       L1    18  0.30
      L1  C    17    43       P1  8028  0.59

> <Gold.PLP.Chemscore.Internal.Correction>
0.2504

> <Gold.Rescore>
     Score         DG    S(hbond)    S(metal)    S(lipo)     H(rot)  DE(clash)    DE(int)     intcor
     15.46     -17.87       0.60        0.00     127.98       1.79       0.34       2.07       ----

> <Gold.Chemscore.Fitness>
15.4588

> <Gold.Chemscore.DG>
-17.8659

> <Gold.Chemscore.ZeroCoef>
-5.4800

> <Gold.Chemscore.Hbond>
0.5974

> <Gold.Chemscore.Metal>
0.0000

> <Gold.Chemscore.Lipo>
127.9777

> <Gold.Chemscore.Internal_Hbond>
0.0000

> <Gold.Chemscore.DEClash>
0.3400

> <Gold.Chemscore.DEInternal>
2.0672

> <Gold.Chemscore.Rot>
1.7901

> <Gold.Chemscore.Internal.Correction>
   9.000000E+99

> <Gold.Chemscore.Hbonds>
donor molecule, donor type, donor heavy atom, donor atom, acceptor molecule, acceptor atom, score
      P1  H  7989  7998       L1    18  0.02

> <Gold.Chemscore.Hbond.Weighted>
-1.9953

> <Gold.Chemscore.Metal.Weighted>
-0.0000

> <Gold.Chemscore.Lipo.Weighted>
-14.9734

> <Gold.Chemscore.Internal_Hbond.Weighted>
0.0000

> <Gold.Chemscore.DEClash.Weighted>
0.3400

> <Gold.Chemscore.DEInternal.Weighted>
2.0672

> <Gold.Chemscore.Rot.Weighted>
4.5827

> <Gold.Chemscore.Internal.Correction.Weighted>
   9.000000E+99

> <Gold.Protein.RotatedTorsions>
[ 6907 6896 6895 6894 ] final -125.15 input  -60.11 | X-H torsion
[ 7974 7965 7964 7962 ] final -167.72 input  175.53 | X-H torsion
[ 8008 7997 7996 7995 ] final  -42.45 input   59.86 | X-H torsion
[ 10167 10162 10161 10158 ] final   32.55 input  -65.29 | X-H torsion
[ 10718 10713 10712 10709 ] final -166.83 input   66.30 | X-H torsion
[ 10763 10752 10751 10750 ] final -143.28 input  -60.55 | X-H torsion
[ 11005 11000 10999 10996 ] final  179.99 input  -57.11 | X-H torsion

> <Gold.Protein.ActiveResidues>
 VAL166  LYS551  ARG553  GLY616  TRP617  ASP618  TYR619  PRO620  LYS621  CYS622 
 ASP623  PHE694  ASN695  SER759  ASP760  ASP761  ALA762  ILE779  LEU786  VAL792 
 PHE793  MET794  SER795  GLU796  ALA797  LYS798  CYS799  TRP800  GLU811  SER814 

> <Gold.Protein.RotatedAtoms>
  150.8838  133.7335  159.2923 H   0  0  0  0  0  0  0  0  0  0  0  0  # atno 6907 bound_to 6896
  151.4907  135.1056  159.9812 H   0  0  0  0  0  0  0  0  0  0  0  0  # atno 6908 bound_to 6896
  152.4777  133.8132  159.7070 H   0  0  0  0  0  0  0  0  0  0  0  0  # atno 6909 bound_to 6896
  144.7217  140.2476  143.6283 H   0  0  0  0  0  0  0  0  0  0  0  0  # atno 7974 bound_to 7965
  154.3999  140.1473  156.3357 H   0  0  0  0  0  0  0  0  0  0  0  0  # atno 8008 bound_to 7997
  155.8403  140.3462  155.5606 H   0  0  0  0  0  0  0  0  0  0  0  0  # atno 8009 bound_to 7997
  155.8094  140.0882  157.1903 H   0  0  0  0  0  0  0  0  0  0  0  0  # atno 8010 bound_to 7997
  140.4488  144.1078  150.6187 H   0  0  0  0  0  0  0  0  0  0  0  0  # atno 10167 bound_to 10162
  156.6735  130.9093  151.3047 H   0  0  0  0  0  0  0  0  0  0  0  0  # atno 10718 bound_to 10713
  154.8476  135.3472  154.6162 H   0  0  0  0  0  0  0  0  0  0  0  0  # atno 10763 bound_to 10752
  153.6771  135.6982  153.5134 H   0  0  0  0  0  0  0  0  0  0  0  0  # atno 10764 bound_to 10752
  153.2697  135.4297  155.0932 H   0  0  0  0  0  0  0  0  0  0  0  0  # atno 10765 bound_to 10752
  140.4122  134.6681  157.4620 H   0  0  0  0  0  0  0  0  0  0  0  0  # atno 11005 bound_to 11000
  145.8259  139.2064  143.1911 LP  0  0  0  0  0  0  0  0  0  0  0  0  # atno 17320 bound_to 7965
  146.0473  140.8104  142.9799 LP  0  0  0  0  0  0  0  0  0  0  0  0  # atno 17321 bound_to 7965
  140.4231  143.2602  151.9690 LP  0  0  0  0  0  0  0  0  0  0  0  0  # atno 17342 bound_to 10162
  139.4795  144.5812  151.7929 LP  0  0  0  0  0  0  0  0  0  0  0  0  # atno 17343 bound_to 10162
  157.7069  130.9395  150.0959 LP  0  0  0  0  0  0  0  0  0  0  0  0  # atno 17370 bound_to 10713
  156.1920  130.3655  149.8897 LP  0  0  0  0  0  0  0  0  0  0  0  0  # atno 17371 bound_to 10713
  140.0259  134.6478  155.9174 LP  0  0  0  0  0  0  0  0  0  0  0  0  # atno 17394 bound_to 11000
  141.1816  133.6547  156.5045 LP  0  0  0  0  0  0  0  0  0  0  0  0  # atno 17395 bound_to 11000

$$$$
