#       Name:                AV-unprocessed.smi:67
#       Creating user name   scv26
#       Creation time:       Thu Mar 26 16:52:33 2020


#       File generated by GOLD software.
#

@<TRIPOS>MOLECULE
AV-unprocessed.smi:67
    53    55     1
SMALL
NO_CHARGES


@<TRIPOS>ATOM
      1 ****        -2.1054   0.9752  -3.5914 O.3            1 S1                 0.0000
      2 ****        -2.6884   0.9560  -2.2994 C.3            1 S1                 0.0000
      3 ****        -2.0303  -0.1816  -1.4835 C.3            1 S1                 0.0000
      4 ****        -0.5553  -0.0222  -1.3596 N.4            1 S1                 1.0000
      5 ****         0.1846  -1.2827  -1.6273 C.3            1 S1                 0.0000
      6 ****         1.7055  -1.0466  -1.6383 C.3            1 S1                 0.0000
      7 ****         2.1947  -0.4012  -0.3320 C.3            1 S1                 0.0000
      8 ****         2.0230  -1.3568   0.7129 O.3            1 S1                 0.0000
      9 ****         2.6754  -1.1897   1.9176 C.ar           1 S1                 0.0000
     10 ****         3.6074  -0.1584   2.1960 C.ar           1 S1                 0.0000
     11 ****         4.2243  -0.0785   3.4589 C.ar           1 S1                 0.0000
     12 ****         3.9206  -1.0217   4.4574 C.ar           1 S1                 0.0000
     13 ****         2.9925  -2.0522   4.1988 C.ar           1 S1                 0.0000
     14 ****         2.6594  -3.0855   5.2646 C.3            1 S1                 0.0000
     15 ****         1.3625  -3.3928   5.2240 F              1 S1                 0.0000
     16 ****         3.3699  -4.1903   5.0417 F              1 S1                 0.0000
     17 ****         2.9427  -2.6327   6.4866 F              1 S1                 0.0000
     18 ****         2.3836  -2.1292   2.9279 C.ar           1 S1                 0.0000
     19 ****         1.3760   0.8770  -0.0600 C.3            1 S1                 0.0000
     20 ****        -0.1350   0.5909  -0.0722 C.3            1 S1                 0.0000
     21 ****        -2.5998   2.3514  -1.6723 C.3            1 S1                 0.0000
     22 ****        -3.7516   3.1205  -2.3201 C.3            1 S1                 0.0000
     23 ****        -4.7968   2.1194  -2.6032 N.4            1 S1                 1.0000
     24 ****        -4.2075   0.7705  -2.4689 C.3            1 S1                 0.0000
     25 ****        -2.2810   0.1508  -4.0205 H              1 S1                 0.0000
     26 ****        -2.4823  -0.2590  -0.4934 H              1 S1                 0.0000
     27 ****        -2.2600  -1.1265  -1.9792 H              1 S1                 0.0000
     28 ****        -0.0782  -2.0284  -0.8750 H              1 S1                 0.0000
     29 ****        -0.1175  -1.6871  -2.5943 H              1 S1                 0.0000
     30 ****         2.2279  -1.9889  -1.8069 H              1 S1                 0.0000
     31 ****         1.9628  -0.4006  -2.4789 H              1 S1                 0.0000
     32 ****         3.2511  -0.1650  -0.4619 H              1 S1                 0.0000
     33 ****         3.8699   0.5862   1.4609 H              1 S1                 0.0000
     34 ****         4.9353   0.7091   3.6615 H              1 S1                 0.0000
     35 ****         4.4063  -0.9498   5.4194 H              1 S1                 0.0000
     36 ****         1.6800  -2.9226   2.7219 H              1 S1                 0.0000
     37 ****         1.6557   1.3265   0.8922 H              1 S1                 0.0000
     38 ****         1.6068   1.6213  -0.8231 H              1 S1                 0.0000
     39 ****        -0.6724   1.5226   0.0964 H              1 S1                 0.0000
     40 ****        -0.3968  -0.0738   0.7527 H              1 S1                 0.0000
     41 ****        -2.7811   2.2871  -0.5984 H              1 S1                 0.0000
     42 ****        -1.6329   2.8347  -1.8195 H              1 S1                 0.0000
     43 ****        -4.1265   3.9264  -1.6887 H              1 S1                 0.0000
     44 ****        -3.4268   3.5566  -3.2656 H              1 S1                 0.0000
     45 ****        -5.5537   2.2174  -1.9414 H              1 S1                 0.0000
     46 ****        -4.4723   0.1305  -3.3118 H              1 S1                 0.0000
     47 ****        -4.6358   0.3196  -1.5727 H              1 S1                 0.0000
     48 ****        -5.1478   2.2569  -3.5406 H              1 S1                 0.0000
     49 ****        -0.2826   0.6172  -2.0929 H              1 S1                 0.0000
     50 ****        -1.1175   1.1079  -3.5115 LP             1 S1                 0.0000
     51 ****        -2.5000   1.7224  -4.1262 LP             1 S1                 0.0000
     52 ****         2.3157  -2.2401   0.3467 LP             1 S1                 0.0000
     53 ****         1.0445  -1.3882   0.9169 LP             1 S1                 0.0000
@<TRIPOS>BOND
    1    1    2 1     
    2    1   25 1     
    3    2   24 1     
    4    2    3 1     
    5    2   21 1     
    6    3    4 1     
    7    3   26 1     
    8    3   27 1     
    9    4   20 1     
   10    4    5 1     
   11    4   49 1     
   12    5    6 1     
   13    5   28 1     
   14    5   29 1     
   15    6    7 1     
   16    6   30 1     
   17    6   31 1     
   18    7    8 1     
   19    7   19 1     
   20    7   32 1     
   21    8    9 1     
   22    9   18 ar    
   23    9   10 ar    
   24   10   11 ar    
   25   10   33 1     
   26   11   12 ar    
   27   11   34 1     
   28   12   13 ar    
   29   12   35 1     
   30   13   14 1     
   31   13   18 ar    
   32   14   15 1     
   33   14   16 1     
   34   14   17 1     
   35   18   36 1     
   36   19   20 1     
   37   19   37 1     
   38   19   38 1     
   39   20   39 1     
   40   20   40 1     
   41   21   22 1     
   42   21   41 1     
   43   21   42 1     
   44   22   23 1     
   45   22   43 1     
   46   22   44 1     
   47   23   24 1     
   48   23   45 1     
   49   23   48 1     
   50   24   46 1     
   51   24   47 1     
   52    1   50 1     
   53    1   51 1     
   54    8   52 1     
   55    8   53 1     
@<TRIPOS>SUBSTRUCTURE
      1 S1             1
@<TRIPOS>SET
LONE_PAIRS      STATIC     ATOMS    <user>   **** ""
4 50 51 52 53
DONOR_HYDROGENS      STATIC     ATOMS    <user>   **** ""
4 25 49 45 48
ATOM$BLUE        STATIC     ATOMS    COLORGROUP SYSTEM
4 50 51 52 53
ATOM$RED        STATIC     ATOMS    COLORGROUP SYSTEM
4 25 49 45 48
