AV-unprocessed.smi:3241|AV-procd|sdf|12389|dock7
  -GOLD-   2272018253D 1   1.00000     0.00000
 Structure written by MMmdl.
 43 44  0  0  0  0  0  0  0  0  1 V2000
  151.4701  145.5866  160.0931 C   0  0  0  0  0  0  0  0  0  0  0  0
  151.7775  144.1298  160.4800 C   0  0  2  0  0  0  0  0  0  0  0  0
  152.5383  144.0691  161.8197 C   0  0  0  0  0  0  0  0  0  0  0  0
  152.8590  142.6228  162.2265 C   0  0  0  0  0  0  0  0  0  0  0  0
  153.6491  141.9021  161.1250 C   0  0  0  0  0  0  0  0  0  0  0  0
  152.8976  141.9481  159.7860 C   0  0  0  0  0  0  0  0  0  0  0  0
  152.5660  143.3970  159.3709 C   0  0  1  0  0  0  0  0  0  0  0  0
  151.7545  143.3936  158.2039 O   0  0  0  0  0  0  0  0  0  0  0  0
  150.4509  142.8585  158.3795 C   0  0  0  0  0  0  0  0  0  0  0  0
  150.2854  141.7043  157.3868 C   0  0  0  0  0  0  0  0  0  0  0  0
  150.1161  142.2216  156.0340 N   0  0  0  0  0  0  0  0  0  0  0  0
  149.7509  141.2051  155.0531 C   0  0  0  0  0  0  0  0  0  0  0  0
  148.3323  140.6687  155.3055 C   0  0  0  0  0  0  0  0  0  0  0  0
  147.3132  141.6695  155.0386 N   0  0  0  0  0  0  0  0  0  0  0  0
  147.0380  142.3164  153.8520 C   0  0  0  0  0  0  0  0  0  0  0  0
  145.9862  143.1566  154.0811 C   0  0  0  0  0  0  0  0  0  0  0  0
  145.6836  142.9522  155.4563 C   0  0  0  0  0  0  0  0  0  0  0  0
  146.4793  142.0621  156.0266 N   0  0  0  0  0  0  0  0  0  0  0  0
  152.3855  146.1553  159.9270 H   0  0  0  0  0  0  0  0  0  0  0  0
  150.9028  146.0900  160.8763 H   0  0  0  0  0  0  0  0  0  0  0  0
  150.8777  145.6380  159.1794 H   0  0  0  0  0  0  0  0  0  0  0  0
  150.8244  143.6156  160.6140 H   0  0  0  0  0  0  0  0  0  0  0  0
  153.4660  144.6380  161.7429 H   0  0  0  0  0  0  0  0  0  0  0  0
  151.9498  144.5452  162.6048 H   0  0  0  0  0  0  0  0  0  0  0  0
  153.4271  142.6154  163.1571 H   0  0  0  0  0  0  0  0  0  0  0  0
  151.9317  142.0839  162.4250 H   0  0  0  0  0  0  0  0  0  0  0  0
  154.6287  142.3684  161.0114 H   0  0  0  0  0  0  0  0  0  0  0  0
  153.8305  140.8666  161.4143 H   0  0  0  0  0  0  0  0  0  0  0  0
  153.4999  141.4592  159.0206 H   0  0  0  0  0  0  0  0  0  0  0  0
  151.9750  141.3718  159.8680 H   0  0  0  0  0  0  0  0  0  0  0  0
  153.4906  143.9470  159.1852 H   0  0  0  0  0  0  0  0  0  0  0  0
  150.2967  142.5056  159.4007 H   0  0  0  0  0  0  0  0  0  0  0  0
  149.7050  143.6278  158.1801 H   0  0  0  0  0  0  0  0  0  0  0  0
  151.1617  141.0565  157.4238 H   0  0  0  0  0  0  0  0  0  0  0  0
  149.4290  141.0942  157.6767 H   0  0  0  0  0  0  0  0  0  0  0  0
  149.4143  142.9558  156.0380 H   0  0  0  0  0  0  0  0  0  0  0  0
  149.8105  141.6233  154.0478 H   0  0  0  0  0  0  0  0  0  0  0  0
  150.4598  140.3771  155.0886 H   0  0  0  0  0  0  0  0  0  0  0  0
  148.1409  139.7839  154.6959 H   0  0  0  0  0  0  0  0  0  0  0  0
  148.2355  140.3574  156.3461 H   0  0  0  0  0  0  0  0  0  0  0  0
  147.6046  142.1235  152.9530 H   0  0  0  0  0  0  0  0  0  0  0  0
  145.5051  143.8157  153.3739 H   0  0  0  0  0  0  0  0  0  0  0  0
  144.9132  143.4185  156.0526 H   0  0  0  0  0  0  0  0  0  0  0  0
  1  2  1  0  0  0  0
  1 19  1  0  0  0  0
  1 20  1  0  0  0  0
  1 21  1  0  0  0  0
  2  7  1  0  0  0  0
  2  3  1  0  0  0  0
  2 22  1  0  0  0  0
  3  4  1  0  0  0  0
  3 23  1  0  0  0  0
  3 24  1  0  0  0  0
  4  5  1  0  0  0  0
  4 25  1  0  0  0  0
  4 26  1  0  0  0  0
  5  6  1  0  0  0  0
  5 27  1  0  0  0  0
  5 28  1  0  0  0  0
  6  7  1  0  0  0  0
  6 29  1  0  0  0  0
  6 30  1  0  0  0  0
  7  8  1  0  0  0  0
  7 31  1  0  0  0  0
  8  9  1  0  0  0  0
  9 10  1  0  0  0  0
  9 32  1  0  0  0  0
  9 33  1  0  0  0  0
 10 11  1  0  0  0  0
 10 34  1  0  0  0  0
 10 35  1  0  0  0  0
 11 12  1  0  0  0  0
 11 36  1  0  0  0  0
 12 13  1  0  0  0  0
 12 37  1  0  0  0  0
 12 38  1  0  0  0  0
 13 14  1  0  0  0  0
 13 39  1  0  0  0  0
 13 40  1  0  0  0  0
 14 18  1  0  0  0  0
 14 15  1  0  0  0  0
 15 16  2  0  0  0  0
 15 41  1  0  0  0  0
 16 17  1  0  0  0  0
 16 42  1  0  0  0  0
 17 18  2  0  0  0  0
 17 43  1  0  0  0  0
M  END
> <s_m_source_file>
AV-unprocessed.smi

> <i_m_source_file_index>
3241

> <i_lp_mmshare_version>
43012

> <i_f3d_flags>
0

> <s_epik_input>
W0NIM11bQ0BASF0xW0NIMl1bQ0gyXVtDSDJdW0NIMl1bQ0BIXTFPW0NIMl1bQ0gyXVtOSF1bQ0gyXVtDSDJdbjJbY0hdW2NIXVtjSF1uMg==

> <s_epik_cmdline>
J2VwaWtfcHl0aG9uJywgJy1waCcsICc3LjAnLCAnLXRuJywgJzgnLCAnLW1hJywgJzIwMCcsICctbWV0YWxfYmluZGluZycsICctaW1hZScsICc8aW5maWxlLm1hZT4nLCAnLW9tYWUnLCAnPG91dGZpbGUubWFlPic=

> <r_lp_tautomer_probability>
1

> <r_epik_Ionization_Penalty>
2.47055

> <r_epik_Ionization_Penalty_Charging>
0

> <r_epik_Ionization_Penalty_Neutral>
2.47055

> <r_epik_State_Penalty>
2.6322

> <r_epik_Charging_Adjusted_Penalty>
2.6322

> <i_epik_Tot_Q>
0

> <i_epik_Tot_abs_Q>
0

> <r_epik_Metal_State_Penalty>
2.63108

> <b_epik_Metal_Only>
0

> <s_lp_Force_Field>
OPLS_2005

> <r_lp_Energy>
15.2111

> <b_lp_Chiralities_Consistent>
1

> <s_lp_Variant>
AV-unprocessed.smi:3241-5

> <Gold.Version>
5.8.1

> <Gold.Id.Protein>
6NUR|6NUR_protein|mol2

> <Gold.PLP.Fitness>
50.7846

> <Gold.PLP.PLP>
-48.7039

> <Gold.PLP.part.hbond>
-1.0000

> <Gold.PLP.part.metal>
0.0000

> <Gold.PLP.part.buried>
-7.0619

> <Gold.PLP.part.nonpolar>
-39.6143

> <Gold.PLP.part.repulsive>
0.1900

> <Gold.PLP.ligand.clash>
0.0000

> <Gold.PLP.ligand.torsion>
0.4959

> <Gold.PLP.Chemscore.Hbond>
1.0000

> <Gold.PLP.Chemscore.CHOScore>
0.0000

> <Gold.PLP.Chemscore.Metal>
0.0000

> <Gold.Chemscore.Hbonds>
donor molecule, donor type, donor heavy atom, donor atom, acceptor molecule, acceptor atom, score
      L1  H    11    36       P1  8028  1.00

> <Gold.PLP.Chemscore.Internal.Correction>
0.0725

> <Gold.Rescore>
     Score         DG    S(hbond)    S(metal)    S(lipo)     H(rot)  DE(clash)    DE(int)     intcor
     18.26     -18.92       0.98        0.00     126.03       1.79       0.17       0.48       ----

> <Gold.Chemscore.Fitness>
18.2631

> <Gold.Chemscore.DG>
-18.9160

> <Gold.Chemscore.ZeroCoef>
-5.4800

> <Gold.Chemscore.Hbond>
0.9799

> <Gold.Chemscore.Metal>
0.0000

> <Gold.Chemscore.Lipo>
126.0318

> <Gold.Chemscore.Internal_Hbond>
0.0000

> <Gold.Chemscore.DEClash>
0.1713

> <Gold.Chemscore.DEInternal>
0.4815

> <Gold.Chemscore.Rot>
1.7901

> <Gold.Chemscore.Internal.Correction>
   9.000000E+99

> <Gold.Chemscore.Hbonds>
donor molecule, donor type, donor heavy atom, donor atom, acceptor molecule, acceptor atom, score
      L1  H    11    36       P1  8028  0.95

> <Gold.Chemscore.Hbond.Weighted>
-3.2730

> <Gold.Chemscore.Metal.Weighted>
-0.0000

> <Gold.Chemscore.Lipo.Weighted>
-14.7457

> <Gold.Chemscore.Internal_Hbond.Weighted>
0.0000

> <Gold.Chemscore.DEClash.Weighted>
0.1713

> <Gold.Chemscore.DEInternal.Weighted>
0.4815

> <Gold.Chemscore.Rot.Weighted>
4.5827

> <Gold.Chemscore.Internal.Correction.Weighted>
   9.000000E+99

> <Gold.Protein.RotatedTorsions>
[ 6907 6896 6895 6894 ] final  -49.45 input  -60.11 | X-H torsion
[ 7974 7965 7964 7962 ] final  139.69 input  175.53 | X-H torsion
[ 8008 7997 7996 7995 ] final -158.86 input   59.86 | X-H torsion
[ 10167 10162 10161 10158 ] final  103.28 input  -65.29 | X-H torsion
[ 10718 10713 10712 10709 ] final  -56.96 input   66.30 | X-H torsion
[ 10763 10752 10751 10750 ] final  -68.51 input  -60.55 | X-H torsion
[ 11005 11000 10999 10996 ] final   -9.89 input  -57.11 | X-H torsion

> <Gold.Protein.ActiveResidues>
 VAL166  LYS551  ARG553  GLY616  TRP617  ASP618  TYR619  PRO620  LYS621  CYS622 
 ASP623  PHE694  ASN695  SER759  ASP760  ASP761  ALA762  ILE779  LEU786  VAL792 
 PHE793  MET794  SER795  GLU796  ALA797  LYS798  CYS799  TRP800  GLU811  SER814 

> <Gold.Protein.RotatedAtoms>
  150.8804  134.8194  159.7220 H   0  0  0  0  0  0  0  0  0  0  0  0  # atno 6907 bound_to 6896
  152.4774  134.4805  159.9674 H   0  0  0  0  0  0  0  0  0  0  0  0  # atno 6908 bound_to 6896
  151.4881  133.3492  159.2884 H   0  0  0  0  0  0  0  0  0  0  0  0  # atno 6909 bound_to 6896
  144.9256  139.5112  143.5642 H   0  0  0  0  0  0  0  0  0  0  0  0  # atno 7974 bound_to 7965
  155.7539  140.0830  157.2188 H   0  0  0  0  0  0  0  0  0  0  0  0  # atno 8008 bound_to 7997
  154.4009  140.1555  156.2812 H   0  0  0  0  0  0  0  0  0  0  0  0  # atno 8009 bound_to 7997
  155.8904  140.3415  155.5954 H   0  0  0  0  0  0  0  0  0  0  0  0  # atno 8010 bound_to 7997
  139.7277  144.7043  151.0772 H   0  0  0  0  0  0  0  0  0  0  0  0  # atno 10167 bound_to 10162
  156.1248  130.4163  150.0375 H   0  0  0  0  0  0  0  0  0  0  0  0  # atno 10718 bound_to 10713
  154.3901  135.6054  153.5838 H   0  0  0  0  0  0  0  0  0  0  0  0  # atno 10763 bound_to 10752
  152.9787  135.5881  154.4308 H   0  0  0  0  0  0  0  0  0  0  0  0  # atno 10764 bound_to 10752
  154.4090  135.2844  155.2026 H   0  0  0  0  0  0  0  0  0  0  0  0  # atno 10765 bound_to 10752
  140.7389  133.8686  155.8952 H   0  0  0  0  0  0  0  0  0  0  0  0  # atno 11005 bound_to 11000
  146.3224  139.8168  142.8935 LP  0  0  0  0  0  0  0  0  0  0  0  0  # atno 17320 bound_to 7965
  145.3225  141.0247  143.3492 LP  0  0  0  0  0  0  0  0  0  0  0  0  # atno 17321 bound_to 7965
  140.7765  143.5084  150.9683 LP  0  0  0  0  0  0  0  0  0  0  0  0  # atno 17342 bound_to 10162
  139.8772  143.7118  152.3161 LP  0  0  0  0  0  0  0  0  0  0  0  0  # atno 17343 bound_to 10162
  156.8304  130.9390  151.3637 LP  0  0  0  0  0  0  0  0  0  0  0  0  # atno 17370 bound_to 10713
  157.6430  130.8821  149.9484 LP  0  0  0  0  0  0  0  0  0  0  0  0  # atno 17371 bound_to 10713
  140.9854  134.1350  157.4457 LP  0  0  0  0  0  0  0  0  0  0  0  0  # atno 17394 bound_to 11000
  139.8810  135.0024  156.6123 LP  0  0  0  0  0  0  0  0  0  0  0  0  # atno 17395 bound_to 11000

$$$$
