AV-unprocessed.smi:2298|AV-procd|sdf|9225|dock4
  -GOLD-   2272012443D 1   1.00000     0.00000
 Structure written by MMmdl.
 37 38  0  0  0  0  0  0  0  0  1 V2000
  152.1794  139.8105  156.0269 C   0  0  0  0  0  0  0  0  0  0  0  0
  150.8017  140.0610  155.4427 C   0  0  0  0  0  0  0  0  0  0  0  0
  150.2779  141.2823  155.6846 N   0  0  0  0  0  0  0  0  0  0  0  0
  149.0517  141.5546  155.1940 C   0  0  0  0  0  0  0  0  0  0  0  0
  148.2959  140.6355  154.4415 C   0  0  0  0  0  0  0  0  0  0  0  0
  148.8470  139.3589  154.1729 C   0  0  0  0  0  0  0  0  0  0  0  0
  148.1712  138.3445  153.4366 N   0  0  0  0  0  0  0  0  0  0  0  0
  146.8519  138.1238  153.3041 C   0  0  0  0  0  0  0  0  0  0  0  0
  145.9581  138.7859  153.8306 O   0  0  0  0  0  0  0  0  0  0  0  0
  146.6187  137.0777  152.4983 N   0  0  0  0  0  0  0  0  0  0  0  0
  145.2997  136.5706  152.1313 C   0  0  1  0  0  0  0  0  0  0  0  0
  145.4544  135.3985  151.1454 C   0  0  0  0  0  0  0  0  0  0  0  0
  144.0910  134.7927  150.7684 C   0  0  0  0  0  0  0  0  0  0  0  0
  143.2766  134.3725  152.0064 C   0  0  1  0  0  0  0  0  0  0  0  0
  143.8728  133.2456  152.6183 O   0  0  0  0  0  0  0  0  0  0  0  0
  143.1548  135.5247  153.0217 C   0  0  0  0  0  0  0  0  0  0  0  0
  144.5220  136.1289  153.3871 C   0  0  0  0  0  0  0  0  0  0  0  0
  150.1277  139.0644  154.6983 C   0  0  0  0  0  0  0  0  0  0  0  0
  150.8598  137.5168  154.4330 Cl  0  0  0  0  0  0  0  0  0  0  0  0
  144.7387  137.3612  151.6290 H   0  0  0  0  0  0  0  0  0  0  0  0
  142.2781  134.0696  151.6894 H   0  0  0  0  0  0  0  0  0  0  0  0
  152.8832  139.5435  155.2379 H   0  0  0  0  0  0  0  0  0  0  0  0
  152.1422  138.9931  156.7476 H   0  0  0  0  0  0  0  0  0  0  0  0
  152.5660  140.6939  156.5372 H   0  0  0  0  0  0  0  0  0  0  0  0
  148.6563  142.5353  155.4132 H   0  0  0  0  0  0  0  0  0  0  0  0
  147.3147  140.9263  154.1015 H   0  0  0  0  0  0  0  0  0  0  0  0
  148.7721  137.7475  152.8873 H   0  0  0  0  0  0  0  0  0  0  0  0
  147.4133  136.5940  152.1065 H   0  0  0  0  0  0  0  0  0  0  0  0
  145.9653  135.7354  150.2427 H   0  0  0  0  0  0  0  0  0  0  0  0
  146.0865  134.6253  151.5850 H   0  0  0  0  0  0  0  0  0  0  0  0
  143.5216  135.5318  150.2034 H   0  0  0  0  0  0  0  0  0  0  0  0
  144.2303  133.9421  150.1001 H   0  0  0  0  0  0  0  0  0  0  0  0
  143.2462  132.8582  153.2103 H   0  0  0  0  0  0  0  0  0  0  0  0
  142.5277  136.3082  152.5945 H   0  0  0  0  0  0  0  0  0  0  0  0
  142.6422  135.1843  153.9222 H   0  0  0  0  0  0  0  0  0  0  0  0
  145.1063  135.3959  153.9453 H   0  0  0  0  0  0  0  0  0  0  0  0
  144.3760  136.9776  154.0562 H   0  0  0  0  0  0  0  0  0  0  0  0
  1  2  1  0  0  0  0
  1 22  1  0  0  0  0
  1 23  1  0  0  0  0
  1 24  1  0  0  0  0
  2 18  1  0  0  0  0
  2  3  2  0  0  0  0
  3  4  1  0  0  0  0
  4  5  2  0  0  0  0
  4 25  1  0  0  0  0
  5  6  1  0  0  0  0
  5 26  1  0  0  0  0
  6  7  1  0  0  0  0
  6 18  2  0  0  0  0
  7  8  1  0  0  0  0
  7 27  1  0  0  0  0
  8  9  2  0  0  0  0
  8 10  1  0  0  0  0
 10 11  1  0  0  0  0
 10 28  1  0  0  0  0
 11 20  1  0  0  0  0
 11 17  1  0  0  0  0
 11 12  1  0  0  0  0
 12 13  1  0  0  0  0
 12 29  1  0  0  0  0
 12 30  1  0  0  0  0
 13 14  1  0  0  0  0
 13 31  1  0  0  0  0
 13 32  1  0  0  0  0
 14 21  1  0  0  0  0
 14 15  1  0  0  0  0
 14 16  1  0  0  0  0
 15 33  1  0  0  0  0
 16 17  1  0  0  0  0
 16 34  1  0  0  0  0
 16 35  1  0  0  0  0
 17 36  1  0  0  0  0
 17 37  1  0  0  0  0
 18 19  1  0  0  0  0
M  END
> <s_m_source_file>
AV-unprocessed.smi

> <i_m_source_file_index>
2298

> <i_lp_mmshare_version>
43012

> <i_f3d_flags>
0

> <s_epik_input>
W0NIM11jMW5bY0hdW2NIXWMoYzFDbClbTkhdQyg9TylbTkhdW0NASF0yW0NIMl1bQ0gyXVtDQEhdKFtPSF0pW0NIMl1bQ0gyXTI=

> <s_epik_cmdline>
J2VwaWtfcHl0aG9uJywgJy1waCcsICc3LjAnLCAnLXRuJywgJzgnLCAnLW1hJywgJzIwMCcsICctbWV0YWxfYmluZGluZycsICctaW1hZScsICc8aW5maWxlLm1hZT4nLCAnLW9tYWUnLCAnPG91dGZpbGUubWFlPic=

> <r_epik_Ionization_Penalty>
0.00999805

> <r_epik_Ionization_Penalty_Charging>
0

> <r_epik_Ionization_Penalty_Neutral>
0.00999805

> <r_epik_State_Penalty>
0.00759022

> <r_epik_Charging_Adjusted_Penalty>
0.00759022

> <i_epik_Tot_Q>
0

> <i_epik_Tot_abs_Q>
0

> <r_epik_Metal_State_Penalty>
0.00746447

> <b_epik_Metal_Only>
0

> <s_lp_Force_Field>
OPLS_2005

> <r_lp_Energy>
16.8241

> <b_lp_Chiralities_Consistent>
1

> <s_lp_Variant>
AV-unprocessed.smi:2298-2

> <Gold.Version>
5.8.1

> <Gold.Id.Protein>
6NUR|6NUR_protein|mol2

> <Gold.PLP.Fitness>
43.9239

> <Gold.PLP.PLP>
-32.3024

> <Gold.PLP.part.hbond>
-4.1051

> <Gold.PLP.part.metal>
0.0000

> <Gold.PLP.part.buried>
-1.6128

> <Gold.PLP.part.nonpolar>
-29.1415

> <Gold.PLP.part.repulsive>
0.5650

> <Gold.PLP.ligand.clash>
0.0000

> <Gold.PLP.ligand.torsion>
0.1788

> <Gold.PLP.Chemscore.Hbond>
2.9920

> <Gold.PLP.Chemscore.CHOScore>
1.0000

> <Gold.PLP.Chemscore.Metal>
0.0000

> <Gold.Chemscore.Hbonds>
donor molecule, donor type, donor heavy atom, donor atom, acceptor molecule, acceptor atom, score
      L1  H     7    27       P1  7948  0.99
      L1  H    10    28       P1  7948  1.00
      L1  H    15    33       P1 10957  1.00
      L1  C     4    25       P1  8028  1.00

> <Gold.PLP.Chemscore.Internal.Correction>
0.0031

> <Gold.Rescore>
     Score         DG    S(hbond)    S(metal)    S(lipo)     H(rot)  DE(clash)    DE(int)     intcor
     17.66     -20.04       2.71        0.00      78.00       1.42       0.23       2.14       ----

> <Gold.Chemscore.Fitness>
17.6636

> <Gold.Chemscore.DG>
-20.0351

> <Gold.Chemscore.ZeroCoef>
-5.4800

> <Gold.Chemscore.Hbond>
2.7138

> <Gold.Chemscore.Metal>
0.0000

> <Gold.Chemscore.Lipo>
77.9994

> <Gold.Chemscore.Internal_Hbond>
0.0000

> <Gold.Chemscore.DEClash>
0.2290

> <Gold.Chemscore.DEInternal>
2.1425

> <Gold.Chemscore.Rot>
1.4199

> <Gold.Chemscore.Internal.Correction>
   9.000000E+99

> <Gold.Chemscore.Hbonds>
donor molecule, donor type, donor heavy atom, donor atom, acceptor molecule, acceptor atom, score
      L1  H     7    27       P1  7948  0.94
      L1  H    10    28       P1  7948  0.97
      L1  H    15    33       P1 10957  0.53

> <Gold.Chemscore.Hbond.Weighted>
-9.0641

> <Gold.Chemscore.Metal.Weighted>
-0.0000

> <Gold.Chemscore.Lipo.Weighted>
-9.1259

> <Gold.Chemscore.Internal_Hbond.Weighted>
0.0000

> <Gold.Chemscore.DEClash.Weighted>
0.2290

> <Gold.Chemscore.DEInternal.Weighted>
2.1425

> <Gold.Chemscore.Rot.Weighted>
3.6349

> <Gold.Chemscore.Internal.Correction.Weighted>
   9.000000E+99

> <Gold.Protein.RotatedTorsions>
[ 6907 6896 6895 6894 ] final  -56.56 input  -60.11 | X-H torsion
[ 7974 7965 7964 7962 ] final  -72.66 input  175.53 | X-H torsion
[ 8008 7997 7996 7995 ] final   28.01 input   59.86 | X-H torsion
[ 10167 10162 10161 10158 ] final -134.53 input  -65.29 | X-H torsion
[ 10718 10713 10712 10709 ] final  170.70 input   66.30 | X-H torsion
[ 10763 10752 10751 10750 ] final  150.56 input  -60.55 | X-H torsion
[ 11005 11000 10999 10996 ] final -134.20 input  -57.11 | X-H torsion

> <Gold.Protein.ActiveResidues>
 VAL166  LYS551  ARG553  GLY616  TRP617  ASP618  TYR619  PRO620  LYS621  CYS622 
 ASP623  PHE694  ASN695  SER759  ASP760  ASP761  ALA762  ILE779  LEU786  VAL792 
 PHE793  MET794  SER795  GLU796  ALA797  LYS798  CYS799  TRP800  GLU811  SER814 

> <Gold.Protein.RotatedAtoms>
  150.8157  134.7338  159.6727 H   0  0  0  0  0  0  0  0  0  0  0  0  # atno 6907 bound_to 6896
  152.4276  134.5836  159.9964 H   0  0  0  0  0  0  0  0  0  0  0  0  # atno 6908 bound_to 6896
  151.6033  133.3317  159.3088 H   0  0  0  0  0  0  0  0  0  0  0  0  # atno 6909 bound_to 6896
  145.6623  140.9248  143.0927 H   0  0  0  0  0  0  0  0  0  0  0  0  # atno 7974 bound_to 7965
  155.0519  140.3180  155.4689 H   0  0  0  0  0  0  0  0  0  0  0  0  # atno 8008 bound_to 7997
  156.2832  140.2144  156.5588 H   0  0  0  0  0  0  0  0  0  0  0  0  # atno 8009 bound_to 7997
  154.7204  140.0490  157.0621 H   0  0  0  0  0  0  0  0  0  0  0  0  # atno 8010 bound_to 7997
  139.8871  143.6767  152.2618 H   0  0  0  0  0  0  0  0  0  0  0  0  # atno 10167 bound_to 10162
  157.0043  131.0185  151.2822 H   0  0  0  0  0  0  0  0  0  0  0  0  # atno 10718 bound_to 10713
  154.0894  135.2853  155.3274 H   0  0  0  0  0  0  0  0  0  0  0  0  # atno 10763 bound_to 10752
  154.6630  135.5327  153.8045 H   0  0  0  0  0  0  0  0  0  0  0  0  # atno 10764 bound_to 10752
  153.0419  135.6538  154.1064 H   0  0  0  0  0  0  0  0  0  0  0  0  # atno 10765 bound_to 10752
  140.9011  134.1689  157.4459 H   0  0  0  0  0  0  0  0  0  0  0  0  # atno 11005 bound_to 11000
  144.7085  139.8465  143.7422 LP  0  0  0  0  0  0  0  0  0  0  0  0  # atno 17320 bound_to 7965
  146.1115  139.4120  143.0285 LP  0  0  0  0  0  0  0  0  0  0  0  0  # atno 17321 bound_to 7965
  139.7143  144.7614  151.1060 LP  0  0  0  0  0  0  0  0  0  0  0  0  # atno 17342 bound_to 10162
  140.7733  143.5290  150.9446 LP  0  0  0  0  0  0  0  0  0  0  0  0  # atno 17343 bound_to 10162
  157.5367  130.8093  149.7981 LP  0  0  0  0  0  0  0  0  0  0  0  0  # atno 17370 bound_to 10713
  156.0159  130.3814  150.2111 LP  0  0  0  0  0  0  0  0  0  0  0  0  # atno 17371 bound_to 10713
  139.8742  134.9898  156.5475 LP  0  0  0  0  0  0  0  0  0  0  0  0  # atno 17394 bound_to 11000
  140.8228  133.8340  155.8911 LP  0  0  0  0  0  0  0  0  0  0  0  0  # atno 17395 bound_to 11000

$$$$
