AV-unprocessed.smi:1535|AV-procd|sdf|6180|dock8
  -GOLD-   22720 6343D 1   1.00000     0.00000
 Structure written by MMmdl.
 47 48  0  0  0  0  0  0  0  0  2 V2000
  153.0574  142.9729  160.7106 C   0  0  0  0  0  0  0  0  0  0  0  0
  152.2932  142.5092  159.4829 C   0  0  0  0  0  0  0  0  0  0  0  0
  152.1498  141.1236  159.2458 C   0  0  0  0  0  0  0  0  0  0  0  0
  151.4468  140.6512  158.1160 C   0  0  0  0  0  0  0  0  0  0  0  0
  151.1898  139.3585  157.6929 N   0  0  0  0  0  0  0  0  0  0  0  0
  150.4950  139.5730  156.5799 C   0  0  0  0  0  0  0  0  0  0  0  0
  150.2837  140.8548  156.2228 N   0  0  0  0  0  0  0  0  0  0  0  0
  149.5732  141.3317  155.0504 C   0  0  0  0  0  0  0  0  0  0  0  0
  148.6685  140.2498  154.4278 C   0  0  2  0  0  0  0  0  0  0  0  0
  149.4370  139.5266  153.4879 O   0  0  0  0  0  0  0  0  0  0  0  0
  147.4251  140.8176  153.7112 C   0  0  0  0  0  0  0  0  0  0  0  0
  146.4170  139.7592  153.4475 N   0  3  1  0  0  0  0  0  0  0  0  0
  146.7612  138.9315  152.2676 C   0  0  0  0  0  0  0  0  0  0  0  0
  146.1083  138.9308  154.6399 C   0  0  0  0  0  0  0  0  0  0  0  0
  144.6634  138.3944  154.6228 C   0  0  2  0  0  0  0  0  0  0  0  0
  144.2689  137.7983  155.9799 C   0  0  0  0  0  0  0  0  0  0  0  0
  144.4713  137.4116  153.5440 C   0  0  0  0  0  0  0  0  0  0  0  0
  144.3168  136.6418  152.6954 N   0  0  0  0  0  0  0  0  0  0  0  0
  150.8878  141.6107  157.2220 C   0  0  0  0  0  0  0  0  0  0  0  0
  151.0193  142.9919  157.4502 C   0  0  0  0  0  0  0  0  0  0  0  0
  151.7252  143.4466  158.5833 C   0  0  0  0  0  0  0  0  0  0  0  0
  151.8639  144.9402  158.8199 C   0  0  0  0  0  0  0  0  0  0  0  0
  153.4400  142.1283  161.2843 H   0  0  0  0  0  0  0  0  0  0  0  0
  152.4094  143.5559  161.3654 H   0  0  0  0  0  0  0  0  0  0  0  0
  153.9068  143.5923  160.4217 H   0  0  0  0  0  0  0  0  0  0  0  0
  152.5797  140.4092  159.9325 H   0  0  0  0  0  0  0  0  0  0  0  0
  150.1283  138.7503  155.9836 H   0  0  0  0  0  0  0  0  0  0  0  0
  148.9810  142.2032  155.3346 H   0  0  0  0  0  0  0  0  0  0  0  0
  150.3103  141.6768  154.3241 H   0  0  0  0  0  0  0  0  0  0  0  0
  148.3631  139.5563  155.2109 H   0  0  0  0  0  0  0  0  0  0  0  0
  149.4853  140.0270  152.6868 H   0  0  0  0  0  0  0  0  0  0  0  0
  146.9529  141.6064  154.2981 H   0  0  0  0  0  0  0  0  0  0  0  0
  147.7452  141.2969  152.7861 H   0  0  0  0  0  0  0  0  0  0  0  0
  147.6583  138.3393  152.4541 H   0  0  0  0  0  0  0  0  0  0  0  0
  146.9401  139.5496  151.3877 H   0  0  0  0  0  0  0  0  0  0  0  0
  145.9465  138.2482  152.0258 H   0  0  0  0  0  0  0  0  0  0  0  0
  146.7860  138.0761  154.6694 H   0  0  0  0  0  0  0  0  0  0  0  0
  146.3002  139.5077  155.5460 H   0  0  0  0  0  0  0  0  0  0  0  0
  143.9722  139.2084  154.4083 H   0  0  0  0  0  0  0  0  0  0  0  0
  143.2383  137.4429  155.9645 H   0  0  0  0  0  0  0  0  0  0  0  0
  144.3507  138.5402  156.7747 H   0  0  0  0  0  0  0  0  0  0  0  0
  144.9075  136.9541  156.2419 H   0  0  0  0  0  0  0  0  0  0  0  0
  150.5800  143.6968  156.7599 H   0  0  0  0  0  0  0  0  0  0  0  0
  151.3538  145.5150  158.0464 H   0  0  0  0  0  0  0  0  0  0  0  0
  152.9145  145.2313  158.8149 H   0  0  0  0  0  0  0  0  0  0  0  0
  151.4314  145.2174  159.7816 H   0  0  0  0  0  0  0  0  0  0  0  0
  145.5578  140.2387  153.2168 H   0  0  0  0  0  0  0  0  0  0  0  0
  1  2  1  0  0  0  0
  1 23  1  0  0  0  0
  1 24  1  0  0  0  0
  1 25  1  0  0  0  0
  2 21  1  0  0  0  0
  2  3  2  0  0  0  0
  3  4  1  0  0  0  0
  3 26  1  0  0  0  0
  4 19  2  0  0  0  0
  4  5  1  0  0  0  0
  5  6  2  0  0  0  0
  6  7  1  0  0  0  0
  6 27  1  0  0  0  0
  7  8  1  0  0  0  0
  7 19  1  0  0  0  0
  8  9  1  0  0  0  0
  8 28  1  0  0  0  0
  8 29  1  0  0  0  0
  9 10  1  0  0  0  0
  9 11  1  0  0  0  0
  9 30  1  0  0  0  0
 10 31  1  0  0  0  0
 11 12  1  0  0  0  0
 11 32  1  0  0  0  0
 11 33  1  0  0  0  0
 12 13  1  0  0  0  0
 12 14  1  0  0  0  0
 12 47  1  0  0  0  0
 13 34  1  0  0  0  0
 13 35  1  0  0  0  0
 13 36  1  0  0  0  0
 14 15  1  0  0  0  0
 14 37  1  0  0  0  0
 14 38  1  0  0  0  0
 15 16  1  0  0  0  0
 15 17  1  0  0  0  0
 15 39  1  0  0  0  0
 16 40  1  0  0  0  0
 16 41  1  0  0  0  0
 16 42  1  0  0  0  0
 17 18  3  0  0  0  0
 19 20  1  0  0  0  0
 20 21  2  0  0  0  0
 20 43  1  0  0  0  0
 21 22  1  0  0  0  0
 22 44  1  0  0  0  0
 22 45  1  0  0  0  0
 22 46  1  0  0  0  0
M  CHG  1  12   1
M  END
> <s_m_source_file>
AV-unprocessed.smi

> <i_m_source_file_index>
1535

> <i_lp_mmshare_version>
43012

> <i_f3d_flags>
0

> <s_epik_input>
W0NIM11jKFtjSF0xKWMoW0NIM10pW2NIXWMoYzEyKW4oW2NIXW4yKVtDSDJdW0NASF0oW09IXSlbQ0gyXU4oW0NIM10pW0NIMl1bQ0BIXShbQ0gzXSlDI04=

> <s_epik_cmdline>
J2VwaWtfcHl0aG9uJywgJy1waCcsICc3LjAnLCAnLXRuJywgJzgnLCAnLW1hJywgJzIwMCcsICctbWV0YWxfYmluZGluZycsICctaW1hZScsICc8aW5maWxlLm1hZT4nLCAnLW9tYWUnLCAnPG91dGZpbGUubWFlPic=

> <r_epik_Ionization_Penalty>
2.21058

> <r_epik_Ionization_Penalty_Charging>
2.12381

> <r_epik_Ionization_Penalty_Neutral>
0.0867699

> <r_epik_State_Penalty>
2.36208

> <r_epik_Charging_Adjusted_Penalty>
4.48589

> <i_epik_Tot_Q>
1

> <i_epik_Tot_abs_Q>
1

> <r_epik_Metal_State_Penalty>
2.2818

> <b_epik_Metal_Only>
0

> <s_lp_Force_Field>
OPLS_2005

> <r_lp_Energy>
13.2218

> <b_lp_Chiralities_Consistent>
1

> <s_lp_Variant>
AV-unprocessed.smi:1535-11

> <Gold.Version>
5.8.1

> <Gold.Id.Protein>
6NUR|6NUR_protein|mol2

> <Gold.PLP.Fitness>
48.3695

> <Gold.PLP.PLP>
-41.6615

> <Gold.PLP.part.hbond>
-1.5374

> <Gold.PLP.part.metal>
0.0000

> <Gold.PLP.part.buried>
-5.2803

> <Gold.PLP.part.nonpolar>
-36.3975

> <Gold.PLP.part.repulsive>
0.1467

> <Gold.PLP.ligand.clash>
0.0000

> <Gold.PLP.ligand.torsion>
1.1796

> <Gold.PLP.Chemscore.Hbond>
2.9745

> <Gold.PLP.Chemscore.CHOScore>
0.0000

> <Gold.PLP.Chemscore.Metal>
0.0000

> <Gold.Chemscore.Hbonds>
donor molecule, donor type, donor heavy atom, donor atom, acceptor molecule, acceptor atom, score
      L1  H    10    31       P1  7957  0.98
      L1  H    12    47       P1 10175  2.00

> <Gold.PLP.Chemscore.Internal.Correction>
0.1437

> <Gold.Rescore>
     Score         DG    S(hbond)    S(metal)    S(lipo)     H(rot)  DE(clash)    DE(int)     intcor
     16.54     -17.99       1.93        0.00     108.86       2.60       0.05       1.40       ----

> <Gold.Chemscore.Fitness>
16.5447

> <Gold.Chemscore.DG>
-17.9949

> <Gold.Chemscore.ZeroCoef>
-5.4800

> <Gold.Chemscore.Hbond>
1.9287

> <Gold.Chemscore.Metal>
0.0000

> <Gold.Chemscore.Lipo>
108.8632

> <Gold.Chemscore.Internal_Hbond>
0.0000

> <Gold.Chemscore.DEClash>
0.0509

> <Gold.Chemscore.DEInternal>
1.3993

> <Gold.Chemscore.Rot>
2.6031

> <Gold.Chemscore.Internal.Correction>
   9.000000E+99

> <Gold.Chemscore.Hbonds>
donor molecule, donor type, donor heavy atom, donor atom, acceptor molecule, acceptor atom, score
      L1  H    10    31       P1  7957  0.87
      L1  H    12    47       P1 10175  0.92

> <Gold.Chemscore.Hbond.Weighted>
-6.4419

> <Gold.Chemscore.Metal.Weighted>
-0.0000

> <Gold.Chemscore.Lipo.Weighted>
-12.7370

> <Gold.Chemscore.Internal_Hbond.Weighted>
0.0000

> <Gold.Chemscore.DEClash.Weighted>
0.0509

> <Gold.Chemscore.DEInternal.Weighted>
1.3993

> <Gold.Chemscore.Rot.Weighted>
6.6640

> <Gold.Chemscore.Internal.Correction.Weighted>
   9.000000E+99

> <Gold.Protein.RotatedTorsions>
[ 6907 6896 6895 6894 ] final  145.87 input  -60.11 | X-H torsion
[ 7974 7965 7964 7962 ] final  120.58 input  175.53 | X-H torsion
[ 8008 7997 7996 7995 ] final -112.49 input   59.86 | X-H torsion
[ 10167 10162 10161 10158 ] final -177.06 input  -65.29 | X-H torsion
[ 10718 10713 10712 10709 ] final  -77.30 input   66.30 | X-H torsion
[ 10763 10752 10751 10750 ] final   41.25 input  -60.55 | X-H torsion
[ 11005 11000 10999 10996 ] final  127.20 input  -57.11 | X-H torsion

> <Gold.Protein.ActiveResidues>
 VAL166  LYS551  ARG553  GLY616  TRP617  ASP618  TYR619  PRO620  LYS621  CYS622 
 ASP623  PHE694  ASN695  SER759  ASP760  ASP761  ALA762  ILE779  LEU786  VAL792 
 PHE793  MET794  SER795  GLU796  ALA797  LYS798  CYS799  TRP800  GLU811  SER814 

> <Gold.Protein.RotatedAtoms>
  152.1753  133.4671  159.4929 H   0  0  0  0  0  0  0  0  0  0  0  0  # atno 6907 bound_to 6896
  150.6926  134.1901  159.4291 H   0  0  0  0  0  0  0  0  0  0  0  0  # atno 6908 bound_to 6896
  151.9810  135.0028  160.0608 H   0  0  0  0  0  0  0  0  0  0  0  0  # atno 6909 bound_to 6896
  145.1295  139.3336  143.4672 H   0  0  0  0  0  0  0  0  0  0  0  0  # atno 7974 bound_to 7965
  155.0061  140.0394  157.2380 H   0  0  0  0  0  0  0  0  0  0  0  0  # atno 8008 bound_to 7997
  154.7501  140.2765  155.6277 H   0  0  0  0  0  0  0  0  0  0  0  0  # atno 8009 bound_to 7997
  156.2883  140.2648  156.2252 H   0  0  0  0  0  0  0  0  0  0  0  0  # atno 8010 bound_to 7997
  139.5498  144.2138  152.1057 H   0  0  0  0  0  0  0  0  0  0  0  0  # atno 10167 bound_to 10162
  156.0149  130.4488  150.3324 H   0  0  0  0  0  0  0  0  0  0  0  0  # atno 10718 bound_to 10713
  152.9913  135.6167  154.2756 H   0  0  0  0  0  0  0  0  0  0  0  0  # atno 10763 bound_to 10752
  154.2488  135.2786  155.2827 H   0  0  0  0  0  0  0  0  0  0  0  0  # atno 10764 bound_to 10752
  154.5306  135.5789  153.6813 H   0  0  0  0  0  0  0  0  0  0  0  0  # atno 10765 bound_to 10752
  139.9495  134.9624  156.8820 H   0  0  0  0  0  0  0  0  0  0  0  0  # atno 11005 bound_to 11000
  146.3515  140.1288  142.8598 LP  0  0  0  0  0  0  0  0  0  0  0  0  # atno 17320 bound_to 7965
  145.0651  140.9115  143.4915 LP  0  0  0  0  0  0  0  0  0  0  0  0  # atno 17321 bound_to 7965
  140.1631  144.5007  150.6621 LP  0  0  0  0  0  0  0  0  0  0  0  0  # atno 17342 bound_to 10162
  140.6758  143.2304  151.5511 LP  0  0  0  0  0  0  0  0  0  0  0  0  # atno 17343 bound_to 10162
  157.1421  131.0299  151.2923 LP  0  0  0  0  0  0  0  0  0  0  0  0  # atno 17370 bound_to 10713
  157.4463  130.7572  149.7112 LP  0  0  0  0  0  0  0  0  0  0  0  0  # atno 17371 bound_to 10713
  140.5753  134.0404  155.7444 LP  0  0  0  0  0  0  0  0  0  0  0  0  # atno 17394 bound_to 11000
  141.1154  133.9548  157.2831 LP  0  0  0  0  0  0  0  0  0  0  0  0  # atno 17395 bound_to 11000

$$$$
