AV-unprocessed.smi:255|AV-procd|sdf|1955|dock6
  -GOLD-   2262021 93D 1   1.00000     0.00000
 Structure written by MMmdl.
 44 47  0  0  0  0  0  0  0  0  1 V2000
  153.3750  139.3281  158.3082 O   0  0  0  0  0  0  0  0  0  0  0  0
  152.7869  140.1433  159.2999 C   0  0  0  0  0  0  0  0  0  0  0  0
  152.5142  141.5554  158.7480 C   0  0  2  0  0  0  0  0  0  0  0  0
  152.5717  142.6411  159.8224 C   0  0  0  0  0  0  0  0  0  0  0  0
  151.8160  143.7946  159.1664 C   0  0  1  0  0  0  0  0  0  0  0  0
  152.6541  144.5024  158.4080 F   0  0  0  0  0  0  0  0  0  0  0  0
  150.7846  143.1021  158.2652 C   0  0  0  0  0  0  0  0  0  0  0  0
  151.1693  141.6956  158.1979 N   0  0  0  0  0  0  0  0  0  0  0  0
  150.9467  141.1107  157.0006 C   0  0  0  0  0  0  0  0  0  0  0  0
  151.8715  140.2700  156.4666 N   0  0  0  0  0  0  0  0  0  0  0  0
  151.6400  139.6901  155.2849 C   0  0  0  0  0  0  0  0  0  0  0  0
  150.5766  139.8148  154.4869 N   0  0  0  0  0  0  0  0  0  0  0  0
  149.6520  140.6642  155.0210 C   0  0  0  0  0  0  0  0  0  0  0  0
  149.7579  141.3479  156.2639 C   0  0  0  0  0  0  0  0  0  0  0  0
  148.6244  142.1189  156.4848 N   0  0  0  0  0  0  0  0  0  0  0  0
  147.8873  141.9028  155.4292 C   0  0  0  0  0  0  0  0  0  0  0  0
  148.4308  141.0485  154.4949 N   0  0  0  0  0  0  0  0  0  0  0  0
  147.8273  140.6336  153.2375 C   0  0  0  0  0  0  0  0  0  0  0  0
  147.4809  139.1269  153.1819 C   0  0  2  0  0  0  0  0  0  0  0  0
  148.6836  138.3773  153.2172 O   0  0  0  0  0  0  0  0  0  0  0  0
  146.7143  138.7417  151.9232 C   0  0  0  0  0  0  0  0  0  0  0  0
  145.8984  137.5405  152.3811 C   0  0  0  0  0  0  0  0  0  0  0  0
  145.4987  137.9087  153.6900 O   0  0  0  0  0  0  0  0  0  0  0  0
  146.5582  138.6287  154.3142 C   0  0  0  0  0  0  0  0  0  0  0  0
  153.2586  141.8030  157.9888 H   0  0  0  0  0  0  0  0  0  0  0  0
  151.3676  144.4798  159.8865 H   0  0  0  0  0  0  0  0  0  0  0  0
  153.4215  138.4427  158.6353 H   0  0  0  0  0  0  0  0  0  0  0  0
  151.8785  139.6798  159.6868 H   0  0  0  0  0  0  0  0  0  0  0  0
  153.4951  140.1977  160.1271 H   0  0  0  0  0  0  0  0  0  0  0  0
  152.0400  142.3144  160.7174 H   0  0  0  0  0  0  0  0  0  0  0  0
  153.5899  142.9045  160.1111 H   0  0  0  0  0  0  0  0  0  0  0  0
  149.7932  143.1592  158.7150 H   0  0  0  0  0  0  0  0  0  0  0  0
  150.7271  143.5764  157.2839 H   0  0  0  0  0  0  0  0  0  0  0  0
  152.4181  139.0316  154.9278 H   0  0  0  0  0  0  0  0  0  0  0  0
  146.9204  142.3670  155.3001 H   0  0  0  0  0  0  0  0  0  0  0  0
  146.9279  141.2297  153.0788 H   0  0  0  0  0  0  0  0  0  0  0  0
  148.5111  140.8943  152.4286 H   0  0  0  0  0  0  0  0  0  0  0  0
  148.6229  137.6843  152.5776 H   0  0  0  0  0  0  0  0  0  0  0  0
  146.0323  139.5427  151.6351 H   0  0  0  0  0  0  0  0  0  0  0  0
  147.3539  138.5263  151.0665 H   0  0  0  0  0  0  0  0  0  0  0  0
  145.0401  137.3417  151.7392 H   0  0  0  0  0  0  0  0  0  0  0  0
  146.5142  136.6409  152.4243 H   0  0  0  0  0  0  0  0  0  0  0  0
  147.0826  137.9878  155.0247 H   0  0  0  0  0  0  0  0  0  0  0  0
  146.1163  139.4483  154.8795 H   0  0  0  0  0  0  0  0  0  0  0  0
  1  2  1  0  0  0  0
  1 27  1  0  0  0  0
  2  3  1  0  0  0  0
  2 28  1  0  0  0  0
  2 29  1  0  0  0  0
  3 25  1  0  0  0  0
  3  8  1  0  0  0  0
  3  4  1  0  0  0  0
  4  5  1  0  0  0  0
  4 30  1  0  0  0  0
  4 31  1  0  0  0  0
  5 26  1  0  0  0  0
  5  6  1  0  0  0  0
  5  7  1  0  0  0  0
  7  8  1  0  0  0  0
  7 32  1  0  0  0  0
  7 33  1  0  0  0  0
  8  9  1  0  0  0  0
  9 14  1  0  0  0  0
  9 10  2  0  0  0  0
 10 11  1  0  0  0  0
 11 12  2  0  0  0  0
 11 34  1  0  0  0  0
 12 13  1  0  0  0  0
 13 17  1  0  0  0  0
 13 14  2  0  0  0  0
 14 15  1  0  0  0  0
 15 16  2  0  0  0  0
 16 17  1  0  0  0  0
 16 35  1  0  0  0  0
 17 18  1  0  0  0  0
 18 19  1  0  0  0  0
 18 36  1  0  0  0  0
 18 37  1  0  0  0  0
 19 24  1  0  0  0  0
 19 20  1  0  0  0  0
 19 21  1  0  0  0  0
 20 38  1  0  0  0  0
 21 22  1  0  0  0  0
 21 39  1  0  0  0  0
 21 40  1  0  0  0  0
 22 23  1  0  0  0  0
 22 41  1  0  0  0  0
 22 42  1  0  0  0  0
 23 24  1  0  0  0  0
 24 43  1  0  0  0  0
 24 44  1  0  0  0  0
M  END
> <s_m_source_file>
AV-unprocessed.smi

> <i_m_source_file_index>
255

> <i_lp_mmshare_version>
43012

> <i_f3d_flags>
0

> <s_epik_input>
W09IXVtDSDJdW0NAQEhdMVtDSDJdW0NASF0oRilbQ0gyXU4xYyhuW2NIXW4yKWMoYzIzKW5bY0hdbjNbQ0gyXVtDQEBdNChbT0hdKVtDSDJdW0NIMl1PW0NIMl00

> <s_epik_cmdline>
J2VwaWtfcHl0aG9uJywgJy1waCcsICc3LjAnLCAnLXRuJywgJzgnLCAnLW1hJywgJzIwMCcsICctbWV0YWxfYmluZGluZycsICctaW1hZScsICc8aW5maWxlLm1hZT4nLCAnLW9tYWUnLCAnPG91dGZpbGUubWFlPic=

> <r_lp_tautomer_probability>
1

> <r_epik_Ionization_Penalty>
0.0058098

> <r_epik_Ionization_Penalty_Charging>
0

> <r_epik_Ionization_Penalty_Neutral>
0.0058098

> <r_epik_State_Penalty>
0.00411166

> <r_epik_Charging_Adjusted_Penalty>
0.00411166

> <i_epik_Tot_Q>
0

> <i_epik_Tot_abs_Q>
0

> <r_epik_Metal_State_Penalty>
-0

> <b_epik_Metal_Only>
0

> <s_lp_Force_Field>
OPLS_2005

> <r_lp_Energy>
53.8685

> <b_lp_Chiralities_Consistent>
1

> <s_lp_Variant>
AV-unprocessed.smi:255-7

> <Gold.Version>
5.8.1

> <Gold.Id.Protein>
6NUR|6NUR_protein|mol2

> <Gold.PLP.Fitness>
49.8279

> <Gold.PLP.PLP>
-44.5551

> <Gold.PLP.part.hbond>
-3.9884

> <Gold.PLP.part.metal>
0.0000

> <Gold.PLP.part.buried>
-0.3482

> <Gold.PLP.part.nonpolar>
-43.2286

> <Gold.PLP.part.repulsive>
2.7701

> <Gold.PLP.ligand.clash>
0.0000

> <Gold.PLP.ligand.torsion>
0.7902

> <Gold.PLP.Chemscore.Hbond>
2.2500

> <Gold.PLP.Chemscore.CHOScore>
0.0000

> <Gold.PLP.Chemscore.Metal>
0.0000

> <Gold.Chemscore.Hbonds>
donor molecule, donor type, donor heavy atom, donor atom, acceptor molecule, acceptor atom, score
      L1  H    20    38       P1  7948  1.00
      P1  H  7989  7998       L1    12  0.30
      P1  H  7997  8008       L1     1  1.00

> <Gold.PLP.Chemscore.Internal.Correction>
0.1032

> <Gold.Rescore>
     Score         DG    S(hbond)    S(metal)    S(lipo)     H(rot)  DE(clash)    DE(int)     intcor
      7.66     -13.12       1.97        0.00      81.91       3.33       1.12       4.35       ----

> <Gold.Chemscore.Fitness>
7.6583

> <Gold.Chemscore.DG>
-13.1217

> <Gold.Chemscore.ZeroCoef>
-5.4800

> <Gold.Chemscore.Hbond>
1.9687

> <Gold.Chemscore.Metal>
0.0000

> <Gold.Chemscore.Lipo>
81.9149

> <Gold.Chemscore.Internal_Hbond>
0.0000

> <Gold.Chemscore.DEClash>
1.1172

> <Gold.Chemscore.DEInternal>
4.3462

> <Gold.Chemscore.Rot>
3.3273

> <Gold.Chemscore.Internal.Correction>
   9.000000E+99

> <Gold.Chemscore.Hbonds>
donor molecule, donor type, donor heavy atom, donor atom, acceptor molecule, acceptor atom, score
      L1  H    20    38       P1  7948  0.99
      P1  H  7997  8008       L1     1  0.98

> <Gold.Chemscore.Hbond.Weighted>
-6.5756

> <Gold.Chemscore.Metal.Weighted>
-0.0000

> <Gold.Chemscore.Lipo.Weighted>
-9.5840

> <Gold.Chemscore.Internal_Hbond.Weighted>
0.0000

> <Gold.Chemscore.DEClash.Weighted>
1.1172

> <Gold.Chemscore.DEInternal.Weighted>
4.3462

> <Gold.Chemscore.Rot.Weighted>
8.5179

> <Gold.Chemscore.Internal.Correction.Weighted>
   9.000000E+99

> <Gold.Protein.RotatedTorsions>
[ 6907 6896 6895 6894 ] final  -44.68 input  -60.11 | X-H torsion
[ 7974 7965 7964 7962 ] final   76.50 input  175.53 | X-H torsion
[ 8008 7997 7996 7995 ] final  -83.11 input   59.86 | X-H torsion
[ 10167 10162 10161 10158 ] final  111.35 input  -65.29 | X-H torsion
[ 10718 10713 10712 10709 ] final  -65.11 input   66.30 | X-H torsion
[ 10763 10752 10751 10750 ] final -157.94 input  -60.55 | X-H torsion
[ 11005 11000 10999 10996 ] final -114.90 input  -57.11 | X-H torsion

> <Gold.Protein.ActiveResidues>
 VAL166  LYS551  ARG553  GLY616  TRP617  ASP618  TYR619  PRO620  LYS621  CYS622 
 ASP623  PHE694  ASN695  SER759  ASP760  ASP761  ALA762  ILE779  LEU786  VAL792 
 PHE793  MET794  SER795  GLU796  ALA797  LYS798  CYS799  TRP800  GLU811  SER814 

> <Gold.Protein.RotatedAtoms>
  150.9302  134.8717  159.7545 H   0  0  0  0  0  0  0  0  0  0  0  0  # atno 6907 bound_to 6896
  152.5034  134.4090  159.9452 H   0  0  0  0  0  0  0  0  0  0  0  0  # atno 6908 bound_to 6896
  151.4118  133.3685  159.2780 H   0  0  0  0  0  0  0  0  0  0  0  0  # atno 6909 bound_to 6896
  145.7021  139.2586  143.1699 H   0  0  0  0  0  0  0  0  0  0  0  0  # atno 7974 bound_to 7965
  154.6157  140.0623  156.9551 H   0  0  0  0  0  0  0  0  0  0  0  0  # atno 8008 bound_to 7997
  155.1900  140.3306  155.4342 H   0  0  0  0  0  0  0  0  0  0  0  0  # atno 8009 bound_to 7997
  156.2403  140.1883  156.6991 H   0  0  0  0  0  0  0  0  0  0  0  0  # atno 8010 bound_to 7997
  139.6618  144.7128  151.1851 H   0  0  0  0  0  0  0  0  0  0  0  0  # atno 10167 bound_to 10162
  156.0689  130.4242  150.1516 H   0  0  0  0  0  0  0  0  0  0  0  0  # atno 10718 bound_to 10713
  154.7596  135.3114  154.8404 H   0  0  0  0  0  0  0  0  0  0  0  0  # atno 10763 bound_to 10752
  153.9168  135.6800  153.4753 H   0  0  0  0  0  0  0  0  0  0  0  0  # atno 10764 bound_to 10752
  153.1196  135.4829  154.9104 H   0  0  0  0  0  0  0  0  0  0  0  0  # atno 10765 bound_to 10752
  141.0522  133.9669  157.2816 H   0  0  0  0  0  0  0  0  0  0  0  0  # atno 11005 bound_to 11000
  146.0788  140.7787  142.9651 LP  0  0  0  0  0  0  0  0  0  0  0  0  # atno 17320 bound_to 7965
  144.6965  140.3457  143.7191 LP  0  0  0  0  0  0  0  0  0  0  0  0  # atno 17321 bound_to 7965
  140.7583  143.5983  150.8726 LP  0  0  0  0  0  0  0  0  0  0  0  0  # atno 17342 bound_to 10162
  139.9641  143.6131  152.2993 LP  0  0  0  0  0  0  0  0  0  0  0  0  # atno 17343 bound_to 10162
  156.9571  130.9793  151.3486 LP  0  0  0  0  0  0  0  0  0  0  0  0  # atno 17370 bound_to 10713
  157.5748  130.8335  149.8440 LP  0  0  0  0  0  0  0  0  0  0  0  0  # atno 17371 bound_to 10713
  139.9360  135.0196  156.8557 LP  0  0  0  0  0  0  0  0  0  0  0  0  # atno 17394 bound_to 11000
  140.6033  134.0151  155.7546 LP  0  0  0  0  0  0  0  0  0  0  0  0  # atno 17395 bound_to 11000

$$$$
