AV-unprocessed.smi:2480|AV-procd|sdf|9769|dock6
  -GOLD-   2272013413D 1   1.00000     0.00000
 Structure written by MMmdl.
 33 34  0  0  0  0  0  0  0  0  3 V2000
  152.9350  139.9329  158.7136 O   0  0  0  0  0  0  0  0  0  0  0  0
  152.0122  140.4762  158.1105 C   0  0  0  0  0  0  0  0  0  0  0  0
  151.1586  139.8470  157.2791 N   0  0  0  0  0  0  0  0  0  0  0  0
  151.0722  138.4652  156.9456 C   0  0  0  0  0  0  0  0  0  0  0  0
  151.4273  137.4405  157.8569 C   0  0  0  0  0  0  0  0  0  0  0  0
  151.3052  136.0972  157.4551 C   0  0  0  0  0  0  0  0  0  0  0  0
  150.8707  135.7257  156.2350 N   0  0  0  0  0  0  0  0  0  0  0  0
  150.5500  136.7002  155.3594 C   0  0  0  0  0  0  0  0  0  0  0  0
  150.6402  138.0817  155.6459 C   0  0  0  0  0  0  0  0  0  0  0  0
  150.2731  139.0587  154.6029 N   0  3  0  0  0  0  0  0  0  0  0  0
  149.4462  138.7351  153.7562 O   0  0  0  0  0  0  0  0  0  0  0  0
  150.8002  140.1648  154.6527 O   0  5  0  0  0  0  0  0  0  0  0  0
  151.7739  141.7945  158.2453 N   0  0  0  0  0  0  0  0  0  0  0  0
  152.4979  142.7738  159.0600 C   0  0  2  0  0  0  0  0  0  0  0  0
  152.5837  142.3130  160.5100 C   0  0  0  0  0  0  0  0  0  0  0  0
  152.3599  143.1172  161.5632 C   0  0  0  0  0  0  0  0  0  0  0  0
  152.0057  144.5868  161.4336 C   0  0  0  0  0  0  0  0  0  0  0  0
  152.2925  145.1277  160.0218 C   0  0  0  0  0  0  0  0  0  0  0  0
  151.8143  144.1523  158.9356 C   0  0  0  0  0  0  0  0  0  0  0  0
  150.4165  140.4221  156.9069 H   0  0  0  0  0  0  0  0  0  0  0  0
  151.7961  137.6549  158.8477 H   0  0  0  0  0  0  0  0  0  0  0  0
  151.5673  135.2985  158.1334 H   0  0  0  0  0  0  0  0  0  0  0  0
  150.2193  136.3615  154.3885 H   0  0  0  0  0  0  0  0  0  0  0  0
  151.0127  142.1673  157.6962 H   0  0  0  0  0  0  0  0  0  0  0  0
  153.5211  142.8762  158.6946 H   0  0  0  0  0  0  0  0  0  0  0  0
  152.8410  141.2778  160.6815 H   0  0  0  0  0  0  0  0  0  0  0  0
  152.4178  142.7174  162.5649 H   0  0  0  0  0  0  0  0  0  0  0  0
  150.9485  144.7026  161.6749 H   0  0  0  0  0  0  0  0  0  0  0  0
  152.5661  145.1604  162.1724 H   0  0  0  0  0  0  0  0  0  0  0  0
  151.8191  146.1013  159.8928 H   0  0  0  0  0  0  0  0  0  0  0  0
  153.3650  145.2900  159.9067 H   0  0  0  0  0  0  0  0  0  0  0  0
  151.9993  144.5715  157.9460 H   0  0  0  0  0  0  0  0  0  0  0  0
  150.7324  144.0399  159.0232 H   0  0  0  0  0  0  0  0  0  0  0  0
  1  2  2  0  0  0  0
  2  3  1  0  0  0  0
  2 13  1  0  0  0  0
  3  4  1  0  0  0  0
  3 20  1  0  0  0  0
  4  9  1  0  0  0  0
  4  5  2  0  0  0  0
  5  6  1  0  0  0  0
  5 21  1  0  0  0  0
  6  7  2  0  0  0  0
  6 22  1  0  0  0  0
  7  8  1  0  0  0  0
  8  9  2  0  0  0  0
  8 23  1  0  0  0  0
  9 10  1  0  0  0  0
 10 11  2  0  0  0  0
 10 12  1  0  0  0  0
 13 14  1  0  0  0  0
 13 24  1  0  0  0  0
 14 19  1  0  0  0  0
 14 15  1  0  0  0  0
 14 25  1  0  0  0  0
 15 16  2  0  0  0  0
 15 26  1  0  0  0  0
 16 17  1  0  0  0  0
 16 27  1  0  0  0  0
 17 18  1  0  0  0  0
 17 28  1  0  0  0  0
 17 29  1  0  0  0  0
 18 19  1  0  0  0  0
 18 30  1  0  0  0  0
 18 31  1  0  0  0  0
 19 32  1  0  0  0  0
 19 33  1  0  0  0  0
M  CHG  1  10   1
M  CHG  1  12  -1
M  END
> <s_m_source_file>
AV-unprocessed.smi

> <i_m_source_file_index>
2480

> <i_lp_mmshare_version>
43012

> <i_f3d_flags>
0

> <s_epik_input>
W0NIMl0xW0NIMl1bQ0gyXVtDSF09W0NIXVtDQEhdMVtOSF1DKD1PKVtOSF1jMltjSF1bY0hdbltjSF1jMltOK10oPU8pW08tXQ==

> <s_epik_cmdline>
J2VwaWtfcHl0aG9uJywgJy1waCcsICc3LjAnLCAnLXRuJywgJzgnLCAnLW1hJywgJzIwMCcsICctbWV0YWxfYmluZGluZycsICctaW1hZScsICc8aW5maWxlLm1hZT4nLCAnLW9tYWUnLCAnPG91dGZpbGUubWFlPic=

> <r_lp_tautomer_probability>
1

> <r_epik_Ionization_Penalty>
0.000149203

> <r_epik_Ionization_Penalty_Charging>
0

> <r_epik_Ionization_Penalty_Neutral>
0.000149203

> <r_epik_State_Penalty>
-0

> <r_epik_Charging_Adjusted_Penalty>
0

> <i_epik_Tot_Q>
0

> <i_epik_Tot_abs_Q>
2

> <r_epik_Metal_State_Penalty>
-0

> <b_epik_Metal_Only>
0

> <s_lp_Force_Field>
OPLS_2005

> <r_lp_Energy>
27.2011

> <b_lp_Chiralities_Consistent>
1

> <s_lp_Variant>
AV-unprocessed.smi:2480-1

> <Gold.Version>
5.8.1

> <Gold.Id.Protein>
6NUR|6NUR_protein|mol2

> <Gold.PLP.Fitness>
46.3589

> <Gold.PLP.PLP>
-35.5215

> <Gold.PLP.part.hbond>
-3.0000

> <Gold.PLP.part.metal>
0.0000

> <Gold.PLP.part.buried>
-4.6858

> <Gold.PLP.part.nonpolar>
-28.6315

> <Gold.PLP.part.repulsive>
1.9385

> <Gold.PLP.ligand.clash>
0.0000

> <Gold.PLP.ligand.torsion>
0.5505

> <Gold.PLP.Chemscore.Hbond>
2.9920

> <Gold.PLP.Chemscore.CHOScore>
0.9847

> <Gold.PLP.Chemscore.Metal>
0.0000

> <Gold.Chemscore.Hbonds>
donor molecule, donor type, donor heavy atom, donor atom, acceptor molecule, acceptor atom, score
      P1  H  7989  7998       L1    12  1.00
      P1  H  7997  8008       L1     1  0.15
      L1  C     8    23       P1  7948  0.33

> <Gold.PLP.Chemscore.Internal.Correction>
0.0085

> <Gold.Rescore>
     Score         DG    S(hbond)    S(metal)    S(lipo)     H(rot)  DE(clash)    DE(int)     intcor
     17.18     -20.49       1.90        0.00      96.00       1.00       0.35       2.96       ----

> <Gold.Chemscore.Fitness>
17.1794

> <Gold.Chemscore.DG>
-20.4891

> <Gold.Chemscore.ZeroCoef>
-5.4800

> <Gold.Chemscore.Hbond>
1.8974

> <Gold.Chemscore.Metal>
0.0000

> <Gold.Chemscore.Lipo>
95.9966

> <Gold.Chemscore.Internal_Hbond>
0.0000

> <Gold.Chemscore.DEClash>
0.3504

> <Gold.Chemscore.DEInternal>
2.9593

> <Gold.Chemscore.Rot>
1.0000

> <Gold.Chemscore.Internal.Correction>
   9.000000E+99

> <Gold.Chemscore.Hbonds>
donor molecule, donor type, donor heavy atom, donor atom, acceptor molecule, acceptor atom, score
      P1  H  7989  7998       L1    12  0.98
      P1  H  7997  8008       L1     1  0.03

> <Gold.Chemscore.Hbond.Weighted>
-6.3375

> <Gold.Chemscore.Metal.Weighted>
-0.0000

> <Gold.Chemscore.Lipo.Weighted>
-11.2316

> <Gold.Chemscore.Internal_Hbond.Weighted>
0.0000

> <Gold.Chemscore.DEClash.Weighted>
0.3504

> <Gold.Chemscore.DEInternal.Weighted>
2.9593

> <Gold.Chemscore.Rot.Weighted>
2.5600

> <Gold.Chemscore.Internal.Correction.Weighted>
   9.000000E+99

> <Gold.Protein.RotatedTorsions>
[ 6907 6896 6895 6894 ] final  -71.26 input  -60.11 | X-H torsion
[ 7974 7965 7964 7962 ] final -142.99 input  175.53 | X-H torsion
[ 8008 7997 7996 7995 ] final  -82.83 input   59.86 | X-H torsion
[ 10167 10162 10161 10158 ] final   -4.56 input  -65.29 | X-H torsion
[ 10718 10713 10712 10709 ] final -165.96 input   66.30 | X-H torsion
[ 10763 10752 10751 10750 ] final  -67.57 input  -60.55 | X-H torsion
[ 11005 11000 10999 10996 ] final  167.15 input  -57.11 | X-H torsion

> <Gold.Protein.ActiveResidues>
 VAL166  LYS551  ARG553  GLY616  TRP617  ASP618  TYR619  PRO620  LYS621  CYS622 
 ASP623  PHE694  ASN695  SER759  ASP760  ASP761  ALA762  ILE779  LEU786  VAL792 
 PHE793  MET794  SER795  GLU796  ALA797  LYS798  CYS799  TRP800  GLU811  SER814 

> <Gold.Protein.RotatedAtoms>
  150.7220  134.5334  159.5711 H   0  0  0  0  0  0  0  0  0  0  0  0  # atno 6907 bound_to 6896
  152.2861  134.7771  160.0396 H   0  0  0  0  0  0  0  0  0  0  0  0  # atno 6908 bound_to 6896
  151.8400  133.3387  159.3677 H   0  0  0  0  0  0  0  0  0  0  0  0  # atno 6909 bound_to 6896
  144.8402  140.5889  143.5457 H   0  0  0  0  0  0  0  0  0  0  0  0  # atno 7974 bound_to 7965
  154.6127  140.0627  156.9514 H   0  0  0  0  0  0  0  0  0  0  0  0  # atno 8008 bound_to 7997
  155.1947  140.3310  155.4334 H   0  0  0  0  0  0  0  0  0  0  0  0  # atno 8009 bound_to 7997
  156.2386  140.1875  156.7035 H   0  0  0  0  0  0  0  0  0  0  0  0  # atno 8010 bound_to 7997
  140.6932  143.6409  150.8436 H   0  0  0  0  0  0  0  0  0  0  0  0  # atno 10167 bound_to 10162
  156.6610  130.9046  151.3029 H   0  0  0  0  0  0  0  0  0  0  0  0  # atno 10718 bound_to 10713
  154.3764  135.6084  153.5767 H   0  0  0  0  0  0  0  0  0  0  0  0  # atno 10763 bound_to 10752
  152.9789  135.5850  154.4461 H   0  0  0  0  0  0  0  0  0  0  0  0  # atno 10764 bound_to 10752
  154.4223  135.2846  155.1945 H   0  0  0  0  0  0  0  0  0  0  0  0  # atno 10765 bound_to 10752
  140.2738  134.7805  157.3699 H   0  0  0  0  0  0  0  0  0  0  0  0  # atno 11005 bound_to 11000
  145.4710  139.1503  143.3814 LP  0  0  0  0  0  0  0  0  0  0  0  0  # atno 17320 bound_to 7965
  146.2695  140.4843  142.8820 LP  0  0  0  0  0  0  0  0  0  0  0  0  # atno 17321 bound_to 7965
  140.0125  143.5628  152.2833 LP  0  0  0  0  0  0  0  0  0  0  0  0  # atno 17342 bound_to 10162
  139.6357  144.7649  151.2444 LP  0  0  0  0  0  0  0  0  0  0  0  0  # atno 17343 bound_to 10162
  157.7110  130.9440  150.1088 LP  0  0  0  0  0  0  0  0  0  0  0  0  # atno 17370 bound_to 10713
  156.2011  130.3660  149.8787 LP  0  0  0  0  0  0  0  0  0  0  0  0  # atno 17371 bound_to 10713
  140.1348  134.5049  155.8077 LP  0  0  0  0  0  0  0  0  0  0  0  0  # atno 17394 bound_to 11000
  141.2173  133.6803  156.7104 LP  0  0  0  0  0  0  0  0  0  0  0  0  # atno 17395 bound_to 11000

$$$$
