AV-unprocessed.smi:2079|AV-procd|sdf|8479|dock8
  -GOLD-   2272011183D 1   1.00000     0.00000
 Structure written by MMmdl.
 41 42  0  0  0  0  0  0  0  0  3 V2000
  152.0463  140.4359  159.1472 C   0  0  0  0  0  0  0  0  0  0  0  0
  151.7870  140.2292  157.6941 C   0  0  0  0  0  0  0  0  0  0  0  0
  150.7044  140.4803  156.8999 C   0  0  0  0  0  0  0  0  0  0  0  0
  151.1359  140.0481  155.6162 C   0  0  0  0  0  0  0  0  0  0  0  0
  150.4090  140.0800  154.4885 N   0  5  0  0  0  0  0  0  0  0  0  0
  149.0791  139.8368  154.5293 C   0  0  0  0  0  0  0  0  0  0  0  0
  148.3522  139.8968  155.5238 O   0  0  0  0  0  0  0  0  0  0  0  0
  148.5564  139.5013  153.3427 N   0  0  0  0  0  0  0  0  0  0  0  0
  147.1525  139.1964  153.1049 C   0  0  0  0  0  0  0  0  0  0  0  0
  146.7369  137.9358  153.8821 C   0  0  0  0  0  0  0  0  0  0  0  0
  146.5847  136.7469  152.9954 N   0  3  2  0  0  0  0  0  0  0  0  0
  145.5772  136.9992  151.9246 C   0  0  0  0  0  0  0  0  0  0  0  0
  145.5117  135.8489  150.9113 C   0  0  0  0  0  0  0  0  0  0  0  0
  145.1852  134.5344  151.6194 C   0  0  0  0  0  0  0  0  0  0  0  0
  146.2201  134.2821  152.7185 C   0  0  0  0  0  0  0  0  0  0  0  0
  146.3153  135.4589  153.7168 C   0  0  1  0  0  0  0  0  0  0  0  0
  147.3900  135.1121  154.7696 C   0  0  0  0  0  0  0  0  0  0  0  0
  152.3654  139.5610  155.6334 N   0  0  0  0  0  0  0  0  0  0  0  0
  152.7927  139.6798  156.9613 O   0  0  0  0  0  0  0  0  0  0  0  0
  151.6077  139.6295  159.7349 H   0  0  0  0  0  0  0  0  0  0  0  0
  151.6132  141.3768  159.4866 H   0  0  0  0  0  0  0  0  0  0  0  0
  153.1162  140.4633  159.3545 H   0  0  0  0  0  0  0  0  0  0  0  0
  149.7562  140.9082  157.1895 H   0  0  0  0  0  0  0  0  0  0  0  0
  149.1824  139.4623  152.5514 H   0  0  0  0  0  0  0  0  0  0  0  0
  146.5610  140.0626  153.4000 H   0  0  0  0  0  0  0  0  0  0  0  0
  146.9948  139.0447  152.0358 H   0  0  0  0  0  0  0  0  0  0  0  0
  147.5057  137.7746  154.6330 H   0  0  0  0  0  0  0  0  0  0  0  0
  145.8104  138.1074  154.4324 H   0  0  0  0  0  0  0  0  0  0  0  0
  144.5962  137.1492  152.3783 H   0  0  0  0  0  0  0  0  0  0  0  0
  145.8100  137.9137  151.3819 H   0  0  0  0  0  0  0  0  0  0  0  0
  144.7561  136.0613  150.1543 H   0  0  0  0  0  0  0  0  0  0  0  0
  146.4639  135.7635  150.3858 H   0  0  0  0  0  0  0  0  0  0  0  0
  144.1847  134.5803  152.0511 H   0  0  0  0  0  0  0  0  0  0  0  0
  145.1829  133.7102  150.9054 H   0  0  0  0  0  0  0  0  0  0  0  0
  145.9628  133.3626  153.2460 H   0  0  0  0  0  0  0  0  0  0  0  0
  147.1955  134.1089  152.2609 H   0  0  0  0  0  0  0  0  0  0  0  0
  145.3555  135.5529  154.2276 H   0  0  0  0  0  0  0  0  0  0  0  0
  147.2655  134.0905  155.1300 H   0  0  0  0  0  0  0  0  0  0  0  0
  147.3326  135.7457  155.6536 H   0  0  0  0  0  0  0  0  0  0  0  0
  148.3955  135.1911  154.3548 H   0  0  0  0  0  0  0  0  0  0  0  0
  147.4759  136.6244  152.5362 H   0  0  0  0  0  0  0  0  0  0  0  0
  1  2  1  0  0  0  0
  1 20  1  0  0  0  0
  1 21  1  0  0  0  0
  1 22  1  0  0  0  0
  2 19  1  0  0  0  0
  2  3  2  0  0  0  0
  3  4  1  0  0  0  0
  3 23  1  0  0  0  0
  4  5  1  0  0  0  0
  4 18  2  0  0  0  0
  5  6  1  0  0  0  0
  6  7  2  0  0  0  0
  6  8  1  0  0  0  0
  8  9  1  0  0  0  0
  8 24  1  0  0  0  0
  9 10  1  0  0  0  0
  9 25  1  0  0  0  0
  9 26  1  0  0  0  0
 10 11  1  0  0  0  0
 10 27  1  0  0  0  0
 10 28  1  0  0  0  0
 11 16  1  0  0  0  0
 11 12  1  0  0  0  0
 11 41  1  0  0  0  0
 12 13  1  0  0  0  0
 12 29  1  0  0  0  0
 12 30  1  0  0  0  0
 13 14  1  0  0  0  0
 13 31  1  0  0  0  0
 13 32  1  0  0  0  0
 14 15  1  0  0  0  0
 14 33  1  0  0  0  0
 14 34  1  0  0  0  0
 15 16  1  0  0  0  0
 15 35  1  0  0  0  0
 15 36  1  0  0  0  0
 16 17  1  0  0  0  0
 16 37  1  0  0  0  0
 17 38  1  0  0  0  0
 17 39  1  0  0  0  0
 17 40  1  0  0  0  0
 18 19  1  0  0  0  0
M  CHG  1   5  -1
M  CHG  1  11   1
M  END
> <s_m_source_file>
AV-unprocessed.smi

> <i_m_source_file_index>
2079

> <i_lp_mmshare_version>
43012

> <i_f3d_flags>
0

> <s_epik_input>
W0NIM11jMVtjSF1jKG5vMSlbTkhdQyg9TylbTkhdW0NIMl1bQ0gyXU4yW0NIMl1bQ0gyXVtDSDJdW0NIMl1bQ0BIXTJbQ0gzXQ==

> <s_epik_cmdline>
J2VwaWtfcHl0aG9uJywgJy1waCcsICc3LjAnLCAnLXRuJywgJzgnLCAnLW1hJywgJzIwMCcsICctbWV0YWxfYmluZGluZycsICctaW1hZScsICc8aW5maWxlLm1hZT4nLCAnLW9tYWUnLCAnPG91dGZpbGUubWFlPic=

> <r_epik_Ionization_Penalty>
6.22371

> <r_epik_Ionization_Penalty_Charging>
6.22362

> <r_epik_Ionization_Penalty_Neutral>
9.40454e-05

> <r_epik_State_Penalty>
6.22363

> <r_epik_Charging_Adjusted_Penalty>
12.4472

> <i_epik_Tot_Q>
0

> <i_epik_Tot_abs_Q>
2

> <r_epik_Metal_State_Penalty>
2.16675

> <b_epik_Metal_Only>
1

> <s_lp_Force_Field>
OPLS_2005

> <r_lp_Energy>
9.22117

> <b_lp_Chiralities_Consistent>
1

> <s_lp_Variant>
AV-unprocessed.smi:2079-5

> <Gold.Version>
5.8.1

> <Gold.Id.Protein>
6NUR|6NUR_protein|mol2

> <Gold.PLP.Fitness>
42.5178

> <Gold.PLP.PLP>
-29.3301

> <Gold.PLP.part.hbond>
-4.5147

> <Gold.PLP.part.metal>
0.0000

> <Gold.PLP.part.buried>
-4.1479

> <Gold.PLP.part.nonpolar>
-21.1820

> <Gold.PLP.part.repulsive>
0.2464

> <Gold.PLP.ligand.clash>
0.0000

> <Gold.PLP.ligand.torsion>
0.6891

> <Gold.PLP.Chemscore.Hbond>
4.8420

> <Gold.PLP.Chemscore.CHOScore>
0.0000

> <Gold.PLP.Chemscore.Metal>
0.0000

> <Gold.Chemscore.Hbonds>
donor molecule, donor type, donor heavy atom, donor atom, acceptor molecule, acceptor atom, score
      L1  H     8    24       P1  7957  0.98
      L1  H    11    41       P1  7948  2.00
      P1  H  7989  7998       L1     5  0.85
      P1  H  7997  8010       L1    19  1.00

> <Gold.PLP.Chemscore.Internal.Correction>
0.0398

> <Gold.Rescore>
     Score         DG    S(hbond)    S(metal)    S(lipo)     H(rot)  DE(clash)    DE(int)     intcor
     15.12     -17.29       2.91        0.00      51.53       1.54       0.02       2.15       ----

> <Gold.Chemscore.Fitness>
15.1233

> <Gold.Chemscore.DG>
-17.2886

> <Gold.Chemscore.ZeroCoef>
-5.4800

> <Gold.Chemscore.Hbond>
2.9115

> <Gold.Chemscore.Metal>
0.0000

> <Gold.Chemscore.Lipo>
51.5291

> <Gold.Chemscore.Internal_Hbond>
0.0000

> <Gold.Chemscore.DEClash>
0.0170

> <Gold.Chemscore.DEInternal>
2.1483

> <Gold.Chemscore.Rot>
1.5409

> <Gold.Chemscore.Internal.Correction>
   9.000000E+99

> <Gold.Chemscore.Hbonds>
donor molecule, donor type, donor heavy atom, donor atom, acceptor molecule, acceptor atom, score
      L1  H     8    24       P1  7957  0.90
      L1  H    11    41       P1  7948  1.00
      P1  H  7989  7998       L1     5  0.15
      P1  H  7997  8010       L1    19  0.30

> <Gold.Chemscore.Hbond.Weighted>
-9.7243

> <Gold.Chemscore.Metal.Weighted>
-0.0000

> <Gold.Chemscore.Lipo.Weighted>
-6.0289

> <Gold.Chemscore.Internal_Hbond.Weighted>
0.0000

> <Gold.Chemscore.DEClash.Weighted>
0.0170

> <Gold.Chemscore.DEInternal.Weighted>
2.1483

> <Gold.Chemscore.Rot.Weighted>
3.9446

> <Gold.Chemscore.Internal.Correction.Weighted>
   9.000000E+99

> <Gold.Protein.RotatedTorsions>
[ 6907 6896 6895 6894 ] final -124.07 input  -60.11 | X-H torsion
[ 7974 7965 7964 7962 ] final  -74.89 input  175.53 | X-H torsion
[ 8008 7997 7996 7995 ] final   52.83 input   59.86 | X-H torsion
[ 10167 10162 10161 10158 ] final   71.15 input  -65.29 | X-H torsion
[ 10718 10713 10712 10709 ] final  -16.27 input   66.30 | X-H torsion
[ 10763 10752 10751 10750 ] final  -36.27 input  -60.55 | X-H torsion
[ 11005 11000 10999 10996 ] final -144.77 input  -57.11 | X-H torsion

> <Gold.Protein.ActiveResidues>
 VAL166  LYS551  ARG553  GLY616  TRP617  ASP618  TYR619  PRO620  LYS621  CYS622 
 ASP623  PHE694  ASN695  SER759  ASP760  ASP761  ALA762  ILE779  LEU786  VAL792 
 PHE793  MET794  SER795  GLU796  ALA797  LYS798  CYS799  TRP800  GLU811  SER814 

> <Gold.Protein.RotatedAtoms>
  150.8732  133.7476  159.2954 H   0  0  0  0  0  0  0  0  0  0  0  0  # atno 6907 bound_to 6896
  151.5081  135.1062  159.9856 H   0  0  0  0  0  0  0  0  0  0  0  0  # atno 6908 bound_to 6896
  152.4710  133.7984  159.6995 H   0  0  0  0  0  0  0  0  0  0  0  0  # atno 6909 bound_to 6896
  145.6332  140.9332  143.1076 H   0  0  0  0  0  0  0  0  0  0  0  0  # atno 7974 bound_to 7965
  155.4583  140.3461  155.4309 H   0  0  0  0  0  0  0  0  0  0  0  0  # atno 8008 bound_to 7997
  156.1177  140.1478  156.9279 H   0  0  0  0  0  0  0  0  0  0  0  0  # atno 8009 bound_to 7997
  154.4801  140.0872  156.7335 H   0  0  0  0  0  0  0  0  0  0  0  0  # atno 8010 bound_to 7997
  140.0492  144.5326  150.7376 H   0  0  0  0  0  0  0  0  0  0  0  0  # atno 10167 bound_to 10162
  156.5900  130.4796  149.6283 H   0  0  0  0  0  0  0  0  0  0  0  0  # atno 10718 bound_to 10713
  153.8769  135.6825  153.4770 H   0  0  0  0  0  0  0  0  0  0  0  0  # atno 10763 bound_to 10752
  153.1255  135.4720  154.9264 H   0  0  0  0  0  0  0  0  0  0  0  0  # atno 10764 bound_to 10752
  154.7687  135.3232  154.8184 H   0  0  0  0  0  0  0  0  0  0  0  0  # atno 10765 bound_to 10752
  140.7991  134.2878  157.4985 H   0  0  0  0  0  0  0  0  0  0  0  0  # atno 11005 bound_to 11000
  144.7186  139.8110  143.7390 LP  0  0  0  0  0  0  0  0  0  0  0  0  # atno 17320 bound_to 7965
  146.1340  139.4382  143.0151 LP  0  0  0  0  0  0  0  0  0  0  0  0  # atno 17321 bound_to 7965
  140.7225  143.2602  151.4232 LP  0  0  0  0  0  0  0  0  0  0  0  0  # atno 17342 bound_to 10162
  139.5964  144.1389  152.2148 LP  0  0  0  0  0  0  0  0  0  0  0  0  # atno 17343 bound_to 10162
  156.2558  130.6934  151.1686 LP  0  0  0  0  0  0  0  0  0  0  0  0  # atno 17370 bound_to 10713
  157.7306  131.0615  150.5719 LP  0  0  0  0  0  0  0  0  0  0  0  0  # atno 17371 bound_to 10713
  139.8723  134.9419  156.3809 LP  0  0  0  0  0  0  0  0  0  0  0  0  # atno 17394 bound_to 11000
  140.9313  133.7577  156.0028 LP  0  0  0  0  0  0  0  0  0  0  0  0  # atno 17395 bound_to 11000

$$$$
