AV-unprocessed.smi:160|AV-procd|sdf|1349|dock3
  -GOLD-   2262019 53D 1   1.00000     0.00000
 Structure written by MMmdl.
 29 30  0  0  0  0  0  0  0  0  1 V2000
  153.9912  137.3341  157.9234 N   0  0  0  0  0  0  0  0  0  0  0  0
  153.5354  136.6159  156.8915 C   0  0  0  0  0  0  0  0  0  0  0  0
  153.7430  135.4081  156.7868 O   0  0  0  0  0  0  0  0  0  0  0  0
  152.7519  137.3697  155.8528 C   0  0  0  0  0  0  0  0  0  0  0  0
  152.2550  136.7400  154.7476 N   0  0  0  0  0  0  0  0  0  0  0  0
  151.6783  137.7795  154.1582 C   0  0  0  0  0  0  0  0  0  0  0  0
  151.7877  138.9274  154.8350 N   0  0  0  0  0  0  0  0  0  0  0  0
  151.3072  140.2999  154.4579 C   0  0  2  0  0  0  0  0  0  0  0  0
  151.7299  141.1949  155.4359 O   0  0  0  0  0  0  0  0  0  0  0  0
  150.7641  141.2551  156.4778 C   0  0  1  0  0  0  0  0  0  0  0  0
  150.8915  142.5915  157.2251 C   0  0  0  0  0  0  0  0  0  0  0  0
  150.6546  143.6675  156.3423 O   0  0  0  0  0  0  0  0  0  0  0  0
  149.4247  141.0968  155.7358 C   0  0  2  0  0  0  0  0  0  0  0  0
  148.5434  140.3006  156.5028 O   0  0  0  0  0  0  0  0  0  0  0  0
  149.7729  140.3882  154.4219 C   0  0  1  0  0  0  0  0  0  0  0  0
  149.3345  141.1477  153.3133 O   0  0  0  0  0  0  0  0  0  0  0  0
  152.5098  138.6771  155.9574 N   0  0  0  0  0  0  0  0  0  0  0  0
  151.7892  140.4946  153.4987 H   0  0  0  0  0  0  0  0  0  0  0  0
  150.9209  140.4196  157.1622 H   0  0  0  0  0  0  0  0  0  0  0  0
  148.9681  142.0697  155.5464 H   0  0  0  0  0  0  0  0  0  0  0  0
  149.3320  139.3938  154.3362 H   0  0  0  0  0  0  0  0  0  0  0  0
  154.5258  136.8854  158.6525 H   0  0  0  0  0  0  0  0  0  0  0  0
  153.7981  138.3244  157.9648 H   0  0  0  0  0  0  0  0  0  0  0  0
  151.1660  137.7035  153.2103 H   0  0  0  0  0  0  0  0  0  0  0  0
  150.2093  142.6383  158.0745 H   0  0  0  0  0  0  0  0  0  0  0  0
  151.9033  142.7072  157.6149 H   0  0  0  0  0  0  0  0  0  0  0  0
  149.7289  143.8576  156.3419 H   0  0  0  0  0  0  0  0  0  0  0  0
  147.7774  140.8155  156.7063 H   0  0  0  0  0  0  0  0  0  0  0  0
  149.3308  140.5904  152.5503 H   0  0  0  0  0  0  0  0  0  0  0  0
  1  2  1  0  0  0  0
  1 22  1  0  0  0  0
  1 23  1  0  0  0  0
  2  3  2  0  0  0  0
  2  4  1  0  0  0  0
  4 17  2  0  0  0  0
  4  5  1  0  0  0  0
  5  6  2  0  0  0  0
  6  7  1  0  0  0  0
  6 24  1  0  0  0  0
  7  8  1  0  0  0  0
  7 17  1  0  0  0  0
  8 18  1  0  0  0  0
  8 15  1  0  0  0  0
  8  9  1  0  0  0  0
  9 10  1  0  0  0  0
 10 19  1  0  0  0  0
 10 11  1  0  0  0  0
 10 13  1  0  0  0  0
 11 12  1  0  0  0  0
 11 25  1  0  0  0  0
 11 26  1  0  0  0  0
 12 27  1  0  0  0  0
 13 20  1  0  0  0  0
 13 14  1  0  0  0  0
 13 15  1  0  0  0  0
 14 28  1  0  0  0  0
 15 21  1  0  0  0  0
 15 16  1  0  0  0  0
 16 29  1  0  0  0  0
M  END
> <s_m_source_file>
AV-unprocessed.smi

> <i_m_source_file_index>
160

> <i_lp_mmshare_version>
43012

> <i_f3d_flags>
0

> <s_epik_input>
W05IMl1DKD1PKWMxbltjSF1uKG4xKVtDQEBIXTJPW0NASF0oW0NIMl1bT0hdKVtDQEBIXShbT0hdKVtDQEhdMltPSF0=

> <s_epik_cmdline>
J2VwaWtfcHl0aG9uJywgJy1waCcsICc3LjAnLCAnLXRuJywgJzgnLCAnLW1hJywgJzIwMCcsICctbWV0YWxfYmluZGluZycsICctaW1hZScsICc8aW5maWxlLm1hZT4nLCAnLW9tYWUnLCAnPG91dGZpbGUubWFlPic=

> <r_lp_tautomer_probability>
1

> <r_epik_Ionization_Penalty>
1.06932e-05

> <r_epik_Ionization_Penalty_Charging>
0

> <r_epik_Ionization_Penalty_Neutral>
1.06932e-05

> <r_epik_State_Penalty>
-0

> <r_epik_Charging_Adjusted_Penalty>
0

> <i_epik_Tot_Q>
0

> <i_epik_Tot_abs_Q>
0

> <r_epik_Metal_State_Penalty>
0.0142097

> <b_epik_Metal_Only>
0

> <s_epik_Chemistry_Notes>
This compound contains an acetal/aminal-like group ( X-CH(R)-Y where X, Y are N, S, or O) that may be acid/base labile, releasing an aldehyde.

> <s_lp_Force_Field>
OPLS_2005

> <r_lp_Energy>
33.3091

> <b_lp_Chiralities_Consistent>
1

> <s_lp_Variant>
AV-unprocessed.smi:160-7

> <Gold.Version>
5.8.1

> <Gold.Id.Protein>
6NUR|6NUR_protein|mol2

> <Gold.PLP.Fitness>
37.7874

> <Gold.PLP.PLP>
-23.4785

> <Gold.PLP.part.hbond>
-6.8700

> <Gold.PLP.part.metal>
0.0000

> <Gold.PLP.part.buried>
1.8994

> <Gold.PLP.part.nonpolar>
-18.4630

> <Gold.PLP.part.repulsive>
0.2538

> <Gold.PLP.ligand.clash>
0.0000

> <Gold.PLP.ligand.torsion>
0.0456

> <Gold.PLP.Chemscore.Hbond>
3.6260

> <Gold.PLP.Chemscore.CHOScore>
1.1630

> <Gold.PLP.Chemscore.Metal>
0.0000

> <Gold.Chemscore.Hbonds>
donor molecule, donor type, donor heavy atom, donor atom, acceptor molecule, acceptor atom, score
      L1  H    12    27       P1  8028  0.44
      L1  H    16    29       P1  7957  0.96
      P1  H  8011  8017       L1    16  0.40
      P1  H 10752 10763       L1     5  0.46
      P1  H 10752 10764       L1     3  0.77
      L1  C     6    24       P1  7949  1.00

> <Gold.PLP.Chemscore.Internal.Correction>
0.0331

> <Gold.Rescore>
     Score         DG    S(hbond)    S(metal)    S(lipo)     H(rot)  DE(clash)    DE(int)     intcor
      3.54      -4.88       1.96        0.00      27.62       4.06       1.29       0.04       ----

> <Gold.Chemscore.Fitness>
3.5407

> <Gold.Chemscore.DG>
-4.8756

> <Gold.Chemscore.ZeroCoef>
-5.4800

> <Gold.Chemscore.Hbond>
1.9635

> <Gold.Chemscore.Metal>
0.0000

> <Gold.Chemscore.Lipo>
27.6157

> <Gold.Chemscore.Internal_Hbond>
0.0000

> <Gold.Chemscore.DEClash>
1.2927

> <Gold.Chemscore.DEInternal>
0.0422

> <Gold.Chemscore.Rot>
4.0600

> <Gold.Chemscore.Internal.Correction>
   9.000000E+99

> <Gold.Chemscore.Hbonds>
donor molecule, donor type, donor heavy atom, donor atom, acceptor molecule, acceptor atom, score
      L1  H    12    27       P1  8028  0.45
      L1  H    16    29       P1  7957  0.91
      P1  H  8011  8017       L1    16  0.01
      P1  H 10752 10763       L1     5  0.43
      P1  H 10752 10764       L1     3  0.25

> <Gold.Chemscore.Hbond.Weighted>
-6.5582

> <Gold.Chemscore.Metal.Weighted>
-0.0000

> <Gold.Chemscore.Lipo.Weighted>
-3.2310

> <Gold.Chemscore.Internal_Hbond.Weighted>
0.0000

> <Gold.Chemscore.DEClash.Weighted>
1.2927

> <Gold.Chemscore.DEInternal.Weighted>
0.0422

> <Gold.Chemscore.Rot.Weighted>
10.3936

> <Gold.Chemscore.Internal.Correction.Weighted>
   9.000000E+99

> <Gold.Protein.RotatedTorsions>
[ 6907 6896 6895 6894 ] final -147.60 input  -60.11 | X-H torsion
[ 7974 7965 7964 7962 ] final  146.29 input  175.53 | X-H torsion
[ 8008 7997 7996 7995 ] final  162.16 input   59.86 | X-H torsion
[ 10167 10162 10161 10158 ] final  -90.17 input  -65.29 | X-H torsion
[ 10718 10713 10712 10709 ] final   84.91 input   66.30 | X-H torsion
[ 10763 10752 10751 10750 ] final   43.05 input  -60.55 | X-H torsion
[ 11005 11000 10999 10996 ] final  -33.62 input  -57.11 | X-H torsion

> <Gold.Protein.ActiveResidues>
 VAL166  LYS551  ARG553  GLY616  TRP617  ASP618  TYR619  PRO620  LYS621  CYS622 
 ASP623  PHE694  ASN695  SER759  ASP760  ASP761  ALA762  ILE779  LEU786  VAL792 
 PHE793  MET794  SER795  GLU796  ALA797  LYS798  CYS799  TRP800  GLU811  SER814 

> <Gold.Protein.RotatedAtoms>
  151.1579  133.4864  159.2594 H   0  0  0  0  0  0  0  0  0  0  0  0  # atno 6907 bound_to 6896
  151.1485  135.0215  159.8667 H   0  0  0  0  0  0  0  0  0  0  0  0  # atno 6908 bound_to 6896
  152.5463  134.1465  159.8554 H   0  0  0  0  0  0  0  0  0  0  0  0  # atno 6909 bound_to 6896
  144.8683  139.5887  143.5898 H   0  0  0  0  0  0  0  0  0  0  0  0  # atno 7974 bound_to 7965
  156.2052  140.1758  156.7816 H   0  0  0  0  0  0  0  0  0  0  0  0  # atno 8008 bound_to 7997
  154.5645  140.0693  156.8900 H   0  0  0  0  0  0  0  0  0  0  0  0  # atno 8009 bound_to 7997
  155.2787  140.3347  155.4262 H   0  0  0  0  0  0  0  0  0  0  0  0  # atno 8010 bound_to 7997
  140.3576  143.2859  151.9653 H   0  0  0  0  0  0  0  0  0  0  0  0  # atno 10167 bound_to 10162
  157.6906  131.0153  150.2743 H   0  0  0  0  0  0  0  0  0  0  0  0  # atno 10718 bound_to 10713
  152.9869  135.6113  154.3048 H   0  0  0  0  0  0  0  0  0  0  0  0  # atno 10763 bound_to 10752
  154.2767  135.2778  155.2717 H   0  0  0  0  0  0  0  0  0  0  0  0  # atno 10764 bound_to 10752
  154.5074  135.5850  153.6635 H   0  0  0  0  0  0  0  0  0  0  0  0  # atno 10765 bound_to 10752
  140.9650  133.7142  156.1430 H   0  0  0  0  0  0  0  0  0  0  0  0  # atno 11005 bound_to 11000
  146.2912  139.7144  142.9160 LP  0  0  0  0  0  0  0  0  0  0  0  0  # atno 17320 bound_to 7965
  145.4179  141.0403  143.2980 LP  0  0  0  0  0  0  0  0  0  0  0  0  # atno 17321 bound_to 7965
  139.4818  144.6021  151.7586 LP  0  0  0  0  0  0  0  0  0  0  0  0  # atno 17342 bound_to 10162
  140.5159  144.0954  150.6008 LP  0  0  0  0  0  0  0  0  0  0  0  0  # atno 17343 bound_to 10162
  156.3300  130.3799  149.7499 LP  0  0  0  0  0  0  0  0  0  0  0  0  # atno 17370 bound_to 10713
  156.5042  130.8142  151.3144 LP  0  0  0  0  0  0  0  0  0  0  0  0  # atno 17371 bound_to 10713
  140.7413  134.4147  157.5554 LP  0  0  0  0  0  0  0  0  0  0  0  0  # atno 17394 bound_to 11000
  139.8891  134.8838  156.2438 LP  0  0  0  0  0  0  0  0  0  0  0  0  # atno 17395 bound_to 11000

$$$$
