#       Name:                AV-unprocessed.smi:196
#       Creating user name   scv26
#       Creation time:       Thu Mar 26 19:38:20 2020


#       File generated by GOLD software.
#

@<TRIPOS>MOLECULE
AV-unprocessed.smi:196
    56    59     1
SMALL
NO_CHARGES


@<TRIPOS>ATOM
      1 ****        -1.4518  -2.5468  -4.9307 C.3            1 S1                 0.0000
      2 ****        -2.3689  -1.5219  -4.2447 C.3            1 S1                 0.0000
      3 ****        -3.4739  -2.2362  -3.6952 O.3            1 S1                 0.0000
      4 ****        -3.9084  -1.5833  -2.5155 C.3            1 S1                 0.0000
      5 ****        -2.5970  -1.1622  -1.8707 C.3            1 S1                 0.0000
      6 ****        -1.7574  -0.7156  -3.0640 C.3            1 S1                 0.0000
      7 ****        -2.0294   0.6568  -3.2968 O.3            1 S1                 0.0000
      8 ****        -0.2294  -0.8667  -2.8418 C.3            1 S1                 0.0000
      9 ****         0.2618  -0.1346  -1.6838 N.pl3          1 S1                 0.0000
     10 ****         0.6272   1.1915  -1.6432 C.2            1 S1                 0.0000
     11 ****         1.0328   1.6211  -0.4799 N.2            1 S1                 0.0000
     12 ****         0.9575   0.5034   0.3440 C.ar           1 S1                 0.0000
     13 ****         1.2428   0.2597   1.7194 C.ar           1 S1                 0.0000
     14 ****         1.7098   1.2160   2.5682 N.pl3          1 S1                 0.0000
     15 ****         2.7247   2.1469   2.0853 C.3            1 S1                 0.0000
     16 ****         3.6652   2.3859   3.2657 C.3            1 S1                 0.0000
     17 ****         4.6562   1.4936   3.2313 F              1 S1                 0.0000
     18 ****         2.7796   2.1184   4.4773 C.3            1 S1                 0.0000
     19 ****         1.8502   0.9847   4.0132 C.3            1 S1                 0.0000
     20 ****         0.5284   0.9985   4.8065 C.2            1 S1                 0.0000
     21 ****        -0.6027   1.3220   4.1708 N.am           1 S1                 0.0000
     22 ****         0.5338   0.7104   6.0012 O.2            1 S1                 0.0000
     23 ****         1.0133  -0.9963   2.1866 N.ar           1 S1                 0.0000
     24 ****         0.5558  -1.9516   1.3728 C.ar           1 S1                 0.0000
     25 ****         0.2575  -1.8689   0.0757 N.ar           1 S1                 0.0000
     26 ****         0.4707  -0.6092  -0.4005 C.ar           1 S1                 0.0000
     27 ****         4.1157   3.3787   3.2660 H              1 S1                 0.0000
     28 ****         2.3547   0.0313   4.1799 H              1 S1                 0.0000
     29 ****        -0.5867  -2.0655  -5.3871 H              1 S1                 0.0000
     30 ****        -1.9872  -3.0707  -5.7227 H              1 S1                 0.0000
     31 ****        -1.0945  -3.2990  -4.2269 H              1 S1                 0.0000
     32 ****        -2.7576  -0.8451  -5.0082 H              1 S1                 0.0000
     33 ****        -4.5180  -0.7163  -2.7745 H              1 S1                 0.0000
     34 ****        -4.4980  -2.2462  -1.8821 H              1 S1                 0.0000
     35 ****        -2.7192  -0.3966  -1.1032 H              1 S1                 0.0000
     36 ****        -2.1449  -2.0356  -1.3997 H              1 S1                 0.0000
     37 ****        -2.9583   0.7574  -3.4383 H              1 S1                 0.0000
     38 ****         0.0365  -1.9153  -2.7070 H              1 S1                 0.0000
     39 ****         0.3186  -0.5195  -3.7188 H              1 S1                 0.0000
     40 ****         0.5747   1.8363  -2.5086 H              1 S1                 0.0000
     41 ****         3.2729   1.7754   1.2179 H              1 S1                 0.0000
     42 ****         2.2297   3.0756   1.7994 H              1 S1                 0.0000
     43 ****         3.3537   1.8551   5.3665 H              1 S1                 0.0000
     44 ****         2.2078   3.0195   4.7071 H              1 S1                 0.0000
     45 ****        -1.4763   1.3386   4.6768 H              1 S1                 0.0000
     46 ****        -0.5775   1.5512   3.1880 H              1 S1                 0.0000
     47 ****         0.4073  -2.9204   1.8264 H              1 S1                 0.0000
     48 ****        -3.1930  -3.1707  -3.4765 LP             1 S1                 0.0000
     49 ****        -4.2211  -2.2595  -4.3595 LP             1 S1                 0.0000
     50 ****        -1.5292   0.9678  -4.1049 LP             1 S1                 0.0000
     51 ****        -1.7485   1.1961  -2.5029 LP             1 S1                 0.0000
     52 ****         1.3302   2.5443  -0.2362 LP             1 S1                 0.0000
     53 ****         1.3924   0.4688   6.4534 LP             1 S1                 0.0000
     54 ****        -0.3204   0.7176   6.5211 LP             1 S1                 0.0000
     55 ****         1.1886  -1.2068   3.1483 LP             1 S1                 0.0000
     56 ****        -0.0790  -2.6319  -0.4762 LP             1 S1                 0.0000
@<TRIPOS>BOND
    1    1    2 1     
    2    1   29 1     
    3    1   30 1     
    4    1   31 1     
    5    2    6 1     
    6    2    3 1     
    7    2   32 1     
    8    3    4 1     
    9    4    5 1     
   10    4   33 1     
   11    4   34 1     
   12    5    6 1     
   13    5   35 1     
   14    5   36 1     
   15    6    7 1     
   16    6    8 1     
   17    7   37 1     
   18    8    9 1     
   19    8   38 1     
   20    8   39 1     
   21    9   26 1     
   22    9   10 1     
   23   10   11 2     
   24   10   40 1     
   25   11   12 1     
   26   12   26 ar    
   27   12   13 ar    
   28   13   14 1     
   29   13   23 ar    
   30   14   19 1     
   31   14   15 1     
   32   15   16 1     
   33   15   41 1     
   34   15   42 1     
   35   16   27 1     
   36   16   17 1     
   37   16   18 1     
   38   18   19 1     
   39   18   43 1     
   40   18   44 1     
   41   19   28 1     
   42   19   20 1     
   43   20   21 am    
   44   20   22 2     
   45   21   45 1     
   46   21   46 1     
   47   23   24 ar    
   48   24   25 ar    
   49   24   47 1     
   50   25   26 ar    
   51    3   48 1     
   52    3   49 1     
   53    7   50 1     
   54    7   51 1     
   55   11   52 1     
   56   22   53 1     
   57   22   54 1     
   58   23   55 1     
   59   25   56 1     
@<TRIPOS>SUBSTRUCTURE
      1 S1             1
@<TRIPOS>SET
LONE_PAIRS      STATIC     ATOMS    <user>   **** ""
9 48 49 50 51 52 53 54 55 56
DONOR_HYDROGENS      STATIC     ATOMS    <user>   **** ""
3 37 45 46
ATOM$BLUE        STATIC     ATOMS    COLORGROUP SYSTEM
9 48 49 50 51 52 53 54 55 56
ATOM$RED        STATIC     ATOMS    COLORGROUP SYSTEM
3 37 45 46
