#       Name:                AV-unprocessed.smi:2669
#       Creating user name   scv26
#       Creation time:       Fri Mar 27 14:36:37 2020


#       File generated by GOLD software.
#

@<TRIPOS>MOLECULE
AV-unprocessed.smi:2669
    46    48     1
SMALL
NO_CHARGES


@<TRIPOS>ATOM
      1 ****        -0.7949  -0.6799  -4.4754 C.3            1 S1                 0.0000
      2 ****        -1.0400  -0.0153  -3.2052 N.pl3          1 S1                 0.0000
      3 ****        -1.6327   1.2545  -3.1690 C.ar           1 S1                 0.0000
      4 ****        -2.0900   1.8173  -4.3118 N.ar           1 S1                 0.0000
      5 ****        -2.6453   3.0333  -4.2330 C.ar           1 S1                 0.0000
      6 ****        -2.8272   3.8117  -3.1552 N.ar           1 S1                 0.0000
      7 ****        -2.3809   3.2621  -2.0176 C.ar           1 S1                 0.0000
      8 ****        -2.4397   3.8395  -0.7609 N.2            1 S1                 0.0000
      9 ****        -1.8770   2.8997  -0.0056 C.2            1 S1                 0.0000
     10 ****        -1.4581   1.7754  -0.6187 N.pl3          1 S1                 0.0000
     11 ****        -0.8254   0.6346   0.0223 C.3            1 S1                 0.0000
     12 ****         0.6978   0.8126   0.1809 C.3            1 S1                 0.0000
     13 ****         1.3021   0.9799  -1.0864 O.3            1 S1                 0.0000
     14 ****         1.3582  -0.3859   0.8779 C.3            1 S1                 0.0000
     15 ****         0.9173  -0.4354   2.2284 O.3            1 S1                 0.0000
     16 ****         1.3767  -1.4591   3.0285 C.ar           1 S1                 0.0000
     17 ****         0.9034  -1.4943   4.3565 C.ar           1 S1                 0.0000
     18 ****         1.3191  -2.5055   5.2440 C.ar           1 S1                 0.0000
     19 ****         2.2180  -3.4971   4.8089 C.ar           1 S1                 0.0000
     20 ****         2.7284  -4.7385   5.8929 Cl             1 S1                 0.0000
     21 ****         2.6995  -3.4735   3.4867 C.ar           1 S1                 0.0000
     22 ****         2.2835  -2.4615   2.5996 C.ar           1 S1                 0.0000
     23 ****        -1.7709   1.9722  -1.9634 C.ar           1 S1                 0.0000
     24 ****        -0.2653  -1.6177  -4.3084 H              1 S1                 0.0000
     25 ****        -0.1845  -0.0558  -5.1289 H              1 S1                 0.0000
     26 ****        -1.7346  -0.9037  -4.9812 H              1 S1                 0.0000
     27 ****        -0.6342  -0.4001  -2.3642 H              1 S1                 0.0000
     28 ****        -2.9951   3.4455  -5.1677 H              1 S1                 0.0000
     29 ****        -1.7627   3.0360   1.0599 H              1 S1                 0.0000
     30 ****        -1.2873   0.5011   1.0014 H              1 S1                 0.0000
     31 ****        -1.0557  -0.2674  -0.5436 H              1 S1                 0.0000
     32 ****         0.8995   1.7153   0.7593 H              1 S1                 0.0000
     33 ****         2.2240   1.1462  -0.9608 H              1 S1                 0.0000
     34 ****         1.1062  -1.3091   0.3528 H              1 S1                 0.0000
     35 ****         2.4433  -0.2698   0.8578 H              1 S1                 0.0000
     36 ****         0.2125  -0.7377   4.6988 H              1 S1                 0.0000
     37 ****         0.9467  -2.5185   6.2578 H              1 S1                 0.0000
     38 ****         3.3899  -4.2327   3.1495 H              1 S1                 0.0000
     39 ****         2.6757  -2.4771   1.5943 H              1 S1                 0.0000
     40 ****        -2.0155   1.3401  -5.1875 LP             1 S1                 0.0000
     41 ****        -3.2546   4.7148  -3.1970 LP             1 S1                 0.0000
     42 ****        -2.8083   4.7292  -0.4915 LP             1 S1                 0.0000
     43 ****         0.8817   1.7533  -1.5608 LP             1 S1                 0.0000
     44 ****         1.1805   0.1494  -1.6301 LP             1 S1                 0.0000
     45 ****        -0.0806  -0.4975   2.2119 LP             1 S1                 0.0000
     46 ****         1.1907   0.4238   2.6608 LP             1 S1                 0.0000
@<TRIPOS>BOND
    1    1    2 1     
    2    1   24 1     
    3    1   25 1     
    4    1   26 1     
    5    2    3 1     
    6    2   27 1     
    7    3   23 ar    
    8    3    4 ar    
    9    4    5 ar    
   10    5    6 ar    
   11    5   28 1     
   12    6    7 ar    
   13    7   23 ar    
   14    7    8 1     
   15    8    9 2     
   16    9   10 1     
   17    9   29 1     
   18   10   11 1     
   19   10   23 1     
   20   11   12 1     
   21   11   30 1     
   22   11   31 1     
   23   12   13 1     
   24   12   14 1     
   25   12   32 1     
   26   13   33 1     
   27   14   15 1     
   28   14   34 1     
   29   14   35 1     
   30   15   16 1     
   31   16   22 ar    
   32   16   17 ar    
   33   17   18 ar    
   34   17   36 1     
   35   18   19 ar    
   36   18   37 1     
   37   19   20 1     
   38   19   21 ar    
   39   21   22 ar    
   40   21   38 1     
   41   22   39 1     
   42    4   40 1     
   43    6   41 1     
   44    8   42 1     
   45   13   43 1     
   46   13   44 1     
   47   15   45 1     
   48   15   46 1     
@<TRIPOS>SUBSTRUCTURE
      1 S1             1
@<TRIPOS>SET
LONE_PAIRS      STATIC     ATOMS    <user>   **** ""
7 40 41 42 43 44 45 46
DONOR_HYDROGENS      STATIC     ATOMS    <user>   **** ""
2 27 33
ATOM$BLUE        STATIC     ATOMS    COLORGROUP SYSTEM
7 40 41 42 43 44 45 46
ATOM$RED        STATIC     ATOMS    COLORGROUP SYSTEM
2 27 33
