#       Name:                AV-unprocessed.smi:3181
#       Creating user name   scv26
#       Creation time:       Fri Mar 27 17:57:54 2020


#       File generated by GOLD software.
#

@<TRIPOS>MOLECULE
AV-unprocessed.smi:3181
    44    45     1
SMALL
NO_CHARGES


@<TRIPOS>ATOM
      1 ****        -1.8857  -1.1132   0.4491 C.3            1 S1                 0.0000
      2 ****        -1.3542  -0.5061  -0.8612 C.3            1 S1                 0.0000
      3 ****        -1.8191  -1.2782  -2.1120 C.3            1 S1                 0.0000
      4 ****        -3.2641  -1.3390  -2.2327 N.pl3          1 S1                 0.0000
      5 ****        -4.1394  -0.4198  -2.6435 C.2            1 S1                 0.0000
      6 ****        -5.3988  -0.8322  -2.6193 N.2            1 S1                 0.0000
      7 ****        -5.2142  -2.1046  -2.1566 C.2            1 S1                 0.0000
      8 ****        -3.9527  -2.4588  -1.9101 N.2            1 S1                 0.0000
      9 ****         0.1255  -0.4636  -0.8337 N.4            1 S1                 1.0000
     10 ****         0.7406   0.8841  -0.7775 C.3            1 S1                 0.0000
     11 ****         2.2415   0.8047  -1.1020 C.3            1 S1                 0.0000
     12 ****         3.0413   0.1366   0.0275 C.3            1 S1                 0.0000
     13 ****         2.8283   0.8349   1.3858 C.3            1 S1                 0.0000
     14 ****         3.6593   0.1265   2.4704 C.3            1 S1                 0.0000
     15 ****         1.3179   0.9084   1.7329 C.3            1 S1                 0.0000
     16 ****         1.0414   1.6486   3.0537 C.3            1 S1                 0.0000
     17 ****         0.5264   1.5742   0.5856 C.3            1 S1                 0.0000
     18 ****        -2.9748  -1.0882   0.4896 H              1 S1                 0.0000
     19 ****        -1.5218  -0.5646   1.3179 H              1 S1                 0.0000
     20 ****        -1.5729  -2.1521   0.5592 H              1 S1                 0.0000
     21 ****        -1.7419   0.5108  -0.9404 H              1 S1                 0.0000
     22 ****        -1.4279  -0.8033  -3.0129 H              1 S1                 0.0000
     23 ****        -1.4238  -2.2956  -2.1000 H              1 S1                 0.0000
     24 ****        -3.8506   0.5708  -2.9636 H              1 S1                 0.0000
     25 ****        -6.0338  -2.7896  -1.9958 H              1 S1                 0.0000
     26 ****         0.4570  -1.0091  -0.0509 H              1 S1                 0.0000
     27 ****         0.2689   1.4863  -1.5556 H              1 S1                 0.0000
     28 ****         2.3991   0.2701  -2.0399 H              1 S1                 0.0000
     29 ****         2.6273   1.8127  -1.2600 H              1 S1                 0.0000
     30 ****         2.7586  -0.9142   0.1054 H              1 S1                 0.0000
     31 ****         4.1008   0.1464  -0.2314 H              1 S1                 0.0000
     32 ****         3.2065   1.8546   1.2966 H              1 S1                 0.0000
     33 ****         3.2866  -0.8801   2.6622 H              1 S1                 0.0000
     34 ****         3.6482   0.6742   3.4123 H              1 S1                 0.0000
     35 ****         4.7035   0.0403   2.1684 H              1 S1                 0.0000
     36 ****         0.9472  -0.1107   1.8507 H              1 S1                 0.0000
     37 ****         1.4571   2.6566   3.0390 H              1 S1                 0.0000
     38 ****         1.4646   1.1229   3.9093 H              1 S1                 0.0000
     39 ****        -0.0300   1.7350   3.2368 H              1 S1                 0.0000
     40 ****         0.8412   2.6154   0.4994 H              1 S1                 0.0000
     41 ****        -0.5351   1.6116   0.8307 H              1 S1                 0.0000
     42 ****         0.4502  -0.9037  -1.6829 H              1 S1                 0.0000
     43 ****        -6.2399  -0.3516  -2.8676 LP             1 S1                 0.0000
     44 ****        -3.6030  -3.3324  -1.5718 LP             1 S1                 0.0000
@<TRIPOS>BOND
    1    1    2 1     
    2    1   18 1     
    3    1   19 1     
    4    1   20 1     
    5    2    3 1     
    6    2    9 1     
    7    2   21 1     
    8    3    4 1     
    9    3   22 1     
   10    3   23 1     
   11    4    8 1     
   12    4    5 1     
   13    5    6 2     
   14    5   24 1     
   15    6    7 1     
   16    7    8 2     
   17    7   25 1     
   18    9   10 1     
   19    9   26 1     
   20    9   42 1     
   21   10   17 1     
   22   10   11 1     
   23   10   27 1     
   24   11   12 1     
   25   11   28 1     
   26   11   29 1     
   27   12   13 1     
   28   12   30 1     
   29   12   31 1     
   30   13   14 1     
   31   13   15 1     
   32   13   32 1     
   33   14   33 1     
   34   14   34 1     
   35   14   35 1     
   36   15   16 1     
   37   15   17 1     
   38   15   36 1     
   39   16   37 1     
   40   16   38 1     
   41   16   39 1     
   42   17   40 1     
   43   17   41 1     
   44    6   43 1     
   45    8   44 1     
@<TRIPOS>SUBSTRUCTURE
      1 S1             1
@<TRIPOS>SET
LONE_PAIRS      STATIC     ATOMS    <user>   **** ""
2 43 44
DONOR_HYDROGENS      STATIC     ATOMS    <user>   **** ""
2 26 42
ATOM$BLUE        STATIC     ATOMS    COLORGROUP SYSTEM
2 43 44
ATOM$RED        STATIC     ATOMS    COLORGROUP SYSTEM
2 26 42
