#       Name:                AV-unprocessed.smi:2317
#       Creating user name   scv26
#       Creation time:       Fri Mar 27 12:49:47 2020


#       File generated by GOLD software.
#

@<TRIPOS>MOLECULE
AV-unprocessed.smi:2317
    42    43     1
SMALL
NO_CHARGES


@<TRIPOS>ATOM
      1 ****        -0.4358   1.7331   1.0709 O.2            1 S1                 0.0000
      2 ****        -0.9870   0.6383   1.1801 C.2            1 S1                 0.0000
      3 ****        -0.3176  -0.5212   1.2608 N.am           1 S1                 0.0000
      4 ****         1.1363  -0.6648   1.2651 C.3            1 S1                 0.0000
      5 ****         1.6910  -1.1645  -0.0908 C.3            1 S1                 0.0000
      6 ****         1.3873  -0.1705  -1.2374 C.3            1 S1                 0.0000
      7 ****         1.9752  -0.6287  -2.5809 C.3            1 S1                 0.0000
      8 ****         3.4869  -0.8639  -2.4726 C.3            1 S1                 0.0000
      9 ****         3.7984  -1.8790  -1.3656 C.3            1 S1                 0.0000
     10 ****         3.2159  -1.4318  -0.0119 C.3            1 S1                 0.0000
     11 ****         3.4911  -2.4499   0.9299 O.3            1 S1                 0.0000
     12 ****        -2.3150   0.4324   1.2144 N.am           1 S1                 0.0000
     13 ****        -3.3739   1.3811   1.1675 C.ar           1 S1                 0.0000
     14 ****        -3.2183   2.7682   1.4078 C.ar           1 S1                 0.0000
     15 ****        -4.3568   3.5966   1.3445 C.ar           1 S1                 0.0000
     16 ****        -5.5969   3.1386   1.0729 N.ar           1 S1                 0.0000
     17 ****        -5.7439   1.8148   0.8562 C.ar           1 S1                 0.0000
     18 ****        -4.6724   0.9002   0.8956 C.ar           1 S1                 0.0000
     19 ****        -4.8914  -0.4183   0.6727 F              1 S1                 0.0000
     20 ****        -0.8545  -1.3726   1.3384 H              1 S1                 0.0000
     21 ****         1.6232   0.2691   1.5511 H              1 S1                 0.0000
     22 ****         1.3752  -1.3784   2.0536 H              1 S1                 0.0000
     23 ****         1.1960  -2.1071  -0.3310 H              1 S1                 0.0000
     24 ****         0.3115  -0.0427  -1.3563 H              1 S1                 0.0000
     25 ****         1.7865   0.8126  -0.9845 H              1 S1                 0.0000
     26 ****         1.4826  -1.5473  -2.9022 H              1 S1                 0.0000
     27 ****         1.7701   0.1171  -3.3493 H              1 S1                 0.0000
     28 ****         3.8784  -1.2197  -3.4259 H              1 S1                 0.0000
     29 ****         3.9926   0.0791  -2.2608 H              1 S1                 0.0000
     30 ****         3.3876  -2.8508  -1.6439 H              1 S1                 0.0000
     31 ****         4.8779  -2.0117  -1.2834 H              1 S1                 0.0000
     32 ****         3.7263  -0.5244   0.3138 H              1 S1                 0.0000
     33 ****         3.0659  -3.2445   0.6459 H              1 S1                 0.0000
     34 ****        -2.6101  -0.5326   1.2368 H              1 S1                 0.0000
     35 ****        -2.2653   3.2121   1.6482 H              1 S1                 0.0000
     36 ****        -4.2685   4.6578   1.5237 H              1 S1                 0.0000
     37 ****        -6.7468   1.4733   0.6471 H              1 S1                 0.0000
     38 ****         0.5620   1.7895   1.0382 LP             1 S1                 0.0000
     39 ****        -0.9858   2.5664   1.0148 LP             1 S1                 0.0000
     40 ****         3.1410  -2.1824   1.8276 LP             1 S1                 0.0000
     41 ****         4.4784  -2.5979   0.9877 LP             1 S1                 0.0000
     42 ****        -6.3802   3.7591   1.0336 LP             1 S1                 0.0000
@<TRIPOS>BOND
    1    1    2 2     
    2    2    3 am    
    3    2   12 am    
    4    3    4 1     
    5    3   20 1     
    6    4    5 1     
    7    4   21 1     
    8    4   22 1     
    9    5   10 1     
   10    5    6 1     
   11    5   23 1     
   12    6    7 1     
   13    6   24 1     
   14    6   25 1     
   15    7    8 1     
   16    7   26 1     
   17    7   27 1     
   18    8    9 1     
   19    8   28 1     
   20    8   29 1     
   21    9   10 1     
   22    9   30 1     
   23    9   31 1     
   24   10   11 1     
   25   10   32 1     
   26   11   33 1     
   27   12   13 1     
   28   12   34 1     
   29   13   18 ar    
   30   13   14 ar    
   31   14   15 ar    
   32   14   35 1     
   33   15   16 ar    
   34   15   36 1     
   35   16   17 ar    
   36   17   18 ar    
   37   17   37 1     
   38   18   19 1     
   39    1   38 1     
   40    1   39 1     
   41   11   40 1     
   42   11   41 1     
   43   16   42 1     
@<TRIPOS>SUBSTRUCTURE
      1 S1             1
@<TRIPOS>SET
LONE_PAIRS      STATIC     ATOMS    <user>   **** ""
5 38 39 40 41 42
DONOR_HYDROGENS      STATIC     ATOMS    <user>   **** ""
3 20 33 34
ATOM$BLUE        STATIC     ATOMS    COLORGROUP SYSTEM
5 38 39 40 41 42
ATOM$RED        STATIC     ATOMS    COLORGROUP SYSTEM
3 20 33 34
