#       Name:                AV-unprocessed.smi:1813
#       Creating user name   scv26
#       Creation time:       Fri Mar 27 09:00:14 2020


#       File generated by GOLD software.
#

@<TRIPOS>MOLECULE
AV-unprocessed.smi:1813
    45    46     1
SMALL
NO_CHARGES


@<TRIPOS>ATOM
      1 ****        -5.8451   3.4082  -0.5713 C.3            1 S1                 0.0000
      2 ****        -5.2438   2.0833  -0.5474 N.am           1 S1                 0.0000
      3 ****        -3.9871   1.8193  -0.9319 C.2            1 S1                 0.0000
      4 ****        -3.2156   2.6811  -1.3553 O.2            1 S1                 0.0000
      5 ****        -3.5439   0.3555  -0.8400 C.3            1 S1                 0.0000
      6 ****        -2.0670   0.1957  -0.8223 N.4            1 S1                 1.0000
      7 ****        -1.6347  -1.1369  -1.3157 C.3            1 S1                 0.0000
      8 ****        -0.1027  -1.2187  -1.4237 C.3            1 S1                 0.0000
      9 ****         0.5666  -0.8989  -0.0779 C.3            1 S1                 0.0000
     10 ****         2.0187  -0.9091  -0.2301 N.am           1 S1                 0.0000
     11 ****         2.8949  -1.1324   0.7605 C.2            1 S1                 0.0000
     12 ****         2.5588  -1.3401   1.9268 O.2            1 S1                 0.0000
     13 ****         4.1613  -1.0985   0.3096 N.am           1 S1                 0.0000
     14 ****         5.3594  -1.2989   1.0445 C.2            1 S1                 0.0000
     15 ****         5.4056  -1.5543   2.3571 N.2            1 S1                 0.0000
     16 ****         6.7163  -1.7076   2.8159 C.2            1 S1                 0.0000
     17 ****         7.6626  -1.5649   1.8318 C.2            1 S1                 0.0000
     18 ****         6.9409  -1.2296   0.2805 S.3            1 S1                 0.0000
     19 ****         0.0740   0.4686   0.4302 C.3            1 S1                 0.0000
     20 ****        -1.4615   0.5118   0.4993 C.3            1 S1                 0.0000
     21 ****        -6.8807   3.3526  -0.2361 H              1 S1                 0.0000
     22 ****        -5.8365   3.8223  -1.5804 H              1 S1                 0.0000
     23 ****        -5.3092   4.0899   0.0902 H              1 S1                 0.0000
     24 ****        -5.8210   1.3217  -0.2205 H              1 S1                 0.0000
     25 ****        -3.9832  -0.1249   0.0361 H              1 S1                 0.0000
     26 ****        -3.9580  -0.1491  -1.7140 H              1 S1                 0.0000
     27 ****        -2.0085  -1.9134  -0.6463 H              1 S1                 0.0000
     28 ****        -2.0710  -1.3263  -2.2970 H              1 S1                 0.0000
     29 ****         0.1893  -2.2145  -1.7593 H              1 S1                 0.0000
     30 ****         0.2442  -0.5206  -2.1874 H              1 S1                 0.0000
     31 ****         0.2769  -1.6704   0.6386 H              1 S1                 0.0000
     32 ****         2.3820  -0.7459  -1.1578 H              1 S1                 0.0000
     33 ****         4.2839  -0.9146  -0.6751 H              1 S1                 0.0000
     34 ****         6.8852  -1.9181   3.8617 H              1 S1                 0.0000
     35 ****         8.7359  -1.6369   1.9252 H              1 S1                 0.0000
     36 ****         0.4893   0.6774   1.4169 H              1 S1                 0.0000
     37 ****         0.4298   1.2616  -0.2293 H              1 S1                 0.0000
     38 ****        -1.7763   1.5019   0.8307 H              1 S1                 0.0000
     39 ****        -1.8217  -0.1985   1.2451 H              1 S1                 0.0000
     40 ****        -1.7062   0.8724  -1.4801 H              1 S1                 0.0000
     41 ****        -3.5177   3.6318  -1.4253 LP             1 S1                 0.0000
     42 ****        -2.2872   2.4300  -1.6292 LP             1 S1                 0.0000
     43 ****         1.5898  -1.3479   2.1741 LP             1 S1                 0.0000
     44 ****         3.2547  -1.5010   2.6266 LP             1 S1                 0.0000
     45 ****         4.5970  -1.6269   2.9411 LP             1 S1                 0.0000
@<TRIPOS>BOND
    1    1    2 1     
    2    1   21 1     
    3    1   22 1     
    4    1   23 1     
    5    2    3 am    
    6    2   24 1     
    7    3    4 2     
    8    3    5 1     
    9    5    6 1     
   10    5   25 1     
   11    5   26 1     
   12    6   20 1     
   13    6    7 1     
   14    6   40 1     
   15    7    8 1     
   16    7   27 1     
   17    7   28 1     
   18    8    9 1     
   19    8   29 1     
   20    8   30 1     
   21    9   10 1     
   22    9   19 1     
   23    9   31 1     
   24   10   11 am    
   25   10   32 1     
   26   11   12 2     
   27   11   13 am    
   28   13   14 1     
   29   13   33 1     
   30   14   18 1     
   31   14   15 2     
   32   15   16 1     
   33   16   17 2     
   34   16   34 1     
   35   17   18 1     
   36   17   35 1     
   37   19   20 1     
   38   19   36 1     
   39   19   37 1     
   40   20   38 1     
   41   20   39 1     
   42    4   41 1     
   43    4   42 1     
   44   12   43 1     
   45   12   44 1     
   46   15   45 1     
@<TRIPOS>SUBSTRUCTURE
      1 S1             1
@<TRIPOS>SET
LONE_PAIRS      STATIC     ATOMS    <user>   **** ""
5 41 42 43 44 45
DONOR_HYDROGENS      STATIC     ATOMS    <user>   **** ""
4 24 40 32 33
ATOM$BLUE        STATIC     ATOMS    COLORGROUP SYSTEM
5 41 42 43 44 45
ATOM$RED        STATIC     ATOMS    COLORGROUP SYSTEM
4 24 40 32 33
