AV-unprocessed.smi:241|AV-procd|sdf|1841|dock5
  -GOLD-   2262020453D 1   1.00000     0.00000
 Structure written by MMmdl.
 54 57  0  0  0  0  0  0  0  0  1 V2000
  150.3633  130.6671  159.6206 C   0  0  0  0  0  0  0  0  0  0  0  0
  150.7255  131.6902  158.7106 O   0  0  0  0  0  0  0  0  0  0  0  0
  149.8406  131.7774  157.6065 C   0  0  0  0  0  0  0  0  0  0  0  0
  150.4013  130.9988  156.4011 C   0  0  1  0  0  0  0  0  0  0  0  0
  151.1379  129.7254  156.8243 C   0  0  0  0  0  0  0  0  0  0  0  0
  151.0884  128.8735  155.5563 C   0  0  1  0  0  0  0  0  0  0  0  0
  151.2122  127.4806  155.8032 O   0  0  0  0  0  0  0  0  0  0  0  0
  151.0183  126.6812  154.6477 C   0  0  0  0  0  0  0  0  0  0  0  0
  149.7078  129.2017  154.9820 C   0  0  0  0  0  0  0  0  0  0  0  0
  149.3571  130.5229  155.4926 N   0  0  0  0  0  0  0  0  0  0  0  0
  148.7521  131.3539  154.6061 C   0  0  0  0  0  0  0  0  0  0  0  0
  149.1218  132.6593  154.5269 N   0  0  0  0  0  0  0  0  0  0  0  0
  148.5362  133.4762  153.6469 C   0  0  0  0  0  0  0  0  0  0  0  0
  147.5800  133.1979  152.7592 N   0  0  0  0  0  0  0  0  0  0  0  0
  147.2083  131.8876  152.8280 C   0  0  0  0  0  0  0  0  0  0  0  0
  147.7340  130.9081  153.7171 C   0  0  0  0  0  0  0  0  0  0  0  0
  147.0952  129.6909  153.5111 N   0  0  0  0  0  0  0  0  0  0  0  0
  146.2419  129.9370  152.5548 C   0  0  0  0  0  0  0  0  0  0  0  0
  146.2650  131.2233  152.0645 N   0  0  0  0  0  0  0  0  0  0  0  0
  145.4200  131.7706  151.0447 C   0  0  0  0  0  0  0  0  0  0  0  0
  145.7930  133.0618  150.3138 C   0  0  0  0  0  0  0  0  0  0  0  0
  144.2944  133.4215  150.1966 C   0  0  0  0  0  0  0  0  0  0  0  0
  143.9228  134.8886  150.4729 C   0  0  0  0  0  0  0  0  0  0  0  0
  144.5895  135.7700  149.5937 O   0  0  0  0  0  0  0  0  0  0  0  0
  143.5715  132.9449  148.9197 C   0  0  0  0  0  0  0  0  0  0  0  0
  143.5502  133.9382  147.9150 O   0  0  0  0  0  0  0  0  0  0  0  0
  144.1115  132.4774  151.4054 C   0  0  0  0  0  0  0  0  0  0  0  0
  151.1090  131.6244  155.8550 H   0  0  0  0  0  0  0  0  0  0  0  0
  151.8508  129.2127  154.8523 H   0  0  0  0  0  0  0  0  0  0  0  0
  151.0738  130.6437  160.4466 H   0  0  0  0  0  0  0  0  0  0  0  0
  150.3739  129.6883  159.1393 H   0  0  0  0  0  0  0  0  0  0  0  0
  149.3702  130.8431  160.0363 H   0  0  0  0  0  0  0  0  0  0  0  0
  148.8819  131.3471  157.9008 H   0  0  0  0  0  0  0  0  0  0  0  0
  149.6574  132.8189  157.3359 H   0  0  0  0  0  0  0  0  0  0  0  0
  152.1533  129.9209  157.1701 H   0  0  0  0  0  0  0  0  0  0  0  0
  150.5962  129.2234  157.6278 H   0  0  0  0  0  0  0  0  0  0  0  0
  151.0965  125.6278  154.9166 H   0  0  0  0  0  0  0  0  0  0  0  0
  151.7714  126.8870  153.8866 H   0  0  0  0  0  0  0  0  0  0  0  0
  150.0299  126.8440  154.2160 H   0  0  0  0  0  0  0  0  0  0  0  0
  149.7141  129.1544  153.8919 H   0  0  0  0  0  0  0  0  0  0  0  0
  148.9635  128.4912  155.3437 H   0  0  0  0  0  0  0  0  0  0  0  0
  148.8868  134.4976  153.6525 H   0  0  0  0  0  0  0  0  0  0  0  0
  145.5740  129.1780  152.1742 H   0  0  0  0  0  0  0  0  0  0  0  0
  145.2413  130.9620  150.3339 H   0  0  0  0  0  0  0  0  0  0  0  0
  146.3446  133.7582  150.9484 H   0  0  0  0  0  0  0  0  0  0  0  0
  146.3076  132.9095  149.3645 H   0  0  0  0  0  0  0  0  0  0  0  0
  142.8478  135.0489  150.3883 H   0  0  0  0  0  0  0  0  0  0  0  0
  144.1959  135.1751  151.4888 H   0  0  0  0  0  0  0  0  0  0  0  0
  144.1991  136.6269  149.6797 H   0  0  0  0  0  0  0  0  0  0  0  0
  144.0578  132.0649  148.4984 H   0  0  0  0  0  0  0  0  0  0  0  0
  142.5457  132.6463  149.1380 H   0  0  0  0  0  0  0  0  0  0  0  0
  144.4317  134.2540  147.7864 H   0  0  0  0  0  0  0  0  0  0  0  0
  143.2288  131.8387  151.3619 H   0  0  0  0  0  0  0  0  0  0  0  0
  144.1721  132.9893  152.3677 H   0  0  0  0  0  0  0  0  0  0  0  0
  1  2  1  0  0  0  0
  1 30  1  0  0  0  0
  1 31  1  0  0  0  0
  1 32  1  0  0  0  0
  2  3  1  0  0  0  0
  3  4  1  0  0  0  0
  3 33  1  0  0  0  0
  3 34  1  0  0  0  0
  4 28  1  0  0  0  0
  4 10  1  0  0  0  0
  4  5  1  0  0  0  0
  5  6  1  0  0  0  0
  5 35  1  0  0  0  0
  5 36  1  0  0  0  0
  6 29  1  0  0  0  0
  6  7  1  0  0  0  0
  6  9  1  0  0  0  0
  7  8  1  0  0  0  0
  8 37  1  0  0  0  0
  8 38  1  0  0  0  0
  8 39  1  0  0  0  0
  9 10  1  0  0  0  0
  9 40  1  0  0  0  0
  9 41  1  0  0  0  0
 10 11  1  0  0  0  0
 11 16  1  0  0  0  0
 11 12  2  0  0  0  0
 12 13  1  0  0  0  0
 13 14  2  0  0  0  0
 13 42  1  0  0  0  0
 14 15  1  0  0  0  0
 15 19  1  0  0  0  0
 15 16  2  0  0  0  0
 16 17  1  0  0  0  0
 17 18  2  0  0  0  0
 18 19  1  0  0  0  0
 18 43  1  0  0  0  0
 19 20  1  0  0  0  0
 20 27  1  0  0  0  0
 20 21  1  0  0  0  0
 20 44  1  0  0  0  0
 21 22  1  0  0  0  0
 21 45  1  0  0  0  0
 21 46  1  0  0  0  0
 22 23  1  0  0  0  0
 22 25  1  0  0  0  0
 22 27  1  0  0  0  0
 23 24  1  0  0  0  0
 23 47  1  0  0  0  0
 23 48  1  0  0  0  0
 24 49  1  0  0  0  0
 25 26  1  0  0  0  0
 25 50  1  0  0  0  0
 25 51  1  0  0  0  0
 26 52  1  0  0  0  0
 27 53  1  0  0  0  0
 27 54  1  0  0  0  0
M  END
> <s_m_source_file>
AV-unprocessed.smi

> <i_m_source_file_index>
241

> <i_lp_mmshare_version>
43012

> <i_f3d_flags>
0

> <s_epik_input>
W0NIM11PW0NIMl1bQ0BASF0xW0NIMl1bQ0BASF0oT1tDSDNdKVtDSDJdTjFjKG5bY0hdbjIpYyhjMjMpbltjSF1uM1tDSF0oW0NIMl00KVtDSDJdQzQoW0NIMl1bT0hdKVtDSDJdW09IXQ==

> <s_epik_cmdline>
J2VwaWtfcHl0aG9uJywgJy1waCcsICc3LjAnLCAnLXRuJywgJzgnLCAnLW1hJywgJzIwMCcsICctbWV0YWxfYmluZGluZycsICctaW1hZScsICc8aW5maWxlLm1hZT4nLCAnLW9tYWUnLCAnPG91dGZpbGUubWFlPic=

> <r_lp_tautomer_probability>
1

> <r_epik_Ionization_Penalty>
0.00568677

> <r_epik_Ionization_Penalty_Charging>
0

> <r_epik_Ionization_Penalty_Neutral>
0.00568677

> <r_epik_State_Penalty>
0.00400877

> <r_epik_Charging_Adjusted_Penalty>
0.00400877

> <i_epik_Tot_Q>
0

> <i_epik_Tot_abs_Q>
0

> <r_epik_Metal_State_Penalty>
-0

> <b_epik_Metal_Only>
0

> <s_lp_Force_Field>
OPLS_2005

> <r_lp_Energy>
53.235

> <b_lp_Chiralities_Consistent>
1

> <s_lp_Variant>
AV-unprocessed.smi:241-2

> <Gold.Version>
5.8.1

> <Gold.Id.Protein>
6NUR|6NUR_protein|mol2

> <Gold.PLP.Fitness>
51.6037

> <Gold.PLP.PLP>
-41.7522

> <Gold.PLP.part.hbond>
-6.6760

> <Gold.PLP.part.metal>
0.0000

> <Gold.PLP.part.buried>
-1.1771

> <Gold.PLP.part.nonpolar>
-34.2035

> <Gold.PLP.part.repulsive>
0.4522

> <Gold.PLP.ligand.clash>
0.0000

> <Gold.PLP.ligand.torsion>
1.9417

> <Gold.PLP.Chemscore.Hbond>
3.9588

> <Gold.PLP.Chemscore.CHOScore>
0.3302

> <Gold.PLP.Chemscore.Metal>
0.0000

> <Gold.Chemscore.Hbonds>
donor molecule, donor type, donor heavy atom, donor atom, acceptor molecule, acceptor atom, score
      L1  H    24    49       P1 10171  1.00
      L1  H    26    52       P1  7921  1.00
      P1  H  6896  6908       L1     2  0.80
      P1  H 10192 10197       L1    26  0.81
      L1  C    13    42       P1  7948  0.97

> <Gold.PLP.Chemscore.Internal.Correction>
0.8682

> <Gold.Rescore>
     Score         DG    S(hbond)    S(metal)    S(lipo)     H(rot)  DE(clash)    DE(int)     intcor
     13.13     -16.60       3.59        0.00      79.50       3.97       0.73       2.74       ----

> <Gold.Chemscore.Fitness>
13.1307

> <Gold.Chemscore.DG>
-16.5991

> <Gold.Chemscore.ZeroCoef>
-5.4800

> <Gold.Chemscore.Hbond>
3.5893

> <Gold.Chemscore.Metal>
0.0000

> <Gold.Chemscore.Lipo>
79.4952

> <Gold.Chemscore.Internal_Hbond>
0.0000

> <Gold.Chemscore.DEClash>
0.7259

> <Gold.Chemscore.DEInternal>
2.7425

> <Gold.Chemscore.Rot>
3.9727

> <Gold.Chemscore.Internal.Correction>
   9.000000E+99

> <Gold.Chemscore.Hbonds>
donor molecule, donor type, donor heavy atom, donor atom, acceptor molecule, acceptor atom, score
      L1  H    24    49       P1 10171  0.99
      L1  H    26    52       P1  7921  1.00
      P1  H  6896  6908       L1     2  0.76
      P1  H 10192 10197       L1    26  0.75

> <Gold.Chemscore.Hbond.Weighted>
-11.9884

> <Gold.Chemscore.Metal.Weighted>
-0.0000

> <Gold.Chemscore.Lipo.Weighted>
-9.3009

> <Gold.Chemscore.Internal_Hbond.Weighted>
0.0000

> <Gold.Chemscore.DEClash.Weighted>
0.7259

> <Gold.Chemscore.DEInternal.Weighted>
2.7425

> <Gold.Chemscore.Rot.Weighted>
10.1702

> <Gold.Chemscore.Internal.Correction.Weighted>
   9.000000E+99

> <Gold.Protein.RotatedTorsions>
[ 6907 6896 6895 6894 ] final   59.55 input  -60.11 | X-H torsion
[ 7974 7965 7964 7962 ] final   48.65 input  175.53 | X-H torsion
[ 8008 7997 7996 7995 ] final  -31.65 input   59.86 | X-H torsion
[ 10167 10162 10161 10158 ] final  -25.33 input  -65.29 | X-H torsion
[ 10718 10713 10712 10709 ] final   13.54 input   66.30 | X-H torsion
[ 10763 10752 10751 10750 ] final   13.08 input  -60.55 | X-H torsion
[ 11005 11000 10999 10996 ] final -135.56 input  -57.11 | X-H torsion

> <Gold.Protein.ActiveResidues>
 VAL166  LYS551  ARG553  GLY616  TRP617  ASP618  TYR619  PRO620  LYS621  CYS622 
 ASP623  PHE694  ASN695  SER759  ASP760  ASP761  ALA762  ILE779  LEU786  VAL792 
 PHE793  MET794  SER795  GLU796  ALA797  LYS798  CYS799  TRP800  GLU811  SER814 

> <Gold.Protein.RotatedAtoms>
  152.3925  134.6418  160.0101 H   0  0  0  0  0  0  0  0  0  0  0  0  # atno 6907 bound_to 6896
  151.6648  133.3310  159.3190 H   0  0  0  0  0  0  0  0  0  0  0  0  # atno 6908 bound_to 6896
  150.7838  134.6850  159.6509 H   0  0  0  0  0  0  0  0  0  0  0  0  # atno 6909 bound_to 6896
  146.0184  139.4622  142.9913 H   0  0  0  0  0  0  0  0  0  0  0  0  # atno 7974 bound_to 7965
  154.4206  140.1758  156.1601 H   0  0  0  0  0  0  0  0  0  0  0  0  # atno 8008 bound_to 7997
  155.9845  140.3374  155.6670 H   0  0  0  0  0  0  0  0  0  0  0  0  # atno 8009 bound_to 7997
  155.6455  140.0684  157.2595 H   0  0  0  0  0  0  0  0  0  0  0  0  # atno 8010 bound_to 7997
  140.7286  143.4274  151.0855 H   0  0  0  0  0  0  0  0  0  0  0  0  # atno 10167 bound_to 10162
  157.0262  130.6174  149.5728 H   0  0  0  0  0  0  0  0  0  0  0  0  # atno 10718 bound_to 10713
  153.1758  135.6820  153.8546 H   0  0  0  0  0  0  0  0  0  0  0  0  # atno 10763 bound_to 10752
  153.7894  135.3171  155.3377 H   0  0  0  0  0  0  0  0  0  0  0  0  # atno 10764 bound_to 10752
  154.8028  135.4767  154.0410 H   0  0  0  0  0  0  0  0  0  0  0  0  # atno 10765 bound_to 10752
  140.8886  134.1840  157.4543 H   0  0  0  0  0  0  0  0  0  0  0  0  # atno 11005 bound_to 11000
  145.7233  141.0068  143.1391 LP  0  0  0  0  0  0  0  0  0  0  0  0  # atno 17320 bound_to 7965
  144.6980  139.8896  143.7452 LP  0  0  0  0  0  0  0  0  0  0  0  0  # atno 17321 bound_to 7965
  139.7927  143.8195  152.3154 LP  0  0  0  0  0  0  0  0  0  0  0  0  # atno 17342 bound_to 10162
  139.8185  144.7306  150.9604 LP  0  0  0  0  0  0  0  0  0  0  0  0  # atno 17343 bound_to 10162
  156.0085  130.5174  150.7911 LP  0  0  0  0  0  0  0  0  0  0  0  0  # atno 17370 bound_to 10713
  157.5212  131.0931  151.0075 LP  0  0  0  0  0  0  0  0  0  0  0  0  # atno 17371 bound_to 10713
  139.8727  134.9849  156.5258 LP  0  0  0  0  0  0  0  0  0  0  0  0  # atno 17394 bound_to 11000
  140.8374  133.8232  155.9042 LP  0  0  0  0  0  0  0  0  0  0  0  0  # atno 17395 bound_to 11000

$$$$
