AV-unprocessed.smi:3111|AV-procd|sdf|11832|dock2
  -GOLD-   2272017203D 1   1.00000     0.00000
 Structure written by MMmdl.
 29 29  0  0  0  0  0  0  0  0  1 V2000
  147.0370  145.7752  160.4714 C   0  0  0  0  0  0  0  0  0  0  0  0
  147.1517  144.8384  159.3642 N   0  0  0  0  0  0  0  0  0  0  0  0
  146.9860  143.5130  159.4768 C   0  0  0  0  0  0  0  0  0  0  0  0
  146.7007  142.9578  160.5390 O   0  0  0  0  0  0  0  0  0  0  0  0
  147.1462  142.7002  158.1859 C   0  0  0  0  0  0  0  0  0  0  0  0
  148.5007  142.7591  157.6416 N   0  0  0  0  0  0  0  0  0  0  0  0
  149.3053  141.7004  157.4530 C   0  0  0  0  0  0  0  0  0  0  0  0
  148.9777  140.5483  157.7405 O   0  0  0  0  0  0  0  0  0  0  0  0
  150.6885  141.9952  156.8518 C   0  0  2  0  0  0  0  0  0  0  0  0
  151.5113  140.7185  156.5965 C   0  0  0  0  0  0  0  0  0  0  0  0
  151.4205  142.9347  157.6897 N   0  0  0  0  0  0  0  0  0  0  0  0
  152.0587  142.6546  158.8920 C   0  0  0  0  0  0  0  0  0  0  0  0
  152.6165  143.8347  159.3289 C   0  0  0  0  0  0  0  0  0  0  0  0
  152.3385  144.8505  158.4182 N   0  0  0  0  0  0  0  0  0  0  0  0
  151.6278  144.2442  157.4762 C   0  0  0  0  0  0  0  0  0  0  0  0
  147.2434  146.7877  160.1245 H   0  0  0  0  0  0  0  0  0  0  0  0
  147.7502  145.5335  161.2606 H   0  0  0  0  0  0  0  0  0  0  0  0
  146.0309  145.7574  160.8928 H   0  0  0  0  0  0  0  0  0  0  0  0
  147.3785  145.2198  158.4571 H   0  0  0  0  0  0  0  0  0  0  0  0
  146.9086  141.6583  158.4015 H   0  0  0  0  0  0  0  0  0  0  0  0
  146.4271  143.0365  157.4365 H   0  0  0  0  0  0  0  0  0  0  0  0
  148.8456  143.6704  157.3774 H   0  0  0  0  0  0  0  0  0  0  0  0
  150.5254  142.4753  155.8852 H   0  0  0  0  0  0  0  0  0  0  0  0
  150.9690  140.0200  155.9580 H   0  0  0  0  0  0  0  0  0  0  0  0
  151.7561  140.1998  157.5242 H   0  0  0  0  0  0  0  0  0  0  0  0
  152.4502  140.9563  156.0956 H   0  0  0  0  0  0  0  0  0  0  0  0
  152.0627  141.6659  159.3268 H   0  0  0  0  0  0  0  0  0  0  0  0
  153.1924  144.0295  160.2217 H   0  0  0  0  0  0  0  0  0  0  0  0
  151.2498  144.7648  156.6083 H   0  0  0  0  0  0  0  0  0  0  0  0
  1  2  1  0  0  0  0
  1 16  1  0  0  0  0
  1 17  1  0  0  0  0
  1 18  1  0  0  0  0
  2  3  1  0  0  0  0
  2 19  1  0  0  0  0
  3  4  2  0  0  0  0
  3  5  1  0  0  0  0
  5  6  1  0  0  0  0
  5 20  1  0  0  0  0
  5 21  1  0  0  0  0
  6  7  1  0  0  0  0
  6 22  1  0  0  0  0
  7  8  2  0  0  0  0
  7  9  1  0  0  0  0
  9 10  1  0  0  0  0
  9 11  1  0  0  0  0
  9 23  1  0  0  0  0
 10 24  1  0  0  0  0
 10 25  1  0  0  0  0
 10 26  1  0  0  0  0
 11 15  1  0  0  0  0
 11 12  1  0  0  0  0
 12 13  2  0  0  0  0
 12 27  1  0  0  0  0
 13 14  1  0  0  0  0
 13 28  1  0  0  0  0
 14 15  2  0  0  0  0
 15 29  1  0  0  0  0
M  END
> <s_m_source_file>
AV-unprocessed.smi

> <i_m_source_file_index>
3111

> <i_lp_mmshare_version>
43012

> <i_f3d_flags>
0

> <s_epik_input>
W0NIM11bTkhdQyg9TylbQ0gyXVtOSF1DKD1PKVtDQEhdKFtDSDNdKW4xW2NIXVtjSF1uW2NIXTE=

> <s_epik_cmdline>
J2VwaWtfcHl0aG9uJywgJy1waCcsICc3LjAnLCAnLXRuJywgJzgnLCAnLW1hJywgJzIwMCcsICctbWV0YWxfYmluZGluZycsICctaW1hZScsICc8aW5maWxlLm1hZT4nLCAnLW9tYWUnLCAnPG91dGZpbGUubWFlPic=

> <r_lp_tautomer_probability>
1

> <r_epik_Ionization_Penalty>
0.278299

> <r_epik_Ionization_Penalty_Charging>
0.278299

> <r_epik_Ionization_Penalty_Neutral>
1.78617e-07

> <r_epik_State_Penalty>
0.270759

> <r_epik_Charging_Adjusted_Penalty>
0.549058

> <i_epik_Tot_Q>
0

> <i_epik_Tot_abs_Q>
0

> <r_epik_Metal_State_Penalty>
0.183212

> <b_epik_Metal_Only>
0

> <s_lp_Force_Field>
OPLS_2005

> <r_lp_Energy>
5.209

> <b_lp_Chiralities_Consistent>
1

> <s_lp_Variant>
AV-unprocessed.smi:3111-1

> <Gold.Version>
5.8.1

> <Gold.Id.Protein>
6NUR|6NUR_protein|mol2

> <Gold.PLP.Fitness>
42.7597

> <Gold.PLP.PLP>
-30.1299

> <Gold.PLP.part.hbond>
-4.2059

> <Gold.PLP.part.metal>
0.0000

> <Gold.PLP.part.buried>
-5.4989

> <Gold.PLP.part.nonpolar>
-21.8991

> <Gold.PLP.part.repulsive>
0.2215

> <Gold.PLP.ligand.clash>
0.0000

> <Gold.PLP.ligand.torsion>
0.3483

> <Gold.PLP.Chemscore.Hbond>
3.4328

> <Gold.PLP.Chemscore.CHOScore>
0.9866

> <Gold.PLP.Chemscore.Metal>
0.0000

> <Gold.Chemscore.Hbonds>
donor molecule, donor type, donor heavy atom, donor atom, acceptor molecule, acceptor atom, score
      L1  H     2    19       P1  8029  0.84
      L1  H     6    22       P1  8028  0.56
      P1  H  6933  6944       L1     4  0.80
      P1  H  6934  6946       L1     4  0.77
      L1  C    15    29       P1  8028  0.98

> <Gold.PLP.Chemscore.Internal.Correction>
0.0682

> <Gold.Rescore>
     Score         DG    S(hbond)    S(metal)    S(lipo)     H(rot)  DE(clash)    DE(int)     intcor
     13.41     -13.71       2.70        0.00      42.82       2.27       0.01       0.28       ----

> <Gold.Chemscore.Fitness>
13.4126

> <Gold.Chemscore.DG>
-13.7079

> <Gold.Chemscore.ZeroCoef>
-5.4800

> <Gold.Chemscore.Hbond>
2.7040

> <Gold.Chemscore.Metal>
0.0000

> <Gold.Chemscore.Lipo>
42.8206

> <Gold.Chemscore.Internal_Hbond>
0.0000

> <Gold.Chemscore.DEClash>
0.0149

> <Gold.Chemscore.DEInternal>
0.2805

> <Gold.Chemscore.Rot>
2.2709

> <Gold.Chemscore.Internal.Correction>
   9.000000E+99

> <Gold.Chemscore.Hbonds>
donor molecule, donor type, donor heavy atom, donor atom, acceptor molecule, acceptor atom, score
      L1  H     2    19       P1  8029  0.82
      L1  H     6    22       P1  8028  0.08
      P1  H  6933  6944       L1     4  0.49
      P1  H  6934  6946       L1     4  0.71

> <Gold.Chemscore.Hbond.Weighted>
-9.0314

> <Gold.Chemscore.Metal.Weighted>
-0.0000

> <Gold.Chemscore.Lipo.Weighted>
-5.0100

> <Gold.Chemscore.Internal_Hbond.Weighted>
0.0000

> <Gold.Chemscore.DEClash.Weighted>
0.0149

> <Gold.Chemscore.DEInternal.Weighted>
0.2805

> <Gold.Chemscore.Rot.Weighted>
5.8135

> <Gold.Chemscore.Internal.Correction.Weighted>
   9.000000E+99

> <Gold.Protein.RotatedTorsions>
[ 6907 6896 6895 6894 ] final  -46.59 input  -60.11 | X-H torsion
[ 7974 7965 7964 7962 ] final   51.66 input  175.53 | X-H torsion
[ 8008 7997 7996 7995 ] final  107.89 input   59.86 | X-H torsion
[ 10167 10162 10161 10158 ] final -152.24 input  -65.29 | X-H torsion
[ 10718 10713 10712 10709 ] final  -88.08 input   66.30 | X-H torsion
[ 10763 10752 10751 10750 ] final  -76.23 input  -60.55 | X-H torsion
[ 11005 11000 10999 10996 ] final  132.92 input  -57.11 | X-H torsion

> <Gold.Protein.ActiveResidues>
 VAL166  LYS551  ARG553  GLY616  TRP617  ASP618  TYR619  PRO620  LYS621  CYS622 
 ASP623  PHE694  ASN695  SER759  ASP760  ASP761  ALA762  ILE779  LEU786  VAL792 
 PHE793  MET794  SER795  GLU796  ALA797  LYS798  CYS799  TRP800  GLU811  SER814 

> <Gold.Protein.RotatedAtoms>
  150.9096  134.8513  159.7416 H   0  0  0  0  0  0  0  0  0  0  0  0  # atno 6907 bound_to 6896
  152.4937  134.4379  159.9543 H   0  0  0  0  0  0  0  0  0  0  0  0  # atno 6908 bound_to 6896
  151.4422  133.3601  159.2818 H   0  0  0  0  0  0  0  0  0  0  0  0  # atno 6909 bound_to 6896
  145.9891  139.4320  143.0085 H   0  0  0  0  0  0  0  0  0  0  0  0  # atno 7974 bound_to 7965
  156.1860  140.3086  155.9239 H   0  0  0  0  0  0  0  0  0  0  0  0  # atno 8008 bound_to 7997
  155.3280  140.0459  157.3058 H   0  0  0  0  0  0  0  0  0  0  0  0  # atno 8009 bound_to 7997
  154.5396  140.2257  155.8673 H   0  0  0  0  0  0  0  0  0  0  0  0  # atno 8010 bound_to 7997
  139.7199  143.8974  152.2499 H   0  0  0  0  0  0  0  0  0  0  0  0  # atno 10167 bound_to 10162
  155.9984  130.4823  150.4965 H   0  0  0  0  0  0  0  0  0  0  0  0  # atno 10718 bound_to 10713
  154.4971  135.5804  153.6503 H   0  0  0  0  0  0  0  0  0  0  0  0  # atno 10763 bound_to 10752
  152.9872  135.6126  154.3050 H   0  0  0  0  0  0  0  0  0  0  0  0  # atno 10764 bound_to 10752
  154.2955  135.2848  155.2614 H   0  0  0  0  0  0  0  0  0  0  0  0  # atno 10765 bound_to 10752
  139.9820  134.9545  156.9651 H   0  0  0  0  0  0  0  0  0  0  0  0  # atno 11005 bound_to 11000
  145.7657  140.9917  143.1176 LP  0  0  0  0  0  0  0  0  0  0  0  0  # atno 17320 bound_to 7965
  144.6883  139.9385  143.7474 LP  0  0  0  0  0  0  0  0  0  0  0  0  # atno 17321 bound_to 7965
  139.8867  144.6988  150.8816 LP  0  0  0  0  0  0  0  0  0  0  0  0  # atno 17342 bound_to 10162
  140.7751  143.3618  151.1814 LP  0  0  0  0  0  0  0  0  0  0  0  0  # atno 17343 bound_to 10162
  157.2954  131.0634  151.2105 LP  0  0  0  0  0  0  0  0  0  0  0  0  # atno 17370 bound_to 10713
  157.3103  130.6886  149.6212 LP  0  0  0  0  0  0  0  0  0  0  0  0  # atno 17371 bound_to 10713
  140.5078  134.1032  155.7264 LP  0  0  0  0  0  0  0  0  0  0  0  0  # atno 17394 bound_to 11000
  141.1490  133.9002  157.2144 LP  0  0  0  0  0  0  0  0  0  0  0  0  # atno 17395 bound_to 11000

$$$$
