AV-unprocessed.smi:823|AV-procd|sdf|3844|dock5
  -GOLD-   22720 1293D 1   1.00000     0.00000
 Structure written by MMmdl.
 46 47  0  0  0  0  0  0  0  0  1 V2000
  151.2715  145.0172  159.3364 C   0  0  0  0  0  0  0  0  0  0  0  0
  152.1072  143.7329  159.3223 C   0  0  2  0  0  0  0  0  0  0  0  0
  151.5957  142.7234  158.2762 C   0  0  0  0  0  0  0  0  0  0  0  0
  152.3367  141.4684  158.3698 N   0  0  0  0  0  0  0  0  0  0  0  0
  152.1432  140.5729  157.2964 C   0  0  0  0  0  0  0  0  0  0  0  0
  151.1178  140.8107  156.3515 C   0  0  0  0  0  0  0  0  0  0  0  0
  150.9385  139.9026  155.2908 C   0  0  0  0  0  0  0  0  0  0  0  0
  151.7825  138.7790  155.1952 C   0  0  0  0  0  0  0  0  0  0  0  0
  151.5798  137.7865  154.0558 C   0  0  0  0  0  0  0  0  0  0  0  0
  150.6167  136.7209  154.3163 N   0  0  0  0  0  0  0  0  0  0  0  0
  150.7206  135.8063  155.2925 C   0  0  0  0  0  0  0  0  0  0  0  0
  151.6554  135.7782  156.0947 O   0  0  0  0  0  0  0  0  0  0  0  0
  149.5753  134.7859  155.3863 C   0  0  2  0  0  0  0  0  0  0  0  0
  150.1891  133.3769  155.3336 C   0  0  0  0  0  0  0  0  0  0  0  0
  148.6641  134.9280  154.2517 N   0  0  0  0  0  0  0  0  0  0  0  0
  147.3993  134.4833  154.2208 C   0  0  0  0  0  0  0  0  0  0  0  0
  146.7907  134.7643  153.0684 N   0  0  0  0  0  0  0  0  0  0  0  0
  146.8481  133.8834  155.1418 O   0  0  0  0  0  0  0  0  0  0  0  0
  152.7802  138.6254  156.1840 C   0  0  0  0  0  0  0  0  0  0  0  0
  152.9595  139.4949  157.2006 N   0  0  0  0  0  0  0  0  0  0  0  0
  152.3708  140.9174  159.7227 C   0  0  0  0  0  0  0  0  0  0  0  0
  152.8592  141.9808  160.7198 C   0  0  0  0  0  0  0  0  0  0  0  0
  152.0424  143.1427  160.6178 O   0  0  0  0  0  0  0  0  0  0  0  0
  151.3002  145.5147  158.3667 H   0  0  0  0  0  0  0  0  0  0  0  0
  151.6475  145.7195  160.0809 H   0  0  0  0  0  0  0  0  0  0  0  0
  150.2284  144.8066  159.5739 H   0  0  0  0  0  0  0  0  0  0  0  0
  153.1433  143.9959  159.1016 H   0  0  0  0  0  0  0  0  0  0  0  0
  150.5372  142.5165  158.4403 H   0  0  0  0  0  0  0  0  0  0  0  0
  151.6819  143.1643  157.2838 H   0  0  0  0  0  0  0  0  0  0  0  0
  150.4806  141.6796  156.4211 H   0  0  0  0  0  0  0  0  0  0  0  0
  150.1610  140.0691  154.5597 H   0  0  0  0  0  0  0  0  0  0  0  0
  151.2337  138.3402  153.1829 H   0  0  0  0  0  0  0  0  0  0  0  0
  152.5444  137.3566  153.7803 H   0  0  0  0  0  0  0  0  0  0  0  0
  149.8150  136.6706  153.7044 H   0  0  0  0  0  0  0  0  0  0  0  0
  149.0290  134.9131  156.3232 H   0  0  0  0  0  0  0  0  0  0  0  0
  150.8780  133.2139  156.1635 H   0  0  0  0  0  0  0  0  0  0  0  0
  150.7389  133.2061  154.4066 H   0  0  0  0  0  0  0  0  0  0  0  0
  149.4146  132.6125  155.4022 H   0  0  0  0  0  0  0  0  0  0  0  0
  149.0186  135.4175  153.4434 H   0  0  0  0  0  0  0  0  0  0  0  0
  145.8338  134.4816  152.9156 H   0  0  0  0  0  0  0  0  0  0  0  0
  147.2951  135.2605  152.3480 H   0  0  0  0  0  0  0  0  0  0  0  0
  153.4580  137.7851  156.1744 H   0  0  0  0  0  0  0  0  0  0  0  0
  151.3724  140.5765  160.0006 H   0  0  0  0  0  0  0  0  0  0  0  0
  153.0342  140.0524  159.7607 H   0  0  0  0  0  0  0  0  0  0  0  0
  152.8030  141.5948  161.7375 H   0  0  0  0  0  0  0  0  0  0  0  0
  153.9030  142.2390  160.5344 H   0  0  0  0  0  0  0  0  0  0  0  0
  1  2  1  0  0  0  0
  1 24  1  0  0  0  0
  1 25  1  0  0  0  0
  1 26  1  0  0  0  0
  2 23  1  0  0  0  0
  2  3  1  0  0  0  0
  2 27  1  0  0  0  0
  3  4  1  0  0  0  0
  3 28  1  0  0  0  0
  3 29  1  0  0  0  0
  4  5  1  0  0  0  0
  4 21  1  0  0  0  0
  5 20  1  0  0  0  0
  5  6  2  0  0  0  0
  6  7  1  0  0  0  0
  6 30  1  0  0  0  0
  7  8  2  0  0  0  0
  7 31  1  0  0  0  0
  8  9  1  0  0  0  0
  8 19  1  0  0  0  0
  9 10  1  0  0  0  0
  9 32  1  0  0  0  0
  9 33  1  0  0  0  0
 10 11  1  0  0  0  0
 10 34  1  0  0  0  0
 11 12  2  0  0  0  0
 11 13  1  0  0  0  0
 13 14  1  0  0  0  0
 13 15  1  0  0  0  0
 13 35  1  0  0  0  0
 14 36  1  0  0  0  0
 14 37  1  0  0  0  0
 14 38  1  0  0  0  0
 15 16  1  0  0  0  0
 15 39  1  0  0  0  0
 16 17  1  0  0  0  0
 16 18  2  0  0  0  0
 17 40  1  0  0  0  0
 17 41  1  0  0  0  0
 19 20  2  0  0  0  0
 19 42  1  0  0  0  0
 21 22  1  0  0  0  0
 21 43  1  0  0  0  0
 21 44  1  0  0  0  0
 22 23  1  0  0  0  0
 22 45  1  0  0  0  0
 22 46  1  0  0  0  0
M  END
> <s_m_source_file>
AV-unprocessed.smi

> <i_m_source_file_index>
823

> <i_lp_mmshare_version>
43012

> <i_f3d_flags>
0

> <s_epik_input>
W0NIM11bQ0BASF0xW0NIMl1OKFtDSDJdW0NIMl1PMSljMltjSF1bY0hdYyhbY0hdbjIpW0NIMl1bTkhdQyg9TylbQ0BIXShbQ0gzXSlbTkhdQyg9TylbTkgyXQ==

> <s_epik_cmdline>
J2VwaWtfcHl0aG9uJywgJy1waCcsICc3LjAnLCAnLXRuJywgJzgnLCAnLW1hJywgJzIwMCcsICctbWV0YWxfYmluZGluZycsICctaW1hZScsICc8aW5maWxlLm1hZT4nLCAnLW9tYWUnLCAnPG91dGZpbGUubWFlPic=

> <r_lp_tautomer_probability>
1

> <r_epik_Ionization_Penalty>
0.00555043

> <r_epik_Ionization_Penalty_Charging>
0

> <r_epik_Ionization_Penalty_Neutral>
0.00555043

> <r_epik_State_Penalty>
0.00402575

> <r_epik_Charging_Adjusted_Penalty>
0.00402575

> <i_epik_Tot_Q>
0

> <i_epik_Tot_abs_Q>
0

> <r_epik_Metal_State_Penalty>
-0

> <b_epik_Metal_Only>
0

> <s_lp_Force_Field>
OPLS_2005

> <r_lp_Energy>
10.1488

> <b_lp_Chiralities_Consistent>
1

> <s_lp_Variant>
AV-unprocessed.smi:823-1

> <Gold.Version>
5.8.1

> <Gold.Id.Protein>
6NUR|6NUR_protein|mol2

> <Gold.PLP.Fitness>
55.9869

> <Gold.PLP.PLP>
-42.6248

> <Gold.PLP.part.hbond>
-6.0000

> <Gold.PLP.part.metal>
0.0000

> <Gold.PLP.part.buried>
-2.5707

> <Gold.PLP.part.nonpolar>
-33.6377

> <Gold.PLP.part.repulsive>
0.1911

> <Gold.PLP.ligand.clash>
0.0000

> <Gold.PLP.ligand.torsion>
0.8948

> <Gold.PLP.Chemscore.Hbond>
4.9353

> <Gold.PLP.Chemscore.CHOScore>
0.0000

> <Gold.PLP.Chemscore.Metal>
0.0000

> <Gold.Chemscore.Hbonds>
donor molecule, donor type, donor heavy atom, donor atom, acceptor molecule, acceptor atom, score
      L1  H    10    34       P1  7948  0.95
      L1  H    15    39       P1  7948  1.00
      L1  H    17    41       P1  7948  0.94
      P1  H  7997  8010       L1    20  1.00
      P1  H 10752 10763       L1    12  1.00

> <Gold.PLP.Chemscore.Internal.Correction>
0.3459

> <Gold.Rescore>
     Score         DG    S(hbond)    S(metal)    S(lipo)     H(rot)  DE(clash)    DE(int)     intcor
     20.82     -22.00       3.48        0.00      99.16       2.62       0.26       0.93       ----

> <Gold.Chemscore.Fitness>
20.8174

> <Gold.Chemscore.DG>
-22.0002

> <Gold.Chemscore.ZeroCoef>
-5.4800

> <Gold.Chemscore.Hbond>
3.4779

> <Gold.Chemscore.Metal>
0.0000

> <Gold.Chemscore.Lipo>
99.1600

> <Gold.Chemscore.Internal_Hbond>
0.0000

> <Gold.Chemscore.DEClash>
0.2557

> <Gold.Chemscore.DEInternal>
0.9271

> <Gold.Chemscore.Rot>
2.6163

> <Gold.Chemscore.Internal.Correction>
   9.000000E+99

> <Gold.Chemscore.Hbonds>
donor molecule, donor type, donor heavy atom, donor atom, acceptor molecule, acceptor atom, score
      L1  H    10    34       P1  7948  0.38
      L1  H    15    39       P1  7948  0.60
      L1  H    17    41       P1  7948  0.90
      P1  H  7997  8010       L1    20  0.22
      P1  H 10752 10763       L1    12  0.40

> <Gold.Chemscore.Hbond.Weighted>
-11.6163

> <Gold.Chemscore.Metal.Weighted>
-0.0000

> <Gold.Chemscore.Lipo.Weighted>
-11.6017

> <Gold.Chemscore.Internal_Hbond.Weighted>
0.0000

> <Gold.Chemscore.DEClash.Weighted>
0.2557

> <Gold.Chemscore.DEInternal.Weighted>
0.9271

> <Gold.Chemscore.Rot.Weighted>
6.6978

> <Gold.Chemscore.Internal.Correction.Weighted>
   9.000000E+99

> <Gold.Protein.RotatedTorsions>
[ 6907 6896 6895 6894 ] final -107.94 input  -60.11 | X-H torsion
[ 7974 7965 7964 7962 ] final  -47.61 input  175.53 | X-H torsion
[ 8008 7997 7996 7995 ] final   41.65 input   59.86 | X-H torsion
[ 10167 10162 10161 10158 ] final   -4.71 input  -65.29 | X-H torsion
[ 10718 10713 10712 10709 ] final   95.67 input   66.30 | X-H torsion
[ 10763 10752 10751 10750 ] final   86.72 input  -60.55 | X-H torsion
[ 11005 11000 10999 10996 ] final -165.94 input  -57.11 | X-H torsion

> <Gold.Protein.ActiveResidues>
 VAL166  LYS551  ARG553  GLY616  TRP617  ASP618  TYR619  PRO620  LYS621  CYS622 
 ASP623  PHE694  ASN695  SER759  ASP760  ASP761  ALA762  ILE779  LEU786  VAL792 
 PHE793  MET794  SER795  GLU796  ALA797  LYS798  CYS799  TRP800  GLU811  SER814 

> <Gold.Protein.RotatedAtoms>
  150.7473  133.9752  159.3558 H   0  0  0  0  0  0  0  0  0  0  0  0  # atno 6907 bound_to 6896
  151.7688  135.0789  160.0366 H   0  0  0  0  0  0  0  0  0  0  0  0  # atno 6908 bound_to 6896
  152.3353  133.5967  159.5874 H   0  0  0  0  0  0  0  0  0  0  0  0  # atno 6909 bound_to 6896
  145.9598  140.7490  142.9463 H   0  0  0  0  0  0  0  0  0  0  0  0  # atno 7974 bound_to 7965
  155.2732  140.3367  155.4263 H   0  0  0  0  0  0  0  0  0  0  0  0  # atno 8008 bound_to 7997
  156.2123  140.1775  156.7708 H   0  0  0  0  0  0  0  0  0  0  0  0  # atno 8009 bound_to 7997
  154.5704  140.0671  156.8940 H   0  0  0  0  0  0  0  0  0  0  0  0  # atno 8010 bound_to 7997
  140.6937  143.6392  150.8451 H   0  0  0  0  0  0  0  0  0  0  0  0  # atno 10167 bound_to 10162
  157.6936  131.0553  150.4374 H   0  0  0  0  0  0  0  0  0  0  0  0  # atno 10718 bound_to 10713
  153.1598  135.4570  154.9755 H   0  0  0  0  0  0  0  0  0  0  0  0  # atno 10763 bound_to 10752
  154.7889  135.3213  154.7826 H   0  0  0  0  0  0  0  0  0  0  0  0  # atno 10764 bound_to 10752
  153.8318  135.6938  153.4868 H   0  0  0  0  0  0  0  0  0  0  0  0  # atno 10765 bound_to 10752
  140.5701  134.5247  157.5160 H   0  0  0  0  0  0  0  0  0  0  0  0  # atno 11005 bound_to 11000
  144.6812  140.2572  143.7324 LP  0  0  0  0  0  0  0  0  0  0  0  0  # atno 17320 bound_to 7965
  145.8056  139.1982  143.2023 LP  0  0  0  0  0  0  0  0  0  0  0  0  # atno 17321 bound_to 7965
  140.0107  143.5645  152.2840 LP  0  0  0  0  0  0  0  0  0  0  0  0  # atno 17342 bound_to 10162
  139.6368  144.7651  151.2421 LP  0  0  0  0  0  0  0  0  0  0  0  0  # atno 17343 bound_to 10162
  156.4735  130.4058  149.6504 LP  0  0  0  0  0  0  0  0  0  0  0  0  # atno 17370 bound_to 10713
  156.3575  130.7464  151.2432 LP  0  0  0  0  0  0  0  0  0  0  0  0  # atno 17371 bound_to 10713
  139.9366  134.7864  156.0787 LP  0  0  0  0  0  0  0  0  0  0  0  0  # atno 17394 bound_to 11000
  141.1062  133.6659  156.2869 LP  0  0  0  0  0  0  0  0  0  0  0  0  # atno 17395 bound_to 11000

$$$$
