AV-unprocessed.smi:2032|AV-procd|sdf|8232|dock9
  -GOLD-   2272010503D 1   1.00000     0.00000
 Structure written by MMmdl.
 42 43  0  0  0  0  0  0  0  0  1 V2000
  151.8137  137.7780  154.9989 C   0  0  0  0  0  0  0  0  0  0  0  0
  151.2286  139.1759  154.7707 C   0  0  1  0  0  0  0  0  0  0  0  0
  149.7885  139.1224  154.2272 C   0  0  0  0  0  0  0  0  0  0  0  0
  149.1885  140.4511  154.0649 N   0  0  0  0  0  0  0  0  0  0  0  0
  147.7955  140.3874  153.5642 C   0  0  2  0  0  0  0  0  0  0  0  0
  146.9881  141.6772  153.8588 C   0  0  0  0  0  0  0  0  0  0  0  0
  147.0000  139.1667  154.1119 C   0  0  0  0  0  0  0  0  0  0  0  0
  147.0775  137.9925  153.2464 N   0  0  0  0  0  0  0  0  0  0  0  0
  146.0738  137.1289  153.0353 C   0  0  0  0  0  0  0  0  0  0  0  0
  144.9623  137.2421  153.5535 O   0  0  0  0  0  0  0  0  0  0  0  0
  146.4456  136.1436  152.1994 N   0  0  0  0  0  0  0  0  0  0  0  0
  145.6687  135.0514  151.7308 C   0  0  0  0  0  0  0  0  0  0  0  0
  144.3317  135.0056  151.7679 N   0  0  0  0  0  0  0  0  0  0  0  0
  143.8325  133.8123  151.2402 C   0  0  0  0  0  0  0  0  0  0  0  0
  144.8105  132.9547  150.8017 C   0  0  0  0  0  0  0  0  0  0  0  0
  146.4069  133.6161  151.0352 S   0  0  0  0  0  0  0  0  0  0  0  0
  149.2916  141.1503  155.3512 C   0  0  0  0  0  0  0  0  0  0  0  0
  150.7296  141.1936  155.9026 C   0  0  1  0  0  0  0  0  0  0  0  0
  150.7973  141.8452  157.2879 C   0  0  0  0  0  0  0  0  0  0  0  0
  151.2308  139.8676  156.0125 O   0  0  0  0  0  0  0  0  0  0  0  0
  151.8407  137.2080  154.0701 H   0  0  0  0  0  0  0  0  0  0  0  0
  151.2216  137.2149  155.7210 H   0  0  0  0  0  0  0  0  0  0  0  0
  152.8332  137.8403  155.3800 H   0  0  0  0  0  0  0  0  0  0  0  0
  151.8661  139.7105  154.0643 H   0  0  0  0  0  0  0  0  0  0  0  0
  149.8293  138.6040  153.2706 H   0  0  0  0  0  0  0  0  0  0  0  0
  149.1694  138.5167  154.8909 H   0  0  0  0  0  0  0  0  0  0  0  0
  147.8389  140.2842  152.4788 H   0  0  0  0  0  0  0  0  0  0  0  0
  145.9480  141.5982  153.5445 H   0  0  0  0  0  0  0  0  0  0  0  0
  147.3807  142.5395  153.3215 H   0  0  0  0  0  0  0  0  0  0  0  0
  146.9918  141.9118  154.9236 H   0  0  0  0  0  0  0  0  0  0  0  0
  147.3478  138.8526  155.0946 H   0  0  0  0  0  0  0  0  0  0  0  0
  145.9492  139.4324  154.2311 H   0  0  0  0  0  0  0  0  0  0  0  0
  147.9585  137.8258  152.7829 H   0  0  0  0  0  0  0  0  0  0  0  0
  147.3943  136.1791  151.8567 H   0  0  0  0  0  0  0  0  0  0  0  0
  142.7643  133.6553  151.2162 H   0  0  0  0  0  0  0  0  0  0  0  0
  144.6887  131.9781  150.3576 H   0  0  0  0  0  0  0  0  0  0  0  0
  148.9625  142.1827  155.2561 H   0  0  0  0  0  0  0  0  0  0  0  0
  148.6352  140.6745  156.0817 H   0  0  0  0  0  0  0  0  0  0  0  0
  151.3658  141.7581  155.2186 H   0  0  0  0  0  0  0  0  0  0  0  0
  150.4327  142.8723  157.2574 H   0  0  0  0  0  0  0  0  0  0  0  0
  151.8224  141.8672  157.6584 H   0  0  0  0  0  0  0  0  0  0  0  0
  150.1932  141.2966  158.0111 H   0  0  0  0  0  0  0  0  0  0  0  0
  1  2  1  0  0  0  0
  1 21  1  0  0  0  0
  1 22  1  0  0  0  0
  1 23  1  0  0  0  0
  2 20  1  0  0  0  0
  2  3  1  0  0  0  0
  2 24  1  0  0  0  0
  3  4  1  0  0  0  0
  3 25  1  0  0  0  0
  3 26  1  0  0  0  0
  4  5  1  0  0  0  0
  4 17  1  0  0  0  0
  5  6  1  0  0  0  0
  5  7  1  0  0  0  0
  5 27  1  0  0  0  0
  6 28  1  0  0  0  0
  6 29  1  0  0  0  0
  6 30  1  0  0  0  0
  7  8  1  0  0  0  0
  7 31  1  0  0  0  0
  7 32  1  0  0  0  0
  8  9  1  0  0  0  0
  8 33  1  0  0  0  0
  9 10  2  0  0  0  0
  9 11  1  0  0  0  0
 11 12  1  0  0  0  0
 11 34  1  0  0  0  0
 12 16  1  0  0  0  0
 12 13  2  0  0  0  0
 13 14  1  0  0  0  0
 14 15  2  0  0  0  0
 14 35  1  0  0  0  0
 15 16  1  0  0  0  0
 15 36  1  0  0  0  0
 17 18  1  0  0  0  0
 17 37  1  0  0  0  0
 17 38  1  0  0  0  0
 18 19  1  0  0  0  0
 18 20  1  0  0  0  0
 18 39  1  0  0  0  0
 19 40  1  0  0  0  0
 19 41  1  0  0  0  0
 19 42  1  0  0  0  0
M  END
> <s_m_source_file>
AV-unprocessed.smi

> <i_m_source_file_index>
2032

> <i_lp_mmshare_version>
43012

> <i_f3d_flags>
0

> <s_epik_input>
W0NIM11bQ0BASF0xW0NIMl1OKFtDSDJdW0NASF0oTzEpW0NIM10pW0NASF0oW0NIM10pW0NIMl1bTkhdQyg9TylbTkhdYzJuW2NIXVtjSF1zMg==

> <s_epik_cmdline>
J2VwaWtfcHl0aG9uJywgJy1waCcsICc3LjAnLCAnLXRuJywgJzgnLCAnLW1hJywgJzIwMCcsICctbWV0YWxfYmluZGluZycsICctaW1hZScsICc8aW5maWxlLm1hZT4nLCAnLW9tYWUnLCAnPG91dGZpbGUubWFlPic=

> <r_lp_tautomer_probability>
0.999

> <r_epik_Ionization_Penalty>
0.219202

> <r_epik_Ionization_Penalty_Charging>
0

> <r_epik_Ionization_Penalty_Neutral>
0.219202

> <r_epik_State_Penalty>
0.209349

> <r_epik_Charging_Adjusted_Penalty>
0.209349

> <i_epik_Tot_Q>
0

> <i_epik_Tot_abs_Q>
0

> <r_epik_Metal_State_Penalty>
0.247737

> <b_epik_Metal_Only>
0

> <s_lp_Force_Field>
OPLS_2005

> <r_lp_Energy>
24.8092

> <b_lp_Chiralities_Consistent>
1

> <s_lp_Variant>
AV-unprocessed.smi:2032-2

> <Gold.Version>
5.8.1

> <Gold.Id.Protein>
6NUR|6NUR_protein|mol2

> <Gold.PLP.Fitness>
39.4019

> <Gold.PLP.PLP>
-33.7744

> <Gold.PLP.part.hbond>
-2.1536

> <Gold.PLP.part.metal>
0.0000

> <Gold.PLP.part.buried>
-4.2310

> <Gold.PLP.part.nonpolar>
-29.4574

> <Gold.PLP.part.repulsive>
1.5306

> <Gold.PLP.ligand.clash>
0.0000

> <Gold.PLP.ligand.torsion>
1.2172

> <Gold.PLP.Chemscore.Hbond>
1.6752

> <Gold.PLP.Chemscore.CHOScore>
1.0000

> <Gold.PLP.Chemscore.Metal>
0.0000

> <Gold.Chemscore.Hbonds>
donor molecule, donor type, donor heavy atom, donor atom, acceptor molecule, acceptor atom, score
      L1  H     8    33       P1  7948  0.69
      L1  H    11    34       P1  7948  1.00
      L1  C    14    35       P1 10186  1.00

> <Gold.PLP.Chemscore.Internal.Correction>
0.0361

> <Gold.Rescore>
     Score         DG    S(hbond)    S(metal)    S(lipo)     H(rot)  DE(clash)    DE(int)     intcor
     13.84     -16.58       1.78        0.00      78.70       1.57       0.31       2.44       ----

> <Gold.Chemscore.Fitness>
13.8403

> <Gold.Chemscore.DG>
-16.5842

> <Gold.Chemscore.ZeroCoef>
-5.4800

> <Gold.Chemscore.Hbond>
1.7751

> <Gold.Chemscore.Metal>
0.0000

> <Gold.Chemscore.Lipo>
78.6959

> <Gold.Chemscore.Internal_Hbond>
0.0000

> <Gold.Chemscore.DEClash>
0.3056

> <Gold.Chemscore.DEInternal>
2.4383

> <Gold.Chemscore.Rot>
1.5750

> <Gold.Chemscore.Internal.Correction>
   9.000000E+99

> <Gold.Chemscore.Hbonds>
donor molecule, donor type, donor heavy atom, donor atom, acceptor molecule, acceptor atom, score
      L1  H     8    33       P1  7948  0.66
      L1  H    11    34       P1  7948  0.93

> <Gold.Chemscore.Hbond.Weighted>
-5.9287

> <Gold.Chemscore.Metal.Weighted>
-0.0000

> <Gold.Chemscore.Lipo.Weighted>
-9.2074

> <Gold.Chemscore.Internal_Hbond.Weighted>
0.0000

> <Gold.Chemscore.DEClash.Weighted>
0.3056

> <Gold.Chemscore.DEInternal.Weighted>
2.4383

> <Gold.Chemscore.Rot.Weighted>
4.0319

> <Gold.Chemscore.Internal.Correction.Weighted>
   9.000000E+99

> <Gold.Protein.RotatedTorsions>
[ 6907 6896 6895 6894 ] final  -42.79 input  -60.11 | X-H torsion
[ 7974 7965 7964 7962 ] final  -98.76 input  175.53 | X-H torsion
[ 8008 7997 7996 7995 ] final  113.32 input   59.86 | X-H torsion
[ 10167 10162 10161 10158 ] final -155.87 input  -65.29 | X-H torsion
[ 10718 10713 10712 10709 ] final -151.00 input   66.30 | X-H torsion
[ 10763 10752 10751 10750 ] final  -88.04 input  -60.55 | X-H torsion
[ 11005 11000 10999 10996 ] final   79.29 input  -57.11 | X-H torsion

> <Gold.Protein.ActiveResidues>
 VAL166  LYS551  ARG553  GLY616  TRP617  ASP618  TYR619  PRO620  LYS621  CYS622 
 ASP623  PHE694  ASN695  SER759  ASP760  ASP761  ALA762  ILE779  LEU786  VAL792 
 PHE793  MET794  SER795  GLU796  ALA797  LYS798  CYS799  TRP800  GLU811  SER814 

> <Gold.Protein.RotatedAtoms>
  150.9512  134.8911  159.7672 H   0  0  0  0  0  0  0  0  0  0  0  0  # atno 6907 bound_to 6896
  152.5120  134.3804  159.9359 H   0  0  0  0  0  0  0  0  0  0  0  0  # atno 6908 bound_to 6896
  151.3820  133.3778  159.2746 H   0  0  0  0  0  0  0  0  0  0  0  0  # atno 6909 bound_to 6896
  145.3164  140.9412  143.2740 H   0  0  0  0  0  0  0  0  0  0  0  0  # atno 7974 bound_to 7965
  156.2250  140.2982  156.0045 H   0  0  0  0  0  0  0  0  0  0  0  0  # atno 8008 bound_to 7997
  155.2381  140.0421  157.2988 H   0  0  0  0  0  0  0  0  0  0  0  0  # atno 8009 bound_to 7997
  154.5901  140.2399  155.7941 H   0  0  0  0  0  0  0  0  0  0  0  0  # atno 8010 bound_to 7997
  139.6896  143.9442  152.2378 H   0  0  0  0  0  0  0  0  0  0  0  0  # atno 10167 bound_to 10162
  156.4535  130.8179  151.2410 H   0  0  0  0  0  0  0  0  0  0  0  0  # atno 10718 bound_to 10713
  154.6402  135.5391  153.7781 H   0  0  0  0  0  0  0  0  0  0  0  0  # atno 10763 bound_to 10752
  153.0330  135.6457  154.1171 H   0  0  0  0  0  0  0  0  0  0  0  0  # atno 10764 bound_to 10752
  154.1095  135.2927  155.3213 H   0  0  0  0  0  0  0  0  0  0  0  0  # atno 10765 bound_to 10752
  139.9178  134.7831  156.1759 H   0  0  0  0  0  0  0  0  0  0  0  0  # atno 11005 bound_to 11000
  144.8975  139.4693  143.6648 LP  0  0  0  0  0  0  0  0  0  0  0  0  # atno 17320 bound_to 7965
  146.3099  139.7709  142.9028 LP  0  0  0  0  0  0  0  0  0  0  0  0  # atno 17321 bound_to 7965
  139.9255  144.6774  150.8417 LP  0  0  0  0  0  0  0  0  0  0  0  0  # atno 17342 bound_to 10162
  140.7678  143.3345  151.2339 LP  0  0  0  0  0  0  0  0  0  0  0  0  # atno 17343 bound_to 10162
  157.7501  131.0130  150.3407 LP  0  0  0  0  0  0  0  0  0  0  0  0  # atno 17370 bound_to 10713
  156.3791  130.3877  149.7115 LP  0  0  0  0  0  0  0  0  0  0  0  0  # atno 17371 bound_to 10713
  141.0672  133.6814  156.2067 LP  0  0  0  0  0  0  0  0  0  0  0  0  # atno 17394 bound_to 11000
  140.6566  134.5011  157.5581 LP  0  0  0  0  0  0  0  0  0  0  0  0  # atno 17395 bound_to 11000

$$$$
