#       Name:                AV-unprocessed.smi:693
#       Creating user name   scv26
#       Creation time:       Fri Mar 27 00:35:18 2020


#       File generated by GOLD software.
#

@<TRIPOS>MOLECULE
AV-unprocessed.smi:693
    51    52     1
SMALL
NO_CHARGES


@<TRIPOS>ATOM
      1 ****        -8.0571  -0.6272   0.6031 C.3            1 S1                 0.0000
      2 ****        -6.6266  -0.1319   0.5581 C.ar           1 S1                 0.0000
      3 ****        -6.1447   0.7485   1.5489 C.ar           1 S1                 0.0000
      4 ****        -4.8080   1.1844   1.4667 C.ar           1 S1                 0.0000
      5 ****        -4.0082   0.7252   0.4002 C.ar           1 S1                 0.0000
      6 ****        -2.5617   1.1577   0.2659 C.3            1 S1                 0.0000
      7 ****        -1.6048   0.2067   1.0023 C.3            1 S1                 0.0000
      8 ****        -0.2144   0.6173   0.8452 N.am           1 S1                 0.0000
      9 ****         0.5532   0.3544  -0.2264 C.2            1 S1                 0.0000
     10 ****         0.1224  -0.2612  -1.2030 O.2            1 S1                 0.0000
     11 ****         1.8163   0.8469  -0.1573 N.am           1 S1                 0.0000
     12 ****         2.4740   1.3911   1.0417 C.3            1 S1                 0.0000
     13 ****         3.4752   0.3472   1.5634 C.3            1 S1                 0.0000
     14 ****         4.4893  -0.0430   0.4709 C.3            1 S1                 0.0000
     15 ****         3.8001  -0.4253  -0.8638 C.3            1 S1                 0.0000
     16 ****         4.7937  -0.6757  -2.0212 C.3            1 S1                 0.0000
     17 ****         5.6922  -1.8994  -1.8132 C.2            1 S1                 0.0000
     18 ****         5.3890  -3.0010  -2.5043 N.am           1 S1                 0.0000
     19 ****         6.6603  -1.8468  -1.0577 O.2            1 S1                 0.0000
     20 ****         2.7787   0.6675  -1.2520 C.3            1 S1                 0.0000
     21 ****        -4.5871  -0.1545  -0.5386 C.ar           1 S1                 0.0000
     22 ****        -5.8675  -0.5774  -0.4675 N.ar           1 S1                 0.0000
     23 ****        -8.2799  -1.0519   1.5822 H              1 S1                 0.0000
     24 ****        -8.2387  -1.3960  -0.1492 H              1 S1                 0.0000
     25 ****        -8.7462   0.1975   0.4211 H              1 S1                 0.0000
     26 ****        -6.7837   1.0817   2.3535 H              1 S1                 0.0000
     27 ****        -4.4054   1.8566   2.2103 H              1 S1                 0.0000
     28 ****        -2.3088   1.2056  -0.7940 H              1 S1                 0.0000
     29 ****        -2.4543   2.1715   0.6536 H              1 S1                 0.0000
     30 ****        -1.8380   0.1956   2.0672 H              1 S1                 0.0000
     31 ****        -1.7329  -0.8170   0.6461 H              1 S1                 0.0000
     32 ****         0.1983   1.1364   1.6066 H              1 S1                 0.0000
     33 ****         2.9992   2.3102   0.7774 H              1 S1                 0.0000
     34 ****         1.7847   1.6730   1.8375 H              1 S1                 0.0000
     35 ****         4.0003   0.7341   2.4369 H              1 S1                 0.0000
     36 ****         2.9354  -0.5411   1.8945 H              1 S1                 0.0000
     37 ****         5.1642   0.7965   0.2990 H              1 S1                 0.0000
     38 ****         5.1059  -0.8630   0.8385 H              1 S1                 0.0000
     39 ****         3.2417  -1.3488  -0.6987 H              1 S1                 0.0000
     40 ****         4.2438  -0.8030  -2.9551 H              1 S1                 0.0000
     41 ****         5.4272   0.2006  -2.1642 H              1 S1                 0.0000
     42 ****         5.9531  -3.8322  -2.4034 H              1 S1                 0.0000
     43 ****         4.5959  -2.9973  -3.1292 H              1 S1                 0.0000
     44 ****         2.2882   0.4111  -2.1921 H              1 S1                 0.0000
     45 ****         3.2912   1.6121  -1.4412 H              1 S1                 0.0000
     46 ****        -4.0068  -0.5326  -1.3675 H              1 S1                 0.0000
     47 ****        -0.8248  -0.5816  -1.2140 LP             1 S1                 0.0000
     48 ****         0.7200  -0.4403  -1.9845 LP             1 S1                 0.0000
     49 ****         6.8689  -0.9987  -0.5706 LP             1 S1                 0.0000
     50 ****         7.2393  -2.6520  -0.9301 LP             1 S1                 0.0000
     51 ****        -6.2427  -1.2013  -1.1529 LP             1 S1                 0.0000
@<TRIPOS>BOND
    1    1    2 1     
    2    1   23 1     
    3    1   24 1     
    4    1   25 1     
    5    2   22 ar    
    6    2    3 ar    
    7    3    4 ar    
    8    3   26 1     
    9    4    5 ar    
   10    4   27 1     
   11    5    6 1     
   12    5   21 ar    
   13    6    7 1     
   14    6   28 1     
   15    6   29 1     
   16    7    8 1     
   17    7   30 1     
   18    7   31 1     
   19    8    9 am    
   20    8   32 1     
   21    9   10 2     
   22    9   11 am    
   23   11   20 1     
   24   11   12 1     
   25   12   13 1     
   26   12   33 1     
   27   12   34 1     
   28   13   14 1     
   29   13   35 1     
   30   13   36 1     
   31   14   15 1     
   32   14   37 1     
   33   14   38 1     
   34   15   16 1     
   35   15   20 1     
   36   15   39 1     
   37   16   17 1     
   38   16   40 1     
   39   16   41 1     
   40   17   18 am    
   41   17   19 2     
   42   18   42 1     
   43   18   43 1     
   44   20   44 1     
   45   20   45 1     
   46   21   22 ar    
   47   21   46 1     
   48   10   47 1     
   49   10   48 1     
   50   19   49 1     
   51   19   50 1     
   52   22   51 1     
@<TRIPOS>SUBSTRUCTURE
      1 S1             1
@<TRIPOS>SET
LONE_PAIRS      STATIC     ATOMS    <user>   **** ""
5 47 48 49 50 51
DONOR_HYDROGENS      STATIC     ATOMS    <user>   **** ""
3 32 42 43
ATOM$BLUE        STATIC     ATOMS    COLORGROUP SYSTEM
5 47 48 49 50 51
ATOM$RED        STATIC     ATOMS    COLORGROUP SYSTEM
3 32 42 43
