#       Name:                AV-unprocessed.smi:1199
#       Creating user name   scv26
#       Creation time:       Fri Mar 27 04:04:18 2020


#       File generated by GOLD software.
#

@<TRIPOS>MOLECULE
AV-unprocessed.smi:1199
    51    52     1
SMALL
NO_CHARGES


@<TRIPOS>ATOM
      1 ****        -1.9211  -1.4461  -3.3043 C.3            1 S1                 0.0000
      2 ****        -1.5202  -0.4726  -2.1882 C.3            1 S1                 0.0000
      3 ****        -2.0131  -0.9564  -0.8045 C.3            1 S1                 0.0000
      4 ****        -1.5214  -0.1090   0.3123 N.4            1 S1                 1.0000
      5 ****        -2.2671   1.1623   0.4683 C.3            1 S1                 0.0000
      6 ****        -1.6215   2.0171   1.5708 C.3            1 S1                 0.0000
      7 ****        -1.6065   1.2827   2.7892 O.3            1 S1                 0.0000
      8 ****        -0.8409   0.0883   2.6848 C.3            1 S1                 0.0000
      9 ****        -1.4439  -0.8273   1.6053 C.3            1 S1                 0.0000
     10 ****        -0.0668  -0.3091  -2.1841 N.am           1 S1                 0.0000
     11 ****         0.5928   0.8477  -2.0115 C.2            1 S1                 0.0000
     12 ****         0.0393   1.9433  -1.9270 O.2            1 S1                 0.0000
     13 ****         2.1119   0.7418  -1.8617 C.3            1 S1                 0.0000
     14 ****         2.4802   0.4272  -0.4741 N.am           1 S1                 0.0000
     15 ****         2.6743  -0.9255  -0.2377 N.2            1 S1                 0.0000
     16 ****         2.9883  -1.3369   0.9440 C.2            1 S1                 0.0000
     17 ****         3.1672  -2.6852   1.1322 O.3            1 S1                 0.0000
     18 ****         3.1463  -0.4086   2.0415 C.2            1 S1                 0.0000
     19 ****         2.9459   0.9062   1.8048 C.2            1 S1                 0.0000
     20 ****         2.5742   1.4049   0.4795 C.2            1 S1                 0.0000
     21 ****         2.3533   2.5924   0.2458 O.2            1 S1                 0.0000
     22 ****         3.4042  -2.7849   2.0415 H              1 S1                 0.0000
     23 ****        -3.0035  -1.5717  -3.3436 H              1 S1                 0.0000
     24 ****        -1.4775  -2.4310  -3.1536 H              1 S1                 0.0000
     25 ****        -1.5970  -1.0804  -4.2792 H              1 S1                 0.0000
     26 ****        -1.9948   0.4830  -2.4156 H              1 S1                 0.0000
     27 ****        -3.1021  -1.0162  -0.7773 H              1 S1                 0.0000
     28 ****        -1.6494  -1.9745  -0.6559 H              1 S1                 0.0000
     29 ****        -2.2719   1.7195  -0.4679 H              1 S1                 0.0000
     30 ****        -3.3078   0.9517   0.7189 H              1 S1                 0.0000
     31 ****        -0.6075   2.3107   1.2929 H              1 S1                 0.0000
     32 ****        -2.1913   2.9347   1.7175 H              1 S1                 0.0000
     33 ****         0.1960   0.3308   2.4512 H              1 S1                 0.0000
     34 ****        -0.8392  -0.4174   3.6504 H              1 S1                 0.0000
     35 ****        -2.4406  -1.1570   1.9025 H              1 S1                 0.0000
     36 ****        -0.8259  -1.7194   1.4984 H              1 S1                 0.0000
     37 ****         0.4829  -1.1536  -2.2552 H              1 S1                 0.0000
     38 ****         2.4915  -0.0227  -2.5426 H              1 S1                 0.0000
     39 ****         2.5758   1.6762  -2.1831 H              1 S1                 0.0000
     40 ****         3.4184  -0.7662   3.0237 H              1 S1                 0.0000
     41 ****         3.0597   1.6108   2.6156 H              1 S1                 0.0000
     42 ****        -0.5715   0.1399   0.0749 H              1 S1                 0.0000
     43 ****        -2.5463   1.0430   3.0328 LP             1 S1                 0.0000
     44 ****        -1.2122   1.8567   3.5069 LP             1 S1                 0.0000
     45 ****        -0.9569   2.0061  -1.9868 LP             1 S1                 0.0000
     46 ****         0.5857   2.7709  -1.7985 LP             1 S1                 0.0000
     47 ****         2.5707  -1.5828  -0.9842 LP             1 S1                 0.0000
     48 ****         3.8983  -3.0263   0.5413 LP             1 S1                 0.0000
     49 ****         2.3211  -3.1806   0.9355 LP             1 S1                 0.0000
     50 ****         2.0916   2.8805  -0.6753 LP             1 S1                 0.0000
     51 ****         2.4354   3.2696   0.9770 LP             1 S1                 0.0000
@<TRIPOS>BOND
    1    1    2 1     
    2    1   23 1     
    3    1   24 1     
    4    1   25 1     
    5    2    3 1     
    6    2   10 1     
    7    2   26 1     
    8    3    4 1     
    9    3   27 1     
   10    3   28 1     
   11    4    9 1     
   12    4    5 1     
   13    4   42 1     
   14    5    6 1     
   15    5   29 1     
   16    5   30 1     
   17    6    7 1     
   18    6   31 1     
   19    6   32 1     
   20    7    8 1     
   21    8    9 1     
   22    8   33 1     
   23    8   34 1     
   24    9   35 1     
   25    9   36 1     
   26   10   11 am    
   27   10   37 1     
   28   11   12 2     
   29   11   13 1     
   30   13   38 1     
   31   13   39 1     
   32   13   14 1     
   33   14   15 1     
   34   14   20 am    
   35   15   16 2     
   36   16   17 1     
   37   16   18 1     
   38   17   22 1     
   39   18   40 1     
   40   18   19 2     
   41   19   41 1     
   42   19   20 1     
   43   20   21 2     
   44    7   43 1     
   45    7   44 1     
   46   12   45 1     
   47   12   46 1     
   48   15   47 1     
   49   17   48 1     
   50   17   49 1     
   51   21   50 1     
   52   21   51 1     
@<TRIPOS>SUBSTRUCTURE
      1 S1             1
@<TRIPOS>SET
LONE_PAIRS      STATIC     ATOMS    <user>   **** ""
9 43 44 45 46 47 48 49 50 51
DONOR_HYDROGENS      STATIC     ATOMS    <user>   **** ""
3 42 37 22
ATOM$BLUE        STATIC     ATOMS    COLORGROUP SYSTEM
9 43 44 45 46 47 48 49 50 51
ATOM$RED        STATIC     ATOMS    COLORGROUP SYSTEM
3 42 37 22
