#       Name:                AV-unprocessed.smi:1163
#       Creating user name   scv26
#       Creation time:       Fri Mar 27 03:50:31 2020


#       File generated by GOLD software.
#

@<TRIPOS>MOLECULE
AV-unprocessed.smi:1163
    45    46     1
SMALL
NO_CHARGES


@<TRIPOS>ATOM
      1 ****        -7.7977   1.4579   0.4302 C.3            1 S1                 0.0000
      2 ****        -7.0268   0.2673   0.5480 O.3            1 S1                 0.0000
      3 ****        -5.6825   0.3245   0.2424 C.ar           1 S1                 0.0000
      4 ****        -4.9131  -0.8497   0.3623 C.ar           1 S1                 0.0000
      5 ****        -3.5401  -0.8002   0.0539 C.ar           1 S1                 0.0000
      6 ****        -2.9757   0.4303  -0.3598 C.ar           1 S1                 0.0000
      7 ****        -1.6113   0.6108  -0.7152 N.am           1 S1                 0.0000
      8 ****        -0.5527  -0.1564  -0.4031 C.2            1 S1                 0.0000
      9 ****        -0.5861  -1.1758   0.2856 O.2            1 S1                 0.0000
     10 ****         0.5778   0.3401  -0.9252 N.am           1 S1                 0.0000
     11 ****         1.8988  -0.2598  -0.7701 C.3            1 S1                 0.0000
     12 ****         2.9710   0.3783  -1.6419 C.3            1 S1                 0.0000
     13 ****         4.2603  -0.0816  -0.9541 C.3            1 S1                 0.0000
     14 ****         3.9456  -0.2216   0.4912 N.4            1 S1                 1.0000
     15 ****         4.5096  -1.4324   1.1399 C.3            1 S1                 0.0000
     16 ****         6.0381  -1.3614   1.3084 C.3            1 S1                 0.0000
     17 ****         6.4472  -2.4197   2.0064 F              1 S1                 0.0000
     18 ****         6.6590  -1.3692   0.1294 F              1 S1                 0.0000
     19 ****         6.3731  -0.2560   1.9736 F              1 S1                 0.0000
     20 ****         2.4775  -0.0831   0.6368 C.3            1 S1                 0.0000
     21 ****        -3.8355   1.5437  -0.4609 C.ar           1 S1                 0.0000
     22 ****        -5.1517   1.5033  -0.1659 N.ar           1 S1                 0.0000
     23 ****        -8.8312   1.2472   0.7047 H              1 S1                 0.0000
     24 ****        -7.7980   1.8340  -0.5941 H              1 S1                 0.0000
     25 ****        -7.4306   2.2383   1.0983 H              1 S1                 0.0000
     26 ****        -5.3692  -1.7749   0.6820 H              1 S1                 0.0000
     27 ****        -2.9582  -1.7053   0.1285 H              1 S1                 0.0000
     28 ****        -1.4105   1.4566  -1.2286 H              1 S1                 0.0000
     29 ****         0.5187   1.1842  -1.4762 H              1 S1                 0.0000
     30 ****         1.8432  -1.3245  -1.0076 H              1 S1                 0.0000
     31 ****         2.9140   0.0669  -2.6855 H              1 S1                 0.0000
     32 ****         2.8957   1.4664  -1.6063 H              1 S1                 0.0000
     33 ****         4.5561  -1.0454  -1.3715 H              1 S1                 0.0000
     34 ****         5.0839   0.6147  -1.1139 H              1 S1                 0.0000
     35 ****         4.0688  -1.5270   2.1334 H              1 S1                 0.0000
     36 ****         4.2188  -2.3268   0.5866 H              1 S1                 0.0000
     37 ****         2.2723   0.9220   1.0085 H              1 S1                 0.0000
     38 ****         2.0464  -0.7881   1.3492 H              1 S1                 0.0000
     39 ****        -3.4554   2.5014  -0.7853 H              1 S1                 0.0000
     40 ****         4.3488   0.5728   0.9678 H              1 S1                 0.0000
     41 ****        -7.4392  -0.4134  -0.0576 LP             1 S1                 0.0000
     42 ****        -7.1018  -0.0412   1.4962 LP             1 S1                 0.0000
     43 ****        -1.4547  -1.4950   0.6645 LP             1 S1                 0.0000
     44 ****         0.2554  -1.6850   0.4662 LP             1 S1                 0.0000
     45 ****        -5.7207   2.3216  -0.2464 LP             1 S1                 0.0000
@<TRIPOS>BOND
    1    1    2 1     
    2    1   23 1     
    3    1   24 1     
    4    1   25 1     
    5    2    3 1     
    6    3   22 ar    
    7    3    4 ar    
    8    4    5 ar    
    9    4   26 1     
   10    5    6 ar    
   11    5   27 1     
   12    6    7 1     
   13    6   21 ar    
   14    7    8 am    
   15    7   28 1     
   16    8    9 2     
   17    8   10 am    
   18   10   11 1     
   19   10   29 1     
   20   11   20 1     
   21   11   12 1     
   22   11   30 1     
   23   12   13 1     
   24   12   31 1     
   25   12   32 1     
   26   13   14 1     
   27   13   33 1     
   28   13   34 1     
   29   14   15 1     
   30   14   20 1     
   31   14   40 1     
   32   15   16 1     
   33   15   35 1     
   34   15   36 1     
   35   16   17 1     
   36   16   18 1     
   37   16   19 1     
   38   20   37 1     
   39   20   38 1     
   40   21   22 ar    
   41   21   39 1     
   42    2   41 1     
   43    2   42 1     
   44    9   43 1     
   45    9   44 1     
   46   22   45 1     
@<TRIPOS>SUBSTRUCTURE
      1 S1             1
@<TRIPOS>SET
LONE_PAIRS      STATIC     ATOMS    <user>   **** ""
5 41 42 43 44 45
DONOR_HYDROGENS      STATIC     ATOMS    <user>   **** ""
3 28 29 40
ATOM$BLUE        STATIC     ATOMS    COLORGROUP SYSTEM
5 41 42 43 44 45
ATOM$RED        STATIC     ATOMS    COLORGROUP SYSTEM
3 28 29 40
