#       Name:                AV-unprocessed.smi:1828
#       Creating user name   scv26
#       Creation time:       Fri Mar 27 09:10:44 2020


#       File generated by GOLD software.
#

@<TRIPOS>MOLECULE
AV-unprocessed.smi:1828
    44    46     1
SMALL
NO_CHARGES


@<TRIPOS>ATOM
      1 ****        -1.5852  -0.2815  -2.4973 O.3            1 S1                 0.0000
      2 ****        -2.1838  -0.4871  -1.2349 C.3            1 S1                 0.0000
      3 ****        -1.7683   0.5407  -0.2212 C.2            1 S1                 0.0000
      4 ****        -1.8869   1.8448  -0.4781 N.2            1 S1                 0.0000
      5 ****        -1.3948   2.4322   0.6692 C.ar           1 S1                 0.0000
      6 ****        -1.2471   3.7950   1.0127 C.ar           1 S1                 0.0000
      7 ****        -0.7086   4.1615   2.2634 C.ar           1 S1                 0.0000
      8 ****        -0.3109   3.1727   3.1862 C.ar           1 S1                 0.0000
      9 ****        -0.4505   1.8091   2.8635 C.ar           1 S1                 0.0000
     10 ****        -0.9895   1.4486   1.6136 C.ar           1 S1                 0.0000
     11 ****        -1.2537   0.2280   0.9989 N.pl3          1 S1                 0.0000
     12 ****        -0.9995  -1.0809   1.5899 C.3            1 S1                 0.0000
     13 ****         0.4741  -1.5130   1.4477 C.3            1 S1                 0.0000
     14 ****         0.6720  -2.6760   2.2255 O.3            1 S1                 0.0000
     15 ****         0.8912  -1.7059  -0.0041 C.ar           1 S1                 0.0000
     16 ****         0.6153  -2.9121  -0.6845 C.ar           1 S1                 0.0000
     17 ****         0.9887  -3.0652  -2.0329 C.ar           1 S1                 0.0000
     18 ****         1.6327  -2.0129  -2.7110 C.ar           1 S1                 0.0000
     19 ****         1.9051  -0.7983  -2.0453 C.ar           1 S1                 0.0000
     20 ****         2.5969   0.3441  -2.7737 C.3            1 S1                 0.0000
     21 ****         2.1612   1.5218  -2.3247 F              1 S1                 0.0000
     22 ****         3.9105   0.2642  -2.5655 F              1 S1                 0.0000
     23 ****         2.3659   0.2870  -4.0858 F              1 S1                 0.0000
     24 ****         1.5402  -0.6564  -0.6893 C.ar           1 S1                 0.0000
     25 ****        -1.9025  -0.9441  -3.0913 H              1 S1                 0.0000
     26 ****        -3.2673  -0.4480  -1.3478 H              1 S1                 0.0000
     27 ****        -1.9358  -1.4957  -0.9148 H              1 S1                 0.0000
     28 ****        -1.5476   4.5595   0.3117 H              1 S1                 0.0000
     29 ****        -0.5996   5.2063   2.5154 H              1 S1                 0.0000
     30 ****         0.1012   3.4617   4.1421 H              1 S1                 0.0000
     31 ****        -0.1457   1.0496   3.5680 H              1 S1                 0.0000
     32 ****        -1.2570  -1.0142   2.6478 H              1 S1                 0.0000
     33 ****        -1.6776  -1.8258   1.1763 H              1 S1                 0.0000
     34 ****         1.1108  -0.7438   1.8872 H              1 S1                 0.0000
     35 ****         1.5949  -2.8797   2.2292 H              1 S1                 0.0000
     36 ****         0.1111  -3.7220  -0.1780 H              1 S1                 0.0000
     37 ****         0.7777  -3.9897  -2.5496 H              1 S1                 0.0000
     38 ****         1.9140  -2.1428  -3.7455 H              1 S1                 0.0000
     39 ****         1.7467   0.2699  -0.1733 H              1 S1                 0.0000
     40 ****        -0.5910  -0.3510  -2.4145 LP             1 S1                 0.0000
     41 ****        -1.8284   0.6250  -2.8422 LP             1 S1                 0.0000
     42 ****        -2.2446   2.2875  -1.3003 LP             1 S1                 0.0000
     43 ****         0.1597  -3.4381   1.8296 LP             1 S1                 0.0000
     44 ****         0.3584  -2.5139   3.1611 LP             1 S1                 0.0000
@<TRIPOS>BOND
    1    1    2 1     
    2    1   25 1     
    3    2    3 1     
    4    2   26 1     
    5    2   27 1     
    6    3   11 1     
    7    3    4 2     
    8    4    5 1     
    9    5   10 ar    
   10    5    6 ar    
   11    6    7 ar    
   12    6   28 1     
   13    7    8 ar    
   14    7   29 1     
   15    8    9 ar    
   16    8   30 1     
   17    9   10 ar    
   18    9   31 1     
   19   10   11 1     
   20   11   12 1     
   21   12   13 1     
   22   12   32 1     
   23   12   33 1     
   24   13   14 1     
   25   13   15 1     
   26   13   34 1     
   27   14   35 1     
   28   15   24 ar    
   29   15   16 ar    
   30   16   17 ar    
   31   16   36 1     
   32   17   18 ar    
   33   17   37 1     
   34   18   19 ar    
   35   18   38 1     
   36   19   20 1     
   37   19   24 ar    
   38   20   21 1     
   39   20   22 1     
   40   20   23 1     
   41   24   39 1     
   42    1   40 1     
   43    1   41 1     
   44    4   42 1     
   45   14   43 1     
   46   14   44 1     
@<TRIPOS>SUBSTRUCTURE
      1 S1             1
@<TRIPOS>SET
LONE_PAIRS      STATIC     ATOMS    <user>   **** ""
5 40 41 42 43 44
DONOR_HYDROGENS      STATIC     ATOMS    <user>   **** ""
2 25 35
ATOM$BLUE        STATIC     ATOMS    COLORGROUP SYSTEM
5 40 41 42 43 44
ATOM$RED        STATIC     ATOMS    COLORGROUP SYSTEM
2 25 35
