AV-unprocessed.smi:1817|AV-procd|sdf|7374|dock4
  -GOLD-   22720 9 43D 1   1.00000     0.00000
 Structure written by MMmdl.
 42 43  0  0  0  0  0  0  0  0  3 V2000
  146.5484  139.2629  151.7829 C   0  0  0  0  0  0  0  0  0  0  0  0
  146.6873  140.2406  152.9587 C   0  0  0  0  0  0  0  0  0  0  0  0
  148.0700  140.2945  153.4943 N   0  3  0  0  0  0  0  0  0  0  0  0
  148.4697  139.0267  154.1519 C   0  0  0  0  0  0  0  0  0  0  0  0
  149.9276  139.1156  154.6472 C   0  0  0  0  0  0  0  0  0  0  0  0
  150.1028  140.2008  155.6228 N   0  0  0  0  0  0  0  0  0  0  0  0
  149.4096  140.0238  156.9193 C   0  0  2  0  0  0  0  0  0  0  0  0
  149.6683  141.2464  157.8322 C   0  0  0  0  0  0  0  0  0  0  0  0
  149.8446  138.7154  157.6282 C   0  0  0  0  0  0  0  0  0  0  0  0
  149.1171  138.5076  158.8748 N   0  0  0  0  0  0  0  0  0  0  0  0
  148.9093  137.3215  159.4609 C   0  0  0  0  0  0  0  0  0  0  0  0
  149.3599  136.2954  158.9465 O   0  0  0  0  0  0  0  0  0  0  0  0
  148.1915  137.3988  160.6039 N   0  5  0  0  0  0  0  0  0  0  0  0
  147.7848  136.2757  161.2185 C   0  0  0  0  0  0  0  0  0  0  0  0
  147.7544  135.0874  160.5941 N   0  0  0  0  0  0  0  0  0  0  0  0
  147.2984  134.0562  161.4043 N   0  0  0  0  0  0  0  0  0  0  0  0
  146.9879  134.4970  162.6231 C   0  0  0  0  0  0  0  0  0  0  0  0
  147.2197  136.2119  162.8907 S   0  0  0  0  0  0  0  0  0  0  0  0
  149.7720  141.4431  154.9091 C   0  0  0  0  0  0  0  0  0  0  0  0
  148.3145  141.4487  154.3968 C   0  0  0  0  0  0  0  0  0  0  0  0
  145.5058  139.1811  151.4747 H   0  0  0  0  0  0  0  0  0  0  0  0
  146.8893  138.2644  152.0586 H   0  0  0  0  0  0  0  0  0  0  0  0
  147.1177  139.5862  150.9118 H   0  0  0  0  0  0  0  0  0  0  0  0
  146.3579  141.2398  152.6701 H   0  0  0  0  0  0  0  0  0  0  0  0
  146.0130  139.9098  153.7497 H   0  0  0  0  0  0  0  0  0  0  0  0
  147.7869  138.7908  154.9694 H   0  0  0  0  0  0  0  0  0  0  0  0
  148.3878  138.2096  153.4343 H   0  0  0  0  0  0  0  0  0  0  0  0
  150.2630  138.1604  155.0468 H   0  0  0  0  0  0  0  0  0  0  0  0
  150.5845  139.3027  153.7965 H   0  0  0  0  0  0  0  0  0  0  0  0
  148.3356  139.9549  156.7521 H   0  0  0  0  0  0  0  0  0  0  0  0
  149.2474  141.1089  158.8278 H   0  0  0  0  0  0  0  0  0  0  0  0
  149.2077  142.1557  157.4490 H   0  0  0  0  0  0  0  0  0  0  0  0
  150.7362  141.4311  157.9539 H   0  0  0  0  0  0  0  0  0  0  0  0
  149.6367  137.8443  157.0077 H   0  0  0  0  0  0  0  0  0  0  0  0
  150.9167  138.7270  157.8306 H   0  0  0  0  0  0  0  0  0  0  0  0
  148.7365  139.3250  159.3285 H   0  0  0  0  0  0  0  0  0  0  0  0
  146.6160  133.8093  163.3676 H   0  0  0  0  0  0  0  0  0  0  0  0
  149.9640  142.3197  155.5249 H   0  0  0  0  0  0  0  0  0  0  0  0
  150.4494  141.5456  154.0601 H   0  0  0  0  0  0  0  0  0  0  0  0
  148.1430  142.3789  153.8562 H   0  0  0  0  0  0  0  0  0  0  0  0
  147.6051  141.4399  155.2249 H   0  0  0  0  0  0  0  0  0  0  0  0
  148.6875  140.4046  152.7028 H   0  0  0  0  0  0  0  0  0  0  0  0
  1  2  1  0  0  0  0
  1 21  1  0  0  0  0
  1 22  1  0  0  0  0
  1 23  1  0  0  0  0
  2  3  1  0  0  0  0
  2 24  1  0  0  0  0
  2 25  1  0  0  0  0
  3 20  1  0  0  0  0
  3  4  1  0  0  0  0
  3 42  1  0  0  0  0
  4  5  1  0  0  0  0
  4 26  1  0  0  0  0
  4 27  1  0  0  0  0
  5  6  1  0  0  0  0
  5 28  1  0  0  0  0
  5 29  1  0  0  0  0
  6  7  1  0  0  0  0
  6 19  1  0  0  0  0
  7  8  1  0  0  0  0
  7  9  1  0  0  0  0
  7 30  1  0  0  0  0
  8 31  1  0  0  0  0
  8 32  1  0  0  0  0
  8 33  1  0  0  0  0
  9 10  1  0  0  0  0
  9 34  1  0  0  0  0
  9 35  1  0  0  0  0
 10 11  1  0  0  0  0
 10 36  1  0  0  0  0
 11 12  2  0  0  0  0
 11 13  1  0  0  0  0
 13 14  1  0  0  0  0
 14 18  1  0  0  0  0
 14 15  2  0  0  0  0
 15 16  1  0  0  0  0
 16 17  2  0  0  0  0
 17 18  1  0  0  0  0
 17 37  1  0  0  0  0
 19 20  1  0  0  0  0
 19 38  1  0  0  0  0
 19 39  1  0  0  0  0
 20 40  1  0  0  0  0
 20 41  1  0  0  0  0
M  CHG  1   3   1
M  CHG  1  13  -1
M  END
> <s_m_source_file>
AV-unprocessed.smi

> <i_m_source_file_index>
1817

> <i_lp_mmshare_version>
43012

> <i_f3d_flags>
0

> <s_epik_input>
W0NIM11bQ0gyXU4xW0NIMl1bQ0gyXU4oW0NIMl1bQ0gyXTEpW0NASF0oW0NIM10pW0NIMl1bTkhdQyg9TylbTkhdYzJubltjSF1zMg==

> <s_epik_cmdline>
J2VwaWtfcHl0aG9uJywgJy1waCcsICc3LjAnLCAnLXRuJywgJzgnLCAnLW1hJywgJzIwMCcsICctbWV0YWxfYmluZGluZycsICctaW1hZScsICc8aW5maWxlLm1hZT4nLCAnLW9tYWUnLCAnPG91dGZpbGUubWFlPic=

> <r_lp_tautomer_probability>
1

> <r_epik_Ionization_Penalty>
3.58527

> <r_epik_Ionization_Penalty_Charging>
3.54445

> <r_epik_Ionization_Penalty_Neutral>
0.0408199

> <r_epik_State_Penalty>
3.6633

> <r_epik_Charging_Adjusted_Penalty>
7.20774

> <i_epik_Tot_Q>
0

> <i_epik_Tot_abs_Q>
2

> <r_epik_Metal_State_Penalty>
0.683711

> <b_epik_Metal_Only>
1

> <s_lp_Force_Field>
OPLS_2005

> <r_lp_Energy>
15.1911

> <b_lp_Chiralities_Consistent>
1

> <s_lp_Variant>
AV-unprocessed.smi:1817-7

> <Gold.Version>
5.8.1

> <Gold.Id.Protein>
6NUR|6NUR_protein|mol2

> <Gold.PLP.Fitness>
48.9696

> <Gold.PLP.PLP>
-36.2640

> <Gold.PLP.part.hbond>
-4.0000

> <Gold.PLP.part.metal>
0.0000

> <Gold.PLP.part.buried>
-1.6140

> <Gold.PLP.part.nonpolar>
-31.1385

> <Gold.PLP.part.repulsive>
0.3648

> <Gold.PLP.ligand.clash>
0.0000

> <Gold.PLP.ligand.torsion>
0.3207

> <Gold.PLP.Chemscore.Hbond>
4.4304

> <Gold.PLP.Chemscore.CHOScore>
0.0000

> <Gold.PLP.Chemscore.Metal>
0.0000

> <Gold.Chemscore.Hbonds>
donor molecule, donor type, donor heavy atom, donor atom, acceptor molecule, acceptor atom, score
      L1  H     3    42       P1  7957  1.00
      P1  H  6896  6909       L1    12  0.52
      P1  H  6931  6943       L1    13  1.38
      P1  H  6934  6947       L1    13  1.22

> <Gold.PLP.Chemscore.Internal.Correction>
0.0558

> <Gold.Rescore>
     Score         DG    S(hbond)    S(metal)    S(lipo)     H(rot)  DE(clash)    DE(int)     intcor
     16.14     -18.19       2.76        0.00      71.14       1.88       0.12       1.94       ----

> <Gold.Chemscore.Fitness>
16.1369

> <Gold.Chemscore.DG>
-18.1938

> <Gold.Chemscore.ZeroCoef>
-5.4800

> <Gold.Chemscore.Hbond>
2.7574

> <Gold.Chemscore.Metal>
0.0000

> <Gold.Chemscore.Lipo>
71.1394

> <Gold.Chemscore.Internal_Hbond>
0.0000

> <Gold.Chemscore.DEClash>
0.1183

> <Gold.Chemscore.DEInternal>
1.9386

> <Gold.Chemscore.Rot>
1.8825

> <Gold.Chemscore.Internal.Correction>
   9.000000E+99

> <Gold.Chemscore.Hbonds>
donor molecule, donor type, donor heavy atom, donor atom, acceptor molecule, acceptor atom, score
      L1  H     3    42       P1  7957  1.00
      P1  H  6896  6909       L1    12  0.52
      P1  H  6931  6943       L1    13  0.24
      P1  H  6934  6947       L1    13  0.56

> <Gold.Chemscore.Hbond.Weighted>
-9.2097

> <Gold.Chemscore.Metal.Weighted>
-0.0000

> <Gold.Chemscore.Lipo.Weighted>
-8.3233

> <Gold.Chemscore.Internal_Hbond.Weighted>
0.0000

> <Gold.Chemscore.DEClash.Weighted>
0.1183

> <Gold.Chemscore.DEInternal.Weighted>
1.9386

> <Gold.Chemscore.Rot.Weighted>
4.8191

> <Gold.Chemscore.Internal.Correction.Weighted>
   9.000000E+99

> <Gold.Protein.RotatedTorsions>
[ 6907 6896 6895 6894 ] final   52.35 input  -60.11 | X-H torsion
[ 7974 7965 7964 7962 ] final  110.57 input  175.53 | X-H torsion
[ 8008 7997 7996 7995 ] final -147.25 input   59.86 | X-H torsion
[ 10167 10162 10161 10158 ] final -148.10 input  -65.29 | X-H torsion
[ 10718 10713 10712 10709 ] final -120.93 input   66.30 | X-H torsion
[ 10763 10752 10751 10750 ] final   62.72 input  -60.55 | X-H torsion
[ 11005 11000 10999 10996 ] final  165.14 input  -57.11 | X-H torsion

> <Gold.Protein.ActiveResidues>
 VAL166  LYS551  ARG553  GLY616  TRP617  ASP618  TYR619  PRO620  LYS621  CYS622 
 ASP623  PHE694  ASN695  SER759  ASP760  ASP761  ALA762  ILE779  LEU786  VAL792 
 PHE793  MET794  SER795  GLU796  ALA797  LYS798  CYS799  TRP800  GLU811  SER814 

> <Gold.Protein.RotatedAtoms>
  152.3224  134.7364  160.0310 H   0  0  0  0  0  0  0  0  0  0  0  0  # atno 6907 bound_to 6896
  151.7808  133.3344  159.3479 H   0  0  0  0  0  0  0  0  0  0  0  0  # atno 6908 bound_to 6896
  150.7377  134.5864  159.6009 H   0  0  0  0  0  0  0  0  0  0  0  0  # atno 6909 bound_to 6896
  145.2533  139.2731  143.4055 H   0  0  0  0  0  0  0  0  0  0  0  0  # atno 7974 bound_to 7965
  155.5726  140.0635  157.2803 H   0  0  0  0  0  0  0  0  0  0  0  0  # atno 8008 bound_to 7997
  154.4356  140.1866  156.0940 H   0  0  0  0  0  0  0  0  0  0  0  0  # atno 8009 bound_to 7997
  156.0365  140.3300  155.7200 H   0  0  0  0  0  0  0  0  0  0  0  0  # atno 8010 bound_to 7997
  139.7562  143.8445  152.2597 H   0  0  0  0  0  0  0  0  0  0  0  0  # atno 10167 bound_to 10162
  156.1297  130.6386  150.9600 H   0  0  0  0  0  0  0  0  0  0  0  0  # atno 10718 bound_to 10713
  152.9992  135.5455  154.6237 H   0  0  0  0  0  0  0  0  0  0  0  0  # atno 10763 bound_to 10752
  154.5531  135.2828  155.0992 H   0  0  0  0  0  0  0  0  0  0  0  0  # atno 10764 bound_to 10752
  154.2224  135.6448  153.5201 H   0  0  0  0  0  0  0  0  0  0  0  0  # atno 10765 bound_to 10752
  140.2531  134.7961  157.3520 H   0  0  0  0  0  0  0  0  0  0  0  0  # atno 11005 bound_to 11000
  146.3296  140.2930  142.8616 LP  0  0  0  0  0  0  0  0  0  0  0  0  # atno 17320 bound_to 7965
  144.9483  140.8151  143.5588 LP  0  0  0  0  0  0  0  0  0  0  0  0  # atno 17321 bound_to 7965
  139.8438  144.7197  150.9298 LP  0  0  0  0  0  0  0  0  0  0  0  0  # atno 17342 bound_to 10162
  140.7803  143.3960  151.1229 LP  0  0  0  0  0  0  0  0  0  0  0  0  # atno 17343 bound_to 10162
  157.6475  131.0902  150.8121 LP  0  0  0  0  0  0  0  0  0  0  0  0  # atno 17370 bound_to 10713
  156.8207  130.4983  149.5343 LP  0  0  0  0  0  0  0  0  0  0  0  0  # atno 17371 bound_to 10713
  140.1538  134.4815  155.7942 LP  0  0  0  0  0  0  0  0  0  0  0  0  # atno 17394 bound_to 11000
  141.2199  133.6873  156.7425 LP  0  0  0  0  0  0  0  0  0  0  0  0  # atno 17395 bound_to 11000

$$$$
