#       Name:                AV-unprocessed.smi:1125
#       Creating user name   scv26
#       Creation time:       Fri Mar 27 03:40:02 2020


#       File generated by GOLD software.
#

@<TRIPOS>MOLECULE
AV-unprocessed.smi:1125
    49    50     1
SMALL
NO_CHARGES


@<TRIPOS>ATOM
      1 ****        -4.7664  -3.8048  -0.6144 C.3            1 S1                 0.0000
      2 ****        -3.4188  -3.2556  -0.5653 N.3            1 S1                 0.0000
      3 ****        -3.4843  -1.8446  -0.1828 C.3            1 S1                 0.0000
      4 ****        -2.0657  -1.2597  -0.0645 C.3            1 S1                 0.0000
      5 ****        -1.2975  -1.4040  -1.3871 C.3            1 S1                 0.0000
      6 ****         0.0803  -0.9551  -1.2129 N.am           1 S1                 0.0000
      7 ****         0.8906  -0.5418  -2.2001 C.2            1 S1                 0.0000
      8 ****         0.5536  -0.5032  -3.3835 O.2            1 S1                 0.0000
      9 ****         2.2999  -0.1099  -1.7926 C.3            1 S1                 0.0000
     10 ****         2.2596   1.2260  -1.1087 C.2            1 S1                 0.0000
     11 ****         2.1040   2.4525  -1.7038 C.2            1 S1                 0.0000
     12 ****         2.1106   3.7445  -0.5379 S.3            1 S1                 0.0000
     13 ****         2.3392   2.5555   0.7497 C.2            1 S1                 0.0000
     14 ****         2.4688   2.8836   2.2180 C.3            1 S1                 0.0000
     15 ****         1.3399   2.1952   3.0097 C.3            1 S1                 0.0000
     16 ****         2.3514   4.4031   2.4662 C.3            1 S1                 0.0000
     17 ****         3.8491   2.4322   2.7338 C.3            1 S1                 0.0000
     18 ****         2.3950   1.3033   0.2808 N.2            1 S1                 0.0000
     19 ****        -1.3454  -2.8737  -1.8413 C.3            1 S1                 0.0000
     20 ****        -2.7934  -3.3933  -1.8811 C.3            1 S1                 0.0000
     21 ****        -5.2467  -3.7283   0.3615 H              1 S1                 0.0000
     22 ****        -4.7394  -4.8601  -0.8880 H              1 S1                 0.0000
     23 ****        -5.3854  -3.2790  -1.3428 H              1 S1                 0.0000
     24 ****        -4.0660  -1.2816  -0.9147 H              1 S1                 0.0000
     25 ****        -3.9964  -1.7498   0.7754 H              1 S1                 0.0000
     26 ****        -2.1229  -0.2089   0.2216 H              1 S1                 0.0000
     27 ****        -1.5301  -1.7703   0.7378 H              1 S1                 0.0000
     28 ****        -1.7882  -0.7818  -2.1382 H              1 S1                 0.0000
     29 ****         0.4415  -0.9472  -0.2699 H              1 S1                 0.0000
     30 ****         2.7343  -0.8718  -1.1437 H              1 S1                 0.0000
     31 ****         2.9336  -0.0642  -2.6791 H              1 S1                 0.0000
     32 ****         1.9807   2.6715  -2.7542 H              1 S1                 0.0000
     33 ****         1.3994   2.4300   4.0730 H              1 S1                 0.0000
     34 ****         1.3881   1.1099   2.9146 H              1 S1                 0.0000
     35 ****         0.3579   2.5126   2.6564 H              1 S1                 0.0000
     36 ****         1.3882   4.7921   2.1338 H              1 S1                 0.0000
     37 ****         3.1330   4.9585   1.9463 H              1 S1                 0.0000
     38 ****         2.4434   4.6392   3.5270 H              1 S1                 0.0000
     39 ****         3.9768   2.6694   3.7906 H              1 S1                 0.0000
     40 ****         4.6560   2.9214   2.1866 H              1 S1                 0.0000
     41 ****         3.9846   1.3555   2.6246 H              1 S1                 0.0000
     42 ****        -0.8921  -2.9792  -2.8276 H              1 S1                 0.0000
     43 ****        -0.7568  -3.4935  -1.1630 H              1 S1                 0.0000
     44 ****        -2.7930  -4.4432  -2.1765 H              1 S1                 0.0000
     45 ****        -3.3697  -2.8496  -2.6317 H              1 S1                 0.0000
     46 ****        -2.8728  -3.7514   0.1100 LP             1 S1                 0.0000
     47 ****        -0.3666  -0.7892  -3.6510 LP             1 S1                 0.0000
     48 ****         1.2000  -0.1859  -4.0774 LP             1 S1                 0.0000
     49 ****         2.5210   0.5023   0.8661 LP             1 S1                 0.0000
@<TRIPOS>BOND
    1    1    2 1     
    2    1   21 1     
    3    1   22 1     
    4    1   23 1     
    5    2   20 1     
    6    2    3 1     
    7    3    4 1     
    8    3   24 1     
    9    3   25 1     
   10    4    5 1     
   11    4   26 1     
   12    4   27 1     
   13    5    6 1     
   14    5   19 1     
   15    5   28 1     
   16    6    7 am    
   17    6   29 1     
   18    7    8 2     
   19    7    9 1     
   20    9   10 1     
   21    9   30 1     
   22    9   31 1     
   23   10   18 1     
   24   10   11 2     
   25   11   12 1     
   26   11   32 1     
   27   12   13 1     
   28   13   14 1     
   29   13   18 2     
   30   14   15 1     
   31   14   16 1     
   32   14   17 1     
   33   15   33 1     
   34   15   34 1     
   35   15   35 1     
   36   16   36 1     
   37   16   37 1     
   38   16   38 1     
   39   17   39 1     
   40   17   40 1     
   41   17   41 1     
   42   19   20 1     
   43   19   42 1     
   44   19   43 1     
   45   20   44 1     
   46   20   45 1     
   47    2   46 1     
   48    8   47 1     
   49    8   48 1     
   50   18   49 1     
@<TRIPOS>SUBSTRUCTURE
      1 S1             1
@<TRIPOS>SET
LONE_PAIRS      STATIC     ATOMS    <user>   **** ""
4 46 47 48 49
DONOR_HYDROGENS      STATIC     ATOMS    <user>   **** ""
1 29
ATOM$BLUE        STATIC     ATOMS    COLORGROUP SYSTEM
4 46 47 48 49
ATOM$RED        STATIC     ATOMS    COLORGROUP SYSTEM
1 29
