AV-unprocessed.smi:729|AV-procd|sdf|3519|dock8
  -GOLD-   22720 0513D 1   1.00000     0.00000
 Structure written by MMmdl.
 20 20  0  0  0  0  0  0  0  0  3 V2000
  151.6663  142.1633  157.6112 C   0  0  0  0  0  0  0  0  0  0  0  0
  151.9156  142.9764  158.8777 C   0  0  0  0  0  0  0  0  0  0  0  0
  151.5692  144.2823  158.9215 C   0  0  0  0  0  0  0  0  0  0  0  0
  151.7554  145.0509  160.0618 C   0  0  0  0  0  0  0  0  0  0  0  0
  151.4398  146.2608  160.1059 O   0  5  0  0  0  0  0  0  0  0  0  0
  152.3051  144.3920  161.1523 C   0  0  0  0  0  0  0  0  0  0  0  0
  152.6915  142.9859  161.1708 C   0  0  0  0  0  0  0  0  0  0  0  0
  153.1596  142.4597  162.1820 O   0  0  0  0  0  0  0  0  0  0  0  0
  152.5051  142.3195  159.9952 N   0  0  0  0  0  0  0  0  0  0  0  0
  152.8548  140.8792  159.9298 C   0  0  0  0  0  0  0  0  0  0  0  0
  154.3562  140.6071  160.0876 C   0  0  0  0  0  0  0  0  0  0  0  0
  154.9246  139.9893  159.1601 O   0  0  0  0  0  0  0  0  0  0  0  0
  154.9067  140.9998  161.1399 O   0  5  0  0  0  0  0  0  0  0  0  0
  151.0662  142.7339  156.9019 H   0  0  0  0  0  0  0  0  0  0  0  0
  151.1167  141.2445  157.8103 H   0  0  0  0  0  0  0  0  0  0  0  0
  152.6041  141.9223  157.1118 H   0  0  0  0  0  0  0  0  0  0  0  0
  151.1319  144.7386  158.0448 H   0  0  0  0  0  0  0  0  0  0  0  0
  152.4639  144.9516  162.0629 H   0  0  0  0  0  0  0  0  0  0  0  0
  152.3464  140.2798  160.6855 H   0  0  0  0  0  0  0  0  0  0  0  0
  152.4979  140.4525  158.9933 H   0  0  0  0  0  0  0  0  0  0  0  0
  1  2  1  0  0  0  0
  1 14  1  0  0  0  0
  1 15  1  0  0  0  0
  1 16  1  0  0  0  0
  2  9  1  0  0  0  0
  2  3  2  0  0  0  0
  3  4  1  0  0  0  0
  3 17  1  0  0  0  0
  4  5  1  0  0  0  0
  4  6  2  0  0  0  0
  6  7  1  0  0  0  0
  6 18  1  0  0  0  0
  7  8  2  0  0  0  0
  7  9  1  0  0  0  0
  9 10  1  0  0  0  0
 10 11  1  0  0  0  0
 10 19  1  0  0  0  0
 10 20  1  0  0  0  0
 11 12  2  0  0  0  0
 11 13  1  0  0  0  0
M  CHG  1   5  -1
M  CHG  1  13  -1
M  END
> <s_m_source_file>
AV-unprocessed.smi

> <i_m_source_file_index>
729

> <i_lp_mmshare_version>
43012

> <i_f3d_flags>
0

> <s_epik_input>
W0NIM11jMVtjSF1jKFtPSF0pW2NIXWMoPU8pbjFbQ0gyXUMoPU8pW09IXQ==

> <s_epik_cmdline>
J2VwaWtfcHl0aG9uJywgJy1waCcsICc3LjAnLCAnLXRuJywgJzgnLCAnLW1hJywgJzIwMCcsICctbWV0YWxfYmluZGluZycsICctaW1hZScsICc8aW5maWxlLm1hZT4nLCAnLW9tYWUnLCAnPG91dGZpbGUubWFlPic=

> <r_lp_tautomer_probability>
1

> <r_epik_Ionization_Penalty>
0.494568

> <r_epik_Ionization_Penalty_Charging>
0.494568

> <r_epik_Ionization_Penalty_Neutral>
1.61422e-13

> <r_epik_State_Penalty>
0.445538

> <r_epik_Charging_Adjusted_Penalty>
0.940106

> <i_epik_Tot_Q>
-2

> <i_epik_Tot_abs_Q>
2

> <r_epik_Metal_State_Penalty>
0.445538

> <b_epik_Metal_Only>
0

> <s_lp_Force_Field>
OPLS_2005

> <r_lp_Energy>
22.4438

> <b_lp_Chiralities_Consistent>
1

> <s_lp_Variant>
AV-unprocessed.smi:729-1

> <Gold.Version>
5.8.1

> <Gold.Id.Protein>
6NUR|6NUR_protein|mol2

> <Gold.PLP.Fitness>
39.1351

> <Gold.PLP.PLP>
-33.1793

> <Gold.PLP.part.hbond>
-4.0000

> <Gold.PLP.part.metal>
0.0000

> <Gold.PLP.part.buried>
-4.7976

> <Gold.PLP.part.nonpolar>
-24.0274

> <Gold.PLP.part.repulsive>
0.3146

> <Gold.PLP.ligand.clash>
0.0000

> <Gold.PLP.ligand.torsion>
0.0257

> <Gold.PLP.Chemscore.Hbond>
2.0000

> <Gold.PLP.Chemscore.CHOScore>
0.0000

> <Gold.PLP.Chemscore.Metal>
0.0000

> <Gold.Chemscore.Hbonds>
donor molecule, donor type, donor heavy atom, donor atom, acceptor molecule, acceptor atom, score
      P1  H  7997  8009       L1    12  2.00

> <Gold.PLP.Chemscore.Internal.Correction>
0.0071

> <Gold.Rescore>
     Score         DG    S(hbond)    S(metal)    S(lipo)     H(rot)  DE(clash)    DE(int)     intcor
      9.23     -12.23       0.99        0.00      62.36       1.51       1.36       1.65       ----

> <Gold.Chemscore.Fitness>
9.2252

> <Gold.Chemscore.DG>
-12.2291

> <Gold.Chemscore.ZeroCoef>
-5.4800

> <Gold.Chemscore.Hbond>
0.9899

> <Gold.Chemscore.Metal>
0.0000

> <Gold.Chemscore.Lipo>
62.3622

> <Gold.Chemscore.Internal_Hbond>
0.0000

> <Gold.Chemscore.DEClash>
1.3555

> <Gold.Chemscore.DEInternal>
1.6485

> <Gold.Chemscore.Rot>
1.5053

> <Gold.Chemscore.Internal.Correction>
   9.000000E+99

> <Gold.Chemscore.Hbonds>
donor molecule, donor type, donor heavy atom, donor atom, acceptor molecule, acceptor atom, score
      P1  H  7997  8009       L1    12  0.96

> <Gold.Chemscore.Hbond.Weighted>
-3.3062

> <Gold.Chemscore.Metal.Weighted>
-0.0000

> <Gold.Chemscore.Lipo.Weighted>
-7.2964

> <Gold.Chemscore.Internal_Hbond.Weighted>
0.0000

> <Gold.Chemscore.DEClash.Weighted>
1.3555

> <Gold.Chemscore.DEInternal.Weighted>
1.6485

> <Gold.Chemscore.Rot.Weighted>
3.8534

> <Gold.Chemscore.Internal.Correction.Weighted>
   9.000000E+99

> <Gold.Protein.RotatedTorsions>
[ 6907 6896 6895 6894 ] final  -48.72 input  -60.11 | X-H torsion
[ 7974 7965 7964 7962 ] final  -91.15 input  175.53 | X-H torsion
[ 8008 7997 7996 7995 ] final  110.98 input   59.86 | X-H torsion
[ 10167 10162 10161 10158 ] final   87.28 input  -65.29 | X-H torsion
[ 10718 10713 10712 10709 ] final   41.02 input   66.30 | X-H torsion
[ 10763 10752 10751 10750 ] final  -85.55 input  -60.55 | X-H torsion
[ 11005 11000 10999 10996 ] final -178.28 input  -57.11 | X-H torsion

> <Gold.Protein.ActiveResidues>
 VAL166  LYS551  ARG553  GLY616  TRP617  ASP618  TYR619  PRO620  LYS621  CYS622 
 ASP623  PHE694  ASN695  SER759  ASP760  ASP761  ALA762  ILE779  LEU786  VAL792 
 PHE793  MET794  SER795  GLU796  ALA797  LYS798  CYS799  TRP800  GLU811  SER814 

> <Gold.Protein.RotatedAtoms>
  150.8877  134.8277  159.7270 H   0  0  0  0  0  0  0  0  0  0  0  0  # atno 6907 bound_to 6896
  152.4818  134.4696  159.9641 H   0  0  0  0  0  0  0  0  0  0  0  0  # atno 6908 bound_to 6896
  151.4763  133.3518  159.2866 H   0  0  0  0  0  0  0  0  0  0  0  0  # atno 6909 bound_to 6896
  145.4169  140.9549  143.2202 H   0  0  0  0  0  0  0  0  0  0  0  0  # atno 7974 bound_to 7965
  156.2091  140.3028  155.9693 H   0  0  0  0  0  0  0  0  0  0  0  0  # atno 8008 bound_to 7997
  155.2767  140.0436  157.3029 H   0  0  0  0  0  0  0  0  0  0  0  0  # atno 8009 bound_to 7997
  154.5675  140.2338  155.8250 H   0  0  0  0  0  0  0  0  0  0  0  0  # atno 8010 bound_to 7997
  139.8790  144.6450  150.8864 H   0  0  0  0  0  0  0  0  0  0  0  0  # atno 10167 bound_to 10162
  157.3888  130.7794  149.7252 H   0  0  0  0  0  0  0  0  0  0  0  0  # atno 10718 bound_to 10713
  154.6124  135.5481  153.7487 H   0  0  0  0  0  0  0  0  0  0  0  0  # atno 10763 bound_to 10752
  153.0201  135.6393  154.1559 H   0  0  0  0  0  0  0  0  0  0  0  0  # atno 10764 bound_to 10752
  154.1496  135.2903  155.3119 H   0  0  0  0  0  0  0  0  0  0  0  0  # atno 10765 bound_to 10752
  140.4316  134.6514  157.4714 H   0  0  0  0  0  0  0  0  0  0  0  0  # atno 11005 bound_to 11000
  144.8271  139.5691  143.6960 LP  0  0  0  0  0  0  0  0  0  0  0  0  # atno 17320 bound_to 7965
  146.2676  139.6558  142.9318 LP  0  0  0  0  0  0  0  0  0  0  0  0  # atno 17321 bound_to 7965
  140.7748  143.3601  151.1845 LP  0  0  0  0  0  0  0  0  0  0  0  0  # atno 17342 bound_to 10162
  139.7213  143.9218  152.2986 LP  0  0  0  0  0  0  0  0  0  0  0  0  # atno 17343 bound_to 10162
  155.9793  130.4041  150.3595 LP  0  0  0  0  0  0  0  0  0  0  0  0  # atno 17370 bound_to 10713
  157.1709  131.0368  151.2796 LP  0  0  0  0  0  0  0  0  0  0  0  0  # atno 17371 bound_to 10713
  140.0131  134.6661  155.9351 LP  0  0  0  0  0  0  0  0  0  0  0  0  # atno 17394 bound_to 11000
  141.1743  133.6539  156.4769 LP  0  0  0  0  0  0  0  0  0  0  0  0  # atno 17395 bound_to 11000

$$$$
