AV-unprocessed.smi:313|AV-procd|sdf|2311|dock6
  -GOLD-   2262022213D 1   1.00000     0.00000
 Structure written by MMmdl.
 50 51  0  0  0  0  0  0  0  0  1 V2000
  151.8052  145.9229  159.7943 C   0  0  0  0  0  0  0  0  0  0  0  0
  151.3519  144.4931  159.4640 C   0  0  0  0  0  0  0  0  0  0  0  0
  151.7621  144.0253  158.0551 C   0  0  2  0  0  0  0  0  0  0  0  0
  152.1527  145.2055  157.1529 C   0  0  0  0  0  0  0  0  0  0  0  0
  150.6724  143.2705  157.4418 N   0  0  0  0  0  0  0  0  0  0  0  0
  150.7553  142.0148  156.9771 C   0  0  0  0  0  0  0  0  0  0  0  0
  151.7977  141.3580  156.9780 O   0  0  0  0  0  0  0  0  0  0  0  0
  149.4538  141.4122  156.4260 C   0  0  1  0  0  0  0  0  0  0  0  0
  149.7022  140.9486  154.9808 C   0  0  0  0  0  0  0  0  0  0  0  0
  149.0705  140.2460  157.2184 N   0  0  0  0  0  0  0  0  0  0  0  0
  149.8126  139.1356  157.3685 C   0  0  0  0  0  0  0  0  0  0  0  0
  150.9400  139.0010  156.8918 O   0  0  0  0  0  0  0  0  0  0  0  0
  149.2027  138.0597  158.2183 C   0  0  0  0  0  0  0  0  0  0  0  0
  147.8214  137.7718  158.1725 C   0  0  0  0  0  0  0  0  0  0  0  0
  147.3108  136.7334  158.9745 C   0  0  0  0  0  0  0  0  0  0  0  0
  148.1948  135.9975  159.7986 C   0  0  0  0  0  0  0  0  0  0  0  0
  147.7047  134.9523  160.6116 N   0  0  0  0  0  0  0  0  0  0  0  0
  146.5913  135.3003  161.4910 C   0  0  0  0  0  0  0  0  0  0  0  0
  146.3648  134.1905  162.5317 C   0  0  0  0  0  0  0  0  0  0  0  0
  146.1771  132.9429  161.8726 O   0  0  0  0  0  0  0  0  0  0  0  0
  147.3191  132.5703  161.1087 C   0  0  0  0  0  0  0  0  0  0  0  0
  147.5789  133.6227  160.0177 C   0  0  0  0  0  0  0  0  0  0  0  0
  149.5218  136.2727  159.8363 N   0  0  0  0  0  0  0  0  0  0  0  0
  150.0077  137.2673  159.0637 C   0  0  0  0  0  0  0  0  0  0  0  0
  151.4490  146.2231  160.7798 H   0  0  0  0  0  0  0  0  0  0  0  0
  151.4140  146.6365  159.0689 H   0  0  0  0  0  0  0  0  0  0  0  0
  152.8920  146.0110  159.7969 H   0  0  0  0  0  0  0  0  0  0  0  0
  151.7505  143.8071  160.2126 H   0  0  0  0  0  0  0  0  0  0  0  0
  150.2663  144.4433  159.5557 H   0  0  0  0  0  0  0  0  0  0  0  0
  152.6354  143.3794  158.1638 H   0  0  0  0  0  0  0  0  0  0  0  0
  152.9750  145.7749  157.5870 H   0  0  0  0  0  0  0  0  0  0  0  0
  151.3154  145.8890  157.0078 H   0  0  0  0  0  0  0  0  0  0  0  0
  152.4760  144.8607  156.1702 H   0  0  0  0  0  0  0  0  0  0  0  0
  149.7740  143.7292  157.3979 H   0  0  0  0  0  0  0  0  0  0  0  0
  148.6522  142.1536  156.4382 H   0  0  0  0  0  0  0  0  0  0  0  0
  150.0043  141.7817  154.3449 H   0  0  0  0  0  0  0  0  0  0  0  0
  148.7954  140.5240  154.5492 H   0  0  0  0  0  0  0  0  0  0  0  0
  150.4810  140.1864  154.9238 H   0  0  0  0  0  0  0  0  0  0  0  0
  148.1639  140.2752  157.6615 H   0  0  0  0  0  0  0  0  0  0  0  0
  147.1531  138.3320  157.5349 H   0  0  0  0  0  0  0  0  0  0  0  0
  146.2518  136.5238  158.9559 H   0  0  0  0  0  0  0  0  0  0  0  0
  146.7624  136.2421  162.0099 H   0  0  0  0  0  0  0  0  0  0  0  0
  145.6937  135.4313  160.8852 H   0  0  0  0  0  0  0  0  0  0  0  0
  147.2077  134.1271  163.2217 H   0  0  0  0  0  0  0  0  0  0  0  0
  145.4805  134.4120  163.1294 H   0  0  0  0  0  0  0  0  0  0  0  0
  148.1875  132.4637  161.7607 H   0  0  0  0  0  0  0  0  0  0  0  0
  147.1405  131.5957  160.6547 H   0  0  0  0  0  0  0  0  0  0  0  0
  146.7586  133.6252  159.2989 H   0  0  0  0  0  0  0  0  0  0  0  0
  148.4885  133.3624  159.4753 H   0  0  0  0  0  0  0  0  0  0  0  0
  151.0729  137.4340  159.1321 H   0  0  0  0  0  0  0  0  0  0  0  0
  1  2  1  0  0  0  0
  1 25  1  0  0  0  0
  1 26  1  0  0  0  0
  1 27  1  0  0  0  0
  2  3  1  0  0  0  0
  2 28  1  0  0  0  0
  2 29  1  0  0  0  0
  3  4  1  0  0  0  0
  3  5  1  0  0  0  0
  3 30  1  0  0  0  0
  4 31  1  0  0  0  0
  4 32  1  0  0  0  0
  4 33  1  0  0  0  0
  5  6  1  0  0  0  0
  5 34  1  0  0  0  0
  6  7  2  0  0  0  0
  6  8  1  0  0  0  0
  8  9  1  0  0  0  0
  8 10  1  0  0  0  0
  8 35  1  0  0  0  0
  9 36  1  0  0  0  0
  9 37  1  0  0  0  0
  9 38  1  0  0  0  0
 10 11  1  0  0  0  0
 10 39  1  0  0  0  0
 11 12  2  0  0  0  0
 11 13  1  0  0  0  0
 13 24  1  0  0  0  0
 13 14  2  0  0  0  0
 14 15  1  0  0  0  0
 14 40  1  0  0  0  0
 15 16  2  0  0  0  0
 15 41  1  0  0  0  0
 16 17  1  0  0  0  0
 16 23  1  0  0  0  0
 17 22  1  0  0  0  0
 17 18  1  0  0  0  0
 18 19  1  0  0  0  0
 18 42  1  0  0  0  0
 18 43  1  0  0  0  0
 19 20  1  0  0  0  0
 19 44  1  0  0  0  0
 19 45  1  0  0  0  0
 20 21  1  0  0  0  0
 21 22  1  0  0  0  0
 21 46  1  0  0  0  0
 21 47  1  0  0  0  0
 22 48  1  0  0  0  0
 22 49  1  0  0  0  0
 23 24  2  0  0  0  0
 24 50  1  0  0  0  0
M  END
> <s_m_source_file>
AV-unprocessed.smi

> <i_m_source_file_index>
313

> <i_lp_mmshare_version>
43012

> <i_f3d_flags>
0

> <s_epik_input>
W0NIM11bQ0gyXVtDQEhdKFtDSDNdKVtOSF1DKD1PKVtDQEhdKFtDSDNdKVtOSF1DKD1PKWMxW2NIXVtjSF1jKG5bY0hdMSlOMltDSDJdW0NIMl1PW0NIMl1bQ0gyXTI=

> <s_epik_cmdline>
J2VwaWtfcHl0aG9uJywgJy1waCcsICc3LjAnLCAnLXRuJywgJzgnLCAnLW1hJywgJzIwMCcsICctbWV0YWxfYmluZGluZycsICctaW1hZScsICc8aW5maWxlLm1hZT4nLCAnLW9tYWUnLCAnPG91dGZpbGUubWFlPic=

> <r_lp_tautomer_probability>
1

> <r_epik_Ionization_Penalty>
9.96442e-06

> <r_epik_Ionization_Penalty_Charging>
0

> <r_epik_Ionization_Penalty_Neutral>
9.96442e-06

> <r_epik_State_Penalty>
-0

> <r_epik_Charging_Adjusted_Penalty>
0

> <i_epik_Tot_Q>
0

> <i_epik_Tot_abs_Q>
0

> <r_epik_Metal_State_Penalty>
-0

> <b_epik_Metal_Only>
0

> <s_lp_Force_Field>
OPLS_2005

> <r_lp_Energy>
19.146

> <b_lp_Chiralities_Consistent>
1

> <s_lp_Variant>
AV-unprocessed.smi:313-3

> <Gold.Version>
5.8.1

> <Gold.Id.Protein>
6NUR|6NUR_protein|mol2

> <Gold.PLP.Fitness>
37.7611

> <Gold.PLP.PLP>
-36.4921

> <Gold.PLP.part.hbond>
-2.0000

> <Gold.PLP.part.metal>
0.0000

> <Gold.PLP.part.buried>
-2.8533

> <Gold.PLP.part.nonpolar>
-30.8502

> <Gold.PLP.part.repulsive>
0.1170

> <Gold.PLP.ligand.clash>
0.0000

> <Gold.PLP.ligand.torsion>
1.5664

> <Gold.PLP.Chemscore.Hbond>
1.3367

> <Gold.PLP.Chemscore.CHOScore>
0.0000

> <Gold.PLP.Chemscore.Metal>
0.0000

> <Gold.Chemscore.Hbonds>
donor molecule, donor type, donor heavy atom, donor atom, acceptor molecule, acceptor atom, score
      L1  H     5    34       P1  8028  0.35
      P1  H  6896  6907       L1    23  1.00

> <Gold.PLP.Chemscore.Internal.Correction>
0.3917

> <Gold.Rescore>
     Score         DG    S(hbond)    S(metal)    S(lipo)     H(rot)  DE(clash)    DE(int)     intcor
      8.22     -15.02       0.93        0.00      94.26       1.79       1.51       5.29       ----

> <Gold.Chemscore.Fitness>
8.2244

> <Gold.Chemscore.DG>
-15.0223

> <Gold.Chemscore.ZeroCoef>
-5.4800

> <Gold.Chemscore.Hbond>
0.9260

> <Gold.Chemscore.Metal>
0.0000

> <Gold.Chemscore.Lipo>
94.2614

> <Gold.Chemscore.Internal_Hbond>
0.0000

> <Gold.Chemscore.DEClash>
1.5078

> <Gold.Chemscore.DEInternal>
5.2901

> <Gold.Chemscore.Rot>
1.7888

> <Gold.Chemscore.Internal.Correction>
   9.000000E+99

> <Gold.Chemscore.Hbonds>
donor molecule, donor type, donor heavy atom, donor atom, acceptor molecule, acceptor atom, score
      L1  H     5    34       P1  8028  0.27
      P1  H  6896  6907       L1    23  0.56

> <Gold.Chemscore.Hbond.Weighted>
-3.0930

> <Gold.Chemscore.Metal.Weighted>
-0.0000

> <Gold.Chemscore.Lipo.Weighted>
-11.0286

> <Gold.Chemscore.Internal_Hbond.Weighted>
0.0000

> <Gold.Chemscore.DEClash.Weighted>
1.5078

> <Gold.Chemscore.DEInternal.Weighted>
5.2901

> <Gold.Chemscore.Rot.Weighted>
4.5793

> <Gold.Chemscore.Internal.Correction.Weighted>
   9.000000E+99

> <Gold.Protein.RotatedTorsions>
[ 6907 6896 6895 6894 ] final  -57.41 input  -60.11 | X-H torsion
[ 7974 7965 7964 7962 ] final -120.32 input  175.53 | X-H torsion
[ 8008 7997 7996 7995 ] final -143.00 input   59.86 | X-H torsion
[ 10167 10162 10161 10158 ] final  -65.96 input  -65.29 | X-H torsion
[ 10718 10713 10712 10709 ] final -155.45 input   66.30 | X-H torsion
[ 10763 10752 10751 10750 ] final  -21.94 input  -60.55 | X-H torsion
[ 11005 11000 10999 10996 ] final   38.40 input  -57.11 | X-H torsion

> <Gold.Protein.ActiveResidues>
 VAL166  LYS551  ARG553  GLY616  TRP617  ASP618  TYR619  PRO620  LYS621  CYS622 
 ASP623  PHE694  ASN695  SER759  ASP760  ASP761  ALA762  ILE779  LEU786  VAL792 
 PHE793  MET794  SER795  GLU796  ALA797  LYS798  CYS799  TRP800  GLU811  SER814 

> <Gold.Protein.RotatedAtoms>
  150.8088  134.7230  159.6668 H   0  0  0  0  0  0  0  0  0  0  0  0  # atno 6907 bound_to 6896
  152.4208  134.5955  159.9995 H   0  0  0  0  0  0  0  0  0  0  0  0  # atno 6908 bound_to 6896
  151.6171  133.3305  159.3116 H   0  0  0  0  0  0  0  0  0  0  0  0  # atno 6909 bound_to 6896
  145.0527  140.8231  143.4199 H   0  0  0  0  0  0  0  0  0  0  0  0  # atno 7974 bound_to 7965
  155.5034  140.0577  157.2935 H   0  0  0  0  0  0  0  0  0  0  0  0  # atno 8008 bound_to 7997
  154.4579  140.1982  156.0278 H   0  0  0  0  0  0  0  0  0  0  0  0  # atno 8009 bound_to 7997
  156.0834  140.3244  155.7726 H   0  0  0  0  0  0  0  0  0  0  0  0  # atno 8010 bound_to 7997
  140.5692  143.2316  151.6573 H   0  0  0  0  0  0  0  0  0  0  0  0  # atno 10167 bound_to 10162
  156.5131  130.8444  151.2654 H   0  0  0  0  0  0  0  0  0  0  0  0  # atno 10718 bound_to 10713
  153.6441  135.6984  153.5231 H   0  0  0  0  0  0  0  0  0  0  0  0  # atno 10763 bound_to 10752
  153.2758  135.4201  155.1031 H   0  0  0  0  0  0  0  0  0  0  0  0  # atno 10764 bound_to 10752
  154.8492  135.3590  154.5986 H   0  0  0  0  0  0  0  0  0  0  0  0  # atno 10765 bound_to 10752
  140.2130  134.3733  155.8040 H   0  0  0  0  0  0  0  0  0  0  0  0  # atno 11005 bound_to 11000
  145.1507  139.2516  143.5442 LP  0  0  0  0  0  0  0  0  0  0  0  0  # atno 17320 bound_to 7965
  146.3519  140.1208  142.8600 LP  0  0  0  0  0  0  0  0  0  0  0  0  # atno 17321 bound_to 7965
  139.5108  144.3529  152.0635 LP  0  0  0  0  0  0  0  0  0  0  0  0  # atno 17342 bound_to 10162
  140.2664  144.4012  150.6167 LP  0  0  0  0  0  0  0  0  0  0  0  0  # atno 17343 bound_to 10162
  157.7448  130.9943  150.2702 LP  0  0  0  0  0  0  0  0  0  0  0  0  # atno 17370 bound_to 10713
  156.3221  130.3787  149.7565 LP  0  0  0  0  0  0  0  0  0  0  0  0  # atno 17371 bound_to 10713
  141.2225  133.7153  156.8449 LP  0  0  0  0  0  0  0  0  0  0  0  0  # atno 17394 bound_to 11000
  140.1931  134.8951  157.3083 LP  0  0  0  0  0  0  0  0  0  0  0  0  # atno 17395 bound_to 11000

$$$$
