AV-unprocessed.smi:1554|AV-procd|sdf|6254|dock4
  -GOLD-   22720 6433D 1   1.00000     0.00000
 Structure written by MMmdl.
 48 50  0  0  0  0  0  0  0  0  2 V2000
  151.8523  144.8308  160.7322 C   0  0  0  0  0  0  0  0  0  0  0  0
  151.8449  143.6755  159.7456 C   0  0  0  0  0  0  0  0  0  0  0  0
  151.1076  143.8160  158.5484 C   0  0  0  0  0  0  0  0  0  0  0  0
  151.1193  142.7420  157.6663 C   0  0  0  0  0  0  0  0  0  0  0  0
  150.5023  142.5725  156.4251 N   0  3  0  0  0  0  0  0  0  0  0  0
  150.8036  141.3395  155.9324 C   0  0  0  0  0  0  0  0  0  0  0  0
  151.6041  140.7185  156.8406 N   0  0  0  0  0  0  0  0  0  0  0  0
  152.2009  139.3758  156.7958 C   0  0  0  0  0  0  0  0  0  0  0  0
  151.7141  138.5473  155.5888 C   0  0  2  0  0  0  0  0  0  0  0  0
  152.1480  139.1558  154.3893 O   0  0  0  0  0  0  0  0  0  0  0  0
  150.1778  138.4341  155.5260 C   0  0  0  0  0  0  0  0  0  0  0  0
  149.5918  137.3480  156.3121 N   0  0  0  0  0  0  0  0  0  0  0  0
  149.7259  137.5588  157.7518 C   0  0  0  0  0  0  0  0  0  0  0  0
  149.1345  136.3915  158.5602 C   0  0  0  0  0  0  0  0  0  0  0  0
  149.7499  135.1712  158.1618 O   0  0  0  0  0  0  0  0  0  0  0  0
  149.5985  134.9008  156.7712 C   0  0  2  0  0  0  0  0  0  0  0  0
  150.2880  133.5680  156.4618 C   0  0  0  0  0  0  0  0  0  0  0  0
  150.2000  136.0679  155.9645 C   0  0  0  0  0  0  0  0  0  0  0  0
  151.8306  141.5570  157.9390 C   0  0  0  0  0  0  0  0  0  0  0  0
  152.5626  141.4031  159.1143 C   0  0  0  0  0  0  0  0  0  0  0  0
  152.5644  142.4846  160.0240 C   0  0  0  0  0  0  0  0  0  0  0  0
  153.3553  142.3447  161.3136 C   0  0  0  0  0  0  0  0  0  0  0  0
  151.2110  145.6463  160.3966 H   0  0  0  0  0  0  0  0  0  0  0  0
  152.8615  145.2262  160.8491 H   0  0  0  0  0  0  0  0  0  0  0  0
  151.4916  144.5059  161.7083 H   0  0  0  0  0  0  0  0  0  0  0  0
  150.5576  144.7196  158.3297 H   0  0  0  0  0  0  0  0  0  0  0  0
  150.4672  140.9273  154.9918 H   0  0  0  0  0  0  0  0  0  0  0  0
  153.2814  139.5140  156.7394 H   0  0  0  0  0  0  0  0  0  0  0  0
  152.0102  138.8609  157.7375 H   0  0  0  0  0  0  0  0  0  0  0  0
  152.1671  137.5567  155.6184 H   0  0  0  0  0  0  0  0  0  0  0  0
  152.6945  138.5428  153.9225 H   0  0  0  0  0  0  0  0  0  0  0  0
  149.7593  139.3828  155.8657 H   0  0  0  0  0  0  0  0  0  0  0  0
  149.8665  138.3295  154.4851 H   0  0  0  0  0  0  0  0  0  0  0  0
  150.7784  137.6810  158.0120 H   0  0  0  0  0  0  0  0  0  0  0  0
  149.2205  138.4762  158.0509 H   0  0  0  0  0  0  0  0  0  0  0  0
  149.3039  136.5439  159.6262 H   0  0  0  0  0  0  0  0  0  0  0  0
  148.0552  136.3279  158.4128 H   0  0  0  0  0  0  0  0  0  0  0  0
  148.5353  134.8075  156.5421 H   0  0  0  0  0  0  0  0  0  0  0  0
  150.1913  133.3113  155.4066 H   0  0  0  0  0  0  0  0  0  0  0  0
  149.8471  132.7575  157.0425 H   0  0  0  0  0  0  0  0  0  0  0  0
  151.3511  133.6095  156.7009 H   0  0  0  0  0  0  0  0  0  0  0  0
  150.0664  135.8743  154.8996 H   0  0  0  0  0  0  0  0  0  0  0  0
  151.2764  136.1122  156.1395 H   0  0  0  0  0  0  0  0  0  0  0  0
  153.1063  140.4958  159.3310 H   0  0  0  0  0  0  0  0  0  0  0  0
  153.8784  141.3889  161.3594 H   0  0  0  0  0  0  0  0  0  0  0  0
  152.6921  142.4032  162.1768 H   0  0  0  0  0  0  0  0  0  0  0  0
  154.1016  143.1354  161.3942 H   0  0  0  0  0  0  0  0  0  0  0  0
  149.9169  143.2463  155.9481 H   0  0  0  0  0  0  0  0  0  0  0  0
  1  2  1  0  0  0  0
  1 23  1  0  0  0  0
  1 24  1  0  0  0  0
  1 25  1  0  0  0  0
  2 21  1  0  0  0  0
  2  3  2  0  0  0  0
  3  4  1  0  0  0  0
  3 26  1  0  0  0  0
  4 19  2  0  0  0  0
  4  5  1  0  0  0  0
  5  6  2  0  0  0  0
  5 48  1  0  0  0  0
  6  7  1  0  0  0  0
  6 27  1  0  0  0  0
  7  8  1  0  0  0  0
  7 19  1  0  0  0  0
  8  9  1  0  0  0  0
  8 28  1  0  0  0  0
  8 29  1  0  0  0  0
  9 10  1  0  0  0  0
  9 11  1  0  0  0  0
  9 30  1  0  0  0  0
 10 31  1  0  0  0  0
 11 12  1  0  0  0  0
 11 32  1  0  0  0  0
 11 33  1  0  0  0  0
 12 18  1  0  0  0  0
 12 13  1  0  0  0  0
 13 14  1  0  0  0  0
 13 34  1  0  0  0  0
 13 35  1  0  0  0  0
 14 15  1  0  0  0  0
 14 36  1  0  0  0  0
 14 37  1  0  0  0  0
 15 16  1  0  0  0  0
 16 17  1  0  0  0  0
 16 18  1  0  0  0  0
 16 38  1  0  0  0  0
 17 39  1  0  0  0  0
 17 40  1  0  0  0  0
 17 41  1  0  0  0  0
 18 42  1  0  0  0  0
 18 43  1  0  0  0  0
 19 20  1  0  0  0  0
 20 21  2  0  0  0  0
 20 44  1  0  0  0  0
 21 22  1  0  0  0  0
 22 45  1  0  0  0  0
 22 46  1  0  0  0  0
 22 47  1  0  0  0  0
M  CHG  1   5   1
M  END
> <s_m_source_file>
AV-unprocessed.smi

> <i_m_source_file_index>
1554

> <i_lp_mmshare_version>
43012

> <i_f3d_flags>
0

> <s_epik_input>
W0NIM11jKFtjSF0xKWMoW0NIM10pW2NIXWMoYzEyKW4oW2NIXW4yKVtDSDJdW0NASF0oW09IXSlbQ0gyXU4zW0NIMl1bQ0gyXU9bQ0BASF0oW0NIM10pW0NIMl0z

> <s_epik_cmdline>
J2VwaWtfcHl0aG9uJywgJy1waCcsICc3LjAnLCAnLXRuJywgJzgnLCAnLW1hJywgJzIwMCcsICctbWV0YWxfYmluZGluZycsICctaW1hZScsICc8aW5maWxlLm1hZT4nLCAnLW9tYWUnLCAnPG91dGZpbGUubWFlPic=

> <r_epik_Ionization_Penalty>
1.42504

> <r_epik_Ionization_Penalty_Charging>
1.21068

> <r_epik_Ionization_Penalty_Neutral>
0.214359

> <r_epik_State_Penalty>
1.46962

> <r_epik_Charging_Adjusted_Penalty>
2.6803

> <i_epik_Tot_Q>
1

> <i_epik_Tot_abs_Q>
1

> <r_epik_Metal_State_Penalty>
5.48754

> <b_epik_Metal_Only>
0

> <s_lp_Force_Field>
OPLS_2005

> <r_lp_Energy>
32.4448

> <b_lp_Chiralities_Consistent>
1

> <s_lp_Variant>
AV-unprocessed.smi:1554-15

> <Gold.Version>
5.8.1

> <Gold.Id.Protein>
6NUR|6NUR_protein|mol2

> <Gold.PLP.Fitness>
51.6157

> <Gold.PLP.PLP>
-41.1715

> <Gold.PLP.part.hbond>
-3.0000

> <Gold.PLP.part.metal>
0.0000

> <Gold.PLP.part.buried>
-4.8537

> <Gold.PLP.part.nonpolar>
-33.6994

> <Gold.PLP.part.repulsive>
0.0982

> <Gold.PLP.ligand.clash>
0.2510

> <Gold.PLP.ligand.torsion>
0.3770

> <Gold.PLP.Chemscore.Hbond>
3.8000

> <Gold.PLP.Chemscore.CHOScore>
0.0000

> <Gold.PLP.Chemscore.Metal>
0.0000

> <Gold.Chemscore.Hbonds>
donor molecule, donor type, donor heavy atom, donor atom, acceptor molecule, acceptor atom, score
      L1  H     5    48       P1  8028  2.00
      P1  H  6896  6907       L1    15  1.00
      P1  H  7989  7998       L1    10  0.78

> <Gold.PLP.Chemscore.Internal.Correction>
0.0493

> <Gold.Rescore>
     Score         DG    S(hbond)    S(metal)    S(lipo)     H(rot)  DE(clash)    DE(int)     intcor
     20.38     -22.86       2.62        0.00     118.34       2.04       0.87       1.61       ----

> <Gold.Chemscore.Fitness>
20.3818

> <Gold.Chemscore.DG>
-22.8561

> <Gold.Chemscore.ZeroCoef>
-5.4800

> <Gold.Chemscore.Hbond>
2.6227

> <Gold.Chemscore.Metal>
0.0000

> <Gold.Chemscore.Lipo>
118.3391

> <Gold.Chemscore.Internal_Hbond>
0.0000

> <Gold.Chemscore.DEClash>
0.8657

> <Gold.Chemscore.DEInternal>
1.6086

> <Gold.Chemscore.Rot>
2.0427

> <Gold.Chemscore.Internal.Correction>
   9.000000E+99

> <Gold.Chemscore.Hbonds>
donor molecule, donor type, donor heavy atom, donor atom, acceptor molecule, acceptor atom, score
      L1  H     5    48       P1  8028  1.00
      P1  H  6896  6907       L1    15  0.88
      P1  H  7989  7998       L1    10  0.73

> <Gold.Chemscore.Hbond.Weighted>
-8.7598

> <Gold.Chemscore.Metal.Weighted>
-0.0000

> <Gold.Chemscore.Lipo.Weighted>
-13.8457

> <Gold.Chemscore.Internal_Hbond.Weighted>
0.0000

> <Gold.Chemscore.DEClash.Weighted>
0.8657

> <Gold.Chemscore.DEInternal.Weighted>
1.6086

> <Gold.Chemscore.Rot.Weighted>
5.2294

> <Gold.Chemscore.Internal.Correction.Weighted>
   9.000000E+99

> <Gold.Protein.RotatedTorsions>
[ 6907 6896 6895 6894 ] final  -88.03 input  -60.11 | X-H torsion
[ 7974 7965 7964 7962 ] final    0.82 input  175.53 | X-H torsion
[ 8008 7997 7996 7995 ] final  -97.34 input   59.86 | X-H torsion
[ 10167 10162 10161 10158 ] final  -48.56 input  -65.29 | X-H torsion
[ 10718 10713 10712 10709 ] final   -6.75 input   66.30 | X-H torsion
[ 10763 10752 10751 10750 ] final    6.76 input  -60.55 | X-H torsion
[ 11005 11000 10999 10996 ] final   22.58 input  -57.11 | X-H torsion

> <Gold.Protein.ActiveResidues>
 VAL166  LYS551  ARG553  GLY616  TRP617  ASP618  TYR619  PRO620  LYS621  CYS622 
 ASP623  PHE694  ASN695  SER759  ASP760  ASP761  ALA762  ILE779  LEU786  VAL792 
 PHE793  MET794  SER795  GLU796  ALA797  LYS798  CYS799  TRP800  GLU811  SER814 

> <Gold.Protein.RotatedAtoms>
  150.6867  134.2804  159.4624 H   0  0  0  0  0  0  0  0  0  0  0  0  # atno 6907 bound_to 6896
  152.0719  134.9525  160.0583 H   0  0  0  0  0  0  0  0  0  0  0  0  # atno 6908 bound_to 6896
  152.0912  133.4167  159.4581 H   0  0  0  0  0  0  0  0  0  0  0  0  # atno 6909 bound_to 6896
  146.2437  140.1079  142.8345 H   0  0  0  0  0  0  0  0  0  0  0  0  # atno 7974 bound_to 7965
  154.7864  140.0464  157.1167 H   0  0  0  0  0  0  0  0  0  0  0  0  # atno 8008 bound_to 7997
  154.9643  140.3081  155.4997 H   0  0  0  0  0  0  0  0  0  0  0  0  # atno 8009 bound_to 7997
  156.2944  140.2265  156.4730 H   0  0  0  0  0  0  0  0  0  0  0  0  # atno 8010 bound_to 7997
  140.6725  143.2735  151.4088 H   0  0  0  0  0  0  0  0  0  0  0  0  # atno 10167 bound_to 10162
  156.7273  130.5169  149.5854 H   0  0  0  0  0  0  0  0  0  0  0  0  # atno 10718 bound_to 10713
  153.2441  135.6906  153.7751 H   0  0  0  0  0  0  0  0  0  0  0  0  # atno 10763 bound_to 10752
  153.6870  135.3319  155.3193 H   0  0  0  0  0  0  0  0  0  0  0  0  # atno 10764 bound_to 10752
  154.8367  135.4536  154.1373 H   0  0  0  0  0  0  0  0  0  0  0  0  # atno 10765 bound_to 10752
  140.3790  134.1941  155.7664 H   0  0  0  0  0  0  0  0  0  0  0  0  # atno 11005 bound_to 11000
  145.0512  140.9019  143.4994 LP  0  0  0  0  0  0  0  0  0  0  0  0  # atno 17320 bound_to 7965
  145.1177  139.2714  143.5604 LP  0  0  0  0  0  0  0  0  0  0  0  0  # atno 17321 bound_to 7965
  139.6001  144.1314  152.2188 LP  0  0  0  0  0  0  0  0  0  0  0  0  # atno 17342 bound_to 10162
  140.0696  144.5790  150.7202 LP  0  0  0  0  0  0  0  0  0  0  0  0  # atno 17343 bound_to 10162
  156.1553  130.6337  151.0649 LP  0  0  0  0  0  0  0  0  0  0  0  0  # atno 17370 bound_to 10713
  157.6873  131.0821  150.7207 LP  0  0  0  0  0  0  0  0  0  0  0  0  # atno 17371 bound_to 10713
  141.1929  133.8161  157.0818 LP  0  0  0  0  0  0  0  0  0  0  0  0  # atno 17394 bound_to 11000
  140.0493  134.9814  157.1106 LP  0  0  0  0  0  0  0  0  0  0  0  0  # atno 17395 bound_to 11000

$$$$
