AV-unprocessed.smi:1840|AV-procd|sdf|7489|dock6
  -GOLD-   22720 9193D 1   1.00000     0.00000
 Structure written by MMmdl.
 43 44  0  0  0  0  0  0  0  0  1 V2000
  149.5380  139.4372  154.2498 C   0  0  0  0  0  0  0  0  0  0  0  0
  149.1774  140.9205  154.0820 C   0  0  1  0  0  0  0  0  0  0  0  0
  147.6729  141.1136  153.8108 C   0  0  0  0  0  0  0  0  0  0  0  0
  147.1234  140.0577  152.9784 N   0  0  0  0  0  0  0  0  0  0  0  0
  147.3160  139.8403  151.6302 C   0  0  0  0  0  0  0  0  0  0  0  0
  146.6109  138.7203  151.2945 C   0  0  0  0  0  0  0  0  0  0  0  0
  146.0092  138.3201  152.5205 C   0  0  0  0  0  0  0  0  0  0  0  0
  146.3175  139.1228  153.5263 N   0  0  0  0  0  0  0  0  0  0  0  0
  149.5664  141.6610  155.2805 N   0  0  0  0  0  0  0  0  0  0  0  0
  150.6992  141.4808  155.9730 C   0  0  0  0  0  0  0  0  0  0  0  0
  151.5452  140.6275  155.7053 O   0  0  0  0  0  0  0  0  0  0  0  0
  150.8008  142.3552  156.9845 N   0  0  0  0  0  0  0  0  0  0  0  0
  151.9138  142.4488  157.9282 C   0  0  2  0  0  0  0  0  0  0  0  0
  151.9553  141.1577  158.7696 C   0  0  0  0  0  0  0  0  0  0  0  0
  153.0622  141.2063  159.8322 C   0  0  0  0  0  0  0  0  0  0  0  0
  152.9012  142.4363  160.7349 C   0  0  0  0  0  0  0  0  0  0  0  0
  152.8799  143.7280  159.9039 C   0  0  0  0  0  0  0  0  0  0  0  0
  151.7742  143.7047  158.8283 C   0  0  1  0  0  0  0  0  0  0  0  0
  151.7774  145.0185  158.0255 C   0  0  0  0  0  0  0  0  0  0  0  0
  149.2774  138.8684  153.3569 H   0  0  0  0  0  0  0  0  0  0  0  0
  149.0102  138.9925  155.0940 H   0  0  0  0  0  0  0  0  0  0  0  0
  150.6076  139.3088  154.4197 H   0  0  0  0  0  0  0  0  0  0  0  0
  149.7258  141.3031  153.2190 H   0  0  0  0  0  0  0  0  0  0  0  0
  147.1193  141.1296  154.7510 H   0  0  0  0  0  0  0  0  0  0  0  0
  147.4891  142.0734  153.3256 H   0  0  0  0  0  0  0  0  0  0  0  0
  147.9358  140.4901  151.0305 H   0  0  0  0  0  0  0  0  0  0  0  0
  146.5374  138.2572  150.3219 H   0  0  0  0  0  0  0  0  0  0  0  0
  145.3625  137.4757  152.7084 H   0  0  0  0  0  0  0  0  0  0  0  0
  148.9363  142.3879  155.5867 H   0  0  0  0  0  0  0  0  0  0  0  0
  150.0493  143.0170  157.1116 H   0  0  0  0  0  0  0  0  0  0  0  0
  152.8581  142.5185  157.3850 H   0  0  0  0  0  0  0  0  0  0  0  0
  150.9927  141.0041  159.2601 H   0  0  0  0  0  0  0  0  0  0  0  0
  152.1110  140.2951  158.1207 H   0  0  0  0  0  0  0  0  0  0  0  0
  153.0416  140.2971  160.4339 H   0  0  0  0  0  0  0  0  0  0  0  0
  154.0377  141.2337  159.3450 H   0  0  0  0  0  0  0  0  0  0  0  0
  151.9775  142.3531  161.3090 H   0  0  0  0  0  0  0  0  0  0  0  0
  153.7143  142.4739  161.4602 H   0  0  0  0  0  0  0  0  0  0  0  0
  152.7366  144.5816  160.5672 H   0  0  0  0  0  0  0  0  0  0  0  0
  153.8519  143.8680  159.4289 H   0  0  0  0  0  0  0  0  0  0  0  0
  150.8158  143.6433  159.3465 H   0  0  0  0  0  0  0  0  0  0  0  0
  152.6895  145.1190  157.4365 H   0  0  0  0  0  0  0  0  0  0  0  0
  151.7124  145.8826  158.6873 H   0  0  0  0  0  0  0  0  0  0  0  0
  150.9314  145.0756  157.3405 H   0  0  0  0  0  0  0  0  0  0  0  0
  1  2  1  0  0  0  0
  1 20  1  0  0  0  0
  1 21  1  0  0  0  0
  1 22  1  0  0  0  0
  2  3  1  0  0  0  0
  2  9  1  0  0  0  0
  2 23  1  0  0  0  0
  3  4  1  0  0  0  0
  3 24  1  0  0  0  0
  3 25  1  0  0  0  0
  4  8  1  0  0  0  0
  4  5  1  0  0  0  0
  5  6  2  0  0  0  0
  5 26  1  0  0  0  0
  6  7  1  0  0  0  0
  6 27  1  0  0  0  0
  7  8  2  0  0  0  0
  7 28  1  0  0  0  0
  9 10  1  0  0  0  0
  9 29  1  0  0  0  0
 10 11  2  0  0  0  0
 10 12  1  0  0  0  0
 12 13  1  0  0  0  0
 12 30  1  0  0  0  0
 13 18  1  0  0  0  0
 13 14  1  0  0  0  0
 13 31  1  0  0  0  0
 14 15  1  0  0  0  0
 14 32  1  0  0  0  0
 14 33  1  0  0  0  0
 15 16  1  0  0  0  0
 15 34  1  0  0  0  0
 15 35  1  0  0  0  0
 16 17  1  0  0  0  0
 16 36  1  0  0  0  0
 16 37  1  0  0  0  0
 17 18  1  0  0  0  0
 17 38  1  0  0  0  0
 17 39  1  0  0  0  0
 18 19  1  0  0  0  0
 18 40  1  0  0  0  0
 19 41  1  0  0  0  0
 19 42  1  0  0  0  0
 19 43  1  0  0  0  0
M  END
> <s_m_source_file>
AV-unprocessed.smi

> <i_m_source_file_index>
1840

> <i_lp_mmshare_version>
43012

> <i_f3d_flags>
0

> <s_epik_input>
bjFbY0hdW2NIXVtjSF1uMVtDSDJdW0NAQEhdKFtDSDNdKVtOSF1DKD1PKVtOSF1bQ0BASF0yW0NIMl1bQ0gyXVtDSDJdW0NIMl1bQ0BIXTJbQ0gzXQ==

> <s_epik_cmdline>
J2VwaWtfcHl0aG9uJywgJy1waCcsICc3LjAnLCAnLXRuJywgJzgnLCAnLW1hJywgJzIwMCcsICctbWV0YWxfYmluZGluZycsICctaW1hZScsICc8aW5maWxlLm1hZT4nLCAnLW9tYWUnLCAnPG91dGZpbGUubWFlPic=

> <r_lp_tautomer_probability>
1

> <r_epik_Ionization_Penalty>
7.38659e-05

> <r_epik_Ionization_Penalty_Charging>
0

> <r_epik_Ionization_Penalty_Neutral>
7.38659e-05

> <r_epik_State_Penalty>
-0

> <r_epik_Charging_Adjusted_Penalty>
0

> <i_epik_Tot_Q>
0

> <i_epik_Tot_abs_Q>
0

> <r_epik_Metal_State_Penalty>
-0

> <b_epik_Metal_Only>
0

> <s_lp_Force_Field>
OPLS_2005

> <r_lp_Energy>
8.744

> <b_lp_Chiralities_Consistent>
1

> <s_lp_Variant>
AV-unprocessed.smi:1840-2

> <Gold.Version>
5.8.1

> <Gold.Id.Protein>
6NUR|6NUR_protein|mol2

> <Gold.PLP.Fitness>
43.8085

> <Gold.PLP.PLP>
-41.8865

> <Gold.PLP.part.hbond>
-1.4600

> <Gold.PLP.part.metal>
0.0000

> <Gold.PLP.part.buried>
2.1330

> <Gold.PLP.part.nonpolar>
-42.5687

> <Gold.PLP.part.repulsive>
0.3637

> <Gold.PLP.ligand.clash>
0.0000

> <Gold.PLP.ligand.torsion>
0.6590

> <Gold.PLP.Chemscore.Hbond>
0.5262

> <Gold.PLP.Chemscore.CHOScore>
0.5479

> <Gold.PLP.Chemscore.Metal>
0.0000

> <Gold.Chemscore.Hbonds>
donor molecule, donor type, donor heavy atom, donor atom, acceptor molecule, acceptor atom, score
      L1  H     9    29       P1  8028  0.20
      P1  H  7989  7998       L1    11  0.41
      L1  C     5    26       P1  7957  0.08

> <Gold.PLP.Chemscore.Internal.Correction>
0.0174

> <Gold.Rescore>
     Score         DG    S(hbond)    S(metal)    S(lipo)     H(rot)  DE(clash)    DE(int)     intcor
     14.73     -17.16       0.66        0.00     115.04       1.56       0.44       2.00       ----

> <Gold.Chemscore.Fitness>
14.7294

> <Gold.Chemscore.DG>
-17.1617

> <Gold.Chemscore.ZeroCoef>
-5.4800

> <Gold.Chemscore.Hbond>
0.6614

> <Gold.Chemscore.Metal>
0.0000

> <Gold.Chemscore.Lipo>
115.0437

> <Gold.Chemscore.Internal_Hbond>
0.0000

> <Gold.Chemscore.DEClash>
0.4370

> <Gold.Chemscore.DEInternal>
1.9953

> <Gold.Chemscore.Rot>
1.5576

> <Gold.Chemscore.Internal.Correction>
   9.000000E+99

> <Gold.Chemscore.Hbonds>
donor molecule, donor type, donor heavy atom, donor atom, acceptor molecule, acceptor atom, score
      L1  H     9    29       P1  8028  0.20
      L1  H    12    30       P1  8028  0.01
      P1  H  7989  7998       L1    11  0.11

> <Gold.Chemscore.Hbond.Weighted>
-2.2091

> <Gold.Chemscore.Metal.Weighted>
-0.0000

> <Gold.Chemscore.Lipo.Weighted>
-13.4601

> <Gold.Chemscore.Internal_Hbond.Weighted>
0.0000

> <Gold.Chemscore.DEClash.Weighted>
0.4370

> <Gold.Chemscore.DEInternal.Weighted>
1.9953

> <Gold.Chemscore.Rot.Weighted>
3.9875

> <Gold.Chemscore.Internal.Correction.Weighted>
   9.000000E+99

> <Gold.Protein.RotatedTorsions>
[ 6907 6896 6895 6894 ] final   10.80 input  -60.11 | X-H torsion
[ 7974 7965 7964 7962 ] final  -69.54 input  175.53 | X-H torsion
[ 8008 7997 7996 7995 ] final   36.63 input   59.86 | X-H torsion
[ 10167 10162 10161 10158 ] final   64.22 input  -65.29 | X-H torsion
[ 10718 10713 10712 10709 ] final   34.39 input   66.30 | X-H torsion
[ 10763 10752 10751 10750 ] final -159.35 input  -60.55 | X-H torsion
[ 11005 11000 10999 10996 ] final -104.42 input  -57.11 | X-H torsion

> <Gold.Protein.ActiveResidues>
 VAL166  LYS551  ARG553  GLY616  TRP617  ASP618  TYR619  PRO620  LYS621  CYS622 
 ASP623  PHE694  ASN695  SER759  ASP760  ASP761  ALA762  ILE779  LEU786  VAL792 
 PHE793  MET794  SER795  GLU796  ALA797  LYS798  CYS799  TRP800  GLU811  SER814 

> <Gold.Protein.RotatedAtoms>
  151.7441  135.0847  160.0320 H   0  0  0  0  0  0  0  0  0  0  0  0  # atno 6907 bound_to 6896
  152.3460  133.6118  159.5919 H   0  0  0  0  0  0  0  0  0  0  0  0  # atno 6908 bound_to 6896
  150.7509  133.9564  159.3543 H   0  0  0  0  0  0  0  0  0  0  0  0  # atno 6909 bound_to 6896
  145.7025  140.9111  143.0723 H   0  0  0  0  0  0  0  0  0  0  0  0  # atno 7974 bound_to 7965
  155.1905  140.3307  155.4359 H   0  0  0  0  0  0  0  0  0  0  0  0  # atno 8008 bound_to 7997
  156.2444  140.1911  156.6948 H   0  0  0  0  0  0  0  0  0  0  0  0  # atno 8009 bound_to 7997
  154.6209  140.0595  156.9600 H   0  0  0  0  0  0  0  0  0  0  0  0  # atno 8010 bound_to 7997
  140.1245  144.4700  150.6901 H   0  0  0  0  0  0  0  0  0  0  0  0  # atno 10167 bound_to 10162
  157.3097  130.7393  149.6717 H   0  0  0  0  0  0  0  0  0  0  0  0  # atno 10718 bound_to 10713
  154.7481  135.3085  154.8607 H   0  0  0  0  0  0  0  0  0  0  0  0  # atno 10763 bound_to 10752
  153.9402  135.6775  153.4748 H   0  0  0  0  0  0  0  0  0  0  0  0  # atno 10764 bound_to 10752
  153.1078  135.4881  154.8908 H   0  0  0  0  0  0  0  0  0  0  0  0  # atno 10765 bound_to 10752
  141.1101  133.8722  157.1609 H   0  0  0  0  0  0  0  0  0  0  0  0  # atno 11005 bound_to 11000
  144.6964  139.8966  143.7456 LP  0  0  0  0  0  0  0  0  0  0  0  0  # atno 17320 bound_to 7965
  146.0785  139.3773  143.0479 LP  0  0  0  0  0  0  0  0  0  0  0  0  # atno 17321 bound_to 7965
  140.6853  143.2347  151.5277 LP  0  0  0  0  0  0  0  0  0  0  0  0  # atno 17342 bound_to 10162
  139.5551  144.2295  152.1599 LP  0  0  0  0  0  0  0  0  0  0  0  0  # atno 17343 bound_to 10162
  155.9677  130.4255  150.4657 LP  0  0  0  0  0  0  0  0  0  0  0  0  # atno 17370 bound_to 10713
  157.2653  131.0575  151.2294 LP  0  0  0  0  0  0  0  0  0  0  0  0  # atno 17371 bound_to 10713
  139.9990  135.0035  157.0148 LP  0  0  0  0  0  0  0  0  0  0  0  0  # atno 17394 bound_to 11000
  140.4798  134.1301  155.7215 LP  0  0  0  0  0  0  0  0  0  0  0  0  # atno 17395 bound_to 11000

$$$$
