AV-unprocessed.smi:2684|AV-procd|sdf|10379|dock9
  -GOLD-   2272014413D 1   1.00000     0.00000
 Structure written by MMmdl.
 45 46  0  0  0  0  0  0  0  0  2 V2000
  151.2754  142.2181  158.0142 C   0  0  0  0  0  0  0  0  0  0  0  0
  150.7452  141.4647  156.8288 C   0  0  0  0  0  0  0  0  0  0  0  0
  151.4176  140.4864  156.0426 C   0  0  0  0  0  0  0  0  0  0  0  0
  150.6693  140.0157  155.0579 N   0  0  0  0  0  0  0  0  0  0  0  0
  149.4991  140.6777  155.1770 N   0  0  0  0  0  0  0  0  0  0  0  0
  148.4262  140.4251  154.2319 C   0  0  0  0  0  0  0  0  0  0  0  0
  148.0688  138.9271  154.0943 C   0  0  1  0  0  0  0  0  0  0  0  0
  146.7636  138.6161  154.8388 C   0  0  0  0  0  0  0  0  0  0  0  0
  147.9265  138.5315  152.6737 N   0  3  0  0  0  0  0  0  0  0  0  0
  146.5761  138.7184  152.1005 C   0  0  0  0  0  0  0  0  0  0  0  0
  145.7513  137.4258  152.1543 C   0  0  0  0  0  0  0  0  0  0  0  0
  144.6278  137.4504  152.6532 O   0  0  0  0  0  0  0  0  0  0  0  0
  146.2663  136.2768  151.6806 N   0  0  0  0  0  0  0  0  0  0  0  0
  145.6492  134.9513  151.6402 C   0  0  0  0  0  0  0  0  0  0  0  0
  146.7277  133.8891  151.3790 C   0  0  0  0  0  0  0  0  0  0  0  0
  146.0935  132.4985  151.2116 C   0  0  0  0  0  0  0  0  0  0  0  0
  145.1334  132.5257  150.1614 O   0  0  0  0  0  0  0  0  0  0  0  0
  144.0528  133.4149  150.4207 C   0  0  0  0  0  0  0  0  0  0  0  0
  144.5744  134.8558  150.5417 C   0  0  0  0  0  0  0  0  0  0  0  0
  149.5136  141.5506  156.2445 C   0  0  0  0  0  0  0  0  0  0  0  0
  152.0027  141.6301  158.5741 H   0  0  0  0  0  0  0  0  0  0  0  0
  150.4810  142.4908  158.7092 H   0  0  0  0  0  0  0  0  0  0  0  0
  151.7698  143.1416  157.7142 H   0  0  0  0  0  0  0  0  0  0  0  0
  152.4235  140.1092  156.1561 H   0  0  0  0  0  0  0  0  0  0  0  0
  147.5524  140.9896  154.5612 H   0  0  0  0  0  0  0  0  0  0  0  0
  148.7123  140.8381  153.2634 H   0  0  0  0  0  0  0  0  0  0  0  0
  148.8523  138.3229  154.5547 H   0  0  0  0  0  0  0  0  0  0  0  0
  146.8470  138.8642  155.8976 H   0  0  0  0  0  0  0  0  0  0  0  0
  146.5142  137.5568  154.7697 H   0  0  0  0  0  0  0  0  0  0  0  0
  145.9263  139.1830  154.4301 H   0  0  0  0  0  0  0  0  0  0  0  0
  148.5608  139.0924  152.1227 H   0  0  0  0  0  0  0  0  0  0  0  0
  146.0732  139.5249  152.6237 H   0  0  0  0  0  0  0  0  0  0  0  0
  146.6731  139.0286  151.0598 H   0  0  0  0  0  0  0  0  0  0  0  0
  147.2099  136.3250  151.3227 H   0  0  0  0  0  0  0  0  0  0  0  0
  145.2037  134.7259  152.6092 H   0  0  0  0  0  0  0  0  0  0  0  0
  147.2849  134.1384  150.4747 H   0  0  0  0  0  0  0  0  0  0  0  0
  147.4491  133.8728  152.1969 H   0  0  0  0  0  0  0  0  0  0  0  0
  146.8611  131.7637  150.9679 H   0  0  0  0  0  0  0  0  0  0  0  0
  145.6219  132.1697  152.1387 H   0  0  0  0  0  0  0  0  0  0  0  0
  143.3348  133.3441  149.6035 H   0  0  0  0  0  0  0  0  0  0  0  0
  143.5302  133.1143  151.3304 H   0  0  0  0  0  0  0  0  0  0  0  0
  143.7415  135.5272  150.7490 H   0  0  0  0  0  0  0  0  0  0  0  0
  144.9942  135.1675  149.5843 H   0  0  0  0  0  0  0  0  0  0  0  0
  148.6593  142.1630  156.4924 H   0  0  0  0  0  0  0  0  0  0  0  0
  148.1971  137.5633  152.5786 H   0  0  0  0  0  0  0  0  0  0  0  0
  1  2  1  0  0  0  0
  1 21  1  0  0  0  0
  1 22  1  0  0  0  0
  1 23  1  0  0  0  0
  2 20  2  0  0  0  0
  2  3  1  0  0  0  0
  3  4  2  0  0  0  0
  3 24  1  0  0  0  0
  4  5  1  0  0  0  0
  5  6  1  0  0  0  0
  5 20  1  0  0  0  0
  6  7  1  0  0  0  0
  6 25  1  0  0  0  0
  6 26  1  0  0  0  0
  7  8  1  0  0  0  0
  7  9  1  0  0  0  0
  7 27  1  0  0  0  0
  8 28  1  0  0  0  0
  8 29  1  0  0  0  0
  8 30  1  0  0  0  0
  9 10  1  0  0  0  0
  9 31  1  0  0  0  0
  9 45  1  0  0  0  0
 10 11  1  0  0  0  0
 10 32  1  0  0  0  0
 10 33  1  0  0  0  0
 11 12  2  0  0  0  0
 11 13  1  0  0  0  0
 13 14  1  0  0  0  0
 13 34  1  0  0  0  0
 14 19  1  0  0  0  0
 14 15  1  0  0  0  0
 14 35  1  0  0  0  0
 15 16  1  0  0  0  0
 15 36  1  0  0  0  0
 15 37  1  0  0  0  0
 16 17  1  0  0  0  0
 16 38  1  0  0  0  0
 16 39  1  0  0  0  0
 17 18  1  0  0  0  0
 18 19  1  0  0  0  0
 18 40  1  0  0  0  0
 18 41  1  0  0  0  0
 19 42  1  0  0  0  0
 19 43  1  0  0  0  0
 20 44  1  0  0  0  0
M  CHG  1   9   1
M  END
> <s_m_source_file>
AV-unprocessed.smi

> <i_m_source_file_index>
2684

> <i_lp_mmshare_version>
43012

> <i_f3d_flags>
0

> <s_epik_input>
W0NIM11jMVtjSF1ubihbY0hdMSlbQ0gyXVtDQEhdKFtDSDNdKVtOSF1bQ0gyXUMoPU8pW05IXVtDSF0yW0NIMl1bQ0gyXU9bQ0gyXVtDSDJdMg==

> <s_epik_cmdline>
J2VwaWtfcHl0aG9uJywgJy1waCcsICc3LjAnLCAnLXRuJywgJzgnLCAnLW1hJywgJzIwMCcsICctbWV0YWxfYmluZGluZycsICctaW1hZScsICc8aW5maWxlLm1hZT4nLCAnLW9tYWUnLCAnPG91dGZpbGUubWFlPic=

> <r_lp_tautomer_probability>
1

> <r_epik_Ionization_Penalty>
0.128576

> <r_epik_Ionization_Penalty_Charging>
0.128567

> <r_epik_Ionization_Penalty_Neutral>
8.60003e-06

> <r_epik_State_Penalty>
0.117991

> <r_epik_Charging_Adjusted_Penalty>
0.246558

> <i_epik_Tot_Q>
1

> <i_epik_Tot_abs_Q>
1

> <r_epik_Metal_State_Penalty>
0.118015

> <b_epik_Metal_Only>
0

> <s_lp_Force_Field>
OPLS_2005

> <r_lp_Energy>
10.4868

> <b_lp_Chiralities_Consistent>
1

> <s_lp_Variant>
AV-unprocessed.smi:2684-2

> <Gold.Version>
5.8.1

> <Gold.Id.Protein>
6NUR|6NUR_protein|mol2

> <Gold.PLP.Fitness>
53.2851

> <Gold.PLP.PLP>
-38.9790

> <Gold.PLP.part.hbond>
-4.0000

> <Gold.PLP.part.metal>
0.0000

> <Gold.PLP.part.buried>
-3.4528

> <Gold.PLP.part.nonpolar>
-32.3090

> <Gold.PLP.part.repulsive>
0.7258

> <Gold.PLP.ligand.clash>
0.1221

> <Gold.PLP.ligand.torsion>
1.4976

> <Gold.PLP.Chemscore.Hbond>
4.9440

> <Gold.PLP.Chemscore.CHOScore>
0.8395

> <Gold.PLP.Chemscore.Metal>
0.0000

> <Gold.Chemscore.Hbonds>
donor molecule, donor type, donor heavy atom, donor atom, acceptor molecule, acceptor atom, score
      L1  H     9    31       P1  7957  1.00
      L1  H     9    45       P1  7948  2.00
      L1  H    13    34       P1  7948  0.86
      P1  H  7989  7998       L1     4  0.95
      L1  C    20    44       P1  8028  0.41

> <Gold.PLP.Chemscore.Internal.Correction>
0.0728

> <Gold.Rescore>
     Score         DG    S(hbond)    S(metal)    S(lipo)     H(rot)  DE(clash)    DE(int)     intcor
     20.06     -21.62       3.66        0.00      78.23       2.04       0.12       1.44       ----

> <Gold.Chemscore.Fitness>
20.0639

> <Gold.Chemscore.DG>
-21.6210

> <Gold.Chemscore.ZeroCoef>
-5.4800

> <Gold.Chemscore.Hbond>
3.6586

> <Gold.Chemscore.Metal>
0.0000

> <Gold.Chemscore.Lipo>
78.2328

> <Gold.Chemscore.Internal_Hbond>
0.0000

> <Gold.Chemscore.DEClash>
0.1193

> <Gold.Chemscore.DEInternal>
1.4379

> <Gold.Chemscore.Rot>
2.0437

> <Gold.Chemscore.Internal.Correction>
   9.000000E+99

> <Gold.Chemscore.Hbonds>
donor molecule, donor type, donor heavy atom, donor atom, acceptor molecule, acceptor atom, score
      L1  H     9    31       P1  7957  0.99
      L1  H     9    45       P1  7948  0.98
      L1  H    13    34       P1  7948  0.86
      P1  H  7989  7998       L1     4  0.11

> <Gold.Chemscore.Hbond.Weighted>
-12.2196

> <Gold.Chemscore.Metal.Weighted>
-0.0000

> <Gold.Chemscore.Lipo.Weighted>
-9.1532

> <Gold.Chemscore.Internal_Hbond.Weighted>
0.0000

> <Gold.Chemscore.DEClash.Weighted>
0.1193

> <Gold.Chemscore.DEInternal.Weighted>
1.4379

> <Gold.Chemscore.Rot.Weighted>
5.2318

> <Gold.Chemscore.Internal.Correction.Weighted>
   9.000000E+99

> <Gold.Protein.RotatedTorsions>
[ 6907 6896 6895 6894 ] final  -76.57 input  -60.11 | X-H torsion
[ 7974 7965 7964 7962 ] final  120.38 input  175.53 | X-H torsion
[ 8008 7997 7996 7995 ] final -149.04 input   59.86 | X-H torsion
[ 10167 10162 10161 10158 ] final  -62.63 input  -65.29 | X-H torsion
[ 10718 10713 10712 10709 ] final  -18.65 input   66.30 | X-H torsion
[ 10763 10752 10751 10750 ] final  -59.43 input  -60.55 | X-H torsion
[ 11005 11000 10999 10996 ] final   53.05 input  -57.11 | X-H torsion

> <Gold.Protein.ActiveResidues>
 VAL166  LYS551  ARG553  GLY616  TRP617  ASP618  TYR619  PRO620  LYS621  CYS622 
 ASP623  PHE694  ASN695  SER759  ASP760  ASP761  ALA762  ILE779  LEU786  VAL792 
 PHE793  MET794  SER795  GLU796  ALA797  LYS798  CYS799  TRP800  GLU811  SER814 

> <Gold.Protein.RotatedAtoms>
  150.7023  134.4552  159.5354 H   0  0  0  0  0  0  0  0  0  0  0  0  # atno 6907 bound_to 6896
  152.2237  134.8386  160.0492 H   0  0  0  0  0  0  0  0  0  0  0  0  # atno 6908 bound_to 6896
  151.9227  133.3555  159.3939 H   0  0  0  0  0  0  0  0  0  0  0  0  # atno 6909 bound_to 6896
  145.1319  139.3322  143.4661 H   0  0  0  0  0  0  0  0  0  0  0  0  # atno 7974 bound_to 7965
  155.6013  140.0662  157.2732 H   0  0  0  0  0  0  0  0  0  0  0  0  # atno 8008 bound_to 7997
  154.4278  140.1818  156.1224 H   0  0  0  0  0  0  0  0  0  0  0  0  # atno 8009 bound_to 7997
  156.0157  140.3322  155.6989 H   0  0  0  0  0  0  0  0  0  0  0  0  # atno 8010 bound_to 7997
  140.5926  143.2344  151.6106 H   0  0  0  0  0  0  0  0  0  0  0  0  # atno 10167 bound_to 10162
  156.5565  130.4715  149.6427 H   0  0  0  0  0  0  0  0  0  0  0  0  # atno 10718 bound_to 10713
  154.2536  135.6321  153.5249 H   0  0  0  0  0  0  0  0  0  0  0  0  # atno 10763 bound_to 10752
  152.9908  135.5570  154.5781 H   0  0  0  0  0  0  0  0  0  0  0  0  # atno 10764 bound_to 10752
  154.5314  135.2888  155.1152 H   0  0  0  0  0  0  0  0  0  0  0  0  # atno 10765 bound_to 10752
  140.0799  134.5353  155.8958 H   0  0  0  0  0  0  0  0  0  0  0  0  # atno 11005 bound_to 11000
  146.3513  140.1321  142.8597 LP  0  0  0  0  0  0  0  0  0  0  0  0  # atno 17320 bound_to 7965
  145.0626  140.9098  143.4929 LP  0  0  0  0  0  0  0  0  0  0  0  0  # atno 17321 bound_to 7965
  139.5237  144.3125  152.0980 LP  0  0  0  0  0  0  0  0  0  0  0  0  # atno 17342 bound_to 10162
  140.2292  144.4386  150.6307 LP  0  0  0  0  0  0  0  0  0  0  0  0  # atno 17343 bound_to 10162
  156.2837  130.7085  151.1916 LP  0  0  0  0  0  0  0  0  0  0  0  0  # atno 17370 bound_to 10713
  157.7377  131.0549  150.5339 LP  0  0  0  0  0  0  0  0  0  0  0  0  # atno 17371 bound_to 10713
  141.2043  133.6638  156.6111 LP  0  0  0  0  0  0  0  0  0  0  0  0  # atno 17394 bound_to 11000
  140.3504  134.7774  157.4462 LP  0  0  0  0  0  0  0  0  0  0  0  0  # atno 17395 bound_to 11000

$$$$
