AV-unprocessed.smi:3125|AV-procd|sdf|11909|dock1
  -GOLD-   2272017293D 1   1.00000     0.00000
 Structure written by MMmdl.
 28 29  0  0  0  0  0  0  0  0  2 V2000
  152.5883  144.7416  158.2111 C   0  0  0  0  0  0  0  0  0  0  0  0
  152.3844  143.5151  158.9580 N   0  0  0  0  0  0  0  0  0  0  0  0
  153.0635  143.1516  160.1136 C   0  0  0  0  0  0  0  0  0  0  0  0
  152.5744  141.9251  160.4908 C   0  0  0  0  0  0  0  0  0  0  0  0
  151.6009  141.5209  159.5849 N   0  0  0  0  0  0  0  0  0  0  0  0
  151.5252  142.5086  158.6963 C   0  0  0  0  0  0  0  0  0  0  0  0
  150.5924  142.4903  157.5170 C   0  0  1  0  0  0  0  0  0  0  0  0
  150.9998  141.4264  156.4794 C   0  0  0  0  0  0  0  0  0  0  0  0
  150.0136  141.4148  155.3013 C   0  0  0  0  0  0  0  0  0  0  0  0
  148.5692  141.2350  155.7969 C   0  0  0  0  0  0  0  0  0  0  0  0
  148.2206  142.2839  156.7797 N   0  3  0  0  0  0  0  0  0  0  0  0
  149.1242  142.2999  157.9514 C   0  0  0  0  0  0  0  0  0  0  0  0
  153.3800  145.3350  158.6697 H   0  0  0  0  0  0  0  0  0  0  0  0
  151.6689  145.3276  158.2050 H   0  0  0  0  0  0  0  0  0  0  0  0
  152.8757  144.5071  157.1858 H   0  0  0  0  0  0  0  0  0  0  0  0
  153.8212  143.7786  160.5606 H   0  0  0  0  0  0  0  0  0  0  0  0
  152.8455  141.3086  161.3351 H   0  0  0  0  0  0  0  0  0  0  0  0
  150.6489  143.4583  157.0193 H   0  0  0  0  0  0  0  0  0  0  0  0
  152.0100  141.6203  156.1170 H   0  0  0  0  0  0  0  0  0  0  0  0
  151.0194  140.4394  156.9440 H   0  0  0  0  0  0  0  0  0  0  0  0
  150.0969  142.3483  154.7431 H   0  0  0  0  0  0  0  0  0  0  0  0
  150.2720  140.6151  154.6065 H   0  0  0  0  0  0  0  0  0  0  0  0
  147.8727  141.2845  154.9597 H   0  0  0  0  0  0  0  0  0  0  0  0
  148.4447  140.2540  156.2582 H   0  0  0  0  0  0  0  0  0  0  0  0
  148.2712  143.1828  156.3219 H   0  0  0  0  0  0  0  0  0  0  0  0
  149.0027  141.3658  158.5021 H   0  0  0  0  0  0  0  0  0  0  0  0
  148.8193  143.1054  158.6200 H   0  0  0  0  0  0  0  0  0  0  0  0
  147.2738  142.1334  157.0982 H   0  0  0  0  0  0  0  0  0  0  0  0
  1  2  1  0  0  0  0
  1 13  1  0  0  0  0
  1 14  1  0  0  0  0
  1 15  1  0  0  0  0
  2  6  1  0  0  0  0
  2  3  1  0  0  0  0
  3  4  2  0  0  0  0
  3 16  1  0  0  0  0
  4  5  1  0  0  0  0
  4 17  1  0  0  0  0
  5  6  2  0  0  0  0
  6  7  1  0  0  0  0
  7 12  1  0  0  0  0
  7  8  1  0  0  0  0
  7 18  1  0  0  0  0
  8  9  1  0  0  0  0
  8 19  1  0  0  0  0
  8 20  1  0  0  0  0
  9 10  1  0  0  0  0
  9 21  1  0  0  0  0
  9 22  1  0  0  0  0
 10 11  1  0  0  0  0
 10 23  1  0  0  0  0
 10 24  1  0  0  0  0
 11 12  1  0  0  0  0
 11 25  1  0  0  0  0
 11 28  1  0  0  0  0
 12 26  1  0  0  0  0
 12 27  1  0  0  0  0
M  CHG  1  11   1
M  END
> <s_m_source_file>
AV-unprocessed.smi

> <i_m_source_file_index>
3125

> <i_lp_mmshare_version>
43012

> <i_f3d_flags>
0

> <s_epik_input>
W0NIM11uMVtjSF1bY0hdbmMxW0NAQEhdMltDSDJdW0NIMl1bQ0gyXVtOSF1bQ0gyXTI=

> <s_epik_cmdline>
J2VwaWtfcHl0aG9uJywgJy1waCcsICc3LjAnLCAnLXRuJywgJzgnLCAnLW1hJywgJzIwMCcsICctbWV0YWxfYmluZGluZycsICctaW1hZScsICc8aW5maWxlLm1hZT4nLCAnLW9tYWUnLCAnPG91dGZpbGUubWFlPic=

> <r_lp_tautomer_probability>
1

> <r_epik_Ionization_Penalty>
0.177191

> <r_epik_Ionization_Penalty_Charging>
0.177191

> <r_epik_Ionization_Penalty_Neutral>
7.05152e-14

> <r_epik_State_Penalty>
0.46716

> <r_epik_Charging_Adjusted_Penalty>
0.644351

> <i_epik_Tot_Q>
1

> <i_epik_Tot_abs_Q>
1

> <r_epik_Metal_State_Penalty>
0.000708398

> <b_epik_Metal_Only>
0

> <s_lp_Force_Field>
OPLS_2005

> <r_lp_Energy>
12.4076

> <b_lp_Chiralities_Consistent>
1

> <s_lp_Variant>
AV-unprocessed.smi:3125-4

> <Gold.Version>
5.8.1

> <Gold.Id.Protein>
6NUR|6NUR_protein|mol2

> <Gold.PLP.Fitness>
36.2829

> <Gold.PLP.PLP>
-30.4432

> <Gold.PLP.part.hbond>
-1.1698

> <Gold.PLP.part.metal>
0.0000

> <Gold.PLP.part.buried>
-2.9215

> <Gold.PLP.part.nonpolar>
-26.1156

> <Gold.PLP.part.repulsive>
0.0056

> <Gold.PLP.ligand.clash>
0.0000

> <Gold.PLP.ligand.torsion>
0.0933

> <Gold.PLP.Chemscore.Hbond>
2.0000

> <Gold.PLP.Chemscore.CHOScore>
0.0000

> <Gold.PLP.Chemscore.Metal>
0.0000

> <Gold.Chemscore.Hbonds>
donor molecule, donor type, donor heavy atom, donor atom, acceptor molecule, acceptor atom, score
      L1  H    11    25       P1  8028  2.00

> <Gold.PLP.Chemscore.Internal.Correction>
0.0262

> <Gold.Rescore>
     Score         DG    S(hbond)    S(metal)    S(lipo)     H(rot)  DE(clash)    DE(int)     intcor
     14.09     -14.20       0.94        0.00      69.64       1.00       0.08       0.02       ----

> <Gold.Chemscore.Fitness>
14.0912

> <Gold.Chemscore.DG>
-14.2001

> <Gold.Chemscore.ZeroCoef>
-5.4800

> <Gold.Chemscore.Hbond>
0.9378

> <Gold.Chemscore.Metal>
0.0000

> <Gold.Chemscore.Lipo>
69.6402

> <Gold.Chemscore.Internal_Hbond>
0.0000

> <Gold.Chemscore.DEClash>
0.0846

> <Gold.Chemscore.DEInternal>
0.0243

> <Gold.Chemscore.Rot>
1.0000

> <Gold.Chemscore.Internal.Correction>
   9.000000E+99

> <Gold.Chemscore.Hbonds>
donor molecule, donor type, donor heavy atom, donor atom, acceptor molecule, acceptor atom, score
      L1  H    11    25       P1  8028  0.60

> <Gold.Chemscore.Hbond.Weighted>
-3.1322

> <Gold.Chemscore.Metal.Weighted>
-0.0000

> <Gold.Chemscore.Lipo.Weighted>
-8.1479

> <Gold.Chemscore.Internal_Hbond.Weighted>
0.0000

> <Gold.Chemscore.DEClash.Weighted>
0.0846

> <Gold.Chemscore.DEInternal.Weighted>
0.0243

> <Gold.Chemscore.Rot.Weighted>
2.5600

> <Gold.Chemscore.Internal.Correction.Weighted>
   9.000000E+99

> <Gold.Protein.RotatedTorsions>
[ 6907 6896 6895 6894 ] final -116.78 input  -60.11 | X-H torsion
[ 7974 7965 7964 7962 ] final -169.83 input  175.53 | X-H torsion
[ 8008 7997 7996 7995 ] final   83.75 input   59.86 | X-H torsion
[ 10167 10162 10161 10158 ] final -144.47 input  -65.29 | X-H torsion
[ 10718 10713 10712 10709 ] final -111.70 input   66.30 | X-H torsion
[ 10763 10752 10751 10750 ] final  155.02 input  -60.55 | X-H torsion
[ 11005 11000 10999 10996 ] final   34.63 input  -57.11 | X-H torsion

> <Gold.Protein.ActiveResidues>
 VAL166  LYS551  ARG553  GLY616  TRP617  ASP618  TYR619  PRO620  LYS621  CYS622 
 ASP623  PHE694  ASN695  SER759  ASP760  ASP761  ALA762  ILE779  LEU786  VAL792 
 PHE793  MET794  SER795  GLU796  ALA797  LYS798  CYS799  TRP800  GLU811  SER814 

> <Gold.Protein.RotatedAtoms>
  150.8083  133.8469  159.3194 H   0  0  0  0  0  0  0  0  0  0  0  0  # atno 6907 bound_to 6896
  151.6262  135.1025  160.0121 H   0  0  0  0  0  0  0  0  0  0  0  0  # atno 6908 bound_to 6896
  152.4174  133.7021  159.6486 H   0  0  0  0  0  0  0  0  0  0  0  0  # atno 6909 bound_to 6896
  144.7179  140.2163  143.6321 H   0  0  0  0  0  0  0  0  0  0  0  0  # atno 7974 bound_to 7965
  155.9280  140.3417  155.6226 H   0  0  0  0  0  0  0  0  0  0  0  0  # atno 8008 bound_to 7997
  155.7192  140.0781  157.2356 H   0  0  0  0  0  0  0  0  0  0  0  0  # atno 8009 bound_to 7997
  154.4080  140.1608  156.2370 H   0  0  0  0  0  0  0  0  0  0  0  0  # atno 8010 bound_to 7997
  139.7896  143.7985  152.2648 H   0  0  0  0  0  0  0  0  0  0  0  0  # atno 10167 bound_to 10162
  156.0662  130.5881  150.8409 H   0  0  0  0  0  0  0  0  0  0  0  0  # atno 10718 bound_to 10713
  154.1616  135.2809  155.3107 H   0  0  0  0  0  0  0  0  0  0  0  0  # atno 10763 bound_to 10752
  154.6142  135.5488  153.7509 H   0  0  0  0  0  0  0  0  0  0  0  0  # atno 10764 bound_to 10752
  153.0190  135.6423  154.1758 H   0  0  0  0  0  0  0  0  0  0  0  0  # atno 10765 bound_to 10752
  140.2509  134.3305  155.7891 H   0  0  0  0  0  0  0  0  0  0  0  0  # atno 11005 bound_to 11000
  145.8543  139.2191  143.1753 LP  0  0  0  0  0  0  0  0  0  0  0  0  # atno 17320 bound_to 7965
  146.0231  140.8329  142.9913 LP  0  0  0  0  0  0  0  0  0  0  0  0  # atno 17321 bound_to 7965
  139.8073  144.7350  150.9745 LP  0  0  0  0  0  0  0  0  0  0  0  0  # atno 17342 bound_to 10162
  140.7820  143.4286  151.0730 LP  0  0  0  0  0  0  0  0  0  0  0  0  # atno 17343 bound_to 10162
  157.5706  131.0946  150.9424 LP  0  0  0  0  0  0  0  0  0  0  0  0  # atno 17370 bound_to 10713
  156.9641  130.5466  149.5287 LP  0  0  0  0  0  0  0  0  0  0  0  0  # atno 17371 bound_to 10713
  141.2201  133.7353  156.9035 LP  0  0  0  0  0  0  0  0  0  0  0  0  # atno 17394 bound_to 11000
  140.1559  134.9198  157.2653 LP  0  0  0  0  0  0  0  0  0  0  0  0  # atno 17395 bound_to 11000

$$$$
