AV-unprocessed.smi:2607|AV-procd|sdf|10198|dock4
  -GOLD-   2272014213D 1   1.00000     0.00000
 Structure written by MMmdl.
 22 23  0  0  0  0  0  0  0  0  1 V2000
  147.3898  137.4857  155.2507 C   0  0  0  0  0  0  0  0  0  0  0  0
  147.5881  138.6815  154.2992 C   0  0  1  0  0  0  0  0  0  0  0  0
  148.7184  139.6101  154.7722 C   0  0  0  0  0  0  0  0  0  0  0  0
  150.0871  139.3282  154.5296 C   0  0  0  0  0  0  0  0  0  0  0  0
  151.0755  140.1483  154.9506 N   0  0  0  0  0  0  0  0  0  0  0  0
  150.6982  141.2580  155.6216 C   0  0  0  0  0  0  0  0  0  0  0  0
  149.3410  141.5456  155.8727 C   0  0  0  0  0  0  0  0  0  0  0  0
  148.3531  140.7257  155.4526 N   0  0  0  0  0  0  0  0  0  0  0  0
  147.7734  138.2004  152.9354 N   0  0  0  0  0  0  0  0  0  0  0  0
  146.8440  138.6538  152.0845 C   0  0  0  0  0  0  0  0  0  0  0  0
  146.7937  138.4224  150.8790 O   0  0  0  0  0  0  0  0  0  0  0  0
  145.9768  139.3918  152.7817 N   0  0  0  0  0  0  0  0  0  0  0  0
  146.2875  139.4543  154.0752 C   0  0  0  0  0  0  0  0  0  0  0  0
  145.6390  140.0215  154.9533 O   0  0  0  0  0  0  0  0  0  0  0  0
  147.1726  137.8142  156.2677 H   0  0  0  0  0  0  0  0  0  0  0  0
  148.2859  136.8656  155.2906 H   0  0  0  0  0  0  0  0  0  0  0  0
  146.5638  136.8488  154.9304 H   0  0  0  0  0  0  0  0  0  0  0  0
  150.4059  138.4447  153.9974 H   0  0  0  0  0  0  0  0  0  0  0  0
  151.4817  141.9190  155.9610 H   0  0  0  0  0  0  0  0  0  0  0  0
  149.0472  142.4341  156.4114 H   0  0  0  0  0  0  0  0  0  0  0  0
  148.5490  137.6127  152.6662 H   0  0  0  0  0  0  0  0  0  0  0  0
  145.1648  139.8351  152.3776 H   0  0  0  0  0  0  0  0  0  0  0  0
  1  2  1  0  0  0  0
  1 15  1  0  0  0  0
  1 16  1  0  0  0  0
  1 17  1  0  0  0  0
  2 13  1  0  0  0  0
  2  3  1  0  0  0  0
  2  9  1  0  0  0  0
  3  8  1  0  0  0  0
  3  4  2  0  0  0  0
  4  5  1  0  0  0  0
  4 18  1  0  0  0  0
  5  6  2  0  0  0  0
  6  7  1  0  0  0  0
  6 19  1  0  0  0  0
  7  8  2  0  0  0  0
  7 20  1  0  0  0  0
  9 10  1  0  0  0  0
  9 21  1  0  0  0  0
 10 11  2  0  0  0  0
 10 12  1  0  0  0  0
 12 13  1  0  0  0  0
 12 22  1  0  0  0  0
 13 14  2  0  0  0  0
M  END
> <s_m_source_file>
AV-unprocessed.smi

> <i_m_source_file_index>
2607

> <i_lp_mmshare_version>
43012

> <i_f3d_flags>
0

> <s_epik_input>
Tz1DMVtOSF1DKD1PKVtOSF1bQ0BAXTEoW0NIM10pYzJbY0hdbltjSF1bY0hdbjI=

> <s_epik_cmdline>
J2VwaWtfcHl0aG9uJywgJy1waCcsICc3LjAnLCAnLXRuJywgJzgnLCAnLW1hJywgJzIwMCcsICctbWV0YWxfYmluZGluZycsICctaW1hZScsICc8aW5maWxlLm1hZT4nLCAnLW9tYWUnLCAnPG91dGZpbGUubWFlPic=

> <r_lp_tautomer_probability>
1

> <r_epik_Ionization_Penalty>
0.0333762

> <r_epik_Ionization_Penalty_Charging>
0

> <r_epik_Ionization_Penalty_Neutral>
0.0333762

> <r_epik_State_Penalty>
0.027503

> <r_epik_Charging_Adjusted_Penalty>
0.027503

> <i_epik_Tot_Q>
0

> <i_epik_Tot_abs_Q>
0

> <r_epik_Metal_State_Penalty>
0.445281

> <b_epik_Metal_Only>
0

> <s_lp_Force_Field>
OPLS_2005

> <r_lp_Energy>
24.1998

> <b_lp_Chiralities_Consistent>
1

> <s_lp_Variant>
AV-unprocessed.smi:2607-1

> <Gold.Version>
5.8.1

> <Gold.Id.Protein>
6NUR|6NUR_protein|mol2

> <Gold.PLP.Fitness>
30.8478

> <Gold.PLP.PLP>
-17.9160

> <Gold.PLP.part.hbond>
-4.5775

> <Gold.PLP.part.metal>
0.0000

> <Gold.PLP.part.buried>
-2.4794

> <Gold.PLP.part.nonpolar>
-12.5675

> <Gold.PLP.part.repulsive>
0.7538

> <Gold.PLP.ligand.clash>
0.0000

> <Gold.PLP.ligand.torsion>
0.8782

> <Gold.PLP.Chemscore.Hbond>
3.8960

> <Gold.PLP.Chemscore.CHOScore>
0.9608

> <Gold.PLP.Chemscore.Metal>
0.0000

> <Gold.Chemscore.Hbonds>
donor molecule, donor type, donor heavy atom, donor atom, acceptor molecule, acceptor atom, score
      L1  H     9    21       P1  7948  0.90
      L1  H    12    22       P1 10175  1.00
      P1  H  7954  7966       L1    11  1.00
      P1  H  7989  7998       L1     5  0.95
      L1  C     7    20       P1  8028  1.00

> <Gold.PLP.Chemscore.Internal.Correction>
0.1177

> <Gold.Rescore>
     Score         DG    S(hbond)    S(metal)    S(lipo)     H(rot)  DE(clash)    DE(int)     intcor
     13.58     -15.64       2.85        0.00      27.35       1.00       0.15       1.90       ----

> <Gold.Chemscore.Fitness>
13.5831

> <Gold.Chemscore.DG>
-15.6382

> <Gold.Chemscore.ZeroCoef>
-5.4800

> <Gold.Chemscore.Hbond>
2.8499

> <Gold.Chemscore.Metal>
0.0000

> <Gold.Chemscore.Lipo>
27.3471

> <Gold.Chemscore.Internal_Hbond>
0.0000

> <Gold.Chemscore.DEClash>
0.1533

> <Gold.Chemscore.DEInternal>
1.9019

> <Gold.Chemscore.Rot>
1.0000

> <Gold.Chemscore.Internal.Correction>
   9.000000E+99

> <Gold.Chemscore.Hbonds>
donor molecule, donor type, donor heavy atom, donor atom, acceptor molecule, acceptor atom, score
      L1  H     9    21       P1  7948  0.88
      L1  H    12    22       P1 10175  0.94
      P1  H  7954  7966       L1    11  0.95
      P1  H  7989  7998       L1     5  0.10

> <Gold.Chemscore.Hbond.Weighted>
-9.5186

> <Gold.Chemscore.Metal.Weighted>
-0.0000

> <Gold.Chemscore.Lipo.Weighted>
-3.1996

> <Gold.Chemscore.Internal_Hbond.Weighted>
0.0000

> <Gold.Chemscore.DEClash.Weighted>
0.1533

> <Gold.Chemscore.DEInternal.Weighted>
1.9019

> <Gold.Chemscore.Rot.Weighted>
2.5600

> <Gold.Chemscore.Internal.Correction.Weighted>
   9.000000E+99

> <Gold.Protein.RotatedTorsions>
[ 6907 6896 6895 6894 ] final  -76.69 input  -60.11 | X-H torsion
[ 7974 7965 7964 7962 ] final  -46.74 input  175.53 | X-H torsion
[ 8008 7997 7996 7995 ] final   31.86 input   59.86 | X-H torsion
[ 10167 10162 10161 10158 ] final  125.02 input  -65.29 | X-H torsion
[ 10718 10713 10712 10709 ] final -130.21 input   66.30 | X-H torsion
[ 10763 10752 10751 10750 ] final   42.76 input  -60.55 | X-H torsion
[ 11005 11000 10999 10996 ] final   95.83 input  -57.11 | X-H torsion

> <Gold.Protein.ActiveResidues>
 VAL166  LYS551  ARG553  GLY616  TRP617  ASP618  TYR619  PRO620  LYS621  CYS622 
 ASP623  PHE694  ASN695  SER759  ASP760  ASP761  ALA762  ILE779  LEU786  VAL792 
 PHE793  MET794  SER795  GLU796  ALA797  LYS798  CYS799  TRP800  GLU811  SER814 

> <Gold.Protein.RotatedAtoms>
  150.7020  134.4534  159.5346 H   0  0  0  0  0  0  0  0  0  0  0  0  # atno 6907 bound_to 6896
  152.2222  134.8399  160.0493 H   0  0  0  0  0  0  0  0  0  0  0  0  # atno 6908 bound_to 6896
  151.9245  133.3559  159.3945 H   0  0  0  0  0  0  0  0  0  0  0  0  # atno 6909 bound_to 6896
  145.9688  140.7404  142.9421 H   0  0  0  0  0  0  0  0  0  0  0  0  # atno 7974 bound_to 7965
  155.1132  140.3241  155.4516 H   0  0  0  0  0  0  0  0  0  0  0  0  # atno 8008 bound_to 7997
  156.2684  140.2040  156.6204 H   0  0  0  0  0  0  0  0  0  0  0  0  # atno 8009 bound_to 7997
  154.6740  140.0533  157.0182 H   0  0  0  0  0  0  0  0  0  0  0  0  # atno 8010 bound_to 7997
  139.5708  144.6938  151.3783 H   0  0  0  0  0  0  0  0  0  0  0  0  # atno 10167 bound_to 10162
  156.2122  130.6925  151.0662 H   0  0  0  0  0  0  0  0  0  0  0  0  # atno 10718 bound_to 10713
  152.9875  135.6122  154.3001 H   0  0  0  0  0  0  0  0  0  0  0  0  # atno 10763 bound_to 10752
  154.2722  135.2779  155.2735 H   0  0  0  0  0  0  0  0  0  0  0  0  # atno 10764 bound_to 10752
  154.5112  135.5840  153.6663 H   0  0  0  0  0  0  0  0  0  0  0  0  # atno 10765 bound_to 10752
  139.8786  134.8919  156.4069 H   0  0  0  0  0  0  0  0  0  0  0  0  # atno 11005 bound_to 11000
  144.6832  140.2714  143.7305 LP  0  0  0  0  0  0  0  0  0  0  0  0  # atno 17320 bound_to 7965
  145.7936  139.1936  143.2089 LP  0  0  0  0  0  0  0  0  0  0  0  0  # atno 17321 bound_to 7965
  140.6993  143.7672  150.7376 LP  0  0  0  0  0  0  0  0  0  0  0  0  # atno 17342 bound_to 10162
  140.1178  143.4640  152.2332 LP  0  0  0  0  0  0  0  0  0  0  0  0  # atno 17343 bound_to 10162
  157.7044  131.0762  150.6715 LP  0  0  0  0  0  0  0  0  0  0  0  0  # atno 17370 bound_to 10713
  156.6775  130.4557  149.5638 LP  0  0  0  0  0  0  0  0  0  0  0  0  # atno 17371 bound_to 10713
  140.9228  133.7633  155.9927 LP  0  0  0  0  0  0  0  0  0  0  0  0  # atno 17394 bound_to 11000
  140.8420  134.3055  157.5309 LP  0  0  0  0  0  0  0  0  0  0  0  0  # atno 17395 bound_to 11000

$$$$
