AV-unprocessed.smi:244|AV-procd|sdf|1871|dock5
  -GOLD-   2262020513D 1   1.00000     0.00000
 Structure written by MMmdl.
 57 61  0  0  0  0  0  0  0  0  2 V2000
  147.6521  131.1920  154.3154 C   0  0  0  0  0  0  0  0  0  0  0  0
  146.5855  131.6598  153.4041 N   0  3  2  0  0  0  0  0  0  0  0  0
  146.4457  130.7920  152.2078 C   0  0  0  0  0  0  0  0  0  0  0  0
  145.2594  131.2367  151.3368 C   0  0  0  0  0  0  0  0  0  0  0  0
  145.4108  132.7096  150.9381 C   0  0  1  0  0  0  0  0  0  0  0  0
  144.2770  133.1214  150.1831 O   0  0  0  0  0  0  0  0  0  0  0  0
  144.4035  134.4672  149.7354 C   0  0  0  0  0  0  0  0  0  0  0  0
  144.5190  135.4027  150.9500 C   0  0  0  0  0  0  0  0  0  0  0  0
  145.6263  134.9910  151.8087 N   0  0  0  0  0  0  0  0  0  0  0  0
  145.8339  135.8546  152.8279 C   0  0  0  0  0  0  0  0  0  0  0  0
  145.7007  135.4373  154.1145 N   0  0  0  0  0  0  0  0  0  0  0  0
  145.9293  136.2907  155.1176 C   0  0  0  0  0  0  0  0  0  0  0  0
  146.3041  137.5706  155.0559 N   0  0  0  0  0  0  0  0  0  0  0  0
  146.4468  137.9853  153.7639 C   0  0  0  0  0  0  0  0  0  0  0  0
  146.2288  137.1977  152.6001 C   0  0  0  0  0  0  0  0  0  0  0  0
  146.4714  137.9499  151.4588 N   0  0  0  0  0  0  0  0  0  0  0  0
  146.8089  139.1228  151.9225 C   0  0  0  0  0  0  0  0  0  0  0  0
  146.8387  139.2272  153.2959 N   0  0  0  0  0  0  0  0  0  0  0  0
  147.1874  140.4066  154.0729 C   0  0  0  0  0  0  0  0  0  0  0  0
  148.6352  140.4059  154.6271 C   0  0  0  0  0  0  0  0  0  0  0  0
  149.4266  140.9819  153.6034 O   0  0  0  0  0  0  0  0  0  0  0  0
  148.7934  141.2594  155.9041 C   0  0  0  0  0  0  0  0  0  0  0  0
  150.2168  141.1669  156.4833 C   0  0  0  0  0  0  0  0  0  0  0  0
  150.5540  139.8067  156.7302 O   0  0  0  0  0  0  0  0  0  0  0  0
  150.5724  139.0171  155.5466 C   0  0  0  0  0  0  0  0  0  0  0  0
  149.1698  138.9855  154.9130 C   0  0  0  0  0  0  0  0  0  0  0  0
  145.5331  133.5837  152.2045 C   0  0  2  0  0  0  0  0  0  0  0  0
  146.7351  133.0937  153.0481 C   0  0  0  0  0  0  0  0  0  0  0  0
  148.6298  131.2468  153.8350 H   0  0  0  0  0  0  0  0  0  0  0  0
  147.4756  130.1587  154.6157 H   0  0  0  0  0  0  0  0  0  0  0  0
  147.6807  131.7996  155.2204 H   0  0  0  0  0  0  0  0  0  0  0  0
  147.3690  130.8198  151.6267 H   0  0  0  0  0  0  0  0  0  0  0  0
  146.2991  129.7577  152.5215 H   0  0  0  0  0  0  0  0  0  0  0  0
  145.1964  130.6123  150.4451 H   0  0  0  0  0  0  0  0  0  0  0  0
  144.3262  131.0944  151.8835 H   0  0  0  0  0  0  0  0  0  0  0  0
  146.3062  132.8156  150.3218 H   0  0  0  0  0  0  0  0  0  0  0  0
  145.2721  134.5672  149.0826 H   0  0  0  0  0  0  0  0  0  0  0  0
  143.5274  134.7283  149.1418 H   0  0  0  0  0  0  0  0  0  0  0  0
  144.6716  136.4296  150.6147 H   0  0  0  0  0  0  0  0  0  0  0  0
  143.5849  135.3829  151.5133 H   0  0  0  0  0  0  0  0  0  0  0  0
  145.7963  135.8900  156.1118 H   0  0  0  0  0  0  0  0  0  0  0  0
  147.0588  139.9477  151.2710 H   0  0  0  0  0  0  0  0  0  0  0  0
  147.0300  141.2817  153.4403 H   0  0  0  0  0  0  0  0  0  0  0  0
  146.4720  140.4949  154.8921 H   0  0  0  0  0  0  0  0  0  0  0  0
  149.5765  140.3299  152.9358 H   0  0  0  0  0  0  0  0  0  0  0  0
  148.5345  142.3001  155.7054 H   0  0  0  0  0  0  0  0  0  0  0  0
  148.1009  140.9111  156.6702 H   0  0  0  0  0  0  0  0  0  0  0  0
  150.9474  141.6190  155.8108 H   0  0  0  0  0  0  0  0  0  0  0  0
  150.2725  141.7163  157.4230 H   0  0  0  0  0  0  0  0  0  0  0  0
  151.3143  139.4053  154.8469 H   0  0  0  0  0  0  0  0  0  0  0  0
  150.8852  138.0058  155.8069 H   0  0  0  0  0  0  0  0  0  0  0  0
  148.5054  138.4721  155.6073 H   0  0  0  0  0  0  0  0  0  0  0  0
  149.1823  138.3885  154.0002 H   0  0  0  0  0  0  0  0  0  0  0  0
  144.6242  133.4632  152.7970 H   0  0  0  0  0  0  0  0  0  0  0  0
  146.8110  133.6676  153.9726 H   0  0  0  0  0  0  0  0  0  0  0  0
  147.6691  133.2429  152.5036 H   0  0  0  0  0  0  0  0  0  0  0  0
  145.7184  131.5824  153.9167 H   0  0  0  0  0  0  0  0  0  0  0  0
  1  2  1  0  0  0  0
  1 29  1  0  0  0  0
  1 30  1  0  0  0  0
  1 31  1  0  0  0  0
  2 28  1  0  0  0  0
  2  3  1  0  0  0  0
  2 57  1  0  0  0  0
  3  4  1  0  0  0  0
  3 32  1  0  0  0  0
  3 33  1  0  0  0  0
  4  5  1  0  0  0  0
  4 34  1  0  0  0  0
  4 35  1  0  0  0  0
  5 27  1  0  0  0  0
  5  6  1  0  0  0  0
  5 36  1  0  0  0  0
  6  7  1  0  0  0  0
  7  8  1  0  0  0  0
  7 37  1  0  0  0  0
  7 38  1  0  0  0  0
  8  9  1  0  0  0  0
  8 39  1  0  0  0  0
  8 40  1  0  0  0  0
  9 10  1  0  0  0  0
  9 27  1  0  0  0  0
 10 15  1  0  0  0  0
 10 11  2  0  0  0  0
 11 12  1  0  0  0  0
 12 13  2  0  0  0  0
 12 41  1  0  0  0  0
 13 14  1  0  0  0  0
 14 18  1  0  0  0  0
 14 15  2  0  0  0  0
 15 16  1  0  0  0  0
 16 17  2  0  0  0  0
 17 18  1  0  0  0  0
 17 42  1  0  0  0  0
 18 19  1  0  0  0  0
 19 20  1  0  0  0  0
 19 43  1  0  0  0  0
 19 44  1  0  0  0  0
 20 26  1  0  0  0  0
 20 21  1  0  0  0  0
 20 22  1  0  0  0  0
 21 45  1  0  0  0  0
 22 23  1  0  0  0  0
 22 46  1  0  0  0  0
 22 47  1  0  0  0  0
 23 24  1  0  0  0  0
 23 48  1  0  0  0  0
 23 49  1  0  0  0  0
 24 25  1  0  0  0  0
 25 26  1  0  0  0  0
 25 50  1  0  0  0  0
 25 51  1  0  0  0  0
 26 52  1  0  0  0  0
 26 53  1  0  0  0  0
 27 28  1  0  0  0  0
 27 54  1  0  0  0  0
 28 55  1  0  0  0  0
 28 56  1  0  0  0  0
M  CHG  1   2   1
M  END
> <s_m_source_file>
AV-unprocessed.smi

> <i_m_source_file_index>
244

> <i_lp_mmshare_version>
43012

> <i_f3d_flags>
0

> <s_epik_input>
W0NIMl0xW0NIMl1OKFtDSDNdKVtDSDJdW0NAQEhdKFtDQEhdMTIpTihbQ0gyXVtDSDJdTzIpYyhuW2NIXW4zKWMoYzM0KW5bY0hdbjRbQ0gyXUM1KFtPSF0pW0NIMl1bQ0gyXU9bQ0gyXVtDSDJdNQ==

> <s_epik_cmdline>
J2VwaWtfcHl0aG9uJywgJy1waCcsICc3LjAnLCAnLXRuJywgJzgnLCAnLW1hJywgJzIwMCcsICctbWV0YWxfYmluZGluZycsICctaW1hZScsICc8aW5maWxlLm1hZT4nLCAnLW9tYWUnLCAnPG91dGZpbGUubWFlPic=

> <r_lp_tautomer_probability>
1

> <r_epik_Ionization_Penalty>
0.0136215

> <r_epik_Ionization_Penalty_Charging>
0.0131385

> <r_epik_Ionization_Penalty_Neutral>
0.000483022

> <r_epik_State_Penalty>
0.0104001

> <r_epik_Charging_Adjusted_Penalty>
0.0235387

> <i_epik_Tot_Q>
1

> <i_epik_Tot_abs_Q>
1

> <r_epik_Metal_State_Penalty>
0.0104469

> <b_epik_Metal_Only>
0

> <s_lp_Force_Field>
OPLS_2005

> <r_lp_Energy>
42.2984

> <b_lp_Chiralities_Consistent>
1

> <s_lp_Variant>
AV-unprocessed.smi:244-8

> <Gold.Version>
5.8.1

> <Gold.Id.Protein>
6NUR|6NUR_protein|mol2

> <Gold.PLP.Fitness>
44.4489

> <Gold.PLP.PLP>
-38.6408

> <Gold.PLP.part.hbond>
-2.6409

> <Gold.PLP.part.metal>
0.0000

> <Gold.PLP.part.buried>
0.5543

> <Gold.PLP.part.nonpolar>
-38.2544

> <Gold.PLP.part.repulsive>
1.7541

> <Gold.PLP.ligand.clash>
0.0000

> <Gold.PLP.ligand.torsion>
0.9423

> <Gold.PLP.Chemscore.Hbond>
2.1144

> <Gold.PLP.Chemscore.CHOScore>
0.4100

> <Gold.PLP.Chemscore.Metal>
0.0000

> <Gold.Chemscore.Hbonds>
donor molecule, donor type, donor heavy atom, donor atom, acceptor molecule, acceptor atom, score
      L1  H    21    45       P1  7957  0.88
      P1  H  7954  7966       L1    16  0.23
      P1  H  8011  8017       L1    21  0.55
      L1  C    17    42       P1  7957  0.55

> <Gold.PLP.Chemscore.Internal.Correction>
0.1198

> <Gold.Rescore>
     Score         DG    S(hbond)    S(metal)    S(lipo)     H(rot)  DE(clash)    DE(int)     intcor
     10.51     -14.62       1.00        0.00      95.27       2.09       1.43       2.68       ----

> <Gold.Chemscore.Fitness>
10.5143

> <Gold.Chemscore.DG>
-14.6186

> <Gold.Chemscore.ZeroCoef>
-5.4800

> <Gold.Chemscore.Hbond>
1.0017

> <Gold.Chemscore.Metal>
0.0000

> <Gold.Chemscore.Lipo>
95.2661

> <Gold.Chemscore.Internal_Hbond>
0.0000

> <Gold.Chemscore.DEClash>
1.4279

> <Gold.Chemscore.DEInternal>
2.6764

> <Gold.Chemscore.Rot>
2.0911

> <Gold.Chemscore.Internal.Correction>
   9.000000E+99

> <Gold.Chemscore.Hbonds>
donor molecule, donor type, donor heavy atom, donor atom, acceptor molecule, acceptor atom, score
      L1  H    21    45       P1  7957  0.87
      P1  H  7954  7966       L1    16  0.03
      P1  H  8011  8017       L1    21  0.03

> <Gold.Chemscore.Hbond.Weighted>
-3.3456

> <Gold.Chemscore.Metal.Weighted>
-0.0000

> <Gold.Chemscore.Lipo.Weighted>
-11.1461

> <Gold.Chemscore.Internal_Hbond.Weighted>
0.0000

> <Gold.Chemscore.DEClash.Weighted>
1.4279

> <Gold.Chemscore.DEInternal.Weighted>
2.6764

> <Gold.Chemscore.Rot.Weighted>
5.3531

> <Gold.Chemscore.Internal.Correction.Weighted>
   9.000000E+99

> <Gold.Protein.RotatedTorsions>
[ 6907 6896 6895 6894 ] final   23.24 input  -60.11 | X-H torsion
[ 7974 7965 7964 7962 ] final  -61.15 input  175.53 | X-H torsion
[ 8008 7997 7996 7995 ] final   50.42 input   59.86 | X-H torsion
[ 10167 10162 10161 10158 ] final -106.76 input  -65.29 | X-H torsion
[ 10718 10713 10712 10709 ] final   57.60 input   66.30 | X-H torsion
[ 10763 10752 10751 10750 ] final  -54.67 input  -60.55 | X-H torsion
[ 11005 11000 10999 10996 ] final   19.54 input  -57.11 | X-H torsion

> <Gold.Protein.ActiveResidues>
 VAL166  LYS551  ARG553  GLY616  TRP617  ASP618  TYR619  PRO620  LYS621  CYS622 
 ASP623  PHE694  ASN695  SER759  ASP760  ASP761  ALA762  ILE779  LEU786  VAL792 
 PHE793  MET794  SER795  GLU796  ALA797  LYS798  CYS799  TRP800  GLU811  SER814 

> <Gold.Protein.RotatedAtoms>
  151.9393  135.0221  160.0534 H   0  0  0  0  0  0  0  0  0  0  0  0  # atno 6907 bound_to 6896
  152.2050  133.4864  159.5087 H   0  0  0  0  0  0  0  0  0  0  0  0  # atno 6908 bound_to 6896
  150.6963  134.1458  159.4164 H   0  0  0  0  0  0  0  0  0  0  0  0  # atno 6909 bound_to 6896
  145.8070  140.8621  143.0202 H   0  0  0  0  0  0  0  0  0  0  0  0  # atno 7974 bound_to 7965
  155.4185  140.3445  155.4269 H   0  0  0  0  0  0  0  0  0  0  0  0  # atno 8008 bound_to 7997
  156.1407  140.1541  156.8957 H   0  0  0  0  0  0  0  0  0  0  0  0  # atno 8009 bound_to 7997
  154.4968  140.0825  156.7695 H   0  0  0  0  0  0  0  0  0  0  0  0  # atno 8010 bound_to 7997
  140.1843  143.3942  152.1257 H   0  0  0  0  0  0  0  0  0  0  0  0  # atno 10167 bound_to 10162
  157.5528  130.8778  149.8989 H   0  0  0  0  0  0  0  0  0  0  0  0  # atno 10718 bound_to 10713
  154.1785  135.6447  153.5028 H   0  0  0  0  0  0  0  0  0  0  0  0  # atno 10763 bound_to 10752
  153.0065  135.5400  154.6539 H   0  0  0  0  0  0  0  0  0  0  0  0  # atno 10764 bound_to 10752
  154.5897  135.2933  155.0621 H   0  0  0  0  0  0  0  0  0  0  0  0  # atno 10765 bound_to 10752
  140.4126  134.1603  155.7668 H   0  0  0  0  0  0  0  0  0  0  0  0  # atno 11005 bound_to 11000
  144.6762  140.0340  143.7482 LP  0  0  0  0  0  0  0  0  0  0  0  0  # atno 17320 bound_to 7965
  145.9818  139.2947  143.1037 LP  0  0  0  0  0  0  0  0  0  0  0  0  # atno 17321 bound_to 7965
  139.5283  144.7129  151.5149 LP  0  0  0  0  0  0  0  0  0  0  0  0  # atno 17342 bound_to 10162
  140.6499  143.8719  150.6774 LP  0  0  0  0  0  0  0  0  0  0  0  0  # atno 17343 bound_to 10162
  156.0592  130.3703  150.1022 LP  0  0  0  0  0  0  0  0  0  0  0  0  # atno 17370 bound_to 10713
  156.9193  130.9677  151.3551 LP  0  0  0  0  0  0  0  0  0  0  0  0  # atno 17371 bound_to 10713
  141.1815  133.8403  157.1240 LP  0  0  0  0  0  0  0  0  0  0  0  0  # atno 17394 bound_to 11000
  140.0257  134.9925  157.0681 LP  0  0  0  0  0  0  0  0  0  0  0  0  # atno 17395 bound_to 11000

$$$$
