AV-unprocessed.smi:1667|AV-procd|sdf|6679|dock8
  -GOLD-   22720 7393D 1   1.00000     0.00000
 Structure written by MMmdl.
 46 48  0  0  0  0  0  0  0  0  2 V2000
  147.5482  133.1171  152.2232 C   0  0  0  0  0  0  0  0  0  0  0  0
  148.0188  133.2930  153.6629 C   0  0  0  0  0  0  0  0  0  0  0  0
  148.0833  132.3172  154.4099 O   0  0  0  0  0  0  0  0  0  0  0  0
  148.3386  134.5416  154.0378 N   0  0  0  0  0  0  0  0  0  0  0  0
  148.8009  134.9370  155.3649 C   0  0  1  0  0  0  0  0  0  0  0  0
  150.1495  134.2646  155.6706 C   0  0  0  0  0  0  0  0  0  0  0  0
  148.8631  136.4314  155.4872 C   0  0  0  0  0  0  0  0  0  0  0  0
  149.2893  137.3044  154.5285 N   0  3  0  0  0  0  0  0  0  0  0  0
  149.2026  138.6129  155.0024 C   0  0  0  0  0  0  0  0  0  0  0  0
  149.5299  139.8240  154.4005 C   0  0  0  0  0  0  0  0  0  0  0  0
  149.3211  140.9888  155.1681 C   0  0  0  0  0  0  0  0  0  0  0  0
  148.8027  140.9216  156.4777 C   0  0  0  0  0  0  0  0  0  0  0  0
  148.4717  139.6875  157.0756 C   0  0  0  0  0  0  0  0  0  0  0  0
  148.6847  138.5411  156.3107 C   0  0  0  0  0  0  0  0  0  0  0  0
  148.4838  137.1801  156.5661 N   0  0  0  0  0  0  0  0  0  0  0  0
  147.9356  136.7768  157.8720 C   0  0  0  0  0  0  0  0  0  0  0  0
  148.8096  135.7291  158.5905 C   0  0  1  0  0  0  0  0  0  0  0  0
  150.1150  136.2544  158.7135 O   0  0  0  0  0  0  0  0  0  0  0  0
  148.2212  135.3182  159.9322 C   0  0  0  0  0  0  0  0  0  0  0  0
  148.0319  136.2705  160.9586 C   0  0  0  0  0  0  0  0  0  0  0  0
  147.4479  135.8883  162.1816 C   0  0  0  0  0  0  0  0  0  0  0  0
  147.0530  134.5525  162.3873 C   0  0  0  0  0  0  0  0  0  0  0  0
  147.2419  133.5987  161.3690 C   0  0  0  0  0  0  0  0  0  0  0  0
  146.8573  132.3152  161.5631 F   0  0  0  0  0  0  0  0  0  0  0  0
  147.8246  133.9804  160.1453 C   0  0  0  0  0  0  0  0  0  0  0  0
  148.0964  134.5902  156.1194 H   0  0  0  0  0  0  0  0  0  0  0  0
  147.9877  133.8710  151.5691 H   0  0  0  0  0  0  0  0  0  0  0  0
  146.4628  133.2035  152.1702 H   0  0  0  0  0  0  0  0  0  0  0  0
  147.8326  132.1343  151.8460 H   0  0  0  0  0  0  0  0  0  0  0  0
  148.2473  135.2765  153.3516 H   0  0  0  0  0  0  0  0  0  0  0  0
  150.4952  134.5169  156.6737 H   0  0  0  0  0  0  0  0  0  0  0  0
  150.9214  134.5667  154.9620 H   0  0  0  0  0  0  0  0  0  0  0  0
  150.0628  133.1786  155.6204 H   0  0  0  0  0  0  0  0  0  0  0  0
  149.9265  139.8779  153.3971 H   0  0  0  0  0  0  0  0  0  0  0  0
  149.5634  141.9525  154.7441 H   0  0  0  0  0  0  0  0  0  0  0  0
  148.6562  141.8353  157.0356 H   0  0  0  0  0  0  0  0  0  0  0  0
  148.0764  139.6463  158.0800 H   0  0  0  0  0  0  0  0  0  0  0  0
  147.8267  137.6754  158.4807 H   0  0  0  0  0  0  0  0  0  0  0  0
  146.9270  136.3936  157.7178 H   0  0  0  0  0  0  0  0  0  0  0  0
  148.8975  134.8405  157.9644 H   0  0  0  0  0  0  0  0  0  0  0  0
  150.3158  136.7458  157.9315 H   0  0  0  0  0  0  0  0  0  0  0  0
  148.3182  137.3012  160.8061 H   0  0  0  0  0  0  0  0  0  0  0  0
  147.2981  136.6219  162.9599 H   0  0  0  0  0  0  0  0  0  0  0  0
  146.6032  134.2602  163.3247 H   0  0  0  0  0  0  0  0  0  0  0  0
  147.9546  133.2444  159.3654 H   0  0  0  0  0  0  0  0  0  0  0  0
  149.6234  137.0189  153.6170 H   0  0  0  0  0  0  0  0  0  0  0  0
  1  2  1  0  0  0  0
  1 27  1  0  0  0  0
  1 28  1  0  0  0  0
  1 29  1  0  0  0  0
  2  3  2  0  0  0  0
  2  4  1  0  0  0  0
  4  5  1  0  0  0  0
  4 30  1  0  0  0  0
  5 26  1  0  0  0  0
  5  6  1  0  0  0  0
  5  7  1  0  0  0  0
  6 31  1  0  0  0  0
  6 32  1  0  0  0  0
  6 33  1  0  0  0  0
  7 15  1  0  0  0  0
  7  8  2  0  0  0  0
  8  9  1  0  0  0  0
  8 46  1  0  0  0  0
  9 14  2  0  0  0  0
  9 10  1  0  0  0  0
 10 11  2  0  0  0  0
 10 34  1  0  0  0  0
 11 12  1  0  0  0  0
 11 35  1  0  0  0  0
 12 13  2  0  0  0  0
 12 36  1  0  0  0  0
 13 14  1  0  0  0  0
 13 37  1  0  0  0  0
 14 15  1  0  0  0  0
 15 16  1  0  0  0  0
 16 17  1  0  0  0  0
 16 38  1  0  0  0  0
 16 39  1  0  0  0  0
 17 18  1  0  0  0  0
 17 19  1  0  0  0  0
 17 40  1  0  0  0  0
 18 41  1  0  0  0  0
 19 25  1  0  0  0  0
 19 20  2  0  0  0  0
 20 21  1  0  0  0  0
 20 42  1  0  0  0  0
 21 22  2  0  0  0  0
 21 43  1  0  0  0  0
 22 23  1  0  0  0  0
 22 44  1  0  0  0  0
 23 24  1  0  0  0  0
 23 25  2  0  0  0  0
 25 45  1  0  0  0  0
M  CHG  1   8   1
M  END
> <s_m_source_file>
AV-unprocessed.smi

> <i_m_source_file_index>
1667

> <i_lp_mmshare_version>
43012

> <i_f3d_flags>
0

> <s_epik_input>
W0NIM11DKD1PKVtOSF1bQ0BASF0oW0NIM10pYyhuMSluKGMoYzEyKVtjSF1bY0hdW2NIXVtjSF0yKVtDSDJdW0NASF0oW09IXSljM1tjSF1bY0hdW2NIXWMoRilbY0hdMw==

> <s_epik_cmdline>
J2VwaWtfcHl0aG9uJywgJy1waCcsICc3LjAnLCAnLXRuJywgJzgnLCAnLW1hJywgJzIwMCcsICctbWV0YWxfYmluZGluZycsICctaW1hZScsICc8aW5maWxlLm1hZT4nLCAnLW9tYWUnLCAnPG91dGZpbGUubWFlPic=

> <r_epik_Ionization_Penalty>
0.950383

> <r_epik_Ionization_Penalty_Charging>
0.950379

> <r_epik_Ionization_Penalty_Neutral>
3.60962e-06

> <r_epik_State_Penalty>
0.994584

> <r_epik_Charging_Adjusted_Penalty>
1.94496

> <i_epik_Tot_Q>
1

> <i_epik_Tot_abs_Q>
1

> <r_epik_Metal_State_Penalty>
1.10485

> <b_epik_Metal_Only>
0

> <s_lp_Force_Field>
OPLS_2005

> <r_lp_Energy>
12.894

> <b_lp_Chiralities_Consistent>
1

> <s_lp_Variant>
AV-unprocessed.smi:1667-7

> <Gold.Version>
5.8.1

> <Gold.Id.Protein>
6NUR|6NUR_protein|mol2

> <Gold.PLP.Fitness>
48.4067

> <Gold.PLP.PLP>
-38.5744

> <Gold.PLP.part.hbond>
-3.0000

> <Gold.PLP.part.metal>
0.0000

> <Gold.PLP.part.buried>
-5.6438

> <Gold.PLP.part.nonpolar>
-31.6928

> <Gold.PLP.part.repulsive>
0.0346

> <Gold.PLP.ligand.clash>
0.0000

> <Gold.PLP.ligand.torsion>
0.6942

> <Gold.PLP.Chemscore.Hbond>
3.7200

> <Gold.PLP.Chemscore.CHOScore>
0.0000

> <Gold.PLP.Chemscore.Metal>
0.0000

> <Gold.Chemscore.Hbonds>
donor molecule, donor type, donor heavy atom, donor atom, acceptor molecule, acceptor atom, score
      L1  H     4    30       P1  7948  0.96
      L1  H     8    46       P1  7948  1.70
      P1  H  6896  6909       L1    18  1.00

> <Gold.PLP.Chemscore.Internal.Correction>
0.0607

> <Gold.Rescore>
     Score         DG    S(hbond)    S(metal)    S(lipo)     H(rot)  DE(clash)    DE(int)     intcor
     16.70     -17.52       2.55        0.00      85.51       2.53       0.00       0.82       ----

> <Gold.Chemscore.Fitness>
16.6998

> <Gold.Chemscore.DG>
-17.5173

> <Gold.Chemscore.ZeroCoef>
-5.4800

> <Gold.Chemscore.Hbond>
2.5505

> <Gold.Chemscore.Metal>
0.0000

> <Gold.Chemscore.Lipo>
85.5068

> <Gold.Chemscore.Internal_Hbond>
0.0000

> <Gold.Chemscore.DEClash>
0.0009

> <Gold.Chemscore.DEInternal>
0.8166

> <Gold.Chemscore.Rot>
2.5335

> <Gold.Chemscore.Internal.Correction>
   9.000000E+99

> <Gold.Chemscore.Hbonds>
donor molecule, donor type, donor heavy atom, donor atom, acceptor molecule, acceptor atom, score
      L1  H     4    30       P1  7948  0.91
      L1  H     8    46       P1  7948  0.63
      P1  H  6896  6909       L1    18  0.39

> <Gold.Chemscore.Hbond.Weighted>
-8.5187

> <Gold.Chemscore.Metal.Weighted>
-0.0000

> <Gold.Chemscore.Lipo.Weighted>
-10.0043

> <Gold.Chemscore.Internal_Hbond.Weighted>
0.0000

> <Gold.Chemscore.DEClash.Weighted>
0.0009

> <Gold.Chemscore.DEInternal.Weighted>
0.8166

> <Gold.Chemscore.Rot.Weighted>
6.4856

> <Gold.Chemscore.Internal.Correction.Weighted>
   9.000000E+99

> <Gold.Protein.RotatedTorsions>
[ 6907 6896 6895 6894 ] final   83.09 input  -60.11 | X-H torsion
[ 7974 7965 7964 7962 ] final -175.11 input  175.53 | X-H torsion
[ 8008 7997 7996 7995 ] final  137.85 input   59.86 | X-H torsion
[ 10167 10162 10161 10158 ] final -170.45 input  -65.29 | X-H torsion
[ 10718 10713 10712 10709 ] final  123.34 input   66.30 | X-H torsion
[ 10763 10752 10751 10750 ] final  126.55 input  -60.55 | X-H torsion
[ 11005 11000 10999 10996 ] final  154.67 input  -57.11 | X-H torsion

> <Gold.Protein.ActiveResidues>
 VAL166  LYS551  ARG553  GLY616  TRP617  ASP618  TYR619  PRO620  LYS621  CYS622 
 ASP623  PHE694  ASN695  SER759  ASP760  ASP761  ALA762  ILE779  LEU786  VAL792 
 PHE793  MET794  SER795  GLU796  ALA797  LYS798  CYS799  TRP800  GLU811  SER814 

> <Gold.Protein.RotatedAtoms>
  152.5318  134.2948  159.9056 H   0  0  0  0  0  0  0  0  0  0  0  0  # atno 6907 bound_to 6896
  151.2900  133.4163  159.2640 H   0  0  0  0  0  0  0  0  0  0  0  0  # atno 6908 bound_to 6896
  151.0209  134.9484  159.8116 H   0  0  0  0  0  0  0  0  0  0  0  0  # atno 6909 bound_to 6896
  144.7129  140.1370  143.6394 H   0  0  0  0  0  0  0  0  0  0  0  0  # atno 7974 bound_to 7965
  156.3000  140.2409  156.3977 H   0  0  0  0  0  0  0  0  0  0  0  0  # atno 8008 bound_to 7997
  154.8556  140.0422  157.1652 H   0  0  0  0  0  0  0  0  0  0  0  0  # atno 8009 bound_to 7997
  154.8952  140.2969  155.5352 H   0  0  0  0  0  0  0  0  0  0  0  0  # atno 8010 bound_to 7997
  139.5861  144.1315  152.1577 H   0  0  0  0  0  0  0  0  0  0  0  0  # atno 10167 bound_to 10162
  157.5672  131.1086  150.8432 H   0  0  0  0  0  0  0  0  0  0  0  0  # atno 10718 bound_to 10713
  153.6952  135.3292  155.3211 H   0  0  0  0  0  0  0  0  0  0  0  0  # atno 10763 bound_to 10752
  154.8428  135.4441  154.1467 H   0  0  0  0  0  0  0  0  0  0  0  0  # atno 10764 bound_to 10752
  153.2520  135.6982  153.7747 H   0  0  0  0  0  0  0  0  0  0  0  0  # atno 10765 bound_to 10752
  140.1510  134.8674  157.2455 H   0  0  0  0  0  0  0  0  0  0  0  0  # atno 11005 bound_to 11000
  145.9236  139.2561  143.1367 LP  0  0  0  0  0  0  0  0  0  0  0  0  # atno 17320 bound_to 7965
  145.9595  140.8846  143.0218 LP  0  0  0  0  0  0  0  0  0  0  0  0  # atno 17321 bound_to 7965
  140.0879  144.5645  150.7075 LP  0  0  0  0  0  0  0  0  0  0  0  0  # atno 17342 bound_to 10162
  140.7132  143.2522  151.4515 LP  0  0  0  0  0  0  0  0  0  0  0  0  # atno 17343 bound_to 10162
  156.8913  130.5214  149.5286 LP  0  0  0  0  0  0  0  0  0  0  0  0  # atno 17370 bound_to 10713
  156.0720  130.5751  150.9401 LP  0  0  0  0  0  0  0  0  0  0  0  0  # atno 17371 bound_to 10713
  140.2604  134.3578  155.7409 LP  0  0  0  0  0  0  0  0  0  0  0  0  # atno 17394 bound_to 11000
  141.2199  133.7366  156.9071 LP  0  0  0  0  0  0  0  0  0  0  0  0  # atno 17395 bound_to 11000

$$$$
