AV-unprocessed.smi:672|AV-procd|sdf|3293|dock5
  -GOLD-   22720 0253D 1   1.00000     0.00000
 Structure written by MMmdl.
 35 36  0  0  0  0  0  0  0  0  2 V2000
  147.6196  140.7704  153.6328 C   0  0  0  0  0  0  0  0  0  0  0  0
  148.6295  140.8564  154.7820 C   0  0  0  0  0  0  0  0  0  0  0  0
  149.6544  139.7734  154.7252 C   0  0  0  0  0  0  0  0  0  0  0  0
  150.9567  140.0159  154.5545 N   0  0  0  0  0  0  0  0  0  0  0  0
  151.7038  138.8481  154.5050 N   0  0  0  0  0  0  0  0  0  0  0  0
  150.9560  137.7407  154.6127 C   0  0  0  0  0  0  0  0  0  0  0  0
  151.4865  136.5070  154.5856 N   0  5  0  0  0  0  0  0  0  0  0  0
  150.7771  135.4569  155.0583 C   0  0  0  0  0  0  0  0  0  0  0  0
  151.0219  134.8096  156.0790 O   0  0  0  0  0  0  0  0  0  0  0  0
  149.7210  135.1328  154.2987 N   0  0  0  0  0  0  0  0  0  0  0  0
  148.7801  134.0460  154.5620 C   0  0  2  0  0  0  0  0  0  0  0  0
  149.4578  132.6625  154.4663 C   0  0  0  0  0  0  0  0  0  0  0  0
  148.5932  131.8282  153.5193 C   0  0  0  0  0  0  0  0  0  0  0  0
  147.9503  132.8564  152.5898 C   0  0  1  0  0  0  0  0  0  0  0  0
  146.4623  132.2358  151.7533 S   0  0  0  0  0  0  0  0  0  0  0  0
  146.1988  133.5582  150.5422 C   0  0  0  0  0  0  0  0  0  0  0  0
  147.6554  134.0415  153.5118 C   0  0  0  0  0  0  0  0  0  0  0  0
  149.2353  138.0708  154.8105 S   0  0  0  0  0  0  0  0  0  0  0  0
  146.8821  141.5700  153.7027 H   0  0  0  0  0  0  0  0  0  0  0  0
  147.0848  139.8203  153.6499 H   0  0  0  0  0  0  0  0  0  0  0  0
  148.1166  140.8578  152.6661 H   0  0  0  0  0  0  0  0  0  0  0  0
  149.1348  141.8227  154.7629 H   0  0  0  0  0  0  0  0  0  0  0  0
  148.1097  140.7948  155.7385 H   0  0  0  0  0  0  0  0  0  0  0  0
  149.5572  135.6890  153.4724 H   0  0  0  0  0  0  0  0  0  0  0  0
  148.3389  134.1861  155.5505 H   0  0  0  0  0  0  0  0  0  0  0  0
  150.4606  132.7528  154.0457 H   0  0  0  0  0  0  0  0  0  0  0  0
  149.5621  132.1898  155.4433 H   0  0  0  0  0  0  0  0  0  0  0  0
  149.1735  131.0777  152.9825 H   0  0  0  0  0  0  0  0  0  0  0  0
  147.8230  131.3086  154.0911 H   0  0  0  0  0  0  0  0  0  0  0  0
  148.6766  133.1684  151.8379 H   0  0  0  0  0  0  0  0  0  0  0  0
  145.2986  133.3595  149.9607 H   0  0  0  0  0  0  0  0  0  0  0  0
  147.0428  133.6253  149.8560 H   0  0  0  0  0  0  0  0  0  0  0  0
  146.0806  134.5179  151.0455 H   0  0  0  0  0  0  0  0  0  0  0  0
  146.7018  133.8836  154.0175 H   0  0  0  0  0  0  0  0  0  0  0  0
  147.5727  134.9804  152.9627 H   0  0  0  0  0  0  0  0  0  0  0  0
  1  2  1  0  0  0  0
  1 19  1  0  0  0  0
  1 20  1  0  0  0  0
  1 21  1  0  0  0  0
  2  3  1  0  0  0  0
  2 22  1  0  0  0  0
  2 23  1  0  0  0  0
  3 18  1  0  0  0  0
  3  4  2  0  0  0  0
  4  5  1  0  0  0  0
  5  6  2  0  0  0  0
  6  7  1  0  0  0  0
  6 18  1  0  0  0  0
  7  8  1  0  0  0  0
  8  9  2  0  0  0  0
  8 10  1  0  0  0  0
 10 11  1  0  0  0  0
 10 24  1  0  0  0  0
 11 17  1  0  0  0  0
 11 12  1  0  0  0  0
 11 25  1  0  0  0  0
 12 13  1  0  0  0  0
 12 26  1  0  0  0  0
 12 27  1  0  0  0  0
 13 14  1  0  0  0  0
 13 28  1  0  0  0  0
 13 29  1  0  0  0  0
 14 15  1  0  0  0  0
 14 17  1  0  0  0  0
 14 30  1  0  0  0  0
 15 16  1  0  0  0  0
 16 31  1  0  0  0  0
 16 32  1  0  0  0  0
 16 33  1  0  0  0  0
 17 34  1  0  0  0  0
 17 35  1  0  0  0  0
M  CHG  1   7  -1
M  END
> <s_m_source_file>
AV-unprocessed.smi

> <i_m_source_file_index>
672

> <i_lp_mmshare_version>
43012

> <i_f3d_flags>
0

> <s_epik_input>
W0NIM11bQ0gyXWMxbm5jKHMxKVtOSF1DKD1PKVtOSF1bQ0BASF0yW0NIMl1bQ0gyXVtDQEhdKFtDSDJdMilTW0NIM10=

> <s_epik_cmdline>
J2VwaWtfcHl0aG9uJywgJy1waCcsICc3LjAnLCAnLXRuJywgJzgnLCAnLW1hJywgJzIwMCcsICctbWV0YWxfYmluZGluZycsICctaW1hZScsICc8aW5maWxlLm1hZT4nLCAnLW9tYWUnLCAnPG91dGZpbGUubWFlPic=

> <r_lp_tautomer_probability>
1

> <r_epik_Ionization_Penalty>
4.49964

> <r_epik_Ionization_Penalty_Charging>
4.32991

> <r_epik_Ionization_Penalty_Neutral>
0.169727

> <r_epik_State_Penalty>
4.32952

> <r_epik_Charging_Adjusted_Penalty>
8.65943

> <i_epik_Tot_Q>
-1

> <i_epik_Tot_abs_Q>
1

> <r_epik_Metal_State_Penalty>
0.740482

> <b_epik_Metal_Only>
1

> <s_lp_Force_Field>
OPLS_2005

> <r_lp_Energy>
9.96547

> <b_lp_Chiralities_Consistent>
1

> <s_lp_Variant>
AV-unprocessed.smi:672-5

> <Gold.Version>
5.8.1

> <Gold.Id.Protein>
6NUR|6NUR_protein|mol2

> <Gold.PLP.Fitness>
42.1053

> <Gold.PLP.PLP>
-31.7239

> <Gold.PLP.part.hbond>
-3.3507

> <Gold.PLP.part.metal>
0.0000

> <Gold.PLP.part.buried>
-1.8793

> <Gold.PLP.part.nonpolar>
-26.8270

> <Gold.PLP.part.repulsive>
0.3868

> <Gold.PLP.ligand.clash>
0.0000

> <Gold.PLP.ligand.torsion>
0.8272

> <Gold.PLP.Chemscore.Hbond>
3.9913

> <Gold.PLP.Chemscore.CHOScore>
0.0000

> <Gold.PLP.Chemscore.Metal>
0.0000

> <Gold.Chemscore.Hbonds>
donor molecule, donor type, donor heavy atom, donor atom, acceptor molecule, acceptor atom, score
      L1  H    10    24       P1  7948  0.85
      P1  H  7989  7998       L1     4  0.96
      P1  H 10752 10763       L1     7  1.50

> <Gold.PLP.Chemscore.Internal.Correction>
0.0620

> <Gold.Rescore>
     Score         DG    S(hbond)    S(metal)    S(lipo)     H(rot)  DE(clash)    DE(int)     intcor
     15.74     -16.69       2.23        0.00      61.58       1.34       0.01       0.94       ----

> <Gold.Chemscore.Fitness>
15.7379

> <Gold.Chemscore.DG>
-16.6892

> <Gold.Chemscore.ZeroCoef>
-5.4800

> <Gold.Chemscore.Hbond>
2.2266

> <Gold.Chemscore.Metal>
0.0000

> <Gold.Chemscore.Lipo>
61.5840

> <Gold.Chemscore.Internal_Hbond>
0.0000

> <Gold.Chemscore.DEClash>
0.0073

> <Gold.Chemscore.DEInternal>
0.9440

> <Gold.Chemscore.Rot>
1.3410

> <Gold.Chemscore.Internal.Correction>
   9.000000E+99

> <Gold.Chemscore.Hbonds>
donor molecule, donor type, donor heavy atom, donor atom, acceptor molecule, acceptor atom, score
      L1  H    10    24       P1  7948  0.15
      P1  H  7989  7998       L1     4  0.32
      P1  H 10752 10763       L1     7  0.09

> <Gold.Chemscore.Hbond.Weighted>
-7.4368

> <Gold.Chemscore.Metal.Weighted>
-0.0000

> <Gold.Chemscore.Lipo.Weighted>
-7.2053

> <Gold.Chemscore.Internal_Hbond.Weighted>
0.0000

> <Gold.Chemscore.DEClash.Weighted>
0.0073

> <Gold.Chemscore.DEInternal.Weighted>
0.9440

> <Gold.Chemscore.Rot.Weighted>
3.4329

> <Gold.Chemscore.Internal.Correction.Weighted>
   9.000000E+99

> <Gold.Protein.RotatedTorsions>
[ 6907 6896 6895 6894 ] final  -52.38 input  -60.11 | X-H torsion
[ 7974 7965 7964 7962 ] final  161.46 input  175.53 | X-H torsion
[ 8008 7997 7996 7995 ] final  -74.25 input   59.86 | X-H torsion
[ 10167 10162 10161 10158 ] final -119.30 input  -65.29 | X-H torsion
[ 10718 10713 10712 10709 ] final   76.17 input   66.30 | X-H torsion
[ 10763 10752 10751 10750 ] final   48.82 input  -60.55 | X-H torsion
[ 11005 11000 10999 10996 ] final   80.49 input  -57.11 | X-H torsion

> <Gold.Protein.ActiveResidues>
 VAL166  LYS551  ARG553  GLY616  TRP617  ASP618  TYR619  PRO620  LYS621  CYS622 
 ASP623  PHE694  ASN695  SER759  ASP760  ASP761  ALA762  ILE779  LEU786  VAL792 
 PHE793  MET794  SER795  GLU796  ALA797  LYS798  CYS799  TRP800  GLU811  SER814 

> <Gold.Protein.RotatedAtoms>
  150.8523  134.7852  159.7018 H   0  0  0  0  0  0  0  0  0  0  0  0  # atno 6907 bound_to 6896
  152.4584  134.5235  159.9799 H   0  0  0  0  0  0  0  0  0  0  0  0  # atno 6908 bound_to 6896
  151.5354  133.3404  159.2961 H   0  0  0  0  0  0  0  0  0  0  0  0  # atno 6909 bound_to 6896
  144.7685  139.7901  143.6306 H   0  0  0  0  0  0  0  0  0  0  0  0  # atno 7974 bound_to 7965
  154.5315  140.0765  156.8352 H   0  0  0  0  0  0  0  0  0  0  0  0  # atno 8008 bound_to 7997
  155.3366  140.3405  155.4221 H   0  0  0  0  0  0  0  0  0  0  0  0  # atno 8009 bound_to 7997
  156.1785  140.1644  156.8304 H   0  0  0  0  0  0  0  0  0  0  0  0  # atno 8010 bound_to 7997
  140.0482  143.5086  152.2096 H   0  0  0  0  0  0  0  0  0  0  0  0  # atno 10167 bound_to 10162
  157.6663  130.9761  150.1459 H   0  0  0  0  0  0  0  0  0  0  0  0  # atno 10718 bound_to 10713
  152.9790  135.5932  154.3988 H   0  0  0  0  0  0  0  0  0  0  0  0  # atno 10763 bound_to 10752
  154.3636  135.2767  155.2308 H   0  0  0  0  0  0  0  0  0  0  0  0  # atno 10764 bound_to 10752
  154.4294  135.6040  153.6114 H   0  0  0  0  0  0  0  0  0  0  0  0  # atno 10765 bound_to 10752
  139.9133  134.7924  156.1916 H   0  0  0  0  0  0  0  0  0  0  0  0  # atno 11005 bound_to 11000
  146.1812  139.5005  142.9865 LP  0  0  0  0  0  0  0  0  0  0  0  0  # atno 17320 bound_to 7965
  145.6397  141.0287  143.1818 LP  0  0  0  0  0  0  0  0  0  0  0  0  # atno 17321 bound_to 7965
  139.5970  144.7570  151.3262 LP  0  0  0  0  0  0  0  0  0  0  0  0  # atno 17342 bound_to 10162
  140.7229  143.7085  150.7788 LP  0  0  0  0  0  0  0  0  0  0  0  0  # atno 17343 bound_to 10162
  156.2270  130.3679  149.8489 LP  0  0  0  0  0  0  0  0  0  0  0  0  # atno 17370 bound_to 10713
  156.6326  130.8672  151.3498 LP  0  0  0  0  0  0  0  0  0  0  0  0  # atno 17371 bound_to 10713
  141.0580  133.6855  156.1898 LP  0  0  0  0  0  0  0  0  0  0  0  0  # atno 17394 bound_to 11000
  140.6706  134.4872  157.5587 LP  0  0  0  0  0  0  0  0  0  0  0  0  # atno 17395 bound_to 11000

$$$$
