AV-unprocessed.smi:3349|AV-procd|sdf|12932|dock10
  -GOLD-   2272019363D 1   1.00000     0.00000
 Structure written by MMmdl.
 40 41  0  0  0  0  0  0  0  0  1 V2000
  150.4900  140.7131  156.2570 C   0  0  0  0  0  0  0  0  0  0  0  0
  150.7237  141.0213  157.7580 C   0  0  1  0  0  0  0  0  0  0  0  0
  150.9529  139.6797  158.5131 C   0  0  0  0  0  0  0  0  0  0  0  0
  149.7742  138.8177  158.5284 N   0  0  0  0  0  0  0  0  0  0  0  0
  149.7545  137.5482  158.9658 C   0  0  0  0  0  0  0  0  0  0  0  0
  150.7533  136.9756  159.4039 O   0  0  0  0  0  0  0  0  0  0  0  0
  148.3983  136.8262  158.9018 C   0  0  2  0  0  0  0  0  0  0  0  0
  147.3687  137.5610  158.0192 C   0  0  0  0  0  0  0  0  0  0  0  0
  147.8889  136.5807  160.2455 N   0  0  0  0  0  0  0  0  0  0  0  0
  147.6316  135.4289  160.8690 C   0  0  0  0  0  0  0  0  0  0  0  0
  147.2123  135.5740  162.1180 N   0  0  0  0  0  0  0  0  0  0  0  0
  147.2450  136.9365  162.2124 C   0  0  0  0  0  0  0  0  0  0  0  0
  147.6506  137.5877  161.1227 N   0  0  0  0  0  0  0  0  0  0  0  0
  151.8022  142.0132  157.9778 N   0  0  0  0  0  0  0  0  0  0  0  0
  151.4754  143.3281  157.4134 C   0  0  0  0  0  0  0  0  0  0  0  0
  152.5715  144.3780  157.6640 C   0  0  0  0  0  0  0  0  0  0  0  0
  152.8109  144.4946  159.0595 O   0  0  0  0  0  0  0  0  0  0  0  0
  153.2107  143.2591  159.6351 C   0  0  0  0  0  0  0  0  0  0  0  0
  152.1210  142.1987  159.3987 C   0  0  0  0  0  0  0  0  0  0  0  0
  149.7354  139.9429  156.1021 H   0  0  0  0  0  0  0  0  0  0  0  0
  151.4082  140.3727  155.7772 H   0  0  0  0  0  0  0  0  0  0  0  0
  150.1247  141.5806  155.7093 H   0  0  0  0  0  0  0  0  0  0  0  0
  149.7969  141.4507  158.1413 H   0  0  0  0  0  0  0  0  0  0  0  0
  151.7714  139.1281  158.0498 H   0  0  0  0  0  0  0  0  0  0  0  0
  151.2384  139.8355  159.5524 H   0  0  0  0  0  0  0  0  0  0  0  0
  148.9133  139.2170  158.1840 H   0  0  0  0  0  0  0  0  0  0  0  0
  148.5769  135.8517  158.4440 H   0  0  0  0  0  0  0  0  0  0  0  0
  147.7410  137.6871  157.0020 H   0  0  0  0  0  0  0  0  0  0  0  0
  147.1281  138.5513  158.4081 H   0  0  0  0  0  0  0  0  0  0  0  0
  146.4378  136.9967  157.9576 H   0  0  0  0  0  0  0  0  0  0  0  0
  147.7565  134.4637  160.4003 H   0  0  0  0  0  0  0  0  0  0  0  0
  146.9663  137.4641  163.1127 H   0  0  0  0  0  0  0  0  0  0  0  0
  151.3415  143.2604  156.3354 H   0  0  0  0  0  0  0  0  0  0  0  0
  150.5319  143.6848  157.8293 H   0  0  0  0  0  0  0  0  0  0  0  0
  153.4938  144.1054  157.1488 H   0  0  0  0  0  0  0  0  0  0  0  0
  152.2620  145.3478  157.2744 H   0  0  0  0  0  0  0  0  0  0  0  0
  154.1612  142.9388  159.2054 H   0  0  0  0  0  0  0  0  0  0  0  0
  153.3747  143.4014  160.7034 H   0  0  0  0  0  0  0  0  0  0  0  0
  151.2196  142.4766  159.9472 H   0  0  0  0  0  0  0  0  0  0  0  0
  152.4866  141.2725  159.8364 H   0  0  0  0  0  0  0  0  0  0  0  0
  1  2  1  0  0  0  0
  1 20  1  0  0  0  0
  1 21  1  0  0  0  0
  1 22  1  0  0  0  0
  2  3  1  0  0  0  0
  2 14  1  0  0  0  0
  2 23  1  0  0  0  0
  3  4  1  0  0  0  0
  3 24  1  0  0  0  0
  3 25  1  0  0  0  0
  4  5  1  0  0  0  0
  4 26  1  0  0  0  0
  5  6  2  0  0  0  0
  5  7  1  0  0  0  0
  7  8  1  0  0  0  0
  7  9  1  0  0  0  0
  7 27  1  0  0  0  0
  8 28  1  0  0  0  0
  8 29  1  0  0  0  0
  8 30  1  0  0  0  0
  9 13  1  0  0  0  0
  9 10  1  0  0  0  0
 10 11  2  0  0  0  0
 10 31  1  0  0  0  0
 11 12  1  0  0  0  0
 12 13  2  0  0  0  0
 12 32  1  0  0  0  0
 14 19  1  0  0  0  0
 14 15  1  0  0  0  0
 15 16  1  0  0  0  0
 15 33  1  0  0  0  0
 15 34  1  0  0  0  0
 16 17  1  0  0  0  0
 16 35  1  0  0  0  0
 16 36  1  0  0  0  0
 17 18  1  0  0  0  0
 18 19  1  0  0  0  0
 18 37  1  0  0  0  0
 18 38  1  0  0  0  0
 19 39  1  0  0  0  0
 19 40  1  0  0  0  0
M  END
> <s_m_source_file>
AV-unprocessed.smi

> <i_m_source_file_index>
3349

> <i_lp_mmshare_version>
43012

> <i_f3d_flags>
0

> <s_epik_input>
W0NIMl0xW0NIMl1PW0NIMl1bQ0gyXU4xW0NASF0oW0NIM10pW0NIMl1bTkhdQyg9TylbQ0BIXShbQ0gzXSluMltjSF1uW2NIXW4y

> <s_epik_cmdline>
J2VwaWtfcHl0aG9uJywgJy1waCcsICc3LjAnLCAnLXRuJywgJzgnLCAnLW1hJywgJzIwMCcsICctbWV0YWxfYmluZGluZycsICctaW1hZScsICc8aW5maWxlLm1hZT4nLCAnLW9tYWUnLCAnPG91dGZpbGUubWFlPic=

> <r_lp_tautomer_probability>
1

> <r_epik_Ionization_Penalty>
0.211373

> <r_epik_Ionization_Penalty_Charging>
0

> <r_epik_Ionization_Penalty_Neutral>
0.211373

> <r_epik_State_Penalty>
0.201459

> <r_epik_Charging_Adjusted_Penalty>
0.201459

> <i_epik_Tot_Q>
0

> <i_epik_Tot_abs_Q>
0

> <r_epik_Metal_State_Penalty>
0.201458

> <b_epik_Metal_Only>
0

> <s_lp_Force_Field>
OPLS_2005

> <r_lp_Energy>
34.2526

> <b_lp_Chiralities_Consistent>
1

> <s_lp_Variant>
AV-unprocessed.smi:3349-2

> <Gold.Version>
5.8.1

> <Gold.Id.Protein>
6NUR|6NUR_protein|mol2

> <Gold.PLP.Fitness>
42.5818

> <Gold.PLP.PLP>
-35.3101

> <Gold.PLP.part.hbond>
-3.0000

> <Gold.PLP.part.metal>
0.0000

> <Gold.PLP.part.buried>
-5.9379

> <Gold.PLP.part.nonpolar>
-27.1990

> <Gold.PLP.part.repulsive>
0.2082

> <Gold.PLP.ligand.clash>
0.0000

> <Gold.PLP.ligand.torsion>
0.4158

> <Gold.PLP.Chemscore.Hbond>
2.6528

> <Gold.PLP.Chemscore.CHOScore>
0.0000

> <Gold.PLP.Chemscore.Metal>
0.0000

> <Gold.Chemscore.Hbonds>
donor molecule, donor type, donor heavy atom, donor atom, acceptor molecule, acceptor atom, score
      P1  H  6896  6909       L1     6  1.00
      P1  H  6931  6943       L1    13  0.49
      P1  H  6934  6947       L1    13  0.78

> <Gold.PLP.Chemscore.Internal.Correction>
0.1450

> <Gold.Rescore>
     Score         DG    S(hbond)    S(metal)    S(lipo)     H(rot)  DE(clash)    DE(int)     intcor
     13.33     -13.83       2.17        0.00      65.32       2.56       0.00       0.49       ----

> <Gold.Chemscore.Fitness>
13.3326

> <Gold.Chemscore.DG>
-13.8272

> <Gold.Chemscore.ZeroCoef>
-5.4800

> <Gold.Chemscore.Hbond>
2.1710

> <Gold.Chemscore.Metal>
0.0000

> <Gold.Chemscore.Lipo>
65.3163

> <Gold.Chemscore.Internal_Hbond>
0.0000

> <Gold.Chemscore.DEClash>
0.0000

> <Gold.Chemscore.DEInternal>
0.4947

> <Gold.Chemscore.Rot>
2.5570

> <Gold.Chemscore.Internal.Correction>
   9.000000E+99

> <Gold.Chemscore.Hbonds>
donor molecule, donor type, donor heavy atom, donor atom, acceptor molecule, acceptor atom, score
      P1  H  6896  6909       L1     6  0.97
      P1  H  6931  6943       L1    13  0.05
      P1  H  6934  6947       L1    13  0.71

> <Gold.Chemscore.Hbond.Weighted>
-7.2511

> <Gold.Chemscore.Metal.Weighted>
-0.0000

> <Gold.Chemscore.Lipo.Weighted>
-7.6420

> <Gold.Chemscore.Internal_Hbond.Weighted>
0.0000

> <Gold.Chemscore.DEClash.Weighted>
0.0000

> <Gold.Chemscore.DEInternal.Weighted>
0.4947

> <Gold.Chemscore.Rot.Weighted>
6.5459

> <Gold.Chemscore.Internal.Correction.Weighted>
   9.000000E+99

> <Gold.Protein.RotatedTorsions>
[ 6907 6896 6895 6894 ] final  109.14 input  -60.11 | X-H torsion
[ 7974 7965 7964 7962 ] final   -5.33 input  175.53 | X-H torsion
[ 8008 7997 7996 7995 ] final  139.92 input   59.86 | X-H torsion
[ 10167 10162 10161 10158 ] final  120.02 input  -65.29 | X-H torsion
[ 10718 10713 10712 10709 ] final  -20.02 input   66.30 | X-H torsion
[ 10763 10752 10751 10750 ] final  -94.92 input  -60.55 | X-H torsion
[ 11005 11000 10999 10996 ] final  156.10 input  -57.11 | X-H torsion

> <Gold.Protein.ActiveResidues>
 VAL166  LYS551  ARG553  GLY616  TRP617  ASP618  TYR619  PRO620  LYS621  CYS622 
 ASP623  PHE694  ASN695  SER759  ASP760  ASP761  ALA762  ILE779  LEU786  VAL792 
 PHE793  MET794  SER795  GLU796  ALA797  LYS798  CYS799  TRP800  GLU811  SER814 

> <Gold.Protein.RotatedAtoms>
  152.5081  133.8987  159.7429 H   0  0  0  0  0  0  0  0  0  0  0  0  # atno 6907 bound_to 6896
  150.9408  133.6650  159.2798 H   0  0  0  0  0  0  0  0  0  0  0  0  # atno 6908 bound_to 6896
  151.3962  135.0969  159.9594 H   0  0  0  0  0  0  0  0  0  0  0  0  # atno 6909 bound_to 6896
  146.2355  140.2004  142.8333 H   0  0  0  0  0  0  0  0  0  0  0  0  # atno 7974 bound_to 7965
  156.2985  140.2355  156.4316 H   0  0  0  0  0  0  0  0  0  0  0  0  # atno 8008 bound_to 7997
  154.8265  140.0435  157.1468 H   0  0  0  0  0  0  0  0  0  0  0  0  # atno 8009 bound_to 7997
  154.9256  140.3009  155.5197 H   0  0  0  0  0  0  0  0  0  0  0  0  # atno 8010 bound_to 7997
  139.6008  144.7056  151.3066 H   0  0  0  0  0  0  0  0  0  0  0  0  # atno 10167 bound_to 10162
  156.5376  130.4670  149.6515 H   0  0  0  0  0  0  0  0  0  0  0  0  # atno 10718 bound_to 10713
  154.7101  135.5139  153.8653 H   0  0  0  0  0  0  0  0  0  0  0  0  # atno 10763 bound_to 10752
  153.0773  135.6620  154.0128 H   0  0  0  0  0  0  0  0  0  0  0  0  # atno 10764 bound_to 10752
  153.9971  135.3014  155.3386 H   0  0  0  0  0  0  0  0  0  0  0  0  # atno 10765 bound_to 10752
  140.1644  134.8587  157.2613 H   0  0  0  0  0  0  0  0  0  0  0  0  # atno 11005 bound_to 11000
  144.9786  140.8438  143.5411 LP  0  0  0  0  0  0  0  0  0  0  0  0  # atno 17320 bound_to 7965
  145.1995  139.2259  143.5200 LP  0  0  0  0  0  0  0  0  0  0  0  0  # atno 17321 bound_to 7965
  140.7248  143.7034  150.7827 LP  0  0  0  0  0  0  0  0  0  0  0  0  # atno 17342 bound_to 10162
  140.0610  143.5155  152.2627 LP  0  0  0  0  0  0  0  0  0  0  0  0  # atno 17343 bound_to 10162
  156.3002  130.7172  151.2042 LP  0  0  0  0  0  0  0  0  0  0  0  0  # atno 17370 bound_to 10713
  157.7411  131.0508  150.5121 LP  0  0  0  0  0  0  0  0  0  0  0  0  # atno 17371 bound_to 10713
  140.2452  134.3749  155.7464 LP  0  0  0  0  0  0  0  0  0  0  0  0  # atno 17394 bound_to 11000
  141.2212  133.7286  156.8850 LP  0  0  0  0  0  0  0  0  0  0  0  0  # atno 17395 bound_to 11000

$$$$
