#       Name:                AV-unprocessed.smi:1354
#       Creating user name   scv26
#       Creation time:       Fri Mar 27 05:12:46 2020


#       File generated by GOLD software.
#

@<TRIPOS>MOLECULE
AV-unprocessed.smi:1354
    44    46     1
SMALL
NO_CHARGES


@<TRIPOS>ATOM
      1 ****        -0.0001   4.7103  -2.8425 O.3            1 S1                 0.0000
      2 ****        -0.4274   3.3656  -2.8357 C.3            1 S1                 0.0000
      3 ****        -0.6639   2.9038  -1.3912 C.3            1 S1                 0.0000
      4 ****        -1.1163   1.4805  -1.3370 C.2            1 S1                 0.0000
      5 ****        -2.4110   1.0556  -1.3021 N.pl3          1 S1                 1.0000
      6 ****        -2.4503  -0.3388  -1.2662 C.ar           1 S1                 0.0000
      7 ****        -3.5273  -1.2185  -1.2171 C.ar           1 S1                 0.0000
      8 ****        -3.2197  -2.5945  -1.1855 C.ar           1 S1                 0.0000
      9 ****        -1.8853  -3.0488  -1.2061 C.ar           1 S1                 0.0000
     10 ****        -0.8021  -2.1474  -1.2594 C.ar           1 S1                 0.0000
     11 ****        -1.1141  -0.7881  -1.2872 C.ar           1 S1                 0.0000
     12 ****        -0.3258   0.3683  -1.3319 N.pl3          1 S1                 0.0000
     13 ****         1.1400   0.2470  -1.3545 C.3            1 S1                 0.0000
     14 ****         1.7478   0.2580   0.0558 C.3            1 S1                 0.0000
     15 ****         1.2108  -0.8179   0.8137 O.3            1 S1                 0.0000
     16 ****         1.6050  -0.9609   2.1274 C.ar           1 S1                 0.0000
     17 ****         2.5522  -0.1188   2.7642 C.ar           1 S1                 0.0000
     18 ****         2.9048  -0.3303   4.1111 C.ar           1 S1                 0.0000
     19 ****         2.3188  -1.3822   4.8382 C.ar           1 S1                 0.0000
     20 ****         1.3781  -2.2229   4.2165 C.ar           1 S1                 0.0000
     21 ****         1.0228  -2.0133   2.8695 C.ar           1 S1                 0.0000
     22 ****        -0.1389  -3.0582   2.1328 Cl             1 S1                 0.0000
     23 ****         0.1544   4.9734  -3.7373 H              1 S1                 0.0000
     24 ****        -1.3421   3.2802  -3.4232 H              1 S1                 0.0000
     25 ****         0.3313   2.7509  -3.3208 H              1 S1                 0.0000
     26 ****         0.2488   3.0105  -0.8041 H              1 S1                 0.0000
     27 ****        -1.4167   3.5325  -0.9141 H              1 S1                 0.0000
     28 ****        -4.5505  -0.8727  -1.2004 H              1 S1                 0.0000
     29 ****        -4.0229  -3.3158  -1.1437 H              1 S1                 0.0000
     30 ****        -1.6874  -4.1106  -1.1761 H              1 S1                 0.0000
     31 ****         0.2159  -2.5075  -1.2652 H              1 S1                 0.0000
     32 ****         1.4174  -0.6583  -1.8945 H              1 S1                 0.0000
     33 ****         1.5347   1.0810  -1.9351 H              1 S1                 0.0000
     34 ****         2.8319   0.1633  -0.0170 H              1 S1                 0.0000
     35 ****         1.5232   1.2090   0.5415 H              1 S1                 0.0000
     36 ****         3.0255   0.6977   2.2406 H              1 S1                 0.0000
     37 ****         3.6271   0.3162   4.5874 H              1 S1                 0.0000
     38 ****         2.5904  -1.5441   5.8709 H              1 S1                 0.0000
     39 ****         0.9281  -3.0303   4.7756 H              1 S1                 0.0000
     40 ****        -3.2091   1.6778  -1.2988 H              1 S1                 0.0000
     41 ****         0.8450   4.7978  -2.3149 LP             1 S1                 0.0000
     42 ****        -0.7071   5.2904  -2.4381 LP             1 S1                 0.0000
     43 ****         1.4548  -1.6636   0.3390 LP             1 S1                 0.0000
     44 ****         0.2166  -0.7108   0.8142 LP             1 S1                 0.0000
@<TRIPOS>BOND
    1    1    2 1     
    2    1   23 1     
    3    2    3 1     
    4    2   24 1     
    5    2   25 1     
    6    3    4 1     
    7    3   26 1     
    8    3   27 1     
    9    4   12 1     
   10    4    5 2     
   11    5    6 1     
   12    5   40 1     
   13    6   11 ar    
   14    6    7 ar    
   15    7    8 ar    
   16    7   28 1     
   17    8    9 ar    
   18    8   29 1     
   19    9   10 ar    
   20    9   30 1     
   21   10   11 ar    
   22   10   31 1     
   23   11   12 1     
   24   12   13 1     
   25   13   14 1     
   26   13   32 1     
   27   13   33 1     
   28   14   15 1     
   29   14   34 1     
   30   14   35 1     
   31   15   16 1     
   32   16   21 ar    
   33   16   17 ar    
   34   17   18 ar    
   35   17   36 1     
   36   18   19 ar    
   37   18   37 1     
   38   19   20 ar    
   39   19   38 1     
   40   20   21 ar    
   41   20   39 1     
   42   21   22 1     
   43    1   41 1     
   44    1   42 1     
   45   15   43 1     
   46   15   44 1     
@<TRIPOS>SUBSTRUCTURE
      1 S1             1
@<TRIPOS>SET
LONE_PAIRS      STATIC     ATOMS    <user>   **** ""
4 41 42 43 44
DONOR_HYDROGENS      STATIC     ATOMS    <user>   **** ""
2 23 40
ATOM$BLUE        STATIC     ATOMS    COLORGROUP SYSTEM
4 41 42 43 44
ATOM$RED        STATIC     ATOMS    COLORGROUP SYSTEM
2 23 40
