AV-unprocessed.smi:2494|AV-procd|sdf|9821|dock10
  -GOLD-   2272013453D 1   1.00000     0.00000
 Structure written by MMmdl.
 30 31  0  0  0  0  0  0  0  0  1 V2000
  149.2048  141.3936  153.2931 O   0  0  0  0  0  0  0  0  0  0  0  0
  148.3014  141.2255  154.3644 C   0  0  0  0  0  0  0  0  0  0  0  0
  149.0809  141.0158  155.6731 C   0  0  0  0  0  0  0  0  0  0  0  0
  150.4464  140.3002  155.4906 C   0  0  2  0  0  0  0  0  0  0  0  0
  150.2349  138.8631  154.9519 C   0  0  0  0  0  0  0  0  0  0  0  0
  151.4702  138.1683  154.8449 O   0  0  0  0  0  0  0  0  0  0  0  0
  152.0997  138.0310  156.1091 C   0  0  0  0  0  0  0  0  0  0  0  0
  152.4260  139.4286  156.6475 C   0  0  0  0  0  0  0  0  0  0  0  0
  151.2228  140.2507  156.7402 N   0  0  0  0  0  0  0  0  0  0  0  0
  151.4249  141.4050  157.4864 C   0  0  0  0  0  0  0  0  0  0  0  0
  151.9580  141.2756  158.7091 N   0  0  0  0  0  0  0  0  0  0  0  0
  152.1199  142.4046  159.4326 C   0  0  0  0  0  0  0  0  0  0  0  0
  151.7364  143.6637  158.9299 C   0  0  0  0  0  0  0  0  0  0  0  0
  151.9388  145.1085  159.8504 Cl  0  0  0  0  0  0  0  0  0  0  0  0
  151.1763  143.6804  157.6371 C   0  0  0  0  0  0  0  0  0  0  0  0
  151.0178  142.5465  156.9203 N   0  0  0  0  0  0  0  0  0  0  0  0
  149.1266  140.6506  152.7142 H   0  0  0  0  0  0  0  0  0  0  0  0
  147.6655  142.1087  154.4151 H   0  0  0  0  0  0  0  0  0  0  0  0
  147.6610  140.3679  154.1565 H   0  0  0  0  0  0  0  0  0  0  0  0
  149.2242  141.9986  156.1208 H   0  0  0  0  0  0  0  0  0  0  0  0
  148.4662  140.4554  156.3791 H   0  0  0  0  0  0  0  0  0  0  0  0
  151.0379  140.8566  154.7620 H   0  0  0  0  0  0  0  0  0  0  0  0
  149.5515  138.3020  155.5918 H   0  0  0  0  0  0  0  0  0  0  0  0
  149.7897  138.8851  153.9581 H   0  0  0  0  0  0  0  0  0  0  0  0
  151.4584  137.4809  156.7998 H   0  0  0  0  0  0  0  0  0  0  0  0
  153.0148  137.4509  155.9898 H   0  0  0  0  0  0  0  0  0  0  0  0
  152.8982  139.3388  157.6267 H   0  0  0  0  0  0  0  0  0  0  0  0
  153.1448  139.9221  155.9919 H   0  0  0  0  0  0  0  0  0  0  0  0
  152.5539  142.3007  160.4161 H   0  0  0  0  0  0  0  0  0  0  0  0
  150.8526  144.6023  157.1771 H   0  0  0  0  0  0  0  0  0  0  0  0
  1  2  1  0  0  0  0
  1 17  1  0  0  0  0
  2  3  1  0  0  0  0
  2 18  1  0  0  0  0
  2 19  1  0  0  0  0
  3  4  1  0  0  0  0
  3 20  1  0  0  0  0
  3 21  1  0  0  0  0
  4  9  1  0  0  0  0
  4  5  1  0  0  0  0
  4 22  1  0  0  0  0
  5  6  1  0  0  0  0
  5 23  1  0  0  0  0
  5 24  1  0  0  0  0
  6  7  1  0  0  0  0
  7  8  1  0  0  0  0
  7 25  1  0  0  0  0
  7 26  1  0  0  0  0
  8  9  1  0  0  0  0
  8 27  1  0  0  0  0
  8 28  1  0  0  0  0
  9 10  1  0  0  0  0
 10 16  1  0  0  0  0
 10 11  2  0  0  0  0
 11 12  1  0  0  0  0
 12 13  2  0  0  0  0
 12 29  1  0  0  0  0
 13 14  1  0  0  0  0
 13 15  1  0  0  0  0
 15 16  2  0  0  0  0
 15 30  1  0  0  0  0
M  END
> <s_m_source_file>
AV-unprocessed.smi

> <i_m_source_file_index>
2494

> <i_lp_mmshare_version>
43012

> <i_f3d_flags>
0

> <s_epik_input>
W09IXVtDSDJdW0NIMl1bQ0BASF0xW0NIMl1PW0NIMl1bQ0gyXU4xYzJuW2NIXWMoQ2wpW2NIXW4y

> <s_epik_cmdline>
J2VwaWtfcHl0aG9uJywgJy1waCcsICc3LjAnLCAnLXRuJywgJzgnLCAnLW1hJywgJzIwMCcsICctbWV0YWxfYmluZGluZycsICctaW1hZScsICc8aW5maWxlLm1hZT4nLCAnLW9tYWUnLCAnPG91dGZpbGUubWFlPic=

> <r_lp_tautomer_probability>
1

> <r_epik_Ionization_Penalty>
3.66811e-07

> <r_epik_Ionization_Penalty_Charging>
0

> <r_epik_Ionization_Penalty_Neutral>
3.66811e-07

> <r_epik_State_Penalty>
-0

> <r_epik_Charging_Adjusted_Penalty>
0

> <i_epik_Tot_Q>
0

> <i_epik_Tot_abs_Q>
0

> <r_epik_Metal_State_Penalty>
-0

> <b_epik_Metal_Only>
0

> <s_lp_Force_Field>
OPLS_2005

> <r_lp_Energy>
15.3646

> <b_lp_Chiralities_Consistent>
1

> <s_lp_Variant>
AV-unprocessed.smi:2494-1

> <Gold.Version>
5.8.1

> <Gold.Id.Protein>
6NUR|6NUR_protein|mol2

> <Gold.PLP.Fitness>
37.7988

> <Gold.PLP.PLP>
-30.0214

> <Gold.PLP.part.hbond>
-2.7358

> <Gold.PLP.part.metal>
0.0000

> <Gold.PLP.part.buried>
-2.3248

> <Gold.PLP.part.nonpolar>
-25.5817

> <Gold.PLP.part.repulsive>
0.2185

> <Gold.PLP.ligand.clash>
0.0000

> <Gold.PLP.ligand.torsion>
0.3458

> <Gold.PLP.Chemscore.Hbond>
1.8393

> <Gold.PLP.Chemscore.CHOScore>
0.8787

> <Gold.PLP.Chemscore.Metal>
0.0000

> <Gold.Chemscore.Hbonds>
donor molecule, donor type, donor heavy atom, donor atom, acceptor molecule, acceptor atom, score
      L1  H     1    17       P1  7957  0.85
      P1  H  8011  8017       L1     1  0.97
      L1  C    15    30       P1  8028  0.88

> <Gold.PLP.Chemscore.Internal.Correction>
0.3150

> <Gold.Rescore>
     Score         DG    S(hbond)    S(metal)    S(lipo)     H(rot)  DE(clash)    DE(int)     intcor
     13.22     -15.08       1.45        0.00      85.43       2.04       0.05       1.81       ----

> <Gold.Chemscore.Fitness>
13.2223

> <Gold.Chemscore.DG>
-15.0848

> <Gold.Chemscore.ZeroCoef>
-5.4800

> <Gold.Chemscore.Hbond>
1.4486

> <Gold.Chemscore.Metal>
0.0000

> <Gold.Chemscore.Lipo>
85.4282

> <Gold.Chemscore.Internal_Hbond>
0.0000

> <Gold.Chemscore.DEClash>
0.0489

> <Gold.Chemscore.DEInternal>
1.8136

> <Gold.Chemscore.Rot>
2.0424

> <Gold.Chemscore.Internal.Correction>
   9.000000E+99

> <Gold.Chemscore.Hbonds>
donor molecule, donor type, donor heavy atom, donor atom, acceptor molecule, acceptor atom, score
      L1  H     1    17       P1  7957  0.85
      P1  H  8011  8017       L1     1  0.22

> <Gold.Chemscore.Hbond.Weighted>
-4.8382

> <Gold.Chemscore.Metal.Weighted>
-0.0000

> <Gold.Chemscore.Lipo.Weighted>
-9.9951

> <Gold.Chemscore.Internal_Hbond.Weighted>
0.0000

> <Gold.Chemscore.DEClash.Weighted>
0.0489

> <Gold.Chemscore.DEInternal.Weighted>
1.8136

> <Gold.Chemscore.Rot.Weighted>
5.2285

> <Gold.Chemscore.Internal.Correction.Weighted>
   9.000000E+99

> <Gold.Protein.RotatedTorsions>
[ 6907 6896 6895 6894 ] final  -11.96 input  -60.11 | X-H torsion
[ 7974 7965 7964 7962 ] final  -55.72 input  175.53 | X-H torsion
[ 8008 7997 7996 7995 ] final -147.46 input   59.86 | X-H torsion
[ 10167 10162 10161 10158 ] final  170.32 input  -65.29 | X-H torsion
[ 10718 10713 10712 10709 ] final  128.55 input   66.30 | X-H torsion
[ 10763 10752 10751 10750 ] final   -6.09 input  -60.55 | X-H torsion
[ 11005 11000 10999 10996 ] final  -72.50 input  -57.11 | X-H torsion

> <Gold.Protein.ActiveResidues>
 VAL166  LYS551  ARG553  GLY616  TRP617  ASP618  TYR619  PRO620  LYS621  CYS622 
 ASP623  PHE694  ASN695  SER759  ASP760  ASP761  ALA762  ILE779  LEU786  VAL792 
 PHE793  MET794  SER795  GLU796  ALA797  LYS798  CYS799  TRP800  GLU811  SER814 

> <Gold.Protein.RotatedAtoms>
  151.3780  135.0934  159.9486 H   0  0  0  0  0  0  0  0  0  0  0  0  # atno 6907 bound_to 6896
  152.5116  133.9100  159.7493 H   0  0  0  0  0  0  0  0  0  0  0  0  # atno 6908 bound_to 6896
  150.9527  133.6476  159.2798 H   0  0  0  0  0  0  0  0  0  0  0  0  # atno 6909 bound_to 6896
  145.8709  140.8217  142.9889 H   0  0  0  0  0  0  0  0  0  0  0  0  # atno 7974 bound_to 7965
  155.5759  140.0638  157.2795 H   0  0  0  0  0  0  0  0  0  0  0  0  # atno 8008 bound_to 7997
  154.4347  140.1860  156.0973 H   0  0  0  0  0  0  0  0  0  0  0  0  # atno 8009 bound_to 7997
  156.0341  140.3303  155.7176 H   0  0  0  0  0  0  0  0  0  0  0  0  # atno 8010 bound_to 7997
  139.5015  144.3609  151.9826 H   0  0  0  0  0  0  0  0  0  0  0  0  # atno 10167 bound_to 10162
  157.5234  131.1098  150.9119 H   0  0  0  0  0  0  0  0  0  0  0  0  # atno 10718 bound_to 10713
  153.4075  135.7006  153.6382 H   0  0  0  0  0  0  0  0  0  0  0  0  # atno 10763 bound_to 10752
  153.4890  135.3677  155.2482 H   0  0  0  0  0  0  0  0  0  0  0  0  # atno 10764 bound_to 10752
  154.8715  135.4084  154.3421 H   0  0  0  0  0  0  0  0  0  0  0  0  # atno 10765 bound_to 10752
  141.1609  133.6849  156.7068 H   0  0  0  0  0  0  0  0  0  0  0  0  # atno 11005 bound_to 11000
  144.6726  140.1237  143.7448 LP  0  0  0  0  0  0  0  0  0  0  0  0  # atno 17320 bound_to 7965
  145.9138  139.2503  143.1422 LP  0  0  0  0  0  0  0  0  0  0  0  0  # atno 17321 bound_to 7965
  140.3045  144.3608  150.6051 LP  0  0  0  0  0  0  0  0  0  0  0  0  # atno 17342 bound_to 10162
  140.5847  143.2170  151.7364 LP  0  0  0  0  0  0  0  0  0  0  0  0  # atno 17343 bound_to 10162
  156.9723  130.5495  149.5291 LP  0  0  0  0  0  0  0  0  0  0  0  0  # atno 17370 bound_to 10713
  156.0369  130.5456  150.8677 LP  0  0  0  0  0  0  0  0  0  0  0  0  # atno 17371 bound_to 10713
  140.2917  134.8235  157.4022 LP  0  0  0  0  0  0  0  0  0  0  0  0  # atno 17394 bound_to 11000
  140.1341  134.5057  155.8082 LP  0  0  0  0  0  0  0  0  0  0  0  0  # atno 17395 bound_to 11000

$$$$
