AV-unprocessed.smi:3343|AV-procd|sdf|12891|dock9
  -GOLD-   2272019303D 1   1.00000     0.00000
 Structure written by MMmdl.
 42 43  0  0  0  0  0  0  0  0  2 V2000
  149.1376  141.0166  154.5078 C   0  0  0  0  0  0  0  0  0  0  0  0
  149.2282  139.5454  154.0552 C   0  0  2  0  0  0  0  0  0  0  0  0
  148.1932  138.6548  154.7587 C   0  0  0  0  0  0  0  0  0  0  0  0
  147.5955  139.0578  155.7569 O   0  0  0  0  0  0  0  0  0  0  0  0
  147.9898  137.4403  154.2242 N   0  0  0  0  0  0  0  0  0  0  0  0
  147.0694  136.4309  154.7398 C   0  0  0  0  0  0  0  0  0  0  0  0
  146.2253  135.7639  153.6328 C   0  0  0  0  0  0  0  0  0  0  0  0
  145.7000  134.4535  154.0266 N   0  0  0  0  0  0  0  0  0  0  0  0
  144.8028  134.5435  155.1824 C   0  0  0  0  0  0  0  0  0  0  0  0
  143.4601  135.2190  154.8264 C   0  0  0  0  0  0  0  0  0  0  0  0
  142.7892  134.4917  153.7237 N   0  3  0  0  0  0  0  0  0  0  0  0
  141.4703  135.0643  153.3806 C   0  0  0  0  0  0  0  0  0  0  0  0
  143.6868  134.3769  152.5506 C   0  0  0  0  0  0  0  0  0  0  0  0
  145.0187  133.7130  152.9588 C   0  0  0  0  0  0  0  0  0  0  0  0
  150.5662  138.9934  154.2298 N   0  0  0  0  0  0  0  0  0  0  0  0
  151.0087  137.7466  154.0530 C   0  0  0  0  0  0  0  0  0  0  0  0
  152.2896  137.5814  154.3521 N   0  0  0  0  0  0  0  0  0  0  0  0
  152.5969  138.8523  154.7469 C   0  0  0  0  0  0  0  0  0  0  0  0
  151.5993  139.7349  154.7019 N   0  0  0  0  0  0  0  0  0  0  0  0
  148.1428  141.4230  154.3224 H   0  0  0  0  0  0  0  0  0  0  0  0
  149.8498  141.6350  153.9608 H   0  0  0  0  0  0  0  0  0  0  0  0
  149.3489  141.1345  155.5715 H   0  0  0  0  0  0  0  0  0  0  0  0
  149.0122  139.5250  152.9855 H   0  0  0  0  0  0  0  0  0  0  0  0
  148.5266  137.1880  153.4072 H   0  0  0  0  0  0  0  0  0  0  0  0
  147.6265  135.6871  155.3106 H   0  0  0  0  0  0  0  0  0  0  0  0
  146.4038  136.9183  155.4539 H   0  0  0  0  0  0  0  0  0  0  0  0
  145.3644  136.4098  153.4554 H   0  0  0  0  0  0  0  0  0  0  0  0
  146.7642  135.7261  152.6871 H   0  0  0  0  0  0  0  0  0  0  0  0
  144.6159  133.5361  155.5573 H   0  0  0  0  0  0  0  0  0  0  0  0
  145.2959  135.0831  155.9919 H   0  0  0  0  0  0  0  0  0  0  0  0
  142.8122  135.2154  155.7035 H   0  0  0  0  0  0  0  0  0  0  0  0
  143.6047  136.2650  154.5530 H   0  0  0  0  0  0  0  0  0  0  0  0
  141.5706  136.0844  153.0072 H   0  0  0  0  0  0  0  0  0  0  0  0
  140.8199  135.0819  154.2559 H   0  0  0  0  0  0  0  0  0  0  0  0
  140.9797  134.4647  152.6129 H   0  0  0  0  0  0  0  0  0  0  0  0
  143.2014  133.7684  151.7868 H   0  0  0  0  0  0  0  0  0  0  0  0
  143.8550  135.3579  152.1041 H   0  0  0  0  0  0  0  0  0  0  0  0
  145.6718  133.6017  152.0944 H   0  0  0  0  0  0  0  0  0  0  0  0
  144.8235  132.7000  153.3138 H   0  0  0  0  0  0  0  0  0  0  0  0
  150.3802  136.9415  153.7017 H   0  0  0  0  0  0  0  0  0  0  0  0
  153.5839  139.1343  155.0829 H   0  0  0  0  0  0  0  0  0  0  0  0
  142.6237  133.5520  154.0556 H   0  0  0  0  0  0  0  0  0  0  0  0
  1  2  1  0  0  0  0
  1 20  1  0  0  0  0
  1 21  1  0  0  0  0
  1 22  1  0  0  0  0
  2  3  1  0  0  0  0
  2 15  1  0  0  0  0
  2 23  1  0  0  0  0
  3  4  2  0  0  0  0
  3  5  1  0  0  0  0
  5  6  1  0  0  0  0
  5 24  1  0  0  0  0
  6  7  1  0  0  0  0
  6 25  1  0  0  0  0
  6 26  1  0  0  0  0
  7  8  1  0  0  0  0
  7 27  1  0  0  0  0
  7 28  1  0  0  0  0
  8 14  1  0  0  0  0
  8  9  1  0  0  0  0
  9 10  1  0  0  0  0
  9 29  1  0  0  0  0
  9 30  1  0  0  0  0
 10 11  1  0  0  0  0
 10 31  1  0  0  0  0
 10 32  1  0  0  0  0
 11 12  1  0  0  0  0
 11 13  1  0  0  0  0
 11 42  1  0  0  0  0
 12 33  1  0  0  0  0
 12 34  1  0  0  0  0
 12 35  1  0  0  0  0
 13 14  1  0  0  0  0
 13 36  1  0  0  0  0
 13 37  1  0  0  0  0
 14 38  1  0  0  0  0
 14 39  1  0  0  0  0
 15 19  1  0  0  0  0
 15 16  1  0  0  0  0
 16 17  2  0  0  0  0
 16 40  1  0  0  0  0
 17 18  1  0  0  0  0
 18 19  2  0  0  0  0
 18 41  1  0  0  0  0
M  CHG  1  11   1
M  END
> <s_m_source_file>
AV-unprocessed.smi

> <i_m_source_file_index>
3343

> <i_lp_mmshare_version>
43012

> <i_f3d_flags>
0

> <s_epik_input>
bjFbY0hdbltjSF1uMVtDQEhdKFtDSDNdKUMoPU8pW05IXVtDSDJdW0NIMl1OMltDSDJdW0NIMl1OKFtDSDNdKVtDSDJdW0NIMl0y

> <s_epik_cmdline>
J2VwaWtfcHl0aG9uJywgJy1waCcsICc3LjAnLCAnLXRuJywgJzgnLCAnLW1hJywgJzIwMCcsICctbWV0YWxfYmluZGluZycsICctaW1hZScsICc8aW5maWxlLm1hZT4nLCAnLW9tYWUnLCAnPG91dGZpbGUubWFlPic=

> <r_lp_tautomer_probability>
1

> <r_epik_Ionization_Penalty>
0.0359277

> <r_epik_Ionization_Penalty_Charging>
0.0358005

> <r_epik_Ionization_Penalty_Neutral>
0.000127293

> <r_epik_State_Penalty>
0.0476325

> <r_epik_Charging_Adjusted_Penalty>
0.0834329

> <i_epik_Tot_Q>
1

> <i_epik_Tot_abs_Q>
1

> <r_epik_Metal_State_Penalty>
0.0476323

> <b_epik_Metal_Only>
0

> <s_lp_Force_Field>
OPLS_2005

> <r_lp_Energy>
27.0486

> <b_lp_Chiralities_Consistent>
1

> <s_lp_Variant>
AV-unprocessed.smi:3343-1

> <Gold.Version>
5.8.1

> <Gold.Id.Protein>
6NUR|6NUR_protein|mol2

> <Gold.PLP.Fitness>
44.1756

> <Gold.PLP.PLP>
-28.4091

> <Gold.PLP.part.hbond>
-4.0000

> <Gold.PLP.part.metal>
0.0000

> <Gold.PLP.part.buried>
-2.6873

> <Gold.PLP.part.nonpolar>
-22.2830

> <Gold.PLP.part.repulsive>
0.2763

> <Gold.PLP.ligand.clash>
0.0000

> <Gold.PLP.ligand.torsion>
0.5724

> <Gold.PLP.Chemscore.Hbond>
4.6360

> <Gold.PLP.Chemscore.CHOScore>
0.9621

> <Gold.PLP.Chemscore.Metal>
0.0000

> <Gold.Chemscore.Hbonds>
donor molecule, donor type, donor heavy atom, donor atom, acceptor molecule, acceptor atom, score
      L1  H     5    24       P1  7948  1.00
      L1  H    11    42       P1 10957  2.00
      P1  H  7989  7998       L1    19  0.90
      P1  H 10752 10765       L1    17  0.74
      L1  C    16    40       P1  7948  0.70
      L1  C    16    40       P1  7949  0.24

> <Gold.PLP.Chemscore.Internal.Correction>
0.1170

> <Gold.Rescore>
     Score         DG    S(hbond)    S(metal)    S(lipo)     H(rot)  DE(clash)    DE(int)     intcor
     13.29     -14.93       3.54        0.00      37.12       2.63       0.05       1.60       ----

> <Gold.Chemscore.Fitness>
13.2864

> <Gold.Chemscore.DG>
-14.9325

> <Gold.Chemscore.ZeroCoef>
-5.4800

> <Gold.Chemscore.Hbond>
3.5439

> <Gold.Chemscore.Metal>
0.0000

> <Gold.Chemscore.Lipo>
37.1192

> <Gold.Chemscore.Internal_Hbond>
0.0000

> <Gold.Chemscore.DEClash>
0.0507

> <Gold.Chemscore.DEInternal>
1.5955

> <Gold.Chemscore.Rot>
2.6278

> <Gold.Chemscore.Internal.Correction>
   9.000000E+99

> <Gold.Chemscore.Hbonds>
donor molecule, donor type, donor heavy atom, donor atom, acceptor molecule, acceptor atom, score
      L1  H     5    24       P1  7948  0.99
      L1  H    11    42       P1 10957  1.00
      P1  H  7989  7998       L1    19  0.17
      P1  H 10752 10765       L1    17  0.65

> <Gold.Chemscore.Hbond.Weighted>
-11.8367

> <Gold.Chemscore.Metal.Weighted>
-0.0000

> <Gold.Chemscore.Lipo.Weighted>
-4.3429

> <Gold.Chemscore.Internal_Hbond.Weighted>
0.0000

> <Gold.Chemscore.DEClash.Weighted>
0.0507

> <Gold.Chemscore.DEInternal.Weighted>
1.5955

> <Gold.Chemscore.Rot.Weighted>
6.7271

> <Gold.Chemscore.Internal.Correction.Weighted>
   9.000000E+99

> <Gold.Protein.RotatedTorsions>
[ 6907 6896 6895 6894 ] final  125.33 input  -60.11 | X-H torsion
[ 7974 7965 7964 7962 ] final   93.95 input  175.53 | X-H torsion
[ 8008 7997 7996 7995 ] final -111.95 input   59.86 | X-H torsion
[ 10167 10162 10161 10158 ] final  -30.14 input  -65.29 | X-H torsion
[ 10718 10713 10712 10709 ] final -102.57 input   66.30 | X-H torsion
[ 10763 10752 10751 10750 ] final  159.63 input  -60.55 | X-H torsion
[ 11005 11000 10999 10996 ] final -116.83 input  -57.11 | X-H torsion

> <Gold.Protein.ActiveResidues>
 VAL166  LYS551  ARG553  GLY616  TRP617  ASP618  TYR619  PRO620  LYS621  CYS622 
 ASP623  PHE694  ASN695  SER759  ASP760  ASP761  ALA762  ILE779  LEU786  VAL792 
 PHE793  MET794  SER795  GLU796  ALA797  LYS798  CYS799  TRP800  GLU811  SER814 

> <Gold.Protein.RotatedAtoms>
  152.4001  133.6805  159.6308 H   0  0  0  0  0  0  0  0  0  0  0  0  # atno 6907 bound_to 6896
  150.7893  133.8806  159.3293 H   0  0  0  0  0  0  0  0  0  0  0  0  # atno 6908 bound_to 6896
  151.6574  135.0995  160.0224 H   0  0  0  0  0  0  0  0  0  0  0  0  # atno 6909 bound_to 6896
  145.4721  139.2281  143.2929 H   0  0  0  0  0  0  0  0  0  0  0  0  # atno 7974 bound_to 7965
  154.9977  140.0394  157.2347 H   0  0  0  0  0  0  0  0  0  0  0  0  # atno 8008 bound_to 7997
  154.7571  140.2777  155.6221 H   0  0  0  0  0  0  0  0  0  0  0  0  # atno 8009 bound_to 7997
  156.2897  140.2635  156.2340 H   0  0  0  0  0  0  0  0  0  0  0  0  # atno 8010 bound_to 7997
  140.7253  143.3872  151.1494 H   0  0  0  0  0  0  0  0  0  0  0  0  # atno 10167 bound_to 10162
  156.0233  130.5426  150.7127 H   0  0  0  0  0  0  0  0  0  0  0  0  # atno 10718 bound_to 10713
  154.2347  135.2777  155.2876 H   0  0  0  0  0  0  0  0  0  0  0  0  # atno 10763 bound_to 10752
  154.5595  135.5651  153.6997 H   0  0  0  0  0  0  0  0  0  0  0  0  # atno 10764 bound_to 10752
  153.0012  135.6294  154.2490 H   0  0  0  0  0  0  0  0  0  0  0  0  # atno 10765 bound_to 10752
  141.0396  133.9856  157.3016 H   0  0  0  0  0  0  0  0  0  0  0  0  # atno 11005 bound_to 11000
  146.2390  140.5500  142.8942 LP  0  0  0  0  0  0  0  0  0  0  0  0  # atno 17320 bound_to 7965
  144.7939  140.6085  143.6523 LP  0  0  0  0  0  0  0  0  0  0  0  0  # atno 17321 bound_to 7965
  139.7471  143.8835  152.3066 LP  0  0  0  0  0  0  0  0  0  0  0  0  # atno 17342 bound_to 10162
  139.8676  144.7085  150.9025 LP  0  0  0  0  0  0  0  0  0  0  0  0  # atno 17343 bound_to 10162
  157.4761  131.0898  151.0588 LP  0  0  0  0  0  0  0  0  0  0  0  0  # atno 17370 bound_to 10713
  157.1035  130.5991  149.5465 LP  0  0  0  0  0  0  0  0  0  0  0  0  # atno 17371 bound_to 10713
  139.9266  135.0201  156.8255 LP  0  0  0  0  0  0  0  0  0  0  0  0  # atno 17394 bound_to 11000
  140.6259  133.9951  155.7639 LP  0  0  0  0  0  0  0  0  0  0  0  0  # atno 17395 bound_to 11000

$$$$
