AV-unprocessed.smi:1154|AV-procd|sdf|4900|dock5
  -GOLD-   22720 3473D 1   1.00000     0.00000
 Structure written by MMmdl.
 42 43  0  0  0  0  0  0  0  0  2 V2000
  152.1689  143.2283  161.4568 C   0  0  0  0  0  0  0  0  0  0  0  0
  153.1688  143.0759  160.2970 C   0  0  2  0  0  0  0  0  0  0  0  0
  152.5645  143.4478  158.9303 C   0  0  0  0  0  0  0  0  0  0  0  0
  151.5980  142.3634  158.4204 C   0  0  1  0  0  0  0  0  0  0  0  0
  151.0526  142.7110  157.0278 C   0  0  0  0  0  0  0  0  0  0  0  0
  152.2883  140.9858  158.4268 C   0  0  0  0  0  0  0  0  0  0  0  0
  152.8166  140.6495  159.7742 N   0  3  1  0  0  0  0  0  0  0  0  0
  153.3381  139.2610  159.8439 C   0  0  0  0  0  0  0  0  0  0  0  0
  152.2689  138.2170  159.4825 C   0  0  0  0  0  0  0  0  0  0  0  0
  152.2697  137.9599  158.0494 N   0  0  0  0  0  0  0  0  0  0  0  0
  151.5419  137.0033  157.4524 C   0  0  0  0  0  0  0  0  0  0  0  0
  150.8171  136.2251  158.0714 O   0  0  0  0  0  0  0  0  0  0  0  0
  151.6500  136.8984  155.9287 C   0  0  0  0  0  0  0  0  0  0  0  0
  151.1163  138.0768  155.2692 N   0  0  0  0  0  0  0  0  0  0  0  0
  150.1242  138.2135  154.3871 C   0  0  0  0  0  0  0  0  0  0  0  0
  149.9672  139.4756  154.0193 N   0  0  0  0  0  0  0  0  0  0  0  0
  150.9409  140.1391  154.7472 N   0  0  0  0  0  0  0  0  0  0  0  0
  151.6252  139.3146  155.4917 N   0  0  0  0  0  0  0  0  0  0  0  0
  153.7934  141.6674  160.2467 C   0  0  0  0  0  0  0  0  0  0  0  0
  151.3320  142.5356  161.3696 H   0  0  0  0  0  0  0  0  0  0  0  0
  151.7608  144.2389  161.4920 H   0  0  0  0  0  0  0  0  0  0  0  0
  152.6522  143.0389  162.4157 H   0  0  0  0  0  0  0  0  0  0  0  0
  153.9756  143.7827  160.4957 H   0  0  0  0  0  0  0  0  0  0  0  0
  152.0574  144.4116  158.9921 H   0  0  0  0  0  0  0  0  0  0  0  0
  153.3727  143.5762  158.2088 H   0  0  0  0  0  0  0  0  0  0  0  0
  150.7443  142.3173  159.0975 H   0  0  0  0  0  0  0  0  0  0  0  0
  151.8536  142.7709  156.2901 H   0  0  0  0  0  0  0  0  0  0  0  0
  150.5365  143.6715  157.0370 H   0  0  0  0  0  0  0  0  0  0  0  0
  150.3410  141.9593  156.6853 H   0  0  0  0  0  0  0  0  0  0  0  0
  151.5682  140.2264  158.1184 H   0  0  0  0  0  0  0  0  0  0  0  0
  153.1031  140.9630  157.7010 H   0  0  0  0  0  0  0  0  0  0  0  0
  154.1638  139.1513  159.1389 H   0  0  0  0  0  0  0  0  0  0  0  0
  153.7521  139.0697  160.8352 H   0  0  0  0  0  0  0  0  0  0  0  0
  152.4446  137.2737  159.9995 H   0  0  0  0  0  0  0  0  0  0  0  0
  151.2847  138.5754  159.7895 H   0  0  0  0  0  0  0  0  0  0  0  0
  152.8464  138.5545  157.4716 H   0  0  0  0  0  0  0  0  0  0  0  0
  152.6955  136.7744  155.6437 H   0  0  0  0  0  0  0  0  0  0  0  0
  151.1111  136.0195  155.5714 H   0  0  0  0  0  0  0  0  0  0  0  0
  149.5276  137.3950  154.0121 H   0  0  0  0  0  0  0  0  0  0  0  0
  154.6546  141.6704  159.5766 H   0  0  0  0  0  0  0  0  0  0  0  0
  154.1735  141.4092  161.2345 H   0  0  0  0  0  0  0  0  0  0  0  0
  152.0252  140.6874  160.4010 H   0  0  0  0  0  0  0  0  0  0  0  0
  1  2  1  0  0  0  0
  1 20  1  0  0  0  0
  1 21  1  0  0  0  0
  1 22  1  0  0  0  0
  2 19  1  0  0  0  0
  2  3  1  0  0  0  0
  2 23  1  0  0  0  0
  3  4  1  0  0  0  0
  3 24  1  0  0  0  0
  3 25  1  0  0  0  0
  4  5  1  0  0  0  0
  4  6  1  0  0  0  0
  4 26  1  0  0  0  0
  5 27  1  0  0  0  0
  5 28  1  0  0  0  0
  5 29  1  0  0  0  0
  6  7  1  0  0  0  0
  6 30  1  0  0  0  0
  6 31  1  0  0  0  0
  7  8  1  0  0  0  0
  7 19  1  0  0  0  0
  7 42  1  0  0  0  0
  8  9  1  0  0  0  0
  8 32  1  0  0  0  0
  8 33  1  0  0  0  0
  9 10  1  0  0  0  0
  9 34  1  0  0  0  0
  9 35  1  0  0  0  0
 10 11  1  0  0  0  0
 10 36  1  0  0  0  0
 11 12  2  0  0  0  0
 11 13  1  0  0  0  0
 13 14  1  0  0  0  0
 13 37  1  0  0  0  0
 13 38  1  0  0  0  0
 14 18  1  0  0  0  0
 14 15  1  0  0  0  0
 15 16  2  0  0  0  0
 15 39  1  0  0  0  0
 16 17  1  0  0  0  0
 17 18  2  0  0  0  0
 19 40  1  0  0  0  0
 19 41  1  0  0  0  0
M  CHG  1   7   1
M  END
> <s_m_source_file>
AV-unprocessed.smi

> <i_m_source_file_index>
1154

> <i_lp_mmshare_version>
43012

> <i_f3d_flags>
0

> <s_epik_input>
W0NIM11bQ0BASF0xW0NIMl1bQ0BASF0oW0NIM10pW0NIMl1OKFtDSDJdMSlbQ0gyXVtDSDJdW05IXUMoPU8pW0NIMl1uMltjSF1ubm4y

> <s_epik_cmdline>
J2VwaWtfcHl0aG9uJywgJy1waCcsICc3LjAnLCAnLXRuJywgJzgnLCAnLW1hJywgJzIwMCcsICctbWV0YWxfYmluZGluZycsICctaW1hZScsICc8aW5maWxlLm1hZT4nLCAnLW9tYWUnLCAnPG91dGZpbGUubWFlPic=

> <r_lp_tautomer_probability>
1

> <r_epik_Ionization_Penalty>
0.00217773

> <r_epik_Ionization_Penalty_Charging>
0.00217329

> <r_epik_Ionization_Penalty_Neutral>
4.43997e-06

> <r_epik_State_Penalty>
0.00149294

> <r_epik_Charging_Adjusted_Penalty>
0.00366623

> <i_epik_Tot_Q>
1

> <i_epik_Tot_abs_Q>
1

> <r_epik_Metal_State_Penalty>
-0

> <b_epik_Metal_Only>
0

> <s_lp_Force_Field>
OPLS_2005

> <r_lp_Energy>
22.5946

> <b_lp_Chiralities_Consistent>
1

> <s_lp_Variant>
AV-unprocessed.smi:1154-1

> <Gold.Version>
5.8.1

> <Gold.Id.Protein>
6NUR|6NUR_protein|mol2

> <Gold.PLP.Fitness>
41.7426

> <Gold.PLP.PLP>
-34.1235

> <Gold.PLP.part.hbond>
-2.1887

> <Gold.PLP.part.metal>
0.0000

> <Gold.PLP.part.buried>
-6.0838

> <Gold.PLP.part.nonpolar>
-27.3212

> <Gold.PLP.part.repulsive>
1.2805

> <Gold.PLP.ligand.clash>
0.0000

> <Gold.PLP.ligand.torsion>
0.2377

> <Gold.PLP.Chemscore.Hbond>
1.6880

> <Gold.PLP.Chemscore.CHOScore>
1.0000

> <Gold.PLP.Chemscore.Metal>
0.0000

> <Gold.Chemscore.Hbonds>
donor molecule, donor type, donor heavy atom, donor atom, acceptor molecule, acceptor atom, score
      P1  H  6896  6908       L1    12  0.55
      P1  H  7989  7998       L1    17  0.85
      L1  C    15    39       P1  7948  1.00

> <Gold.PLP.Chemscore.Internal.Correction>
0.0306

> <Gold.Rescore>
     Score         DG    S(hbond)    S(metal)    S(lipo)     H(rot)  DE(clash)    DE(int)     intcor
     15.45     -16.18       1.94        0.00      94.41       2.67       0.30       0.43       ----

> <Gold.Chemscore.Fitness>
15.4508

> <Gold.Chemscore.DG>
-16.1777

> <Gold.Chemscore.ZeroCoef>
-5.4800

> <Gold.Chemscore.Hbond>
1.9402

> <Gold.Chemscore.Metal>
0.0000

> <Gold.Chemscore.Lipo>
94.4094

> <Gold.Chemscore.Internal_Hbond>
0.0000

> <Gold.Chemscore.DEClash>
0.2990

> <Gold.Chemscore.DEInternal>
0.4279

> <Gold.Chemscore.Rot>
2.6674

> <Gold.Chemscore.Internal.Correction>
   9.000000E+99

> <Gold.Chemscore.Hbonds>
donor molecule, donor type, donor heavy atom, donor atom, acceptor molecule, acceptor atom, score
      P1  H  6896  6908       L1    12  0.53
      P1  H  7989  7998       L1    17  0.14

> <Gold.Chemscore.Hbond.Weighted>
-6.4804

> <Gold.Chemscore.Metal.Weighted>
-0.0000

> <Gold.Chemscore.Lipo.Weighted>
-11.0459

> <Gold.Chemscore.Internal_Hbond.Weighted>
0.0000

> <Gold.Chemscore.DEClash.Weighted>
0.2990

> <Gold.Chemscore.DEInternal.Weighted>
0.4279

> <Gold.Chemscore.Rot.Weighted>
6.8286

> <Gold.Chemscore.Internal.Correction.Weighted>
   9.000000E+99

> <Gold.Protein.RotatedTorsions>
[ 6907 6896 6895 6894 ] final -161.14 input  -60.11 | X-H torsion
[ 7974 7965 7964 7962 ] final -141.25 input  175.53 | X-H torsion
[ 8008 7997 7996 7995 ] final   54.99 input   59.86 | X-H torsion
[ 10167 10162 10161 10158 ] final   39.09 input  -65.29 | X-H torsion
[ 10718 10713 10712 10709 ] final   27.27 input   66.30 | X-H torsion
[ 10763 10752 10751 10750 ] final   77.64 input  -60.55 | X-H torsion
[ 11005 11000 10999 10996 ] final  114.37 input  -57.11 | X-H torsion

> <Gold.Protein.ActiveResidues>
 VAL166  LYS551  ARG553  GLY616  TRP617  ASP618  TYR619  PRO620  LYS621  CYS622 
 ASP623  PHE694  ASN695  SER759  ASP760  ASP761  ALA762  ILE779  LEU786  VAL792 
 PHE793  MET794  SER795  GLU796  ALA797  LYS798  CYS799  TRP800  GLU811  SER814 

> <Gold.Protein.RotatedAtoms>
  151.3601  133.3893  159.2688 H   0  0  0  0  0  0  0  0  0  0  0  0  # atno 6907 bound_to 6896
  150.9733  134.9103  159.7811 H   0  0  0  0  0  0  0  0  0  0  0  0  # atno 6908 bound_to 6896
  152.5192  134.3563  159.9321 H   0  0  0  0  0  0  0  0  0  0  0  0  # atno 6909 bound_to 6896
  144.8534  140.6103  143.5375 H   0  0  0  0  0  0  0  0  0  0  0  0  # atno 7974 bound_to 7965
  155.4938  140.3472  155.4359 H   0  0  0  0  0  0  0  0  0  0  0  0  # atno 8008 bound_to 7997
  156.0959  140.1423  156.9559 H   0  0  0  0  0  0  0  0  0  0  0  0  # atno 8009 bound_to 7997
  154.4663  140.0916  156.7007 H   0  0  0  0  0  0  0  0  0  0  0  0  # atno 8010 bound_to 7997
  140.3873  144.1900  150.6130 H   0  0  0  0  0  0  0  0  0  0  0  0  # atno 10167 bound_to 10162
  157.2180  130.6965  149.6257 H   0  0  0  0  0  0  0  0  0  0  0  0  # atno 10718 bound_to 10713
  153.0814  135.4906  154.8510 H   0  0  0  0  0  0  0  0  0  0  0  0  # atno 10763 bound_to 10752
  154.7155  135.3028  154.9132 H   0  0  0  0  0  0  0  0  0  0  0  0  # atno 10764 bound_to 10752
  153.9812  135.6789  153.4803 H   0  0  0  0  0  0  0  0  0  0  0  0  # atno 10765 bound_to 10752
  139.8979  134.9566  156.6882 H   0  0  0  0  0  0  0  0  0  0  0  0  # atno 11005 bound_to 11000
  145.4454  139.1530  143.3947 LP  0  0  0  0  0  0  0  0  0  0  0  0  # atno 17320 bound_to 7965
  146.2803  140.4578  142.8779 LP  0  0  0  0  0  0  0  0  0  0  0  0  # atno 17321 bound_to 7965
  140.4876  143.2358  151.8865 LP  0  0  0  0  0  0  0  0  0  0  0  0  # atno 17342 bound_to 10162
  139.4791  144.5201  151.8813 LP  0  0  0  0  0  0  0  0  0  0  0  0  # atno 17343 bound_to 10162
  155.9684  130.4529  150.5792 LP  0  0  0  0  0  0  0  0  0  0  0  0  # atno 17370 bound_to 10713
  157.3605  131.0749  151.1640 LP  0  0  0  0  0  0  0  0  0  0  0  0  # atno 17371 bound_to 10713
  140.7246  133.9111  155.8169 LP  0  0  0  0  0  0  0  0  0  0  0  0  # atno 17394 bound_to 11000
  141.0201  134.0901  157.4130 LP  0  0  0  0  0  0  0  0  0  0  0  0  # atno 17395 bound_to 11000

$$$$
