AV-unprocessed.smi:1290|AV-procd|sdf|5390|dock3
  -GOLD-   22720 4543D 1   1.00000     0.00000
 Structure written by MMmdl.
 38 40  0  0  0  0  0  0  0  0  1 V2000
  148.2405  136.3500  159.3246 C   0  0  0  0  0  0  0  0  0  0  0  0
  149.0611  136.4309  158.1015 N   0  0  0  0  0  0  0  0  0  0  0  0
  149.7194  137.6032  157.8376 C   0  0  0  0  0  0  0  0  0  0  0  0
  149.6806  138.6066  158.5508 O   0  0  0  0  0  0  0  0  0  0  0  0
  150.5012  137.5795  156.5957 C   0  0  0  0  0  0  0  0  0  0  0  0
  150.5643  136.4953  155.7838 C   0  0  0  0  0  0  0  0  0  0  0  0
  151.3655  136.7422  154.6741 N   0  0  0  0  0  0  0  0  0  0  0  0
  151.7530  138.0005  154.8831 C   0  0  0  0  0  0  0  0  0  0  0  0
  151.2813  138.5756  156.0075 N   0  0  0  0  0  0  0  0  0  0  0  0
  151.5554  139.9342  156.4524 C   0  0  0  0  0  0  0  0  0  0  0  0
  152.0916  139.9926  157.8977 C   0  0  1  0  0  0  0  0  0  0  0  0
  153.3928  139.4421  157.9654 O   0  0  0  0  0  0  0  0  0  0  0  0
  152.0450  141.4097  158.4467 C   0  0  0  0  0  0  0  0  0  0  0  0
  151.5473  142.4677  157.6543 C   0  0  0  0  0  0  0  0  0  0  0  0
  151.5018  143.7785  158.1673 C   0  0  0  0  0  0  0  0  0  0  0  0
  151.9524  144.0393  159.4760 C   0  0  0  0  0  0  0  0  0  0  0  0
  151.8975  145.6452  160.1049 Cl  0  0  0  0  0  0  0  0  0  0  0  0
  152.4466  142.9873  160.2715 C   0  0  0  0  0  0  0  0  0  0  0  0
  152.4917  141.6761  159.7588 C   0  0  0  0  0  0  0  0  0  0  0  0
  149.8440  135.3303  156.1545 N   0  0  0  0  0  0  0  0  0  0  0  0
  149.9023  134.1495  155.2883 C   0  0  0  0  0  0  0  0  0  0  0  0
  149.0924  135.3010  157.3024 C   0  0  0  0  0  0  0  0  0  0  0  0
  148.4601  134.2855  157.6074 O   0  0  0  0  0  0  0  0  0  0  0  0
  148.2822  137.2318  159.9649 H   0  0  0  0  0  0  0  0  0  0  0  0
  148.5558  135.5086  159.9440 H   0  0  0  0  0  0  0  0  0  0  0  0
  147.1914  136.2009  159.0650 H   0  0  0  0  0  0  0  0  0  0  0  0
  152.4004  138.5229  154.1940 H   0  0  0  0  0  0  0  0  0  0  0  0
  152.2438  140.4118  155.7567 H   0  0  0  0  0  0  0  0  0  0  0  0
  150.6264  140.5023  156.3853 H   0  0  0  0  0  0  0  0  0  0  0  0
  151.4599  139.3622  158.5251 H   0  0  0  0  0  0  0  0  0  0  0  0
  153.6440  139.3779  158.8741 H   0  0  0  0  0  0  0  0  0  0  0  0
  151.1973  142.2757  156.6505 H   0  0  0  0  0  0  0  0  0  0  0  0
  151.1205  144.5827  157.5552 H   0  0  0  0  0  0  0  0  0  0  0  0
  152.7915  143.1846  161.2759 H   0  0  0  0  0  0  0  0  0  0  0  0
  152.8710  140.8767  160.3782 H   0  0  0  0  0  0  0  0  0  0  0  0
  150.2632  133.2826  155.8438 H   0  0  0  0  0  0  0  0  0  0  0  0
  150.5671  134.2831  154.4351 H   0  0  0  0  0  0  0  0  0  0  0  0
  148.9115  133.9153  154.8969 H   0  0  0  0  0  0  0  0  0  0  0  0
  1  2  1  0  0  0  0
  1 24  1  0  0  0  0
  1 25  1  0  0  0  0
  1 26  1  0  0  0  0
  2 22  1  0  0  0  0
  2  3  1  0  0  0  0
  3  4  2  0  0  0  0
  3  5  1  0  0  0  0
  5  9  1  0  0  0  0
  5  6  2  0  0  0  0
  6  7  1  0  0  0  0
  6 20  1  0  0  0  0
  7  8  2  0  0  0  0
  8  9  1  0  0  0  0
  8 27  1  0  0  0  0
  9 10  1  0  0  0  0
 10 11  1  0  0  0  0
 10 28  1  0  0  0  0
 10 29  1  0  0  0  0
 11 12  1  0  0  0  0
 11 13  1  0  0  0  0
 11 30  1  0  0  0  0
 12 31  1  0  0  0  0
 13 19  1  0  0  0  0
 13 14  2  0  0  0  0
 14 15  1  0  0  0  0
 14 32  1  0  0  0  0
 15 16  2  0  0  0  0
 15 33  1  0  0  0  0
 16 17  1  0  0  0  0
 16 18  1  0  0  0  0
 18 19  2  0  0  0  0
 18 34  1  0  0  0  0
 19 35  1  0  0  0  0
 20 21  1  0  0  0  0
 20 22  1  0  0  0  0
 21 36  1  0  0  0  0
 21 37  1  0  0  0  0
 21 38  1  0  0  0  0
 22 23  2  0  0  0  0
M  END
> <s_m_source_file>
AV-unprocessed.smi

> <i_m_source_file_index>
1290

> <i_lp_mmshare_version>
43012

> <i_f3d_flags>
0

> <s_epik_input>
Tz1jMW4oW0NIM10pYyg9TyluKFtDSDNdKWMoYzEyKW5bY0hdbjJbQ0gyXVtDQEhdKFtPSF0pYzNbY0hdW2NIXWMoQ2wpW2NIXVtjSF0z

> <s_epik_cmdline>
J2VwaWtfcHl0aG9uJywgJy1waCcsICc3LjAnLCAnLXRuJywgJzgnLCAnLW1hJywgJzIwMCcsICctbWV0YWxfYmluZGluZycsICctaW1hZScsICc8aW5maWxlLm1hZT4nLCAnLW9tYWUnLCAnPG91dGZpbGUubWFlPic=

> <r_lp_tautomer_probability>
1

> <r_epik_Ionization_Penalty>
1.48293e-06

> <r_epik_Ionization_Penalty_Charging>
3.74189e-09

> <r_epik_Ionization_Penalty_Neutral>
1.47919e-06

> <r_epik_State_Penalty>
-0

> <r_epik_Charging_Adjusted_Penalty>
3.74189e-09

> <i_epik_Tot_Q>
0

> <i_epik_Tot_abs_Q>
0

> <r_epik_Metal_State_Penalty>
-0

> <b_epik_Metal_Only>
0

> <s_lp_Force_Field>
OPLS_2005

> <r_lp_Energy>
35.8921

> <b_lp_Chiralities_Consistent>
1

> <s_lp_Variant>
AV-unprocessed.smi:1290-2

> <Gold.Version>
5.8.1

> <Gold.Id.Protein>
6NUR|6NUR_protein|mol2

> <Gold.PLP.Fitness>
47.1816

> <Gold.PLP.PLP>
-41.4122

> <Gold.PLP.part.hbond>
-2.0000

> <Gold.PLP.part.metal>
0.0000

> <Gold.PLP.part.buried>
-6.5949

> <Gold.PLP.part.nonpolar>
-33.8977

> <Gold.PLP.part.repulsive>
0.1589

> <Gold.PLP.ligand.clash>
0.0000

> <Gold.PLP.ligand.torsion>
0.1316

> <Gold.PLP.Chemscore.Hbond>
2.0000

> <Gold.PLP.Chemscore.CHOScore>
0.0000

> <Gold.PLP.Chemscore.Metal>
0.0000

> <Gold.Chemscore.Hbonds>
donor molecule, donor type, donor heavy atom, donor atom, acceptor molecule, acceptor atom, score
      P1  H  7997  8010       L1    12  1.00
      P1  H 10752 10765       L1     7  1.00

> <Gold.PLP.Chemscore.Internal.Correction>
0.0326

> <Gold.Rescore>
     Score         DG    S(hbond)    S(metal)    S(lipo)     H(rot)  DE(clash)    DE(int)     intcor
     16.29     -17.76       1.89        0.00      97.92       2.15       0.01       1.46       ----

> <Gold.Chemscore.Fitness>
16.2919

> <Gold.Chemscore.DG>
-17.7580

> <Gold.Chemscore.ZeroCoef>
-5.4800

> <Gold.Chemscore.Hbond>
1.8919

> <Gold.Chemscore.Metal>
0.0000

> <Gold.Chemscore.Lipo>
97.9185

> <Gold.Chemscore.Internal_Hbond>
0.0000

> <Gold.Chemscore.DEClash>
0.0106

> <Gold.Chemscore.DEInternal>
1.4555

> <Gold.Chemscore.Rot>
2.1474

> <Gold.Chemscore.Internal.Correction>
   9.000000E+99

> <Gold.Chemscore.Hbonds>
donor molecule, donor type, donor heavy atom, donor atom, acceptor molecule, acceptor atom, score
      P1  H  7997  8010       L1    12  0.88
      P1  H 10752 10765       L1     7  0.64

> <Gold.Chemscore.Hbond.Weighted>
-6.3189

> <Gold.Chemscore.Metal.Weighted>
-0.0000

> <Gold.Chemscore.Lipo.Weighted>
-11.4565

> <Gold.Chemscore.Internal_Hbond.Weighted>
0.0000

> <Gold.Chemscore.DEClash.Weighted>
0.0106

> <Gold.Chemscore.DEInternal.Weighted>
1.4555

> <Gold.Chemscore.Rot.Weighted>
5.4974

> <Gold.Chemscore.Internal.Correction.Weighted>
   9.000000E+99

> <Gold.Protein.RotatedTorsions>
[ 6907 6896 6895 6894 ] final  157.70 input  -60.11 | X-H torsion
[ 7974 7965 7964 7962 ] final  138.08 input  175.53 | X-H torsion
[ 8008 7997 7996 7995 ] final   47.61 input   59.86 | X-H torsion
[ 10167 10162 10161 10158 ] final -171.22 input  -65.29 | X-H torsion
[ 10718 10713 10712 10709 ] final  131.71 input   66.30 | X-H torsion
[ 10763 10752 10751 10750 ] final  159.28 input  -60.55 | X-H torsion
[ 11005 11000 10999 10996 ] final  -46.41 input  -57.11 | X-H torsion

> <Gold.Protein.ActiveResidues>
 VAL166  LYS551  ARG553  GLY616  TRP617  ASP618  TYR619  PRO620  LYS621  CYS622 
 ASP623  PHE694  ASN695  SER759  ASP760  ASP761  ALA762  ILE779  LEU786  VAL792 
 PHE793  MET794  SER795  GLU796  ALA797  LYS798  CYS799  TRP800  GLU811  SER814 

> <Gold.Protein.RotatedAtoms>
  152.0113  133.3862  159.4220 H   0  0  0  0  0  0  0  0  0  0  0  0  # atno 6907 bound_to 6896
  150.6899  134.3728  159.5008 H   0  0  0  0  0  0  0  0  0  0  0  0  # atno 6908 bound_to 6896
  152.1489  134.9004  160.0600 H   0  0  0  0  0  0  0  0  0  0  0  0  # atno 6909 bound_to 6896
  144.9406  139.4935  143.5573 H   0  0  0  0  0  0  0  0  0  0  0  0  # atno 7974 bound_to 7965
  155.3719  140.3424  155.4243 H   0  0  0  0  0  0  0  0  0  0  0  0  # atno 8008 bound_to 7997
  156.1657  140.1615  156.8569 H   0  0  0  0  0  0  0  0  0  0  0  0  # atno 8009 bound_to 7997
  154.5183  140.0773  156.8106 H   0  0  0  0  0  0  0  0  0  0  0  0  # atno 8010 bound_to 7997
  139.5815  144.1412  152.1521 H   0  0  0  0  0  0  0  0  0  0  0  0  # atno 10167 bound_to 10162
  157.4942  131.1092  150.9516 H   0  0  0  0  0  0  0  0  0  0  0  0  # atno 10718 bound_to 10713
  154.2292  135.2779  155.2896 H   0  0  0  0  0  0  0  0  0  0  0  0  # atno 10763 bound_to 10752
  154.5638  135.5639  153.7035 H   0  0  0  0  0  0  0  0  0  0  0  0  # atno 10764 bound_to 10752
  153.0024  135.6304  154.2434 H   0  0  0  0  0  0  0  0  0  0  0  0  # atno 10765 bound_to 10752
  141.0577  133.6720  156.3150 H   0  0  0  0  0  0  0  0  0  0  0  0  # atno 11005 bound_to 11000
  146.3284  139.8423  142.8888 LP  0  0  0  0  0  0  0  0  0  0  0  0  # atno 17320 bound_to 7965
  145.2997  141.0190  143.3616 LP  0  0  0  0  0  0  0  0  0  0  0  0  # atno 17321 bound_to 7965
  140.0967  144.5575  150.7017 LP  0  0  0  0  0  0  0  0  0  0  0  0  # atno 17342 bound_to 10162
  140.7093  143.2492  151.4631 LP  0  0  0  0  0  0  0  0  0  0  0  0  # atno 17343 bound_to 10162
  157.0208  130.5673  149.5331 LP  0  0  0  0  0  0  0  0  0  0  0  0  # atno 17370 bound_to 10713
  156.0191  130.5285  150.8222 LP  0  0  0  0  0  0  0  0  0  0  0  0  # atno 17371 bound_to 10713
  140.5931  134.5630  157.5503 LP  0  0  0  0  0  0  0  0  0  0  0  0  # atno 17394 bound_to 11000
  139.9404  134.7797  156.0692 LP  0  0  0  0  0  0  0  0  0  0  0  0  # atno 17395 bound_to 11000

$$$$
