#       Name:                AV-unprocessed.smi:35
#       Creating user name   scv26
#       Creation time:       Thu Mar 26 16:00:53 2020


#       File generated by GOLD software.
#

@<TRIPOS>MOLECULE
AV-unprocessed.smi:35
    41    42     1
SMALL
NO_CHARGES


@<TRIPOS>ATOM
      1 ****        -2.4603   4.5056   0.7820 O.2            1 S1                 0.0000
      2 ****        -2.0354   3.3938   0.4756 C.2            1 S1                 0.0000
      3 ****        -2.9036   2.4196  -0.0263 N.am           1 S1                 0.0000
      4 ****        -2.5391   1.1261  -0.4065 C.2            1 S1                 0.0000
      5 ****        -3.3944   0.3426  -0.8164 O.2            1 S1                 0.0000
      6 ****        -1.1749   0.7781  -0.2833 N.am           1 S1                 0.0000
      7 ****        -0.7165  -0.6097  -0.6775 C.3            1 S1                 0.0000
      8 ****         0.5542  -0.5100  -1.2463 O.3            1 S1                 0.0000
      9 ****         1.3554  -1.5953  -0.7971 C.3            1 S1                 0.0000
     10 ****         2.8526  -1.3014  -0.9990 C.3            1 S1                 0.0000
     11 ****         3.6209  -2.4462  -0.6961 O.3            1 S1                 0.0000
     12 ****         0.8754  -1.8370   0.6415 C.3            1 S1                 0.0000
     13 ****         1.5102  -0.9523   1.5497 O.3            1 S1                 0.0000
     14 ****        -0.6252  -1.5796   0.5225 C.3            1 S1                 0.0000
     15 ****        -1.2177  -1.1267   1.7290 O.3            1 S1                 0.0000
     16 ****        -0.2774   1.7104   0.2195 C.2            1 S1                 0.0000
     17 ****        -0.6477   2.9585   0.5891 C.2            1 S1                 0.0000
     18 ****         0.7841   4.1359   1.2872 Br             1 S1                 0.0000
     19 ****        -3.8772   2.6718  -0.1167 H              1 S1                 0.0000
     20 ****        -1.3981  -0.9648  -1.4522 H              1 S1                 0.0000
     21 ****         1.0790  -2.4588  -1.4057 H              1 S1                 0.0000
     22 ****         3.0393  -1.0327  -2.0390 H              1 S1                 0.0000
     23 ****         3.1859  -0.4596  -0.3920 H              1 S1                 0.0000
     24 ****         4.5330  -2.2410  -0.8347 H              1 S1                 0.0000
     25 ****         1.0837  -2.8569   0.9665 H              1 S1                 0.0000
     26 ****         1.2822  -0.0667   1.3126 H              1 S1                 0.0000
     27 ****        -1.1208  -2.5043   0.2238 H              1 S1                 0.0000
     28 ****        -2.1286  -0.9380   1.5625 H              1 S1                 0.0000
     29 ****         0.7620   1.4386   0.3275 H              1 S1                 0.0000
     30 ****        -1.8353   5.1978   1.1428 LP             1 S1                 0.0000
     31 ****        -3.4311   4.7180   0.6705 LP             1 S1                 0.0000
     32 ****        -4.3497   0.6321  -0.8771 LP             1 S1                 0.0000
     33 ****        -3.1344  -0.5838  -1.0889 LP             1 S1                 0.0000
     34 ****         0.9767   0.3536  -0.9712 LP             1 S1                 0.0000
     35 ****         0.4776  -0.5411  -2.2429 LP             1 S1                 0.0000
     36 ****         3.3506  -3.2014  -1.2933 LP             1 S1                 0.0000
     37 ****         3.4752  -2.7073   0.2582 LP             1 S1                 0.0000
     38 ****         2.5018  -1.0707   1.4990 LP             1 S1                 0.0000
     39 ****         1.1988  -1.1434   2.4806 LP             1 S1                 0.0000
     40 ****        -0.7534  -0.2985   2.0429 LP             1 S1                 0.0000
     41 ****        -1.1426  -1.8367   2.4292 LP             1 S1                 0.0000
@<TRIPOS>BOND
    1    1    2 2     
    2    2   17 1     
    3    2    3 1     
    4    3   19 1     
    5    3    4 1     
    6    4    5 2     
    7    4    6 1     
    8    6    7 1     
    9    6   16 1     
   10    7   14 1     
   11    7    8 1     
   12    7   20 1     
   13    8    9 1     
   14    9   10 1     
   15    9   12 1     
   16    9   21 1     
   17   10   11 1     
   18   10   22 1     
   19   10   23 1     
   20   11   24 1     
   21   12   13 1     
   22   12   14 1     
   23   12   25 1     
   24   13   26 1     
   25   14   15 1     
   26   14   27 1     
   27   15   28 1     
   28   16   17 2     
   29   16   29 1     
   30   17   18 1     
   31    1   30 1     
   32    1   31 1     
   33    5   32 1     
   34    5   33 1     
   35    8   34 1     
   36    8   35 1     
   37   11   36 1     
   38   11   37 1     
   39   13   38 1     
   40   13   39 1     
   41   15   40 1     
   42   15   41 1     
@<TRIPOS>SUBSTRUCTURE
      1 S1             1
@<TRIPOS>SET
LONE_PAIRS      STATIC     ATOMS    <user>   **** ""
12 30 31 32 33 34 35 36 37 38 39 40 41
DONOR_HYDROGENS      STATIC     ATOMS    <user>   **** ""
4 19 24 26 28
ATOM$BLUE        STATIC     ATOMS    COLORGROUP SYSTEM
12 30 31 32 33 34 35 36 37 38 39 40 41
ATOM$RED        STATIC     ATOMS    COLORGROUP SYSTEM
4 19 24 26 28
