AV-unprocessed.smi:1782|AV-procd|sdf|7189|dock2
  -GOLD-   22720 8433D 1   1.00000     0.00000
 Structure written by MMmdl.
 42 44  0  0  0  0  0  0  0  0  2 V2000
  149.4495  140.3304  157.9674 O   0  0  0  0  0  0  0  0  0  0  0  0
  150.3663  140.5753  157.1823 C   0  0  0  0  0  0  0  0  0  0  0  0
  151.1279  141.9064  157.2546 C   0  0  0  0  0  0  0  0  0  0  0  0
  151.8946  142.0664  158.5023 N   0  0  0  0  0  0  0  0  0  0  0  0
  151.6544  143.2305  159.2540 C   0  0  0  0  0  0  0  0  0  0  0  0
  152.3002  143.4740  160.4022 C   0  0  0  0  0  0  0  0  0  0  0  0
  153.2632  142.5037  160.8628 C   0  0  0  0  0  0  0  0  0  0  0  0
  153.5184  141.3761  160.1596 C   0  0  0  0  0  0  0  0  0  0  0  0
  154.5357  140.3398  160.6317 C   0  0  0  0  0  0  0  0  0  0  0  0
  154.0272  139.1101  160.5431 F   0  0  0  0  0  0  0  0  0  0  0  0
  155.6377  140.3899  159.8824 F   0  0  0  0  0  0  0  0  0  0  0  0
  154.8958  140.5415  161.9001 F   0  0  0  0  0  0  0  0  0  0  0  0
  152.8024  141.1186  158.8933 C   0  0  0  0  0  0  0  0  0  0  0  0
  153.0026  140.1092  158.2151 O   0  0  0  0  0  0  0  0  0  0  0  0
  150.7713  139.7132  156.2383 N   0  0  0  0  0  0  0  0  0  0  0  0
  150.1730  138.4050  155.9982 C   0  0  1  0  0  0  0  0  0  0  0  0
  148.6772  138.4359  155.6974 C   0  0  0  0  0  0  0  0  0  0  0  0
  148.4511  137.0932  154.9939 C   0  0  0  0  0  0  0  0  0  0  0  0
  149.7333  136.7323  154.3387 N   0  3  2  0  0  0  0  0  0  0  0  0
  150.1565  135.3382  154.5953 C   0  0  0  0  0  0  0  0  0  0  0  0
  149.0133  134.3516  154.6006 C   0  0  0  0  0  0  0  0  0  0  0  0
  149.6482  134.7840  155.9046 C   0  0  0  0  0  0  0  0  0  0  0  0
  150.7385  137.7396  154.7440 C   0  0  0  0  0  0  0  0  0  0  0  0
  151.7864  141.9660  156.3868 H   0  0  0  0  0  0  0  0  0  0  0  0
  150.4289  142.7371  157.1387 H   0  0  0  0  0  0  0  0  0  0  0  0
  150.9242  143.9087  158.8371 H   0  0  0  0  0  0  0  0  0  0  0  0
  152.1080  144.3749  160.9663 H   0  0  0  0  0  0  0  0  0  0  0  0
  153.7829  142.6979  161.7892 H   0  0  0  0  0  0  0  0  0  0  0  0
  151.5360  139.9895  155.6389 H   0  0  0  0  0  0  0  0  0  0  0  0
  150.3576  137.7550  156.8560 H   0  0  0  0  0  0  0  0  0  0  0  0
  148.0637  138.5524  156.5914 H   0  0  0  0  0  0  0  0  0  0  0  0
  148.4436  139.2571  155.0177 H   0  0  0  0  0  0  0  0  0  0  0  0
  148.1802  136.3377  155.7338 H   0  0  0  0  0  0  0  0  0  0  0  0
  147.6409  137.1439  154.2661 H   0  0  0  0  0  0  0  0  0  0  0  0
  151.1346  135.0489  154.2140 H   0  0  0  0  0  0  0  0  0  0  0  0
  148.0130  134.7210  154.3816 H   0  0  0  0  0  0  0  0  0  0  0  0
  149.2208  133.3402  154.2568 H   0  0  0  0  0  0  0  0  0  0  0  0
  150.2735  134.0571  156.4191 H   0  0  0  0  0  0  0  0  0  0  0  0
  149.0684  135.4393  156.5522 H   0  0  0  0  0  0  0  0  0  0  0  0
  150.8275  138.4658  153.9346 H   0  0  0  0  0  0  0  0  0  0  0  0
  151.7279  137.3101  154.9094 H   0  0  0  0  0  0  0  0  0  0  0  0
  149.6078  136.8255  153.3409 H   0  0  0  0  0  0  0  0  0  0  0  0
  1  2  2  0  0  0  0
  2  3  1  0  0  0  0
  2 15  1  0  0  0  0
  3  4  1  0  0  0  0
  3 24  1  0  0  0  0
  3 25  1  0  0  0  0
  4 13  1  0  0  0  0
  4  5  1  0  0  0  0
  5  6  2  0  0  0  0
  5 26  1  0  0  0  0
  6  7  1  0  0  0  0
  6 27  1  0  0  0  0
  7  8  2  0  0  0  0
  7 28  1  0  0  0  0
  8  9  1  0  0  0  0
  8 13  1  0  0  0  0
  9 10  1  0  0  0  0
  9 11  1  0  0  0  0
  9 12  1  0  0  0  0
 13 14  2  0  0  0  0
 15 16  1  0  0  0  0
 15 29  1  0  0  0  0
 16 23  1  0  0  0  0
 16 17  1  0  0  0  0
 16 30  1  0  0  0  0
 17 18  1  0  0  0  0
 17 31  1  0  0  0  0
 17 32  1  0  0  0  0
 18 19  1  0  0  0  0
 18 33  1  0  0  0  0
 18 34  1  0  0  0  0
 19 20  1  0  0  0  0
 19 23  1  0  0  0  0
 19 42  1  0  0  0  0
 20 22  1  0  0  0  0
 20 21  1  0  0  0  0
 20 35  1  0  0  0  0
 21 22  1  0  0  0  0
 21 36  1  0  0  0  0
 21 37  1  0  0  0  0
 22 38  1  0  0  0  0
 22 39  1  0  0  0  0
 23 40  1  0  0  0  0
 23 41  1  0  0  0  0
M  CHG  1  19   1
M  END
> <s_m_source_file>
AV-unprocessed.smi

> <i_m_source_file_index>
1782

> <i_lp_mmshare_version>
43012

> <i_f3d_flags>
0

> <s_epik_input>
W0NIMl0xW0NIMl1bQ0hdMU4oW0NIMl0yKVtDSDJdW0NIMl1bQ0BIXTJbTkhdQyg9TylbQ0gyXW4zW2NIXVtjSF1bY0hdYyhDKEYpKEYpRiljMz1P

> <s_epik_cmdline>
J2VwaWtfcHl0aG9uJywgJy1waCcsICc3LjAnLCAnLXRuJywgJzgnLCAnLW1hJywgJzIwMCcsICctbWV0YWxfYmluZGluZycsICctaW1hZScsICc8aW5maWxlLm1hZT4nLCAnLW9tYWUnLCAnPG91dGZpbGUubWFlPic=

> <r_lp_tautomer_probability>
1

> <r_epik_Ionization_Penalty>
0.00106789

> <r_epik_Ionization_Penalty_Charging>
0.00106781

> <r_epik_Ionization_Penalty_Neutral>
8.2288e-08

> <r_epik_State_Penalty>
0.000699156

> <r_epik_Charging_Adjusted_Penalty>
0.00176697

> <i_epik_Tot_Q>
1

> <i_epik_Tot_abs_Q>
1

> <r_epik_Metal_State_Penalty>
-0

> <b_epik_Metal_Only>
0

> <s_lp_Force_Field>
OPLS_2005

> <r_lp_Energy>
46.9995

> <b_lp_Chiralities_Consistent>
1

> <s_lp_Variant>
AV-unprocessed.smi:1782-2

> <Gold.Version>
5.8.1

> <Gold.Id.Protein>
6NUR|6NUR_protein|mol2

> <Gold.PLP.Fitness>
49.2267

> <Gold.PLP.PLP>
-41.0381

> <Gold.PLP.part.hbond>
-2.4308

> <Gold.PLP.part.metal>
0.0000

> <Gold.PLP.part.buried>
-3.1213

> <Gold.PLP.part.nonpolar>
-34.8043

> <Gold.PLP.part.repulsive>
0.1218

> <Gold.PLP.ligand.clash>
0.0000

> <Gold.PLP.ligand.torsion>
1.1888

> <Gold.PLP.Chemscore.Hbond>
2.9760

> <Gold.PLP.Chemscore.CHOScore>
0.0000

> <Gold.PLP.Chemscore.Metal>
0.0000

> <Gold.Chemscore.Hbonds>
donor molecule, donor type, donor heavy atom, donor atom, acceptor molecule, acceptor atom, score
      L1  H    19    42       P1  7948  2.00
      P1  H  7997  8010       L1    14  0.93

> <Gold.PLP.Chemscore.Internal.Correction>
1.6382

> <Gold.Rescore>
     Score         DG    S(hbond)    S(metal)    S(lipo)     H(rot)  DE(clash)    DE(int)     intcor
     12.86     -16.67       1.84        0.00      82.65       1.81       0.03       3.77       ----

> <Gold.Chemscore.Fitness>
12.8636

> <Gold.Chemscore.DG>
-16.6673

> <Gold.Chemscore.ZeroCoef>
-5.4800

> <Gold.Chemscore.Hbond>
1.8416

> <Gold.Chemscore.Metal>
0.0000

> <Gold.Chemscore.Lipo>
82.6490

> <Gold.Chemscore.Internal_Hbond>
0.0000

> <Gold.Chemscore.DEClash>
0.0302

> <Gold.Chemscore.DEInternal>
3.7735

> <Gold.Chemscore.Rot>
1.8101

> <Gold.Chemscore.Internal.Correction>
   9.000000E+99

> <Gold.Chemscore.Hbonds>
donor molecule, donor type, donor heavy atom, donor atom, acceptor molecule, acceptor atom, score
      L1  H    19    42       P1  7948  0.62
      P1  H  7997  8010       L1    14  0.82

> <Gold.Chemscore.Hbond.Weighted>
-6.1511

> <Gold.Chemscore.Metal.Weighted>
-0.0000

> <Gold.Chemscore.Lipo.Weighted>
-9.6699

> <Gold.Chemscore.Internal_Hbond.Weighted>
0.0000

> <Gold.Chemscore.DEClash.Weighted>
0.0302

> <Gold.Chemscore.DEInternal.Weighted>
3.7735

> <Gold.Chemscore.Rot.Weighted>
4.6338

> <Gold.Chemscore.Internal.Correction.Weighted>
   9.000000E+99

> <Gold.Protein.RotatedTorsions>
[ 6907 6896 6895 6894 ] final -136.31 input  -60.11 | X-H torsion
[ 7974 7965 7964 7962 ] final   84.22 input  175.53 | X-H torsion
[ 8008 7997 7996 7995 ] final   26.17 input   59.86 | X-H torsion
[ 10167 10162 10161 10158 ] final  117.54 input  -65.29 | X-H torsion
[ 10718 10713 10712 10709 ] final   90.03 input   66.30 | X-H torsion
[ 10763 10752 10751 10750 ] final -166.64 input  -60.55 | X-H torsion
[ 11005 11000 10999 10996 ] final -163.60 input  -57.11 | X-H torsion

> <Gold.Protein.ActiveResidues>
 VAL166  LYS551  ARG553  GLY616  TRP617  ASP618  TYR619  PRO620  LYS621  CYS622 
 ASP623  PHE694  ASN695  SER759  ASP760  ASP761  ALA762  ILE779  LEU786  VAL792 
 PHE793  MET794  SER795  GLU796  ALA797  LYS798  CYS799  TRP800  GLU811  SER814 

> <Gold.Protein.RotatedAtoms>
  151.0085  133.5988  159.2685 H   0  0  0  0  0  0  0  0  0  0  0  0  # atno 6907 bound_to 6896
  151.3149  135.0803  159.9295 H   0  0  0  0  0  0  0  0  0  0  0  0  # atno 6908 bound_to 6896
  152.5293  133.9742  159.7830 H   0  0  0  0  0  0  0  0  0  0  0  0  # atno 6909 bound_to 6896
  145.6016  139.2353  143.2242 H   0  0  0  0  0  0  0  0  0  0  0  0  # atno 7974 bound_to 7965
  155.0232  140.3150  155.4786 H   0  0  0  0  0  0  0  0  0  0  0  0  # atno 8008 bound_to 7997
  156.2888  140.2193  156.5293 H   0  0  0  0  0  0  0  0  0  0  0  0  # atno 8009 bound_to 7997
  154.7434  140.0472  157.0819 H   0  0  0  0  0  0  0  0  0  0  0  0  # atno 8010 bound_to 7997
  139.6172  144.7094  151.2713 H   0  0  0  0  0  0  0  0  0  0  0  0  # atno 10167 bound_to 10162
  157.6958  131.0355  150.3516 H   0  0  0  0  0  0  0  0  0  0  0  0  # atno 10718 bound_to 10713
  154.6812  135.2955  154.9610 H   0  0  0  0  0  0  0  0  0  0  0  0  # atno 10763 bound_to 10752
  154.0604  135.6632  153.4815 H   0  0  0  0  0  0  0  0  0  0  0  0  # atno 10764 bound_to 10752
  153.0549  135.5151  154.7857 H   0  0  0  0  0  0  0  0  0  0  0  0  # atno 10765 bound_to 10752
  140.5963  134.4993  157.5199 H   0  0  0  0  0  0  0  0  0  0  0  0  # atno 11005 bound_to 11000
  146.1572  140.6841  142.9294 LP  0  0  0  0  0  0  0  0  0  0  0  0  # atno 17320 bound_to 7965
  144.7307  140.4663  143.6940 LP  0  0  0  0  0  0  0  0  0  0  0  0  # atno 17321 bound_to 7965
  140.7358  143.6724  150.8070 LP  0  0  0  0  0  0  0  0  0  0  0  0  # atno 17342 bound_to 10162
  140.0329  143.5425  152.2752 LP  0  0  0  0  0  0  0  0  0  0  0  0  # atno 17343 bound_to 10162
  156.3964  130.3907  149.6992 LP  0  0  0  0  0  0  0  0  0  0  0  0  # atno 17370 bound_to 10713
  156.4324  130.7822  151.2842 LP  0  0  0  0  0  0  0  0  0  0  0  0  # atno 17371 bound_to 10713
  139.9252  134.8070  156.1091 LP  0  0  0  0  0  0  0  0  0  0  0  0  # atno 17394 bound_to 11000
  141.0902  133.6717  156.2523 LP  0  0  0  0  0  0  0  0  0  0  0  0  # atno 17395 bound_to 11000

$$$$
