AV-unprocessed.smi:517|AV-procd|sdf|2788|dock8
  -GOLD-   2262023263D 1   1.00000     0.00000
 Structure written by MMmdl.
 35 36  0  0  0  0  0  0  0  0  1 V2000
  147.5987  140.4709  154.1204 C   0  0  0  0  0  0  0  0  0  0  0  0
  148.8721  141.3003  154.2998 C   0  0  0  0  0  0  0  0  0  0  0  0
  149.9141  140.4411  154.7265 O   0  0  0  0  0  0  0  0  0  0  0  0
  150.2028  140.5615  156.1097 C   0  0  0  0  0  0  0  0  0  0  0  0
  151.2739  141.6426  156.3137 C   0  0  0  0  0  0  0  0  0  0  0  0
  151.6542  141.7798  157.7129 N   0  0  0  0  0  0  0  0  0  0  0  0
  151.9755  140.8029  158.5999 C   0  0  0  0  0  0  0  0  0  0  0  0
  151.9660  139.3454  158.2268 C   0  0  2  0  0  0  0  0  0  0  0  0
  152.3273  138.4489  159.4188 C   0  0  0  0  0  0  0  0  0  0  0  0
  152.8596  139.0539  157.1711 O   0  0  0  0  0  0  0  0  0  0  0  0
  152.2677  141.2199  159.8343 N   0  0  0  0  0  0  0  0  0  0  0  0
  152.1471  142.5913  159.7324 C   0  0  0  0  0  0  0  0  0  0  0  0
  152.3388  143.6045  160.6988 C   0  0  0  0  0  0  0  0  0  0  0  0
  152.1591  144.9607  160.3564 C   0  0  0  0  0  0  0  0  0  0  0  0
  151.7843  145.3223  159.0463 C   0  0  0  0  0  0  0  0  0  0  0  0
  151.5843  144.3279  158.0695 C   0  0  0  0  0  0  0  0  0  0  0  0
  151.7661  142.9756  158.4162 C   0  0  0  0  0  0  0  0  0  0  0  0
  146.7660  141.0978  153.8017 H   0  0  0  0  0  0  0  0  0  0  0  0
  147.3146  139.9844  155.0538 H   0  0  0  0  0  0  0  0  0  0  0  0
  147.7409  139.6946  153.3683 H   0  0  0  0  0  0  0  0  0  0  0  0
  149.1399  141.7812  153.3579 H   0  0  0  0  0  0  0  0  0  0  0  0
  148.7058  142.0855  155.0387 H   0  0  0  0  0  0  0  0  0  0  0  0
  149.2975  140.8301  156.6559 H   0  0  0  0  0  0  0  0  0  0  0  0
  150.5511  139.6059  156.5044 H   0  0  0  0  0  0  0  0  0  0  0  0
  152.1647  141.3946  155.7357 H   0  0  0  0  0  0  0  0  0  0  0  0
  150.9282  142.6038  155.9341 H   0  0  0  0  0  0  0  0  0  0  0  0
  150.9757  139.0736  157.8633 H   0  0  0  0  0  0  0  0  0  0  0  0
  151.6322  138.5971  160.2456 H   0  0  0  0  0  0  0  0  0  0  0  0
  153.3310  138.6642  159.7874 H   0  0  0  0  0  0  0  0  0  0  0  0
  152.2918  137.3943  159.1442 H   0  0  0  0  0  0  0  0  0  0  0  0
  152.6220  138.2173  156.8013 H   0  0  0  0  0  0  0  0  0  0  0  0
  152.6262  143.3375  161.7049 H   0  0  0  0  0  0  0  0  0  0  0  0
  152.3105  145.7272  161.1021 H   0  0  0  0  0  0  0  0  0  0  0  0
  151.6509  146.3633  158.7911 H   0  0  0  0  0  0  0  0  0  0  0  0
  151.3002  144.6016  157.0643 H   0  0  0  0  0  0  0  0  0  0  0  0
  1  2  1  0  0  0  0
  1 18  1  0  0  0  0
  1 19  1  0  0  0  0
  1 20  1  0  0  0  0
  2  3  1  0  0  0  0
  2 21  1  0  0  0  0
  2 22  1  0  0  0  0
  3  4  1  0  0  0  0
  4  5  1  0  0  0  0
  4 23  1  0  0  0  0
  4 24  1  0  0  0  0
  5  6  1  0  0  0  0
  5 25  1  0  0  0  0
  5 26  1  0  0  0  0
  6 17  1  0  0  0  0
  6  7  1  0  0  0  0
  7  8  1  0  0  0  0
  7 11  2  0  0  0  0
  8  9  1  0  0  0  0
  8 10  1  0  0  0  0
  8 27  1  0  0  0  0
  9 28  1  0  0  0  0
  9 29  1  0  0  0  0
  9 30  1  0  0  0  0
 10 31  1  0  0  0  0
 11 12  1  0  0  0  0
 12 17  2  0  0  0  0
 12 13  1  0  0  0  0
 13 14  2  0  0  0  0
 13 32  1  0  0  0  0
 14 15  1  0  0  0  0
 14 33  1  0  0  0  0
 15 16  2  0  0  0  0
 15 34  1  0  0  0  0
 16 17  1  0  0  0  0
 16 35  1  0  0  0  0
M  END
> <s_m_source_file>
AV-unprocessed.smi

> <i_m_source_file_index>
517

> <i_lp_mmshare_version>
43012

> <i_f3d_flags>
0

> <s_epik_input>
W0NIM11bQ0gyXU9bQ0gyXVtDSDJdbihjKG4xKVtDQEhdKFtDSDNdKVtPSF0pYyhjMTIpW2NIXVtjSF1bY0hdW2NIXTI=

> <s_epik_cmdline>
J2VwaWtfcHl0aG9uJywgJy1waCcsICc3LjAnLCAnLXRuJywgJzgnLCAnLW1hJywgJzIwMCcsICctbWV0YWxfYmluZGluZycsICctaW1hZScsICc8aW5maWxlLm1hZT4nLCAnLW9tYWUnLCAnPG91dGZpbGUubWFlPic=

> <r_epik_Ionization_Penalty>
0.0517997

> <r_epik_Ionization_Penalty_Charging>
0

> <r_epik_Ionization_Penalty_Neutral>
0.0517997

> <r_epik_State_Penalty>
0.0443961

> <r_epik_Charging_Adjusted_Penalty>
0.0443961

> <i_epik_Tot_Q>
0

> <i_epik_Tot_abs_Q>
0

> <r_epik_Metal_State_Penalty>
4.60999e-05

> <b_epik_Metal_Only>
0

> <s_lp_Force_Field>
OPLS_2005

> <r_lp_Energy>
5.78947

> <b_lp_Chiralities_Consistent>
1

> <s_lp_Variant>
AV-unprocessed.smi:517-1

> <Gold.Version>
5.8.1

> <Gold.Id.Protein>
6NUR|6NUR_protein|mol2

> <Gold.PLP.Fitness>
43.8937

> <Gold.PLP.PLP>
-39.4947

> <Gold.PLP.part.hbond>
-2.0000

> <Gold.PLP.part.metal>
0.0000

> <Gold.PLP.part.buried>
-5.3036

> <Gold.PLP.part.nonpolar>
-31.6817

> <Gold.PLP.part.repulsive>
0.1059

> <Gold.PLP.ligand.clash>
0.0000

> <Gold.PLP.ligand.torsion>
0.6347

> <Gold.PLP.Chemscore.Hbond>
1.8800

> <Gold.PLP.Chemscore.CHOScore>
0.0000

> <Gold.PLP.Chemscore.Metal>
0.0000

> <Gold.Chemscore.Hbonds>
donor molecule, donor type, donor heavy atom, donor atom, acceptor molecule, acceptor atom, score
      P1  H  7989  7998       L1     3  0.65
      P1  H  7997  8009       L1    10  1.00

> <Gold.PLP.Chemscore.Internal.Correction>
0.0283

> <Gold.Rescore>
     Score         DG    S(hbond)    S(metal)    S(lipo)     H(rot)  DE(clash)    DE(int)     intcor
     17.32     -18.03       1.60        0.00     107.62       2.11       0.07       0.64       ----

> <Gold.Chemscore.Fitness>
17.3160

> <Gold.Chemscore.DG>
-18.0258

> <Gold.Chemscore.ZeroCoef>
-5.4800

> <Gold.Chemscore.Hbond>
1.5999

> <Gold.Chemscore.Metal>
0.0000

> <Gold.Chemscore.Lipo>
107.6214

> <Gold.Chemscore.Internal_Hbond>
0.0000

> <Gold.Chemscore.DEClash>
0.0740

> <Gold.Chemscore.DEInternal>
0.6357

> <Gold.Chemscore.Rot>
2.1052

> <Gold.Chemscore.Internal.Correction>
   9.000000E+99

> <Gold.Chemscore.Hbonds>
donor molecule, donor type, donor heavy atom, donor atom, acceptor molecule, acceptor atom, score
      P1  H  7989  7998       L1     3  0.30
      P1  H  7997  8009       L1    10  0.98

> <Gold.Chemscore.Hbond.Weighted>
-5.3435

> <Gold.Chemscore.Metal.Weighted>
-0.0000

> <Gold.Chemscore.Lipo.Weighted>
-12.5917

> <Gold.Chemscore.Internal_Hbond.Weighted>
0.0000

> <Gold.Chemscore.DEClash.Weighted>
0.0740

> <Gold.Chemscore.DEInternal.Weighted>
0.6357

> <Gold.Chemscore.Rot.Weighted>
5.3894

> <Gold.Chemscore.Internal.Correction.Weighted>
   9.000000E+99

> <Gold.Protein.RotatedTorsions>
[ 6907 6896 6895 6894 ] final  -53.34 input  -60.11 | X-H torsion
[ 7974 7965 7964 7962 ] final  -39.13 input  175.53 | X-H torsion
[ 8008 7997 7996 7995 ] final  162.13 input   59.86 | X-H torsion
[ 10167 10162 10161 10158 ] final  138.65 input  -65.29 | X-H torsion
[ 10718 10713 10712 10709 ] final  133.16 input   66.30 | X-H torsion
[ 10763 10752 10751 10750 ] final -135.11 input  -60.55 | X-H torsion
[ 11005 11000 10999 10996 ] final   99.71 input  -57.11 | X-H torsion

> <Gold.Protein.ActiveResidues>
 VAL166  LYS551  ARG553  GLY616  TRP617  ASP618  TYR619  PRO620  LYS621  CYS622 
 ASP623  PHE694  ASN695  SER759  ASP760  ASP761  ALA762  ILE779  LEU786  VAL792 
 PHE793  MET794  SER795  GLU796  ALA797  LYS798  CYS799  TRP800  GLU811  SER814 

> <Gold.Protein.RotatedAtoms>
  150.8436  134.7736  159.6951 H   0  0  0  0  0  0  0  0  0  0  0  0  # atno 6907 bound_to 6896
  152.4518  134.5375  159.9839 H   0  0  0  0  0  0  0  0  0  0  0  0  # atno 6908 bound_to 6896
  151.5510  133.3379  159.2989 H   0  0  0  0  0  0  0  0  0  0  0  0  # atno 6909 bound_to 6896
  146.0424  140.6590  142.9080 H   0  0  0  0  0  0  0  0  0  0  0  0  # atno 7974 bound_to 7965
  156.2053  140.1758  156.7812 H   0  0  0  0  0  0  0  0  0  0  0  0  # atno 8008 bound_to 7997
  154.5647  140.0693  156.8903 H   0  0  0  0  0  0  0  0  0  0  0  0  # atno 8009 bound_to 7997
  155.2783  140.3347  155.4262 H   0  0  0  0  0  0  0  0  0  0  0  0  # atno 8010 bound_to 7997
  139.5104  144.6341  151.5742 H   0  0  0  0  0  0  0  0  0  0  0  0  # atno 10167 bound_to 10162
  157.4800  131.1085  150.9693 H   0  0  0  0  0  0  0  0  0  0  0  0  # atno 10718 bound_to 10713
  154.8708  135.3713  154.4845 H   0  0  0  0  0  0  0  0  0  0  0  0  # atno 10763 bound_to 10752
  153.5496  135.7025  153.5602 H   0  0  0  0  0  0  0  0  0  0  0  0  # atno 10764 bound_to 10752
  153.3727  135.4017  155.1764 H   0  0  0  0  0  0  0  0  0  0  0  0  # atno 10765 bound_to 10752
  139.8770  134.9108  156.4646 H   0  0  0  0  0  0  0  0  0  0  0  0  # atno 11005 bound_to 11000
  144.7081  140.3933  143.7102 LP  0  0  0  0  0  0  0  0  0  0  0  0  # atno 17320 bound_to 7965
  145.6861  139.1629  143.2673 LP  0  0  0  0  0  0  0  0  0  0  0  0  # atno 17321 bound_to 7965
  140.6084  143.9482  150.6435 LP  0  0  0  0  0  0  0  0  0  0  0  0  # atno 17342 bound_to 10162
  140.2716  143.3452  152.1232 LP  0  0  0  0  0  0  0  0  0  0  0  0  # atno 17343 bound_to 10162
  157.0429  130.5756  149.5359 LP  0  0  0  0  0  0  0  0  0  0  0  0  # atno 17370 bound_to 10713
  156.0117  130.5209  150.8008 LP  0  0  0  0  0  0  0  0  0  0  0  0  # atno 17371 bound_to 10713
  140.8839  133.7897  155.9497 LP  0  0  0  0  0  0  0  0  0  0  0  0  # atno 17394 bound_to 11000
  140.8825  134.2594  157.5137 LP  0  0  0  0  0  0  0  0  0  0  0  0  # atno 17395 bound_to 11000

$$$$
