AV-unprocessed.smi:237|AV-procd|sdf|1817|dock10
  -GOLD-   2262020413D 1   1.00000     0.00000
 Structure written by MMmdl.
 53 56  0  0  0  0  0  0  0  0  1 V2000
  147.4476  140.3079  153.5761 C   0  0  0  0  0  0  0  0  0  0  0  0
  147.7576  141.6889  154.1585 C   0  0  0  0  0  0  0  0  0  0  0  0
  148.3598  141.5189  155.4330 O   0  0  0  0  0  0  0  0  0  0  0  0
  149.7697  141.3300  155.4016 C   0  0  0  0  0  0  0  0  0  0  0  0
  150.4051  141.1495  156.8062 C   0  0  2  0  0  0  0  0  0  0  0  0
  150.3874  142.5071  157.5437 C   0  0  0  0  0  0  0  0  0  0  0  0
  151.0625  142.4225  158.9195 C   0  0  0  0  0  0  0  0  0  0  0  0
  152.4887  141.8826  158.7666 C   0  0  0  0  0  0  0  0  0  0  0  0
  152.4708  140.5318  158.0386 C   0  0  0  0  0  0  0  0  0  0  0  0
  151.7833  140.6325  156.7512 N   0  0  0  0  0  0  0  0  0  0  0  0
  151.9491  139.4984  156.0346 C   0  0  0  0  0  0  0  0  0  0  0  0
  152.8330  139.5377  155.0078 N   0  0  0  0  0  0  0  0  0  0  0  0
  153.0184  138.4550  154.2464 C   0  0  0  0  0  0  0  0  0  0  0  0
  152.4348  137.2580  154.3397 N   0  0  0  0  0  0  0  0  0  0  0  0
  151.5559  137.2133  155.3822 C   0  0  0  0  0  0  0  0  0  0  0  0
  151.2572  138.2779  156.2768 C   0  0  0  0  0  0  0  0  0  0  0  0
  150.3110  137.8652  157.2068 N   0  0  0  0  0  0  0  0  0  0  0  0
  150.0564  136.6298  156.8729 C   0  0  0  0  0  0  0  0  0  0  0  0
  150.7682  136.1523  155.7947 N   0  0  0  0  0  0  0  0  0  0  0  0
  150.6795  134.8266  155.1994 C   0  0  0  0  0  0  0  0  0  0  0  0
  149.4932  133.9669  155.6986 C   0  0  0  0  0  0  0  0  0  0  0  0
  148.1930  134.7094  155.3615 C   0  0  0  0  0  0  0  0  0  0  0  0
  147.7989  134.4753  154.0246 O   0  0  0  0  0  0  0  0  0  0  0  0
  149.5158  132.4591  155.3891 C   0  0  0  0  0  0  0  0  0  0  0  0
  149.9880  132.1408  156.7154 O   0  0  0  0  0  0  0  0  0  0  0  0
  149.5994  133.4616  157.1472 C   0  0  0  0  0  0  0  0  0  0  0  0
  146.9732  140.3945  152.5984 H   0  0  0  0  0  0  0  0  0  0  0  0
  146.7739  139.7498  154.2261 H   0  0  0  0  0  0  0  0  0  0  0  0
  148.3586  139.7213  153.4561 H   0  0  0  0  0  0  0  0  0  0  0  0
  148.4327  142.2273  153.4918 H   0  0  0  0  0  0  0  0  0  0  0  0
  146.8385  142.2692  154.2336 H   0  0  0  0  0  0  0  0  0  0  0  0
  149.9838  140.4518  154.7914 H   0  0  0  0  0  0  0  0  0  0  0  0
  150.2241  142.1719  154.8767 H   0  0  0  0  0  0  0  0  0  0  0  0
  149.8031  140.4597  157.3964 H   0  0  0  0  0  0  0  0  0  0  0  0
  150.8966  143.2598  156.9398 H   0  0  0  0  0  0  0  0  0  0  0  0
  149.3605  142.8531  157.6655 H   0  0  0  0  0  0  0  0  0  0  0  0
  151.0796  143.4048  159.3924 H   0  0  0  0  0  0  0  0  0  0  0  0
  150.4868  141.7677  159.5749 H   0  0  0  0  0  0  0  0  0  0  0  0
  153.0949  142.5949  158.2052 H   0  0  0  0  0  0  0  0  0  0  0  0
  152.9582  141.7753  159.7446 H   0  0  0  0  0  0  0  0  0  0  0  0
  153.4949  140.1865  157.8868 H   0  0  0  0  0  0  0  0  0  0  0  0
  151.9732  139.7876  158.6620 H   0  0  0  0  0  0  0  0  0  0  0  0
  153.7345  138.5641  153.4456 H   0  0  0  0  0  0  0  0  0  0  0  0
  149.3324  136.0326  157.4072 H   0  0  0  0  0  0  0  0  0  0  0  0
  150.6236  134.9539  154.1176 H   0  0  0  0  0  0  0  0  0  0  0  0
  151.6294  134.3249  155.3859 H   0  0  0  0  0  0  0  0  0  0  0  0
  147.3788  134.3844  156.0099 H   0  0  0  0  0  0  0  0  0  0  0  0
  148.3032  135.7834  155.5151 H   0  0  0  0  0  0  0  0  0  0  0  0
  148.1107  135.1889  153.4891 H   0  0  0  0  0  0  0  0  0  0  0  0
  148.5279  132.0343  155.2033 H   0  0  0  0  0  0  0  0  0  0  0  0
  150.2103  132.1592  154.6059 H   0  0  0  0  0  0  0  0  0  0  0  0
  150.3620  133.9564  157.7470 H   0  0  0  0  0  0  0  0  0  0  0  0
  148.6483  133.4438  157.6822 H   0  0  0  0  0  0  0  0  0  0  0  0
  1  2  1  0  0  0  0
  1 27  1  0  0  0  0
  1 28  1  0  0  0  0
  1 29  1  0  0  0  0
  2  3  1  0  0  0  0
  2 30  1  0  0  0  0
  2 31  1  0  0  0  0
  3  4  1  0  0  0  0
  4  5  1  0  0  0  0
  4 32  1  0  0  0  0
  4 33  1  0  0  0  0
  5 10  1  0  0  0  0
  5  6  1  0  0  0  0
  5 34  1  0  0  0  0
  6  7  1  0  0  0  0
  6 35  1  0  0  0  0
  6 36  1  0  0  0  0
  7  8  1  0  0  0  0
  7 37  1  0  0  0  0
  7 38  1  0  0  0  0
  8  9  1  0  0  0  0
  8 39  1  0  0  0  0
  8 40  1  0  0  0  0
  9 10  1  0  0  0  0
  9 41  1  0  0  0  0
  9 42  1  0  0  0  0
 10 11  1  0  0  0  0
 11 16  1  0  0  0  0
 11 12  2  0  0  0  0
 12 13  1  0  0  0  0
 13 14  2  0  0  0  0
 13 43  1  0  0  0  0
 14 15  1  0  0  0  0
 15 19  1  0  0  0  0
 15 16  2  0  0  0  0
 16 17  1  0  0  0  0
 17 18  2  0  0  0  0
 18 19  1  0  0  0  0
 18 44  1  0  0  0  0
 19 20  1  0  0  0  0
 20 21  1  0  0  0  0
 20 45  1  0  0  0  0
 20 46  1  0  0  0  0
 21 26  1  0  0  0  0
 21 22  1  0  0  0  0
 21 24  1  0  0  0  0
 22 23  1  0  0  0  0
 22 47  1  0  0  0  0
 22 48  1  0  0  0  0
 23 49  1  0  0  0  0
 24 25  1  0  0  0  0
 24 50  1  0  0  0  0
 24 51  1  0  0  0  0
 25 26  1  0  0  0  0
 26 52  1  0  0  0  0
 26 53  1  0  0  0  0
M  END
> <s_m_source_file>
AV-unprocessed.smi

> <i_m_source_file_index>
237

> <i_lp_mmshare_version>
43012

> <i_f3d_flags>
0

> <s_epik_input>
W0NIM11bQ0gyXU9bQ0gyXVtDQEBIXTFbQ0gyXVtDSDJdW0NIMl1bQ0gyXU4xYyhuW2NIXW4yKWMoYzIzKW5bY0hdbjNbQ0gyXUM0KFtDSDJdW09IXSlbQ0gyXU9bQ0gyXTQ=

> <s_epik_cmdline>
J2VwaWtfcHl0aG9uJywgJy1waCcsICc3LjAnLCAnLXRuJywgJzgnLCAnLW1hJywgJzIwMCcsICctbWV0YWxfYmluZGluZycsICctaW1hZScsICc8aW5maWxlLm1hZT4nLCAnLW9tYWUnLCAnPG91dGZpbGUubWFlPic=

> <r_lp_tautomer_probability>
1

> <r_epik_Ionization_Penalty>
0.00358373

> <r_epik_Ionization_Penalty_Charging>
0

> <r_epik_Ionization_Penalty_Neutral>
0.00358373

> <r_epik_State_Penalty>
0.00240903

> <r_epik_Charging_Adjusted_Penalty>
0.00240903

> <i_epik_Tot_Q>
0

> <i_epik_Tot_abs_Q>
0

> <r_epik_Metal_State_Penalty>
-0

> <b_epik_Metal_Only>
0

> <s_lp_Force_Field>
OPLS_2005

> <r_lp_Energy>
38.4441

> <b_lp_Chiralities_Consistent>
1

> <s_lp_Variant>
AV-unprocessed.smi:237-1

> <Gold.Version>
5.8.1

> <Gold.Id.Protein>
6NUR|6NUR_protein|mol2

> <Gold.PLP.Fitness>
43.8397

> <Gold.PLP.PLP>
-36.6622

> <Gold.PLP.part.hbond>
-4.0000

> <Gold.PLP.part.metal>
0.0000

> <Gold.PLP.part.buried>
-6.0222

> <Gold.PLP.part.nonpolar>
-28.1771

> <Gold.PLP.part.repulsive>
0.8916

> <Gold.PLP.ligand.clash>
0.0000

> <Gold.PLP.ligand.torsion>
1.0072

> <Gold.PLP.Chemscore.Hbond>
2.8459

> <Gold.PLP.Chemscore.CHOScore>
0.0000

> <Gold.PLP.Chemscore.Metal>
0.0000

> <Gold.Chemscore.Hbonds>
donor molecule, donor type, donor heavy atom, donor atom, acceptor molecule, acceptor atom, score
      L1  H    23    49       P1  7948  0.84
      P1  H  7989  7998       L1    12  0.15
      P1  H  7997  8009       L1    12  1.00
      P1  H 10752 10763       L1    14  0.54

> <Gold.PLP.Chemscore.Internal.Correction>
0.6541

> <Gold.Rescore>
     Score         DG    S(hbond)    S(metal)    S(lipo)     H(rot)  DE(clash)    DE(int)     intcor
     13.43     -14.72       2.21        0.00      82.76       3.06       0.11       1.18       ----

> <Gold.Chemscore.Fitness>
13.4263

> <Gold.Chemscore.DG>
-14.7206

> <Gold.Chemscore.ZeroCoef>
-5.4800

> <Gold.Chemscore.Hbond>
2.2146

> <Gold.Chemscore.Metal>
0.0000

> <Gold.Chemscore.Lipo>
82.7567

> <Gold.Chemscore.Internal_Hbond>
0.0000

> <Gold.Chemscore.DEClash>
0.1141

> <Gold.Chemscore.DEInternal>
1.1803

> <Gold.Chemscore.Rot>
3.0620

> <Gold.Chemscore.Internal.Correction>
   9.000000E+99

> <Gold.Chemscore.Hbonds>
donor molecule, donor type, donor heavy atom, donor atom, acceptor molecule, acceptor atom, score
      L1  H    23    49       P1  7948  0.83
      P1  H  7989  7998       L1    12  0.01
      P1  H  7997  8009       L1    12  0.48
      P1  H 10752 10763       L1    14  0.50

> <Gold.Chemscore.Hbond.Weighted>
-7.3968

> <Gold.Chemscore.Metal.Weighted>
-0.0000

> <Gold.Chemscore.Lipo.Weighted>
-9.6825

> <Gold.Chemscore.Internal_Hbond.Weighted>
0.0000

> <Gold.Chemscore.DEClash.Weighted>
0.1141

> <Gold.Chemscore.DEInternal.Weighted>
1.1803

> <Gold.Chemscore.Rot.Weighted>
7.8388

> <Gold.Chemscore.Internal.Correction.Weighted>
   9.000000E+99

> <Gold.Protein.RotatedTorsions>
[ 6907 6896 6895 6894 ] final   48.79 input  -60.11 | X-H torsion
[ 7974 7965 7964 7962 ] final   54.17 input  175.53 | X-H torsion
[ 8008 7997 7996 7995 ] final -123.77 input   59.86 | X-H torsion
[ 10167 10162 10161 10158 ] final -125.97 input  -65.29 | X-H torsion
[ 10718 10713 10712 10709 ] final -111.71 input   66.30 | X-H torsion
[ 10763 10752 10751 10750 ] final   12.59 input  -60.55 | X-H torsion
[ 11005 11000 10999 10996 ] final -145.00 input  -57.11 | X-H torsion

> <Gold.Protein.ActiveResidues>
 VAL166  LYS551  ARG553  GLY616  TRP617  ASP618  TYR619  PRO620  LYS621  CYS622 
 ASP623  PHE694  ASN695  SER759  ASP760  ASP761  ALA762  ILE779  LEU786  VAL792 
 PHE793  MET794  SER795  GLU796  ALA797  LYS798  CYS799  TRP800  GLU811  SER814 

> <Gold.Protein.RotatedAtoms>
  152.2835  134.7802  160.0391 H   0  0  0  0  0  0  0  0  0  0  0  0  # atno 6907 bound_to 6896
  151.8373  133.3413  159.3640 H   0  0  0  0  0  0  0  0  0  0  0  0  # atno 6908 bound_to 6896
  150.7199  134.5354  159.5765 H   0  0  0  0  0  0  0  0  0  0  0  0  # atno 6909 bound_to 6896
  145.9637  139.4083  143.0233 H   0  0  0  0  0  0  0  0  0  0  0  0  # atno 7974 bound_to 7965
  155.1859  140.0412  157.2891 H   0  0  0  0  0  0  0  0  0  0  0  0  # atno 8008 bound_to 7997
  154.6171  140.2491  155.7567 H   0  0  0  0  0  0  0  0  0  0  0  0  # atno 8009 bound_to 7997
  156.2413  140.2902  156.0462 H   0  0  0  0  0  0  0  0  0  0  0  0  # atno 8010 bound_to 7997
  139.9764  143.5789  152.2394 H   0  0  0  0  0  0  0  0  0  0  0  0  # atno 10167 bound_to 10162
  156.0663  130.5881  150.8410 H   0  0  0  0  0  0  0  0  0  0  0  0  # atno 10718 bound_to 10713
  153.1807  135.6827  153.8481 H   0  0  0  0  0  0  0  0  0  0  0  0  # atno 10763 bound_to 10752
  153.7814  135.3182  155.3367 H   0  0  0  0  0  0  0  0  0  0  0  0  # atno 10764 bound_to 10752
  154.8058  135.4749  154.0483 H   0  0  0  0  0  0  0  0  0  0  0  0  # atno 10765 bound_to 10752
  140.7967  134.2905  157.4994 H   0  0  0  0  0  0  0  0  0  0  0  0  # atno 11005 bound_to 11000
  145.8004  140.9773  143.1001 LP  0  0  0  0  0  0  0  0  0  0  0  0  # atno 17320 bound_to 7965
  144.6820  139.9795  143.7483 LP  0  0  0  0  0  0  0  0  0  0  0  0  # atno 17321 bound_to 7965
  139.6442  144.7657  151.2277 LP  0  0  0  0  0  0  0  0  0  0  0  0  # atno 17342 bound_to 10162
  140.7504  143.6266  150.8462 LP  0  0  0  0  0  0  0  0  0  0  0  0  # atno 17343 bound_to 10162
  157.5706  131.0946  150.9423 LP  0  0  0  0  0  0  0  0  0  0  0  0  # atno 17370 bound_to 10713
  156.9640  130.5466  149.5287 LP  0  0  0  0  0  0  0  0  0  0  0  0  # atno 17371 bound_to 10713
  139.8725  134.9406  156.3774 LP  0  0  0  0  0  0  0  0  0  0  0  0  # atno 17394 bound_to 11000
  140.9335  133.7563  156.0055 LP  0  0  0  0  0  0  0  0  0  0  0  0  # atno 17395 bound_to 11000

$$$$
