AV-unprocessed.smi:1363|AV-procd|sdf|5566|dock1
  -GOLD-   22720 5163D 1   1.00000     0.00000
 Structure written by MMmdl.
 43 44  0  0  0  0  0  0  0  0  2 V2000
  147.3004  134.7791  158.7406 C   0  0  0  0  0  0  0  0  0  0  0  0
  148.2252  135.4938  157.7786 C   0  0  0  0  0  0  0  0  0  0  0  0
  147.7866  136.4951  157.1157 N   0  0  0  0  0  0  0  0  0  0  0  0
  148.6432  137.1628  156.2241 C   0  0  0  0  0  0  0  0  0  0  0  0
  148.0411  138.3457  155.4858 C   0  0  0  0  0  0  0  0  0  0  0  0
  149.9343  136.7593  156.0496 C   0  0  0  0  0  0  0  0  0  0  0  0
  150.9067  137.4600  155.1005 C   0  0  0  0  0  0  0  0  0  0  0  0
  151.1135  138.9585  155.3356 C   0  0  0  0  0  0  0  0  0  0  0  0
  150.9981  139.7599  154.4080 O   0  0  0  0  0  0  0  0  0  0  0  0
  151.4143  139.3239  156.5910 N   0  0  0  0  0  0  0  0  0  0  0  0
  151.6282  140.6955  157.0368 C   0  0  0  0  0  0  0  0  0  0  0  0
  152.0879  140.7424  158.5073 C   0  0  0  0  0  0  0  0  0  0  0  0
  152.2337  142.1349  159.1131 C   0  0  0  0  0  0  0  0  0  0  0  0
  152.1250  143.2850  158.4137 C   0  0  0  0  0  0  0  0  0  0  0  0
  152.2354  144.6708  159.0254 C   0  0  0  0  0  0  0  0  0  0  0  0
  152.1244  144.6468  160.5580 C   0  0  0  0  0  0  0  0  0  0  0  0
  152.9568  143.5050  161.1506 C   0  0  0  0  0  0  0  0  0  0  0  0
  152.4946  142.1381  160.6153 C   0  0  0  0  0  0  0  0  0  0  0  0
  150.3977  135.5947  156.8253 C   0  0  0  0  0  0  0  0  0  0  0  0
  151.5479  135.1782  156.6938 O   0  0  0  0  0  0  0  0  0  0  0  0
  149.5092  135.0078  157.6773 N   0  5  0  0  0  0  0  0  0  0  0  0
  146.3155  135.2475  158.7622 H   0  0  0  0  0  0  0  0  0  0  0  0
  147.7123  134.8037  159.7499 H   0  0  0  0  0  0  0  0  0  0  0  0
  147.1769  133.7376  158.4423 H   0  0  0  0  0  0  0  0  0  0  0  0
  148.5511  139.2682  155.7631 H   0  0  0  0  0  0  0  0  0  0  0  0
  146.9833  138.4626  155.7241 H   0  0  0  0  0  0  0  0  0  0  0  0
  148.1264  138.2105  154.4075 H   0  0  0  0  0  0  0  0  0  0  0  0
  151.8722  136.9592  155.1786 H   0  0  0  0  0  0  0  0  0  0  0  0
  150.6065  137.3175  154.0622 H   0  0  0  0  0  0  0  0  0  0  0  0
  151.4901  138.5989  157.2896 H   0  0  0  0  0  0  0  0  0  0  0  0
  152.3880  141.1368  156.3913 H   0  0  0  0  0  0  0  0  0  0  0  0
  150.7151  141.2767  156.8961 H   0  0  0  0  0  0  0  0  0  0  0  0
  151.3830  140.1851  159.1259 H   0  0  0  0  0  0  0  0  0  0  0  0
  153.0478  140.2326  158.5988 H   0  0  0  0  0  0  0  0  0  0  0  0
  151.9539  143.2713  157.3484 H   0  0  0  0  0  0  0  0  0  0  0  0
  153.1922  145.0974  158.7229 H   0  0  0  0  0  0  0  0  0  0  0  0
  151.4569  145.3102  158.6084 H   0  0  0  0  0  0  0  0  0  0  0  0
  152.4421  145.6047  160.9708 H   0  0  0  0  0  0  0  0  0  0  0  0
  151.0804  144.5162  160.8466 H   0  0  0  0  0  0  0  0  0  0  0  0
  154.0066  143.6593  160.8972 H   0  0  0  0  0  0  0  0  0  0  0  0
  152.8976  143.5172  162.2392 H   0  0  0  0  0  0  0  0  0  0  0  0
  151.5738  141.8362  161.1158 H   0  0  0  0  0  0  0  0  0  0  0  0
  153.2446  141.3845  160.8576 H   0  0  0  0  0  0  0  0  0  0  0  0
  1  2  1  0  0  0  0
  1 22  1  0  0  0  0
  1 23  1  0  0  0  0
  1 24  1  0  0  0  0
  2 21  1  0  0  0  0
  2  3  2  0  0  0  0
  3  4  1  0  0  0  0
  4  5  1  0  0  0  0
  4  6  2  0  0  0  0
  5 25  1  0  0  0  0
  5 26  1  0  0  0  0
  5 27  1  0  0  0  0
  6  7  1  0  0  0  0
  6 19  1  0  0  0  0
  7  8  1  0  0  0  0
  7 28  1  0  0  0  0
  7 29  1  0  0  0  0
  8  9  2  0  0  0  0
  8 10  1  0  0  0  0
 10 11  1  0  0  0  0
 10 30  1  0  0  0  0
 11 12  1  0  0  0  0
 11 31  1  0  0  0  0
 11 32  1  0  0  0  0
 12 13  1  0  0  0  0
 12 33  1  0  0  0  0
 12 34  1  0  0  0  0
 13 18  1  0  0  0  0
 13 14  2  0  0  0  0
 14 15  1  0  0  0  0
 14 35  1  0  0  0  0
 15 16  1  0  0  0  0
 15 36  1  0  0  0  0
 15 37  1  0  0  0  0
 16 17  1  0  0  0  0
 16 38  1  0  0  0  0
 16 39  1  0  0  0  0
 17 18  1  0  0  0  0
 17 40  1  0  0  0  0
 17 41  1  0  0  0  0
 18 42  1  0  0  0  0
 18 43  1  0  0  0  0
 19 20  2  0  0  0  0
 19 21  1  0  0  0  0
M  CHG  1  21  -1
M  END
> <s_m_source_file>
AV-unprocessed.smi

> <i_m_source_file_index>
1363

> <i_lp_mmshare_version>
43012

> <i_f3d_flags>
0

> <s_epik_input>
W0NIM11jMW5jKFtDSDNdKWMoYyg9TylbbkhdMSlbQ0gyXUMoPU8pW05IXVtDSDJdW0NIMl1DMj1bQ0hdW0NIMl1bQ0gyXVtDSDJdW0NIMl0y

> <s_epik_cmdline>
J2VwaWtfcHl0aG9uJywgJy1waCcsICc3LjAnLCAnLXRuJywgJzgnLCAnLW1hJywgJzIwMCcsICctbWV0YWxfYmluZGluZycsICctaW1hZScsICc8aW5maWxlLm1hZT4nLCAnLW9tYWUnLCAnPG91dGZpbGUubWFlPic=

> <r_lp_tautomer_probability>
0.839158

> <r_epik_Ionization_Penalty>
6.61902

> <r_epik_Ionization_Penalty_Charging>
7.01438e-08

> <r_epik_Ionization_Penalty_Neutral>
6.61902

> <r_epik_State_Penalty>
4.43873

> <r_epik_Charging_Adjusted_Penalty>
4.43873

> <i_epik_Tot_Q>
-1

> <i_epik_Tot_abs_Q>
1

> <r_epik_Metal_State_Penalty>
0.802113

> <b_epik_Metal_Only>
1

> <s_lp_Force_Field>
OPLS_2005

> <r_lp_Energy>
12.6483

> <b_lp_Chiralities_Consistent>
1

> <s_lp_Variant>
AV-unprocessed.smi:1363-3

> <Gold.Version>
5.8.1

> <Gold.Id.Protein>
6NUR|6NUR_protein|mol2

> <Gold.PLP.Fitness>
46.8155

> <Gold.PLP.PLP>
-36.0351

> <Gold.PLP.part.hbond>
-3.0000

> <Gold.PLP.part.metal>
0.0000

> <Gold.PLP.part.buried>
-5.8149

> <Gold.PLP.part.nonpolar>
-28.0078

> <Gold.PLP.part.repulsive>
0.2044

> <Gold.PLP.ligand.clash>
0.0000

> <Gold.PLP.ligand.torsion>
0.1679

> <Gold.PLP.Chemscore.Hbond>
3.6960

> <Gold.PLP.Chemscore.CHOScore>
0.0000

> <Gold.PLP.Chemscore.Metal>
0.0000

> <Gold.Chemscore.Hbonds>
donor molecule, donor type, donor heavy atom, donor atom, acceptor molecule, acceptor atom, score
      P1  H  6896  6909       L1    21  1.14
      P1  H  7989  7998       L1     9  1.00
      P1  H 10752 10763       L1    20  0.36

> <Gold.PLP.Chemscore.Internal.Correction>
0.0282

> <Gold.Rescore>
     Score         DG    S(hbond)    S(metal)    S(lipo)     H(rot)  DE(clash)    DE(int)     intcor
     20.58     -20.85       2.63        0.00      95.71       1.80       0.11       0.16       ----

> <Gold.Chemscore.Fitness>
20.5838

> <Gold.Chemscore.DG>
-20.8510

> <Gold.Chemscore.ZeroCoef>
-5.4800

> <Gold.Chemscore.Hbond>
2.6302

> <Gold.Chemscore.Metal>
0.0000

> <Gold.Chemscore.Lipo>
95.7146

> <Gold.Chemscore.Internal_Hbond>
0.0000

> <Gold.Chemscore.DEClash>
0.1103

> <Gold.Chemscore.DEInternal>
0.1570

> <Gold.Chemscore.Rot>
1.8018

> <Gold.Chemscore.Internal.Correction>
   9.000000E+99

> <Gold.Chemscore.Hbonds>
donor molecule, donor type, donor heavy atom, donor atom, acceptor molecule, acceptor atom, score
      P1  H  6896  6909       L1    21  0.32
      P1  H  7989  7998       L1     9  0.97
      P1  H 10752 10763       L1    20  0.35

> <Gold.Chemscore.Hbond.Weighted>
-8.7850

> <Gold.Chemscore.Metal.Weighted>
-0.0000

> <Gold.Chemscore.Lipo.Weighted>
-11.1986

> <Gold.Chemscore.Internal_Hbond.Weighted>
0.0000

> <Gold.Chemscore.DEClash.Weighted>
0.1103

> <Gold.Chemscore.DEInternal.Weighted>
0.1570

> <Gold.Chemscore.Rot.Weighted>
4.6126

> <Gold.Chemscore.Internal.Correction.Weighted>
   9.000000E+99

> <Gold.Protein.RotatedTorsions>
[ 6907 6896 6895 6894 ] final   23.78 input  -60.11 | X-H torsion
[ 7974 7965 7964 7962 ] final  -91.16 input  175.53 | X-H torsion
[ 8008 7997 7996 7995 ] final -134.08 input   59.86 | X-H torsion
[ 10167 10162 10161 10158 ] final  -17.77 input  -65.29 | X-H torsion
[ 10718 10713 10712 10709 ] final   12.71 input   66.30 | X-H torsion
[ 10763 10752 10751 10750 ] final   94.86 input  -60.55 | X-H torsion
[ 11005 11000 10999 10996 ] final -104.45 input  -57.11 | X-H torsion

> <Gold.Protein.ActiveResidues>
 VAL166  LYS551  ARG553  GLY616  TRP617  ASP618  TYR619  PRO620  LYS621  CYS622 
 ASP623  PHE694  ASN695  SER759  ASP760  ASP761  ALA762  ILE779  LEU786  VAL792 
 PHE793  MET794  SER795  GLU796  ALA797  LYS798  CYS799  TRP800  GLU811  SER814 

> <Gold.Protein.RotatedAtoms>
  151.9475  135.0184  160.0539 H   0  0  0  0  0  0  0  0  0  0  0  0  # atno 6907 bound_to 6896
  152.1982  133.4817  159.5052 H   0  0  0  0  0  0  0  0  0  0  0  0  # atno 6908 bound_to 6896
  150.6949  134.1542  159.4194 H   0  0  0  0  0  0  0  0  0  0  0  0  # atno 6909 bound_to 6896
  145.4169  140.9549  143.2203 H   0  0  0  0  0  0  0  0  0  0  0  0  # atno 7974 bound_to 7965
  155.3561  140.0480  157.3046 H   0  0  0  0  0  0  0  0  0  0  0  0  # atno 8008 bound_to 7997
  154.5202  140.2222  155.8954 H   0  0  0  0  0  0  0  0  0  0  0  0  # atno 8009 bound_to 7997
  156.1681  140.3102  155.8930 H   0  0  0  0  0  0  0  0  0  0  0  0  # atno 8010 bound_to 7997
  140.7251  143.4983  150.9902 H   0  0  0  0  0  0  0  0  0  0  0  0  # atno 10167 bound_to 10162
  157.0141  130.6128  149.5712 H   0  0  0  0  0  0  0  0  0  0  0  0  # atno 10718 bound_to 10713
  153.2465  135.4274  155.0753 H   0  0  0  0  0  0  0  0  0  0  0  0  # atno 10763 bound_to 10752
  154.8363  135.3415  154.6574 H   0  0  0  0  0  0  0  0  0  0  0  0  # atno 10764 bound_to 10752
  153.6996  135.7029  153.5123 H   0  0  0  0  0  0  0  0  0  0  0  0  # atno 10765 bound_to 10752
  141.1099  133.8725  157.1613 H   0  0  0  0  0  0  0  0  0  0  0  0  # atno 11005 bound_to 11000
  144.8271  139.5691  143.6960 LP  0  0  0  0  0  0  0  0  0  0  0  0  # atno 17320 bound_to 7965
  146.2676  139.6558  142.9318 LP  0  0  0  0  0  0  0  0  0  0  0  0  # atno 17321 bound_to 7965
  139.8691  143.7216  152.3168 LP  0  0  0  0  0  0  0  0  0  0  0  0  # atno 17342 bound_to 10162
  139.7458  144.7547  151.0582 LP  0  0  0  0  0  0  0  0  0  0  0  0  # atno 17343 bound_to 10162
  156.0125  130.5218  150.8034 LP  0  0  0  0  0  0  0  0  0  0  0  0  # atno 17370 bound_to 10713
  157.5299  131.0936  150.9969 LP  0  0  0  0  0  0  0  0  0  0  0  0  # atno 17371 bound_to 10713
  139.9988  135.0036  157.0143 LP  0  0  0  0  0  0  0  0  0  0  0  0  # atno 17394 bound_to 11000
  140.4802  134.1297  155.7216 LP  0  0  0  0  0  0  0  0  0  0  0  0  # atno 17395 bound_to 11000

$$$$
