#       Name:                AV-unprocessed.smi:550
#       Creating user name   scv26
#       Creation time:       Thu Mar 26 23:39:07 2020


#       File generated by GOLD software.
#

@<TRIPOS>MOLECULE
AV-unprocessed.smi:550
    48    50     1
SMALL
NO_CHARGES


@<TRIPOS>ATOM
      1 ****         1.9270   0.9644  -0.6871 O.2            1 S1                 0.0000
      2 ****         1.5013  -0.0624  -0.1580 C.2            1 S1                 0.0000
      3 ****         2.2594  -1.1432   0.0694 N.am           1 S1                 0.0000
      4 ****         3.6696  -1.2498  -0.2865 C.3            1 S1                 0.0000
      5 ****         4.1425  -2.7135  -0.2689 C.3            1 S1                 0.0000
      6 ****         5.6184  -2.8564  -0.6898 C.3            1 S1                 0.0000
      7 ****         6.0759  -4.2860  -0.3866 C.3            1 S1                 0.0000
      8 ****         5.1985  -4.7643   1.1471 S.o2           1 S1                 0.0000
      9 ****         4.5164  -6.0491   0.9298 O.2            1 S1                 0.0000
     10 ****         6.0870  -4.5643   2.3018 O.2            1 S1                 0.0000
     11 ****         3.9730  -3.3998   1.0987 C.3            1 S1                 0.0000
     12 ****         0.2447  -0.2425   0.2840 N.am           1 S1                 0.0000
     13 ****        -0.8615   0.6409   0.1607 C.ar           1 S1                 0.0000
     14 ****        -0.9845   1.6158  -0.8560 C.ar           1 S1                 0.0000
     15 ****        -2.1400   2.4189  -0.8951 C.ar           1 S1                 0.0000
     16 ****        -3.1500   2.2233   0.0763 C.ar           1 S1                 0.0000
     17 ****        -4.3182   3.0112   0.0732 N.pl3          1 S1                 0.0000
     18 ****        -5.4310   2.7392   0.9694 C.3            1 S1                 0.0000
     19 ****        -6.5185   3.7242   0.5431 C.3            1 S1                 0.0000
     20 ****        -6.2880   3.8646  -0.9616 C.3            1 S1                 0.0000
     21 ****        -4.7724   3.7009  -1.1265 C.3            1 S1                 0.0000
     22 ****        -3.0328   1.2844   1.0456 N.ar           1 S1                 0.0000
     23 ****        -1.9247   0.5148   1.0770 C.ar           1 S1                 0.0000
     24 ****         1.8356  -1.9435   0.5153 H              1 S1                 0.0000
     25 ****         3.8327  -0.8284  -1.2800 H              1 S1                 0.0000
     26 ****         4.2559  -0.6516   0.4124 H              1 S1                 0.0000
     27 ****         3.5491  -3.2750  -0.9924 H              1 S1                 0.0000
     28 ****         5.7653  -2.6066  -1.7409 H              1 S1                 0.0000
     29 ****         6.2268  -2.1618  -0.1090 H              1 S1                 0.0000
     30 ****         5.7665  -4.9669  -1.1799 H              1 S1                 0.0000
     31 ****         7.1538  -4.3726  -0.2501 H              1 S1                 0.0000
     32 ****         4.2071  -2.7151   1.9144 H              1 S1                 0.0000
     33 ****         2.9689  -3.7941   1.2549 H              1 S1                 0.0000
     34 ****         0.0672  -1.0925   0.7992 H              1 S1                 0.0000
     35 ****        -0.2261   1.7532  -1.6112 H              1 S1                 0.0000
     36 ****        -2.2333   3.1706  -1.6645 H              1 S1                 0.0000
     37 ****        -5.7670   1.7106   0.8315 H              1 S1                 0.0000
     38 ****        -5.1498   2.8755   2.0142 H              1 S1                 0.0000
     39 ****        -7.5231   3.3818   0.7927 H              1 S1                 0.0000
     40 ****        -6.3581   4.6865   1.0313 H              1 S1                 0.0000
     41 ****        -6.8016   3.0565  -1.4841 H              1 S1                 0.0000
     42 ****        -6.6568   4.8090  -1.3625 H              1 S1                 0.0000
     43 ****        -4.2813   4.6728  -1.1815 H              1 S1                 0.0000
     44 ****        -4.5381   3.1444  -2.0348 H              1 S1                 0.0000
     45 ****        -1.8851  -0.2227   1.8653 H              1 S1                 0.0000
     46 ****         2.8841   1.0206  -0.9712 LP             1 S1                 0.0000
     47 ****         1.3156   1.7422  -0.8328 LP             1 S1                 0.0000
     48 ****        -3.7552   1.1635   1.7264 LP             1 S1                 0.0000
@<TRIPOS>BOND
    1    1    2 2     
    2    2    3 am    
    3    2   12 am    
    4    3    4 1     
    5    3   24 1     
    6    4    5 1     
    7    4   25 1     
    8    4   26 1     
    9    5   11 1     
   10    5    6 1     
   11    5   27 1     
   12    6    7 1     
   13    6   28 1     
   14    6   29 1     
   15    7    8 1     
   16    7   30 1     
   17    7   31 1     
   18    8    9 2     
   19    8   10 2     
   20    8   11 1     
   21   11   32 1     
   22   11   33 1     
   23   12   13 1     
   24   12   34 1     
   25   13   23 ar    
   26   13   14 ar    
   27   14   15 ar    
   28   14   35 1     
   29   15   16 ar    
   30   15   36 1     
   31   16   17 1     
   32   16   22 ar    
   33   17   21 1     
   34   17   18 1     
   35   18   19 1     
   36   18   37 1     
   37   18   38 1     
   38   19   20 1     
   39   19   39 1     
   40   19   40 1     
   41   20   21 1     
   42   20   41 1     
   43   20   42 1     
   44   21   43 1     
   45   21   44 1     
   46   22   23 ar    
   47   23   45 1     
   48    1   46 1     
   49    1   47 1     
   50   22   48 1     
@<TRIPOS>SUBSTRUCTURE
      1 S1             1
@<TRIPOS>SET
LONE_PAIRS      STATIC     ATOMS    <user>   **** ""
5 46 47 9 10 48
DONOR_HYDROGENS      STATIC     ATOMS    <user>   **** ""
2 24 34
ATOM$BLUE        STATIC     ATOMS    COLORGROUP SYSTEM
5 46 47 9 10 48
ATOM$RED        STATIC     ATOMS    COLORGROUP SYSTEM
2 24 34
