#       Name:                AV-unprocessed.smi:1280
#       Creating user name   scv26
#       Creation time:       Fri Mar 27 04:49:38 2020


#       File generated by GOLD software.
#

@<TRIPOS>MOLECULE
AV-unprocessed.smi:1280
    51    52     1
SMALL
NO_CHARGES


@<TRIPOS>ATOM
      1 ****        -5.7600   3.1429   0.2914 C.3            1 S1                 0.0000
      2 ****        -5.6252   1.3110   0.2870 S.o2           1 S1                 0.0000
      3 ****        -6.2281   0.8612   1.5522 O.2            1 S1                 0.0000
      4 ****        -6.2680   0.8658  -0.9600 O.2            1 S1                 0.0000
      5 ****        -4.0149   1.1304   0.2613 N.pl3          1 S1                -1.0000
      6 ****        -3.4520  -0.2092   0.2310 C.3            1 S1                 0.0000
      7 ****        -1.9131  -0.1453   0.1522 C.3            1 S1                 0.0000
      8 ****        -1.3441   0.3747  -1.1875 C.3            1 S1                 0.0000
      9 ****         0.1145   0.3416  -1.1860 N.am           1 S1                 0.0000
     10 ****         0.9120   1.3112  -0.7085 C.2            1 S1                 0.0000
     11 ****         0.4943   2.3685  -0.2366 O.2            1 S1                 0.0000
     12 ****         2.3913   1.0683  -0.8481 C.ar           1 S1                 0.0000
     13 ****         3.1964   2.1002  -1.3797 C.ar           1 S1                 0.0000
     14 ****         4.5786   1.8938  -1.5343 C.ar           1 S1                 0.0000
     15 ****         5.1133   0.6553  -1.1410 C.ar           1 S1                 0.0000
     16 ****         4.3668  -0.3340  -0.6104 N.ar           1 S1                 0.0000
     17 ****         3.0328  -0.1436  -0.4510 C.ar           1 S1                 0.0000
     18 ****         2.3211  -1.1822   0.1830 N.3            1 S1                 0.0000
     19 ****         2.7362  -2.5495  -0.1143 C.3            1 S1                 0.0000
     20 ****         1.7342  -3.5433   0.4963 C.3            1 S1                 0.0000
     21 ****         1.6284  -3.3080   1.8975 O.3            1 S1                 0.0000
     22 ****         1.1507  -1.9971   2.1860 C.3            1 S1                 0.0000
     23 ****         2.1171  -0.9485   1.6079 C.3            1 S1                 0.0000
     24 ****        -6.8118   3.4263   0.3088 H              1 S1                 0.0000
     25 ****        -5.2906   3.5439  -0.6065 H              1 S1                 0.0000
     26 ****        -5.2615   3.5426   1.1740 H              1 S1                 0.0000
     27 ****        -3.7281  -0.7717   1.1232 H              1 S1                 0.0000
     28 ****        -3.8259  -0.7912  -0.6121 H              1 S1                 0.0000
     29 ****        -1.5296   0.4552   0.9785 H              1 S1                 0.0000
     30 ****        -1.5304  -1.1529   0.3139 H              1 S1                 0.0000
     31 ****        -1.6797  -0.2482  -2.0186 H              1 S1                 0.0000
     32 ****        -1.6868   1.3891  -1.4041 H              1 S1                 0.0000
     33 ****         0.5517  -0.4818  -1.5735 H              1 S1                 0.0000
     34 ****         2.7599   3.0414  -1.6814 H              1 S1                 0.0000
     35 ****         5.2117   2.6650  -1.9474 H              1 S1                 0.0000
     36 ****         6.1695   0.4564  -1.2462 H              1 S1                 0.0000
     37 ****         2.7962  -2.6914  -1.1942 H              1 S1                 0.0000
     38 ****         3.7303  -2.7342   0.2955 H              1 S1                 0.0000
     39 ****         0.7546  -3.4495   0.0246 H              1 S1                 0.0000
     40 ****         2.0719  -4.5664   0.3321 H              1 S1                 0.0000
     41 ****         0.1482  -1.8690   1.7771 H              1 S1                 0.0000
     42 ****         1.0696  -1.8776   3.2664 H              1 S1                 0.0000
     43 ****         3.0787  -1.0042   2.1199 H              1 S1                 0.0000
     44 ****         1.7211   0.0529   1.7797 H              1 S1                 0.0000
     45 ****        -3.4158   1.9311   0.2663 LP             1 S1                 0.0000
     46 ****        -0.4895   2.5427  -0.1935 LP             1 S1                 0.0000
     47 ****         1.1387   3.0533   0.1038 LP             1 S1                 0.0000
     48 ****         4.7909  -1.1975  -0.3376 LP             1 S1                 0.0000
     49 ****         1.4274  -1.1274  -0.2624 LP             1 S1                 0.0000
     50 ****         2.5311  -3.4208   2.3126 LP             1 S1                 0.0000
     51 ****         0.9954  -3.9755   2.2898 LP             1 S1                 0.0000
@<TRIPOS>BOND
    1    1    2 1     
    2    1   24 1     
    3    1   25 1     
    4    1   26 1     
    5    2    3 2     
    6    2    4 2     
    7    2    5 1     
    8    5    6 1     
    9    6    7 1     
   10    6   27 1     
   11    6   28 1     
   12    7    8 1     
   13    7   29 1     
   14    7   30 1     
   15    8    9 1     
   16    8   31 1     
   17    8   32 1     
   18    9   10 am    
   19    9   33 1     
   20   10   11 2     
   21   10   12 1     
   22   12   17 ar    
   23   12   13 ar    
   24   13   14 ar    
   25   13   34 1     
   26   14   15 ar    
   27   14   35 1     
   28   15   16 ar    
   29   15   36 1     
   30   16   17 ar    
   31   17   18 1     
   32   18   23 1     
   33   18   19 1     
   34   19   20 1     
   35   19   37 1     
   36   19   38 1     
   37   20   21 1     
   38   20   39 1     
   39   20   40 1     
   40   21   22 1     
   41   22   23 1     
   42   22   41 1     
   43   22   42 1     
   44   23   43 1     
   45   23   44 1     
   46    5   45 1     
   47   11   46 1     
   48   11   47 1     
   49   16   48 1     
   50   18   49 1     
   51   21   50 1     
   52   21   51 1     
@<TRIPOS>SUBSTRUCTURE
      1 S1             1
@<TRIPOS>SET
LONE_PAIRS      STATIC     ATOMS    <user>   **** ""
9 3 4 45 46 47 48 49 50 51
DONOR_HYDROGENS      STATIC     ATOMS    <user>   **** ""
1 33
ATOM$BLUE        STATIC     ATOMS    COLORGROUP SYSTEM
9 3 4 45 46 47 48 49 50 51
ATOM$RED        STATIC     ATOMS    COLORGROUP SYSTEM
1 33
