AV-unprocessed.smi:2212|AV-procd|sdf|8954|dock2
  -GOLD-   2272012173D 1   1.00000     0.00000
 Structure written by MMmdl.
 31 32  0  0  0  0  0  0  0  0  1 V2000
  152.5929  142.6553  161.3930 C   0  0  0  0  0  0  0  0  0  0  0  0
  152.4271  141.8073  160.2641 O   0  0  0  0  0  0  0  0  0  0  0  0
  152.1803  142.4624  159.0194 C   0  0  0  0  0  0  0  0  0  0  0  0
  152.1022  141.4688  157.8520 C   0  0  0  0  0  0  0  0  0  0  0  0
  150.9407  141.7442  157.0165 N   0  0  0  0  0  0  0  0  0  0  0  0
  150.7177  141.2066  155.8097 C   0  0  0  0  0  0  0  0  0  0  0  0
  151.5219  140.4262  155.2903 O   0  0  0  0  0  0  0  0  0  0  0  0
  149.5239  141.6808  155.2870 N   0  0  0  0  0  0  0  0  0  0  0  0
  148.8245  140.9241  154.4978 C   0  0  0  0  0  0  0  0  0  0  0  0
  149.0253  139.6435  153.9890 N   0  0  0  0  0  0  0  0  0  0  0  0
  147.9617  139.3316  153.1891 C   0  0  0  0  0  0  0  0  0  0  0  0
  147.1277  140.3671  153.1908 C   0  0  0  0  0  0  0  0  0  0  0  0
  147.6292  141.3568  153.9818 O   0  0  0  0  0  0  0  0  0  0  0  0
  150.9954  143.4267  159.2171 C   0  0  0  0  0  0  0  0  0  0  0  0
  151.7981  144.5026  158.4833 C   0  0  0  0  0  0  0  0  0  0  0  0
  153.0568  143.7214  158.8639 C   0  0  0  0  0  0  0  0  0  0  0  0
  152.6733  142.0427  162.2907 H   0  0  0  0  0  0  0  0  0  0  0  0
  151.7454  143.3279  161.5257 H   0  0  0  0  0  0  0  0  0  0  0  0
  153.5047  143.2480  161.3235 H   0  0  0  0  0  0  0  0  0  0  0  0
  153.0043  141.5380  157.2421 H   0  0  0  0  0  0  0  0  0  0  0  0
  152.0584  140.4392  158.2075 H   0  0  0  0  0  0  0  0  0  0  0  0
  150.2523  142.3830  157.3887 H   0  0  0  0  0  0  0  0  0  0  0  0
  149.8030  139.0205  154.1540 H   0  0  0  0  0  0  0  0  0  0  0  0
  147.9142  138.3748  152.6903 H   0  0  0  0  0  0  0  0  0  0  0  0
  146.1804  140.5467  152.7039 H   0  0  0  0  0  0  0  0  0  0  0  0
  150.0730  143.1319  158.7158 H   0  0  0  0  0  0  0  0  0  0  0  0
  150.8163  143.6807  160.2635 H   0  0  0  0  0  0  0  0  0  0  0  0
  151.6122  144.5121  157.4081 H   0  0  0  0  0  0  0  0  0  0  0  0
  151.7296  145.5004  158.9171 H   0  0  0  0  0  0  0  0  0  0  0  0
  153.4903  144.0668  159.8043 H   0  0  0  0  0  0  0  0  0  0  0  0
  153.8074  143.6622  158.0752 H   0  0  0  0  0  0  0  0  0  0  0  0
  1  2  1  0  0  0  0
  1 17  1  0  0  0  0
  1 18  1  0  0  0  0
  1 19  1  0  0  0  0
  2  3  1  0  0  0  0
  3 16  1  0  0  0  0
  3  4  1  0  0  0  0
  3 14  1  0  0  0  0
  4  5  1  0  0  0  0
  4 20  1  0  0  0  0
  4 21  1  0  0  0  0
  5 22  1  0  0  0  0
  5  6  1  0  0  0  0
  6  8  1  0  0  0  0
  6  7  2  0  0  0  0
  8  9  2  0  0  0  0
  9 13  1  0  0  0  0
  9 10  1  0  0  0  0
 10 23  1  0  0  0  0
 10 11  1  0  0  0  0
 11 24  1  0  0  0  0
 11 12  2  0  0  0  0
 12 25  1  0  0  0  0
 12 13  1  0  0  0  0
 14 15  1  0  0  0  0
 14 26  1  0  0  0  0
 14 27  1  0  0  0  0
 15 16  1  0  0  0  0
 15 28  1  0  0  0  0
 15 29  1  0  0  0  0
 16 30  1  0  0  0  0
 16 31  1  0  0  0  0
M  END
> <s_m_source_file>
AV-unprocessed.smi

> <i_m_source_file_index>
2212

> <i_lp_mmshare_version>
43012

> <i_f3d_flags>
0

> <s_epik_input>
W0NIMl0xW0NIMl1bQ0gyXUMxKE9bQ0gzXSlbQ0gyXVtOSF1DKD1PKVtOSF1jMm5bY0hdW2NIXW8y

> <s_epik_cmdline>
J2VwaWtfcHl0aG9uJywgJy1waCcsICc3LjAnLCAnLXRuJywgJzgnLCAnLW1hJywgJzIwMCcsICctbWV0YWxfYmluZGluZycsICctaW1hZScsICc8aW5maWxlLm1hZT4nLCAnLW9tYWUnLCAnPG91dGZpbGUubWFlPic=

> <r_lp_tautomer_probability>
0.107061

> <r_epik_Ionization_Penalty>
1.29244

> <r_epik_Ionization_Penalty_Charging>
1.29208

> <r_epik_Ionization_Penalty_Neutral>
0.000357989

> <r_epik_State_Penalty>
2.59896

> <r_epik_Charging_Adjusted_Penalty>
3.89105

> <i_epik_Tot_Q>
0

> <i_epik_Tot_abs_Q>
0

> <r_epik_Metal_State_Penalty>
3.62496

> <b_epik_Metal_Only>
0

> <s_lp_Force_Field>
OPLS_2005

> <r_lp_Energy>
41.2438

> <b_lp_Chiralities_Consistent>
1

> <s_lp_Variant>
AV-unprocessed.smi:2212-4

> <Gold.Version>
5.8.1

> <Gold.Id.Protein>
6NUR|6NUR_protein|mol2

> <Gold.PLP.Fitness>
38.7899

> <Gold.PLP.PLP>
-32.2330

> <Gold.PLP.part.hbond>
-2.0000

> <Gold.PLP.part.metal>
0.0000

> <Gold.PLP.part.buried>
-4.1268

> <Gold.PLP.part.nonpolar>
-27.1415

> <Gold.PLP.part.repulsive>
0.4474

> <Gold.PLP.ligand.clash>
0.0000

> <Gold.PLP.ligand.torsion>
1.3013

> <Gold.PLP.Chemscore.Hbond>
0.9600

> <Gold.PLP.Chemscore.CHOScore>
1.9984

> <Gold.PLP.Chemscore.Metal>
0.0000

> <Gold.Chemscore.Hbonds>
donor molecule, donor type, donor heavy atom, donor atom, acceptor molecule, acceptor atom, score
      P1  H  7989  7998       L1     7  0.88
      L1  C    11    24       P1  7948  1.00
      L1  C    12    25       P1 10175  1.00

> <Gold.PLP.Chemscore.Internal.Correction>
0.2841

> <Gold.Rescore>
     Score         DG    S(hbond)    S(metal)    S(lipo)     H(rot)  DE(clash)    DE(int)     intcor
     11.93     -13.37       0.88        0.00      78.17       1.64       0.14       1.30       ----

> <Gold.Chemscore.Fitness>
11.9344

> <Gold.Chemscore.DG>
-13.3676

> <Gold.Chemscore.ZeroCoef>
-5.4800

> <Gold.Chemscore.Hbond>
0.8809

> <Gold.Chemscore.Metal>
0.0000

> <Gold.Chemscore.Lipo>
78.1747

> <Gold.Chemscore.Internal_Hbond>
0.0000

> <Gold.Chemscore.DEClash>
0.1379

> <Gold.Chemscore.DEInternal>
1.2954

> <Gold.Chemscore.Rot>
1.6411

> <Gold.Chemscore.Internal.Correction>
   9.000000E+99

> <Gold.Chemscore.Hbonds>
donor molecule, donor type, donor heavy atom, donor atom, acceptor molecule, acceptor atom, score
      P1  H  7989  7998       L1     7  0.52

> <Gold.Chemscore.Hbond.Weighted>
-2.9423

> <Gold.Chemscore.Metal.Weighted>
-0.0000

> <Gold.Chemscore.Lipo.Weighted>
-9.1464

> <Gold.Chemscore.Internal_Hbond.Weighted>
0.0000

> <Gold.Chemscore.DEClash.Weighted>
0.1379

> <Gold.Chemscore.DEInternal.Weighted>
1.2954

> <Gold.Chemscore.Rot.Weighted>
4.2011

> <Gold.Chemscore.Internal.Correction.Weighted>
   9.000000E+99

> <Gold.Protein.RotatedTorsions>
[ 6907 6896 6895 6894 ] final   53.32 input  -60.11 | X-H torsion
[ 7974 7965 7964 7962 ] final  146.00 input  175.53 | X-H torsion
[ 8008 7997 7996 7995 ] final  -86.88 input   59.86 | X-H torsion
[ 10167 10162 10161 10158 ] final  -91.14 input  -65.29 | X-H torsion
[ 10718 10713 10712 10709 ] final  178.01 input   66.30 | X-H torsion
[ 10763 10752 10751 10750 ] final -156.68 input  -60.55 | X-H torsion
[ 11005 11000 10999 10996 ] final  172.91 input  -57.11 | X-H torsion

> <Gold.Protein.ActiveResidues>
 VAL166  LYS551  ARG553  GLY616  TRP617  ASP618  TYR619  PRO620  LYS621  CYS622 
 ASP623  PHE694  ASN695  SER759  ASP760  ASP761  ALA762  ILE779  LEU786  VAL792 
 PHE793  MET794  SER795  GLU796  ALA797  LYS798  CYS799  TRP800  GLU811  SER814 

> <Gold.Protein.RotatedAtoms>
  152.3325  134.7241  160.0285 H   0  0  0  0  0  0  0  0  0  0  0  0  # atno 6907 bound_to 6896
  151.7653  133.3331  159.3437 H   0  0  0  0  0  0  0  0  0  0  0  0  # atno 6908 bound_to 6896
  150.7431  134.6000  159.6076 H   0  0  0  0  0  0  0  0  0  0  0  0  # atno 6909 bound_to 6896
  144.8707  139.5851  143.5888 H   0  0  0  0  0  0  0  0  0  0  0  0  # atno 7974 bound_to 7965
  154.6569  140.0573  157.0018 H   0  0  0  0  0  0  0  0  0  0  0  0  # atno 8008 bound_to 7997
  155.1287  140.3254  155.4461 H   0  0  0  0  0  0  0  0  0  0  0  0  # atno 8009 bound_to 7997
  156.2601  140.1984  156.6407 H   0  0  0  0  0  0  0  0  0  0  0  0  # atno 8010 bound_to 7997
  140.3479  143.2907  151.9760 H   0  0  0  0  0  0  0  0  0  0  0  0  # atno 10167 bound_to 10162
  156.8969  130.9866  151.3041 H   0  0  0  0  0  0  0  0  0  0  0  0  # atno 10718 bound_to 10713
  154.7694  135.3141  154.8219 H   0  0  0  0  0  0  0  0  0  0  0  0  # atno 10763 bound_to 10752
  153.8959  135.6820  153.4762 H   0  0  0  0  0  0  0  0  0  0  0  0  # atno 10764 bound_to 10752
  153.1306  135.4782  154.9276 H   0  0  0  0  0  0  0  0  0  0  0  0  # atno 10765 bound_to 10752
  140.3348  134.7327  157.4160 H   0  0  0  0  0  0  0  0  0  0  0  0  # atno 11005 bound_to 11000
  146.2928  139.7189  142.9148 LP  0  0  0  0  0  0  0  0  0  0  0  0  # atno 17320 bound_to 7965
  145.4136  141.0399  143.3003 LP  0  0  0  0  0  0  0  0  0  0  0  0  # atno 17321 bound_to 7965
  139.4830  144.6101  151.7449 LP  0  0  0  0  0  0  0  0  0  0  0  0  # atno 17342 bound_to 10162
  140.5247  144.0824  150.6034 LP  0  0  0  0  0  0  0  0  0  0  0  0  # atno 17343 bound_to 10162
  157.6050  130.8540  149.8861 LP  0  0  0  0  0  0  0  0  0  0  0  0  # atno 17370 bound_to 10713
  156.0601  130.3701  150.1001 LP  0  0  0  0  0  0  0  0  0  0  0  0  # atno 17371 bound_to 10713
  140.0831  134.5704  155.8520 LP  0  0  0  0  0  0  0  0  0  0  0  0  # atno 17394 bound_to 11000
  141.2054  133.6647  156.6179 LP  0  0  0  0  0  0  0  0  0  0  0  0  # atno 17395 bound_to 11000

$$$$
