#       Name:                AV-unprocessed.smi:2822
#       Creating user name   scv26
#       Creation time:       Fri Mar 27 15:30:57 2020


#       File generated by GOLD software.
#

@<TRIPOS>MOLECULE
AV-unprocessed.smi:2822
    43    45     1
SMALL
NO_CHARGES


@<TRIPOS>ATOM
      1 ****        -5.1337   0.7456   0.7646 Cl             1 S1                 0.0000
      2 ****        -4.2603   2.2376   0.7353 C.ar           1 S1                 0.0000
      3 ****        -4.9735   3.4518   0.6571 C.ar           1 S1                 0.0000
      4 ****        -4.3080   4.6258   0.6305 N.pl3          1 S1                 1.0000
      5 ****        -2.9614   4.7015   0.6780 C.ar           1 S1                 0.0000
      6 ****        -2.1932   3.5221   0.7579 C.ar           1 S1                 0.0000
      7 ****        -2.8444   2.2632   0.7859 C.ar           1 S1                 0.0000
      8 ****        -2.1362   1.0537   0.8643 N.pl3          1 S1                 0.0000
      9 ****        -0.6951   1.0178   0.6636 C.3            1 S1                 0.0000
     10 ****        -0.1613  -0.4220   0.6411 C.3            1 S1                 0.0000
     11 ****         1.3778  -0.4555   0.6153 C.3            1 S1                 0.0000
     12 ****         1.8682  -1.8520   0.5066 N.4            1 S1                 1.0000
     13 ****         3.3493  -1.9740   0.5348 C.3            1 S1                 0.0000
     14 ****         3.9952  -1.5446  -0.7964 C.3            1 S1                 0.0000
     15 ****         3.3865  -2.3115  -1.9780 C.3            1 S1                 0.0000
     16 ****         1.8591  -2.1579  -1.9857 C.3            1 S1                 0.0000
     17 ****         1.2501  -2.5860  -0.6321 C.3            1 S1                 0.0000
     18 ****        -0.2831  -2.4327  -0.5954 C.3            1 S1                 0.0000
     19 ****        -0.6414  -1.0570  -0.5394 O.3            1 S1                 0.0000
     20 ****        -6.0509   3.5178   0.6148 H              1 S1                 0.0000
     21 ****        -2.5406   5.6962   0.6519 H              1 S1                 0.0000
     22 ****        -1.1174   3.6040   0.7991 H              1 S1                 0.0000
     23 ****        -2.6496   0.1856   0.8007 H              1 S1                 0.0000
     24 ****        -0.4366   1.5280  -0.2655 H              1 S1                 0.0000
     25 ****        -0.2211   1.5656   1.4791 H              1 S1                 0.0000
     26 ****        -0.5234  -0.9538   1.5235 H              1 S1                 0.0000
     27 ****         1.7466   0.1433  -0.2176 H              1 S1                 0.0000
     28 ****         1.7736  -0.0051   1.5264 H              1 S1                 0.0000
     29 ****         3.7560  -1.3919   1.3626 H              1 S1                 0.0000
     30 ****         3.6024  -3.0149   0.7399 H              1 S1                 0.0000
     31 ****         3.8684  -0.4725  -0.9487 H              1 S1                 0.0000
     32 ****         5.0708  -1.7196  -0.7579 H              1 S1                 0.0000
     33 ****         3.8064  -1.9512  -2.9177 H              1 S1                 0.0000
     34 ****         3.6490  -3.3677  -1.9047 H              1 S1                 0.0000
     35 ****         1.5951  -1.1247  -2.2138 H              1 S1                 0.0000
     36 ****         1.4381  -2.7620  -2.7900 H              1 S1                 0.0000
     37 ****         1.4771  -3.6441  -0.4927 H              1 S1                 0.0000
     38 ****        -0.7321  -2.8826  -1.4811 H              1 S1                 0.0000
     39 ****        -0.7012  -2.9561   0.2659 H              1 S1                 0.0000
     40 ****         1.5385  -2.3123   1.3431 H              1 S1                 0.0000
     41 ****        -4.8453   5.4915   0.5735 H              1 S1                 0.0000
     42 ****        -0.2546  -0.5911  -1.3353 LP             1 S1                 0.0000
     43 ****        -1.6384  -0.9830  -0.5617 LP             1 S1                 0.0000
@<TRIPOS>BOND
    1    1    2 1     
    2    2    7 ar    
    3    2    3 ar    
    4    3    4 ar    
    5    3   20 1     
    6    4    5 ar    
    7    4   41 1     
    8    5    6 ar    
    9    5   21 1     
   10    6    7 ar    
   11    6   22 1     
   12    7    8 1     
   13    8    9 1     
   14    8   23 1     
   15    9   10 1     
   16    9   24 1     
   17    9   25 1     
   18   10   19 1     
   19   10   11 1     
   20   10   26 1     
   21   11   12 1     
   22   11   27 1     
   23   11   28 1     
   24   12   17 1     
   25   12   13 1     
   26   12   40 1     
   27   13   14 1     
   28   13   29 1     
   29   13   30 1     
   30   14   15 1     
   31   14   31 1     
   32   14   32 1     
   33   15   16 1     
   34   15   33 1     
   35   15   34 1     
   36   16   17 1     
   37   16   35 1     
   38   16   36 1     
   39   17   18 1     
   40   17   37 1     
   41   18   19 1     
   42   18   38 1     
   43   18   39 1     
   44   19   42 1     
   45   19   43 1     
@<TRIPOS>SUBSTRUCTURE
      1 S1             1
@<TRIPOS>SET
LONE_PAIRS      STATIC     ATOMS    <user>   **** ""
2 42 43
DONOR_HYDROGENS      STATIC     ATOMS    <user>   **** ""
3 41 23 40
ATOM$BLUE        STATIC     ATOMS    COLORGROUP SYSTEM
2 42 43
ATOM$RED        STATIC     ATOMS    COLORGROUP SYSTEM
3 41 23 40
