AV-unprocessed.smi:3306|AV-procd|sdf|12703|dock10
  -GOLD-   2272019 33D 1   1.00000     0.00000
 Structure written by MMmdl.
 44 45  0  0  0  0  0  0  0  0  2 V2000
  143.7929  132.1173  150.4264 C   0  0  0  0  0  0  0  0  0  0  0  0
  144.9273  132.8402  149.6658 C   0  0  0  0  0  0  0  0  0  0  0  0
  145.8995  131.7687  149.1234 C   0  0  0  0  0  0  0  0  0  0  0  0
  145.6160  133.8319  150.5196 N   0  0  0  0  0  0  0  0  0  0  0  0
  145.8399  133.3054  151.8756 C   0  0  0  0  0  0  0  0  0  0  0  0
  146.6362  134.2987  152.7392 C   0  0  0  0  0  0  0  0  0  0  0  0
  145.8996  135.6359  152.8666 C   0  0  0  0  0  0  0  0  0  0  0  0
  146.7174  136.5980  153.6382 N   0  3  0  0  0  0  0  0  0  0  0  0
  146.0984  137.9223  153.8538 C   0  0  0  0  0  0  0  0  0  0  0  0
  146.7841  138.9943  152.9957 C   0  0  0  0  0  0  0  0  0  0  0  0
  147.9043  139.6966  153.7394 C   0  0  0  0  0  0  0  0  0  0  0  0
  149.0773  139.0007  154.1019 C   0  0  0  0  0  0  0  0  0  0  0  0
  150.0845  139.7001  154.7950 C   0  0  0  0  0  0  0  0  0  0  0  0
  149.8802  141.0599  155.0981 C   0  0  0  0  0  0  0  0  0  0  0  0
  148.6725  141.6629  154.6938 C   0  0  0  0  0  0  0  0  0  0  0  0
  147.6995  141.0010  154.0305 N   0  0  0  0  0  0  0  0  0  0  0  0
  145.5916  136.1418  151.4504 C   0  0  0  0  0  0  0  0  0  0  0  0
  144.8392  135.0768  150.6331 C   0  0  0  0  0  0  0  0  0  0  0  0
  143.4010  131.2830  149.8438 H   0  0  0  0  0  0  0  0  0  0  0  0
  142.9394  132.7653  150.6214 H   0  0  0  0  0  0  0  0  0  0  0  0
  144.1430  131.7142  151.3774 H   0  0  0  0  0  0  0  0  0  0  0  0
  144.4865  133.3585  148.8126 H   0  0  0  0  0  0  0  0  0  0  0  0
  145.3568  130.9579  148.6365 H   0  0  0  0  0  0  0  0  0  0  0  0
  146.4951  131.3276  149.9235 H   0  0  0  0  0  0  0  0  0  0  0  0
  146.5773  132.1640  148.3677 H   0  0  0  0  0  0  0  0  0  0  0  0
  144.8855  133.0687  152.3486 H   0  0  0  0  0  0  0  0  0  0  0  0
  146.4186  132.3845  151.8456 H   0  0  0  0  0  0  0  0  0  0  0  0
  146.8032  133.8695  153.7279 H   0  0  0  0  0  0  0  0  0  0  0  0
  147.6226  134.4525  152.2980 H   0  0  0  0  0  0  0  0  0  0  0  0
  144.9651  135.4650  153.4036 H   0  0  0  0  0  0  0  0  0  0  0  0
  146.8868  136.1925  154.5476 H   0  0  0  0  0  0  0  0  0  0  0  0
  145.0376  137.8760  153.6066 H   0  0  0  0  0  0  0  0  0  0  0  0
  146.1746  138.1904  154.9085 H   0  0  0  0  0  0  0  0  0  0  0  0
  147.1852  138.5447  152.0864 H   0  0  0  0  0  0  0  0  0  0  0  0
  146.0546  139.7390  152.6731 H   0  0  0  0  0  0  0  0  0  0  0  0
  149.2057  137.9567  153.8570 H   0  0  0  0  0  0  0  0  0  0  0  0
  150.9971  139.2028  155.0888 H   0  0  0  0  0  0  0  0  0  0  0  0
  150.6309  141.6276  155.6279 H   0  0  0  0  0  0  0  0  0  0  0  0
  148.4827  142.7039  154.9098 H   0  0  0  0  0  0  0  0  0  0  0  0
  144.9868  137.0477  151.4906 H   0  0  0  0  0  0  0  0  0  0  0  0
  146.5167  136.4089  150.9367 H   0  0  0  0  0  0  0  0  0  0  0  0
  144.6533  135.5104  149.6525 H   0  0  0  0  0  0  0  0  0  0  0  0
  143.8658  134.8703  151.0812 H   0  0  0  0  0  0  0  0  0  0  0  0
  147.6055  136.7189  153.1723 H   0  0  0  0  0  0  0  0  0  0  0  0
  1  2  1  0  0  0  0
  1 19  1  0  0  0  0
  1 20  1  0  0  0  0
  1 21  1  0  0  0  0
  2  3  1  0  0  0  0
  2  4  1  0  0  0  0
  2 22  1  0  0  0  0
  3 23  1  0  0  0  0
  3 24  1  0  0  0  0
  3 25  1  0  0  0  0
  4 18  1  0  0  0  0
  4  5  1  0  0  0  0
  5  6  1  0  0  0  0
  5 26  1  0  0  0  0
  5 27  1  0  0  0  0
  6  7  1  0  0  0  0
  6 28  1  0  0  0  0
  6 29  1  0  0  0  0
  7  8  1  0  0  0  0
  7 17  1  0  0  0  0
  7 30  1  0  0  0  0
  8  9  1  0  0  0  0
  8 31  1  0  0  0  0
  8 44  1  0  0  0  0
  9 10  1  0  0  0  0
  9 32  1  0  0  0  0
  9 33  1  0  0  0  0
 10 11  1  0  0  0  0
 10 34  1  0  0  0  0
 10 35  1  0  0  0  0
 11 16  1  0  0  0  0
 11 12  2  0  0  0  0
 12 13  1  0  0  0  0
 12 36  1  0  0  0  0
 13 14  2  0  0  0  0
 13 37  1  0  0  0  0
 14 15  1  0  0  0  0
 14 38  1  0  0  0  0
 15 16  2  0  0  0  0
 15 39  1  0  0  0  0
 17 18  1  0  0  0  0
 17 40  1  0  0  0  0
 17 41  1  0  0  0  0
 18 42  1  0  0  0  0
 18 43  1  0  0  0  0
M  CHG  1   8   1
M  END
> <s_m_source_file>
AV-unprocessed.smi

> <i_m_source_file_index>
3306

> <i_lp_mmshare_version>
43012

> <i_f3d_flags>
0

> <s_epik_input>
W0NIM11bQ0hdKFtDSDNdKU4xW0NIMl1bQ0gyXVtDSF0oW0NIMl1bQ0gyXTEpW05IXVtDSDJdW0NIMl1jMltjSF1bY0hdW2NIXVtjSF1uMg==

> <s_epik_cmdline>
J2VwaWtfcHl0aG9uJywgJy1waCcsICc3LjAnLCAnLXRuJywgJzgnLCAnLW1hJywgJzIwMCcsICctbWV0YWxfYmluZGluZycsICctaW1hZScsICc8aW5maWxlLm1hZT4nLCAnLW9tYWUnLCAnPG91dGZpbGUubWFlPic=

> <r_epik_Ionization_Penalty>
1.34673

> <r_epik_Ionization_Penalty_Charging>
0.000531593

> <r_epik_Ionization_Penalty_Neutral>
1.3462

> <r_epik_State_Penalty>
1.43277

> <r_epik_Charging_Adjusted_Penalty>
1.4333

> <i_epik_Tot_Q>
1

> <i_epik_Tot_abs_Q>
1

> <r_epik_Metal_State_Penalty>
1.43418

> <b_epik_Metal_Only>
0

> <s_lp_Force_Field>
OPLS_2005

> <r_lp_Energy>
21.3297

> <b_lp_Chiralities_Consistent>
1

> <s_lp_Variant>
AV-unprocessed.smi:3306-3

> <Gold.Version>
5.8.1

> <Gold.Id.Protein>
6NUR|6NUR_protein|mol2

> <Gold.PLP.Fitness>
41.5687

> <Gold.PLP.PLP>
-34.4477

> <Gold.PLP.part.hbond>
-1.0000

> <Gold.PLP.part.metal>
0.0000

> <Gold.PLP.part.buried>
0.6453

> <Gold.PLP.part.nonpolar>
-32.8292

> <Gold.PLP.part.repulsive>
0.6027

> <Gold.PLP.ligand.clash>
0.0000

> <Gold.PLP.ligand.torsion>
0.9518

> <Gold.PLP.Chemscore.Hbond>
2.0000

> <Gold.PLP.Chemscore.CHOScore>
1.0000

> <Gold.PLP.Chemscore.Metal>
0.0000

> <Gold.Chemscore.Hbonds>
donor molecule, donor type, donor heavy atom, donor atom, acceptor molecule, acceptor atom, score
      L1  H     8    44       P1  7948  2.00
      L1  C    15    39       P1  8028  1.00

> <Gold.PLP.Chemscore.Internal.Correction>
0.0246

> <Gold.Rescore>
     Score         DG    S(hbond)    S(metal)    S(lipo)     H(rot)  DE(clash)    DE(int)     intcor
     15.98     -17.06       0.98        0.00     101.77       1.41       0.11       0.97       ----

> <Gold.Chemscore.Fitness>
15.9776

> <Gold.Chemscore.DG>
-17.0584

> <Gold.Chemscore.ZeroCoef>
-5.4800

> <Gold.Chemscore.Hbond>
0.9826

> <Gold.Chemscore.Metal>
0.0000

> <Gold.Chemscore.Lipo>
101.7744

> <Gold.Chemscore.Internal_Hbond>
0.0000

> <Gold.Chemscore.DEClash>
0.1134

> <Gold.Chemscore.DEInternal>
0.9675

> <Gold.Chemscore.Rot>
1.4106

> <Gold.Chemscore.Internal.Correction>
   9.000000E+99

> <Gold.Chemscore.Hbonds>
donor molecule, donor type, donor heavy atom, donor atom, acceptor molecule, acceptor atom, score
      L1  H     8    44       P1  7948  0.96

> <Gold.Chemscore.Hbond.Weighted>
-3.2820

> <Gold.Chemscore.Metal.Weighted>
-0.0000

> <Gold.Chemscore.Lipo.Weighted>
-11.9076

> <Gold.Chemscore.Internal_Hbond.Weighted>
0.0000

> <Gold.Chemscore.DEClash.Weighted>
0.1134

> <Gold.Chemscore.DEInternal.Weighted>
0.9675

> <Gold.Chemscore.Rot.Weighted>
3.6112

> <Gold.Chemscore.Internal.Correction.Weighted>
   9.000000E+99

> <Gold.Protein.RotatedTorsions>
[ 6907 6896 6895 6894 ] final -167.57 input  -60.11 | X-H torsion
[ 7974 7965 7964 7962 ] final  -99.11 input  175.53 | X-H torsion
[ 8008 7997 7996 7995 ] final  122.13 input   59.86 | X-H torsion
[ 10167 10162 10161 10158 ] final  129.91 input  -65.29 | X-H torsion
[ 10718 10713 10712 10709 ] final -142.26 input   66.30 | X-H torsion
[ 10763 10752 10751 10750 ] final -133.60 input  -60.55 | X-H torsion
[ 11005 11000 10999 10996 ] final  175.39 input  -57.11 | X-H torsion

> <Gold.Protein.ActiveResidues>
 VAL166  LYS551  ARG553  GLY616  TRP617  ASP618  TYR619  PRO620  LYS621  CYS622 
 ASP623  PHE694  ASN695  SER759  ASP760  ASP761  ALA762  ILE779  LEU786  VAL792 
 PHE793  MET794  SER795  GLU796  ALA797  LYS798  CYS799  TRP800  GLU811  SER814 

> <Gold.Protein.RotatedAtoms>
  151.4617  133.3591  159.2809 H   0  0  0  0  0  0  0  0  0  0  0  0  # atno 6907 bound_to 6896
  150.9021  134.8436  159.7378 H   0  0  0  0  0  0  0  0  0  0  0  0  # atno 6908 bound_to 6896
  152.4885  134.4538  159.9635 H   0  0  0  0  0  0  0  0  0  0  0  0  # atno 6909 bound_to 6896
  145.3118  140.9402  143.2765 H   0  0  0  0  0  0  0  0  0  0  0  0  # atno 7974 bound_to 7965
  156.2715  140.2793  156.1418 H   0  0  0  0  0  0  0  0  0  0  0  0  # atno 8008 bound_to 7997
  155.0945  140.0389  157.2696 H   0  0  0  0  0  0  0  0  0  0  0  0  # atno 8009 bound_to 7997
  154.6863  140.2619  155.6863 H   0  0  0  0  0  0  0  0  0  0  0  0  # atno 8010 bound_to 7997
  139.5455  144.6769  151.4488 H   0  0  0  0  0  0  0  0  0  0  0  0  # atno 10167 bound_to 10162
  156.3438  130.7652  151.1792 H   0  0  0  0  0  0  0  0  0  0  0  0  # atno 10718 bound_to 10713
  154.8730  135.3761  154.4600 H   0  0  0  0  0  0  0  0  0  0  0  0  # atno 10763 bound_to 10752
  153.5269  135.7028  153.5708 H   0  0  0  0  0  0  0  0  0  0  0  0  # atno 10764 bound_to 10752
  153.3930  135.3967  155.1901 H   0  0  0  0  0  0  0  0  0  0  0  0  # atno 10765 bound_to 10752
  140.3617  134.7107  157.4335 H   0  0  0  0  0  0  0  0  0  0  0  0  # atno 11005 bound_to 11000
  144.9010  139.4650  143.6632 LP  0  0  0  0  0  0  0  0  0  0  0  0  # atno 17320 bound_to 7965
  146.3115  139.7763  142.9016 LP  0  0  0  0  0  0  0  0  0  0  0  0  # atno 17321 bound_to 7965
  140.6701  143.8312  150.6989 LP  0  0  0  0  0  0  0  0  0  0  0  0  # atno 17342 bound_to 10162
  140.1734  143.4175  152.1985 LP  0  0  0  0  0  0  0  0  0  0  0  0  # atno 17343 bound_to 10162
  157.7451  131.0447  150.4806 LP  0  0  0  0  0  0  0  0  0  0  0  0  # atno 17370 bound_to 10713
  156.4990  130.4113  149.6364 LP  0  0  0  0  0  0  0  0  0  0  0  0  # atno 17371 bound_to 10713
  140.0621  134.5981  155.8737 LP  0  0  0  0  0  0  0  0  0  0  0  0  # atno 17394 bound_to 11000
  141.1982  133.6600  156.5779 LP  0  0  0  0  0  0  0  0  0  0  0  0  # atno 17395 bound_to 11000

$$$$
