AV-unprocessed.smi:414|AV-procd|sdf|2514|dock4
  -GOLD-   2262022463D 1   1.00000     0.00000
 Structure written by MMmdl.
 38 39  0  0  0  0  0  0  0  0  1 V2000
  153.2479  142.3348  161.1391 C   0  0  0  0  0  0  0  0  0  0  0  0
  152.1607  142.3899  160.0564 C   0  0  2  0  0  0  0  0  0  0  0  0
  152.0506  141.0526  159.2994 C   0  0  0  0  0  0  0  0  0  0  0  0
  150.9645  141.1055  158.2126 C   0  0  0  0  0  0  0  0  0  0  0  0
  151.2099  142.2620  157.2267 C   0  0  1  0  0  0  0  0  0  0  0  0
  150.1275  142.3091  156.2484 N   0  0  0  0  0  0  0  0  0  0  0  0
  149.9433  141.4300  155.2513 C   0  0  0  0  0  0  0  0  0  0  0  0
  150.6978  140.4788  155.0429 O   0  0  0  0  0  0  0  0  0  0  0  0
  148.7326  141.6863  154.3424 C   0  0  0  0  0  0  0  0  0  0  0  0
  147.4581  141.2831  154.9545 N   0  0  0  0  0  0  0  0  0  0  0  0
  147.0762  141.8017  156.1837 C   0  0  0  0  0  0  0  0  0  0  0  0
  145.9124  141.4831  156.7983 C   0  0  0  0  0  0  0  0  0  0  0  0
  144.9790  140.5510  156.1750 C   0  0  0  0  0  0  0  0  0  0  0  0
  143.9025  140.1994  156.6527 O   0  0  0  0  0  0  0  0  0  0  0  0
  145.3977  140.0528  154.9384 N   0  0  0  0  0  0  0  0  0  0  0  0
  146.5949  140.3782  154.2987 C   0  0  0  0  0  0  0  0  0  0  0  0
  146.8658  139.8839  153.2048 O   0  0  0  0  0  0  0  0  0  0  0  0
  151.3231  143.6028  157.9799 C   0  0  0  0  0  0  0  0  0  0  0  0
  152.4072  143.5460  159.0684 C   0  0  0  0  0  0  0  0  0  0  0  0
  144.7820  139.4059  154.4674 H   0  0  0  0  0  0  0  0  0  0  0  0
  154.2314  142.1526  160.7048 H   0  0  0  0  0  0  0  0  0  0  0  0
  153.0476  141.5383  161.8566 H   0  0  0  0  0  0  0  0  0  0  0  0
  153.2973  143.2722  161.6940 H   0  0  0  0  0  0  0  0  0  0  0  0
  151.2085  142.5728  160.5567 H   0  0  0  0  0  0  0  0  0  0  0  0
  153.0099  140.8075  158.8413 H   0  0  0  0  0  0  0  0  0  0  0  0
  151.8277  140.2454  159.9980 H   0  0  0  0  0  0  0  0  0  0  0  0
  150.9377  140.1563  157.6758 H   0  0  0  0  0  0  0  0  0  0  0  0
  149.9876  141.2210  158.6847 H   0  0  0  0  0  0  0  0  0  0  0  0
  152.1502  142.0684  156.7064 H   0  0  0  0  0  0  0  0  0  0  0  0
  149.4633  143.0637  156.3418 H   0  0  0  0  0  0  0  0  0  0  0  0
  148.6971  142.7412  154.0618 H   0  0  0  0  0  0  0  0  0  0  0  0
  148.8909  141.1457  153.4081 H   0  0  0  0  0  0  0  0  0  0  0  0
  147.7347  142.5001  156.6805 H   0  0  0  0  0  0  0  0  0  0  0  0
  145.6703  141.9214  157.7557 H   0  0  0  0  0  0  0  0  0  0  0  0
  151.5514  144.4096  157.2824 H   0  0  0  0  0  0  0  0  0  0  0  0
  150.3645  143.8524  158.4370 H   0  0  0  0  0  0  0  0  0  0  0  0
  152.4354  144.4954  159.6040 H   0  0  0  0  0  0  0  0  0  0  0  0
  153.3848  143.4281  158.5988 H   0  0  0  0  0  0  0  0  0  0  0  0
  1  2  1  0  0  0  0
  1 21  1  0  0  0  0
  1 22  1  0  0  0  0
  1 23  1  0  0  0  0
  2 19  1  0  0  0  0
  2  3  1  0  0  0  0
  2 24  1  0  0  0  0
  3  4  1  0  0  0  0
  3 25  1  0  0  0  0
  3 26  1  0  0  0  0
  4  5  1  0  0  0  0
  4 27  1  0  0  0  0
  4 28  1  0  0  0  0
  5  6  1  0  0  0  0
  5 18  1  0  0  0  0
  5 29  1  0  0  0  0
  6  7  1  0  0  0  0
  6 30  1  0  0  0  0
  7  8  2  0  0  0  0
  7  9  1  0  0  0  0
  9 10  1  0  0  0  0
  9 31  1  0  0  0  0
  9 32  1  0  0  0  0
 10 16  1  0  0  0  0
 10 11  1  0  0  0  0
 11 12  2  0  0  0  0
 11 33  1  0  0  0  0
 12 13  1  0  0  0  0
 12 34  1  0  0  0  0
 13 14  2  0  0  0  0
 13 15  1  0  0  0  0
 15 20  1  0  0  0  0
 15 16  1  0  0  0  0
 16 17  2  0  0  0  0
 18 19  1  0  0  0  0
 18 35  1  0  0  0  0
 18 36  1  0  0  0  0
 19 37  1  0  0  0  0
 19 38  1  0  0  0  0
M  END
> <s_m_source_file>
AV-unprocessed.smi

> <i_m_source_file_index>
414

> <i_lp_mmshare_version>
43012

> <i_f3d_flags>
0

> <s_epik_input>
W0NIM11bQ0BASF0xW0NIMl1bQ0gyXVtDQEhdKFtDSDJdW0NIMl0xKVtOSF1DKD1PKVtDSDJdbjJbY0hdW2NIXWMoPU8pW25IXWMyPU8=

> <s_epik_cmdline>
J2VwaWtfcHl0aG9uJywgJy1waCcsICc3LjAnLCAnLXRuJywgJzgnLCAnLW1hJywgJzIwMCcsICctbWV0YWxfYmluZGluZycsICctaW1hZScsICc8aW5maWxlLm1hZT4nLCAnLW9tYWUnLCAnPG91dGZpbGUubWFlPic=

> <r_lp_tautomer_probability>
0.999537

> <r_epik_Ionization_Penalty>
0.00309124

> <r_epik_Ionization_Penalty_Charging>
0.00309122

> <r_epik_Ionization_Penalty_Neutral>
1.90469e-08

> <r_epik_State_Penalty>
0.00217484

> <r_epik_Charging_Adjusted_Penalty>
0.00526606

> <i_epik_Tot_Q>
0

> <i_epik_Tot_abs_Q>
0

> <r_epik_Metal_State_Penalty>
0.362537

> <b_epik_Metal_Only>
0

> <s_lp_Force_Field>
OPLS_2005

> <r_lp_Energy>
8.30971

> <b_lp_Chiralities_Consistent>
1

> <s_lp_Variant>
AV-unprocessed.smi:414-1

> <Gold.Version>
5.8.1

> <Gold.Id.Protein>
6NUR|6NUR_protein|mol2

> <Gold.PLP.Fitness>
43.3420

> <Gold.PLP.PLP>
-35.1335

> <Gold.PLP.part.hbond>
-2.9577

> <Gold.PLP.part.metal>
0.0000

> <Gold.PLP.part.buried>
-3.6382

> <Gold.PLP.part.nonpolar>
-28.5673

> <Gold.PLP.part.repulsive>
0.4087

> <Gold.PLP.ligand.clash>
0.0000

> <Gold.PLP.ligand.torsion>
0.3981

> <Gold.PLP.Chemscore.Hbond>
2.0000

> <Gold.PLP.Chemscore.CHOScore>
1.0000

> <Gold.PLP.Chemscore.Metal>
0.0000

> <Gold.Chemscore.Hbonds>
donor molecule, donor type, donor heavy atom, donor atom, acceptor molecule, acceptor atom, score
      L1  H     6    30       P1  8028  0.91
      P1  H  7989  7998       L1     8  1.00
      L1  C    11    33       P1  8028  0.60

> <Gold.PLP.Chemscore.Internal.Correction>
0.0047

> <Gold.Rescore>
     Score         DG    S(hbond)    S(metal)    S(lipo)     H(rot)  DE(clash)    DE(int)     intcor
     16.25     -16.66       1.68        0.00      84.44       1.69       0.17       0.25       ----

> <Gold.Chemscore.Fitness>
16.2497

> <Gold.Chemscore.DG>
-16.6619

> <Gold.Chemscore.ZeroCoef>
-5.4800

> <Gold.Chemscore.Hbond>
1.6833

> <Gold.Chemscore.Metal>
0.0000

> <Gold.Chemscore.Lipo>
84.4390

> <Gold.Chemscore.Internal_Hbond>
0.0000

> <Gold.Chemscore.DEClash>
0.1667

> <Gold.Chemscore.DEInternal>
0.2455

> <Gold.Chemscore.Rot>
1.6874

> <Gold.Chemscore.Internal.Correction>
   9.000000E+99

> <Gold.Chemscore.Hbonds>
donor molecule, donor type, donor heavy atom, donor atom, acceptor molecule, acceptor atom, score
      L1  H     6    30       P1  8028  0.89
      P1  H  7989  7998       L1     8  0.53

> <Gold.Chemscore.Hbond.Weighted>
-5.6223

> <Gold.Chemscore.Metal.Weighted>
-0.0000

> <Gold.Chemscore.Lipo.Weighted>
-9.8794

> <Gold.Chemscore.Internal_Hbond.Weighted>
0.0000

> <Gold.Chemscore.DEClash.Weighted>
0.1667

> <Gold.Chemscore.DEInternal.Weighted>
0.2455

> <Gold.Chemscore.Rot.Weighted>
4.3198

> <Gold.Chemscore.Internal.Correction.Weighted>
   9.000000E+99

> <Gold.Protein.RotatedTorsions>
[ 6907 6896 6895 6894 ] final   73.22 input  -60.11 | X-H torsion
[ 7974 7965 7964 7962 ] final   90.48 input  175.53 | X-H torsion
[ 8008 7997 7996 7995 ] final -157.13 input   59.86 | X-H torsion
[ 10167 10162 10161 10158 ] final   -6.69 input  -65.29 | X-H torsion
[ 10718 10713 10712 10709 ] final  -26.35 input   66.30 | X-H torsion
[ 10763 10752 10751 10750 ] final  128.76 input  -60.55 | X-H torsion
[ 11005 11000 10999 10996 ] final   11.49 input  -57.11 | X-H torsion

> <Gold.Protein.ActiveResidues>
 VAL166  LYS551  ARG553  GLY616  TRP617  ASP618  TYR619  PRO620  LYS621  CYS622 
 ASP623  PHE694  ASN695  SER759  ASP760  ASP761  ALA762  ILE779  LEU786  VAL792 
 PHE793  MET794  SER795  GLU796  ALA797  LYS798  CYS799  TRP800  GLU811  SER814 

> <Gold.Protein.RotatedAtoms>
  152.4911  134.4453  159.9556 H   0  0  0  0  0  0  0  0  0  0  0  0  # atno 6907 bound_to 6896
  151.4440  133.3629  159.2793 H   0  0  0  0  0  0  0  0  0  0  0  0  # atno 6908 bound_to 6896
  150.9067  134.8506  159.7458 H   0  0  0  0  0  0  0  0  0  0  0  0  # atno 6909 bound_to 6896
  145.5185  139.2278  143.2685 H   0  0  0  0  0  0  0  0  0  0  0  0  # atno 7974 bound_to 7965
  155.7277  140.0798  157.2303 H   0  0  0  0  0  0  0  0  0  0  0  0  # atno 8008 bound_to 7997
  154.4037  140.1601  156.2528 H   0  0  0  0  0  0  0  0  0  0  0  0  # atno 8009 bound_to 7997
  155.9138  140.3402  155.6122 H   0  0  0  0  0  0  0  0  0  0  0  0  # atno 8010 bound_to 7997
  140.7005  143.6166  150.8653 H   0  0  0  0  0  0  0  0  0  0  0  0  # atno 10167 bound_to 10162
  156.4523  130.4486  149.6982 H   0  0  0  0  0  0  0  0  0  0  0  0  # atno 10718 bound_to 10713
  153.7308  135.3239  155.3285 H   0  0  0  0  0  0  0  0  0  0  0  0  # atno 10763 bound_to 10752
  154.8326  135.4521  154.1124 H   0  0  0  0  0  0  0  0  0  0  0  0  # atno 10764 bound_to 10752
  153.2271  135.6955  153.8014 H   0  0  0  0  0  0  0  0  0  0  0  0  # atno 10765 bound_to 10752
  140.5027  134.0730  155.7798 H   0  0  0  0  0  0  0  0  0  0  0  0  # atno 11005 bound_to 11000
  146.2121  140.5995  142.9055 LP  0  0  0  0  0  0  0  0  0  0  0  0  # atno 17320 bound_to 7965
  144.7689  140.5593  143.6684 LP  0  0  0  0  0  0  0  0  0  0  0  0  # atno 17321 bound_to 7965
  139.9887  143.5870  152.2918 LP  0  0  0  0  0  0  0  0  0  0  0  0  # atno 17342 bound_to 10162
  139.6518  144.7661  151.2133 LP  0  0  0  0  0  0  0  0  0  0  0  0  # atno 17343 bound_to 10162
  156.3803  130.7575  151.2568 LP  0  0  0  0  0  0  0  0  0  0  0  0  # atno 17370 bound_to 10713
  157.7502  131.0297  150.4106 LP  0  0  0  0  0  0  0  0  0  0  0  0  # atno 17371 bound_to 10713
  141.1427  133.9110  157.2288 LP  0  0  0  0  0  0  0  0  0  0  0  0  # atno 17394 bound_to 11000
  139.9704  135.0130  156.9497 LP  0  0  0  0  0  0  0  0  0  0  0  0  # atno 17395 bound_to 11000

$$$$
