AV-unprocessed.smi:2502|AV-procd|sdf|9845|dock6
  -GOLD-   2272013473D 1   1.00000     0.00000
 Structure written by MMmdl.
 39 41  0  0  0  0  0  0  0  0  1 V2000
  152.6250  137.4663  155.0350 O   0  0  0  0  0  0  0  0  0  0  0  0
  151.6442  138.4117  155.4155 C   0  0  2  0  0  0  0  0  0  0  0  0
  150.5661  138.4917  154.3227 C   0  0  0  0  0  0  0  0  0  0  0  0
  150.2335  139.8489  154.0628 O   0  0  0  0  0  0  0  0  0  0  0  0
  148.9234  140.2261  154.4665 C   0  0  0  0  0  0  0  0  0  0  0  0
  147.8451  139.4107  153.7312 C   0  0  0  0  0  0  0  0  0  0  0  0
  146.4463  139.9734  154.0322 C   0  0  0  0  0  0  0  0  0  0  0  0
  146.3853  141.3508  153.6767 O   0  0  0  0  0  0  0  0  0  0  0  0
  147.2955  142.1572  154.4171 C   0  0  0  0  0  0  0  0  0  0  0  0
  148.7396  141.7123  154.1335 C   0  0  0  0  0  0  0  0  0  0  0  0
  152.2780  139.7737  155.7632 C   0  0  0  0  0  0  0  0  0  0  0  0
  152.6372  139.8730  157.1667 N   0  0  0  0  0  0  0  0  0  0  0  0
  153.2397  138.8143  157.7784 N   0  0  0  0  0  0  0  0  0  0  0  0
  153.4777  139.1293  159.0165 N   0  0  0  0  0  0  0  0  0  0  0  0
  153.0209  140.4198  159.2257 C   0  0  0  0  0  0  0  0  0  0  0  0
  153.0281  141.2478  160.3703 C   0  0  0  0  0  0  0  0  0  0  0  0
  152.4872  142.5510  160.3124 C   0  0  0  0  0  0  0  0  0  0  0  0
  152.5156  143.5333  161.7335 Cl  0  0  0  0  0  0  0  0  0  0  0  0
  151.9321  143.0413  159.1057 C   0  0  0  0  0  0  0  0  0  0  0  0
  151.2648  144.6325  159.0185 Cl  0  0  0  0  0  0  0  0  0  0  0  0
  151.9205  142.2273  157.9553 C   0  0  0  0  0  0  0  0  0  0  0  0
  152.4632  140.9334  158.0347 C   0  0  0  0  0  0  0  0  0  0  0  0
  152.4998  137.2537  154.1228 H   0  0  0  0  0  0  0  0  0  0  0  0
  151.1708  138.0095  156.3120 H   0  0  0  0  0  0  0  0  0  0  0  0
  150.9050  137.9812  153.4210 H   0  0  0  0  0  0  0  0  0  0  0  0
  149.6719  137.9704  154.6684 H   0  0  0  0  0  0  0  0  0  0  0  0
  148.8148  140.0983  155.5452 H   0  0  0  0  0  0  0  0  0  0  0  0
  148.0259  139.4453  152.6562 H   0  0  0  0  0  0  0  0  0  0  0  0
  147.8831  138.3613  154.0216 H   0  0  0  0  0  0  0  0  0  0  0  0
  145.6936  139.4295  153.4613 H   0  0  0  0  0  0  0  0  0  0  0  0
  146.1961  139.8486  155.0869 H   0  0  0  0  0  0  0  0  0  0  0  0
  147.1601  143.1988  154.1249 H   0  0  0  0  0  0  0  0  0  0  0  0
  147.0699  142.0939  155.4829 H   0  0  0  0  0  0  0  0  0  0  0  0
  149.4401  142.3167  154.7106 H   0  0  0  0  0  0  0  0  0  0  0  0
  148.9698  141.8857  153.0815 H   0  0  0  0  0  0  0  0  0  0  0  0
  153.1741  139.9459  155.1656 H   0  0  0  0  0  0  0  0  0  0  0  0
  151.5862  140.5829  155.5251 H   0  0  0  0  0  0  0  0  0  0  0  0
  153.4508  140.8802  161.2937 H   0  0  0  0  0  0  0  0  0  0  0  0
  151.5022  142.5903  157.0280 H   0  0  0  0  0  0  0  0  0  0  0  0
  1  2  1  0  0  0  0
  1 23  1  0  0  0  0
  2  3  1  0  0  0  0
  2 11  1  0  0  0  0
  2 24  1  0  0  0  0
  3  4  1  0  0  0  0
  3 25  1  0  0  0  0
  3 26  1  0  0  0  0
  4  5  1  0  0  0  0
  5 10  1  0  0  0  0
  5  6  1  0  0  0  0
  5 27  1  0  0  0  0
  6  7  1  0  0  0  0
  6 28  1  0  0  0  0
  6 29  1  0  0  0  0
  7  8  1  0  0  0  0
  7 30  1  0  0  0  0
  7 31  1  0  0  0  0
  8  9  1  0  0  0  0
  9 10  1  0  0  0  0
  9 32  1  0  0  0  0
  9 33  1  0  0  0  0
 10 34  1  0  0  0  0
 10 35  1  0  0  0  0
 11 12  1  0  0  0  0
 11 36  1  0  0  0  0
 11 37  1  0  0  0  0
 12 22  1  0  0  0  0
 12 13  1  0  0  0  0
 13 14  2  0  0  0  0
 14 15  1  0  0  0  0
 15 22  2  0  0  0  0
 15 16  1  0  0  0  0
 16 17  2  0  0  0  0
 16 38  1  0  0  0  0
 17 18  1  0  0  0  0
 17 19  1  0  0  0  0
 19 20  1  0  0  0  0
 19 21  2  0  0  0  0
 21 22  1  0  0  0  0
 21 39  1  0  0  0  0
M  END
> <s_m_source_file>
AV-unprocessed.smi

> <i_m_source_file_index>
2502

> <i_lp_mmshare_version>
43012

> <i_f3d_flags>
0

> <s_epik_input>
W2NIXTFjKENsKWMoQ2wpW2NIXWMoYzEyKW4obm4yKVtDSDJdW0NASF0oW09IXSlbQ0gyXU9bQ0hdM1tDSDJdW0NIMl1PW0NIMl1bQ0gyXTM=

> <s_epik_cmdline>
J2VwaWtfcHl0aG9uJywgJy1waCcsICc3LjAnLCAnLXRuJywgJzgnLCAnLW1hJywgJzIwMCcsICctbWV0YWxfYmluZGluZycsICctaW1hZScsICc8aW5maWxlLm1hZT4nLCAnLW9tYWUnLCAnPG91dGZpbGUubWFlPic=

> <r_lp_tautomer_probability>
1

> <r_epik_Ionization_Penalty>
2.65748e-06

> <r_epik_Ionization_Penalty_Charging>
0

> <r_epik_Ionization_Penalty_Neutral>
2.65748e-06

> <r_epik_State_Penalty>
-0

> <r_epik_Charging_Adjusted_Penalty>
0

> <i_epik_Tot_Q>
0

> <i_epik_Tot_abs_Q>
0

> <r_epik_Metal_State_Penalty>
-0

> <b_epik_Metal_Only>
0

> <s_lp_Force_Field>
OPLS_2005

> <r_lp_Energy>
14.9544

> <b_lp_Chiralities_Consistent>
1

> <s_lp_Variant>
AV-unprocessed.smi:2502-1

> <Gold.Version>
5.8.1

> <Gold.Id.Protein>
6NUR|6NUR_protein|mol2

> <Gold.PLP.Fitness>
41.5546

> <Gold.PLP.PLP>
-41.7093

> <Gold.PLP.part.hbond>
-3.0000

> <Gold.PLP.part.metal>
0.0000

> <Gold.PLP.part.buried>
-0.2774

> <Gold.PLP.part.nonpolar>
-37.2084

> <Gold.PLP.part.repulsive>
1.5376

> <Gold.PLP.ligand.clash>
0.0000

> <Gold.PLP.ligand.torsion>
1.6558

> <Gold.PLP.Chemscore.Hbond>
1.0343

> <Gold.PLP.Chemscore.CHOScore>
0.0000

> <Gold.PLP.Chemscore.Metal>
0.0000

> <Gold.Chemscore.Hbonds>
donor molecule, donor type, donor heavy atom, donor atom, acceptor molecule, acceptor atom, score
      P1  H  7989  7998       L1     4  1.00
      P1  H 10752 10765       L1     1  0.03

> <Gold.PLP.Chemscore.Internal.Correction>
0.0540

> <Gold.Rescore>
     Score         DG    S(hbond)    S(metal)    S(lipo)     H(rot)  DE(clash)    DE(int)     intcor
     15.08     -18.18       0.98        0.00     128.97       2.21       1.45       1.66       ----

> <Gold.Chemscore.Fitness>
15.0817

> <Gold.Chemscore.DG>
-18.1850

> <Gold.Chemscore.ZeroCoef>
-5.4800

> <Gold.Chemscore.Hbond>
0.9772

> <Gold.Chemscore.Metal>
0.0000

> <Gold.Chemscore.Lipo>
128.9711

> <Gold.Chemscore.Internal_Hbond>
0.0000

> <Gold.Chemscore.DEClash>
1.4452

> <Gold.Chemscore.DEInternal>
1.6580

> <Gold.Chemscore.Rot>
2.2065

> <Gold.Chemscore.Internal.Correction>
   9.000000E+99

> <Gold.Chemscore.Hbonds>
donor molecule, donor type, donor heavy atom, donor atom, acceptor molecule, acceptor atom, score
      P1  H  7989  7998       L1     4  0.87

> <Gold.Chemscore.Hbond.Weighted>
-3.2638

> <Gold.Chemscore.Metal.Weighted>
-0.0000

> <Gold.Chemscore.Lipo.Weighted>
-15.0896

> <Gold.Chemscore.Internal_Hbond.Weighted>
0.0000

> <Gold.Chemscore.DEClash.Weighted>
1.4452

> <Gold.Chemscore.DEInternal.Weighted>
1.6580

> <Gold.Chemscore.Rot.Weighted>
5.6485

> <Gold.Chemscore.Internal.Correction.Weighted>
   9.000000E+99

> <Gold.Protein.RotatedTorsions>
[ 6907 6896 6895 6894 ] final   68.32 input  -60.11 | X-H torsion
[ 7974 7965 7964 7962 ] final  -53.81 input  175.53 | X-H torsion
[ 8008 7997 7996 7995 ] final   41.16 input   59.86 | X-H torsion
[ 10167 10162 10161 10158 ] final  157.68 input  -65.29 | X-H torsion
[ 10718 10713 10712 10709 ] final  131.90 input   66.30 | X-H torsion
[ 10763 10752 10751 10750 ] final -136.48 input  -60.55 | X-H torsion
[ 11005 11000 10999 10996 ] final  -26.19 input  -57.11 | X-H torsion

> <Gold.Protein.ActiveResidues>
 VAL166  LYS551  ARG553  GLY616  TRP617  ASP618  TYR619  PRO620  LYS621  CYS622 
 ASP623  PHE694  ASN695  SER759  ASP760  ASP761  ALA762  ILE779  LEU786  VAL792 
 PHE793  MET794  SER795  GLU796  ALA797  LYS798  CYS799  TRP800  GLU811  SER814 

> <Gold.Protein.RotatedAtoms>
  152.4612  134.5180  159.9773 H   0  0  0  0  0  0  0  0  0  0  0  0  # atno 6907 bound_to 6896
  151.5228  133.3457  159.2912 H   0  0  0  0  0  0  0  0  0  0  0  0  # atno 6908 bound_to 6896
  150.8576  134.7948  159.7120 H   0  0  0  0  0  0  0  0  0  0  0  0  # atno 6909 bound_to 6896
  145.8926  140.8058  142.9784 H   0  0  0  0  0  0  0  0  0  0  0  0  # atno 7974 bound_to 7965
  155.2651  140.3362  155.4270 H   0  0  0  0  0  0  0  0  0  0  0  0  # atno 8008 bound_to 7997
  156.2157  140.1788  156.7636 H   0  0  0  0  0  0  0  0  0  0  0  0  # atno 8009 bound_to 7997
  154.5751  140.0663  156.9006 H   0  0  0  0  0  0  0  0  0  0  0  0  # atno 8010 bound_to 7997
  139.4824  144.4895  151.8329 H   0  0  0  0  0  0  0  0  0  0  0  0  # atno 10167 bound_to 10162
  157.4923  131.1091  150.9539 H   0  0  0  0  0  0  0  0  0  0  0  0  # atno 10718 bound_to 10713
  154.8683  135.3671  154.5068 H   0  0  0  0  0  0  0  0  0  0  0  0  # atno 10763 bound_to 10752
  153.5705  135.7021  153.5511 H   0  0  0  0  0  0  0  0  0  0  0  0  # atno 10764 bound_to 10752
  153.3546  135.4063  155.1635 H   0  0  0  0  0  0  0  0  0  0  0  0  # atno 10765 bound_to 10752
  140.9006  133.7526  156.0539 H   0  0  0  0  0  0  0  0  0  0  0  0  # atno 11005 bound_to 11000
  144.6731  140.1553  143.7427 LP  0  0  0  0  0  0  0  0  0  0  0  0  # atno 17320 bound_to 7965
  145.8889  139.2365  143.1561 LP  0  0  0  0  0  0  0  0  0  0  0  0  # atno 17321 bound_to 7965
  140.4378  144.2028  150.5890 LP  0  0  0  0  0  0  0  0  0  0  0  0  # atno 17342 bound_to 10162
  140.4714  143.2411  151.9083 LP  0  0  0  0  0  0  0  0  0  0  0  0  # atno 17343 bound_to 10162
  157.0237  130.5684  149.5334 LP  0  0  0  0  0  0  0  0  0  0  0  0  # atno 17370 bound_to 10713
  156.0181  130.5275  150.8194 LP  0  0  0  0  0  0  0  0  0  0  0  0  # atno 17371 bound_to 10713
  140.8234  134.3262  157.5374 LP  0  0  0  0  0  0  0  0  0  0  0  0  # atno 17394 bound_to 11000
  139.8742  134.9322  156.3549 LP  0  0  0  0  0  0  0  0  0  0  0  0  # atno 17395 bound_to 11000

$$$$
