AV-unprocessed.smi:12|AV-procd|sdf|64|dock9
  -GOLD-   2262015183D 1   1.00000     0.00000
 Structure written by MMmdl.
 41 44  0  0  0  0  0  0  0  0  1 V2000
  156.9293  140.7743  167.1162 C   0  0  0  0  0  0  0  0  0  0  0  0
  156.8849  139.4740  166.3338 C   0  0  0  0  0  0  0  0  0  0  0  0
  155.7646  139.0678  165.6911 C   0  0  0  0  0  0  0  0  0  0  0  0
  155.7791  137.8914  164.9956 N   0  0  0  0  0  0  0  0  0  0  0  0
  156.9528  137.1042  164.9744 C   0  0  0  0  0  0  0  0  0  0  0  0
  158.0623  137.4235  165.5648 N   0  0  0  0  0  0  0  0  0  0  0  0
  158.1093  138.6362  166.2788 C   0  0  0  0  0  0  0  0  0  0  0  0
  159.1437  138.9869  166.8450 O   0  0  0  0  0  0  0  0  0  0  0  0
  156.7157  135.9721  164.2541 O   0  0  0  0  0  0  0  0  0  0  0  0
  155.3716  135.9977  163.7524 C   0  0  2  0  0  0  0  0  0  0  0  0
  155.2918  136.1228  162.2283 C   0  0  2  0  0  0  0  0  0  0  0  0
  156.5200  136.5440  161.6600 O   0  0  0  0  0  0  0  0  0  0  0  0
  154.2086  137.1943  162.0334 C   0  0  2  0  0  0  0  0  0  0  0  0
  154.2371  137.9808  160.7136 C   0  0  0  0  0  0  0  0  0  0  0  0
  153.9287  139.3427  160.9649 O   0  0  0  0  0  0  0  0  0  0  0  0
  153.6742  140.1754  159.9360 C   0  0  0  0  0  0  0  0  0  0  0  0
  153.8531  139.8737  158.7545 O   0  0  0  0  0  0  0  0  0  0  0  0
  153.1561  141.5032  160.3758 C   0  0  0  0  0  0  0  0  0  0  0  0
  153.2576  141.8693  161.7385 C   0  0  0  0  0  0  0  0  0  0  0  0
  152.7719  143.1134  162.1857 C   0  0  0  0  0  0  0  0  0  0  0  0
  152.1793  144.0075  161.2751 C   0  0  0  0  0  0  0  0  0  0  0  0
  152.0740  143.6563  159.9166 C   0  0  0  0  0  0  0  0  0  0  0  0
  152.5594  142.4124  159.4675 C   0  0  0  0  0  0  0  0  0  0  0  0
  154.3867  138.0593  163.1453 O   0  0  0  0  0  0  0  0  0  0  0  0
  154.6768  137.2754  164.2574 C   0  0  2  0  0  0  0  0  0  0  0  0
  155.9695  141.2909  167.0805 H   0  0  0  0  0  0  0  0  0  0  0  0
  157.6867  141.4419  166.7042 H   0  0  0  0  0  0  0  0  0  0  0  0
  157.1707  140.5825  168.1622 H   0  0  0  0  0  0  0  0  0  0  0  0
  154.8622  139.6612  165.7151 H   0  0  0  0  0  0  0  0  0  0  0  0
  154.8111  135.1330  164.1098 H   0  0  0  0  0  0  0  0  0  0  0  0
  155.0085  135.1789  161.7617 H   0  0  0  0  0  0  0  0  0  0  0  0
  156.7153  137.4131  161.9749 H   0  0  0  0  0  0  0  0  0  0  0  0
  153.2277  136.7280  162.1464 H   0  0  0  0  0  0  0  0  0  0  0  0
  155.2334  137.9172  160.2738 H   0  0  0  0  0  0  0  0  0  0  0  0
  153.5389  137.5573  159.9903 H   0  0  0  0  0  0  0  0  0  0  0  0
  153.7076  141.1992  162.4567 H   0  0  0  0  0  0  0  0  0  0  0  0
  152.8539  143.3807  163.2289 H   0  0  0  0  0  0  0  0  0  0  0  0
  151.8058  144.9611  161.6186 H   0  0  0  0  0  0  0  0  0  0  0  0
  151.6194  144.3419  159.2167 H   0  0  0  0  0  0  0  0  0  0  0  0
  152.4622  142.1740  158.4185 H   0  0  0  0  0  0  0  0  0  0  0  0
  153.8603  137.1308  164.9658 H   0  0  0  0  0  0  0  0  0  0  0  0
  1  2  1  0  0  0  0
  1 26  1  0  0  0  0
  1 27  1  0  0  0  0
  1 28  1  0  0  0  0
  2  7  1  0  0  0  0
  2  3  2  0  0  0  0
  3  4  1  0  0  0  0
  3 29  1  0  0  0  0
  4 25  1  0  0  0  0
  4  5  1  0  0  0  0
  5  6  2  0  0  0  0
  5  9  1  0  0  0  0
  6  7  1  0  0  0  0
  7  8  2  0  0  0  0
  9 10  1  0  0  0  0
 10 25  1  0  0  0  0
 10 11  1  0  0  0  0
 10 30  1  0  0  0  0
 11 12  1  0  0  0  0
 11 13  1  0  0  0  0
 11 31  1  0  0  0  0
 12 32  1  0  0  0  0
 13 14  1  0  0  0  0
 13 24  1  0  0  0  0
 13 33  1  0  0  0  0
 14 15  1  0  0  0  0
 14 34  1  0  0  0  0
 14 35  1  0  0  0  0
 15 16  1  0  0  0  0
 16 17  2  0  0  0  0
 16 18  1  0  0  0  0
 18 23  1  0  0  0  0
 18 19  2  0  0  0  0
 19 20  1  0  0  0  0
 19 36  1  0  0  0  0
 20 21  2  0  0  0  0
 20 37  1  0  0  0  0
 21 22  1  0  0  0  0
 21 38  1  0  0  0  0
 22 23  2  0  0  0  0
 22 39  1  0  0  0  0
 23 40  1  0  0  0  0
 24 25  1  0  0  0  0
 25 41  1  0  0  0  0
M  END
> <s_m_source_file>
AV-unprocessed.smi

> <i_m_source_file_index>
12

> <i_lp_mmshare_version>
43012

> <i_f3d_flags>
0

> <s_epik_input>
W0NIM11jKFtjSF0xKWMoPU8pbmMobjEyKU9bQ0BIXTNbQ0BASF0yT1tDQEBIXShbQ0BASF0zW09IXSlbQ0gyXU9DKD1PKWM0W2NIXVtjSF1bY0hdW2NIXVtjSF00

> <s_epik_cmdline>
J2VwaWtfcHl0aG9uJywgJy1waCcsICc3LjAnLCAnLXRuJywgJzgnLCAnLW1hJywgJzIwMCcsICctbWV0YWxfYmluZGluZycsICctaW1hZScsICc8aW5maWxlLm1hZT4nLCAnLW9tYWUnLCAnPG91dGZpbGUubWFlPic=

> <r_lp_tautomer_probability>
0.933681

> <r_epik_Ionization_Penalty>
0.00399549

> <r_epik_Ionization_Penalty_Charging>
3.09373e-09

> <r_epik_Ionization_Penalty_Neutral>
0.00399549

> <r_epik_State_Penalty>
0.00284953

> <r_epik_Charging_Adjusted_Penalty>
0.00284953

> <i_epik_Tot_Q>
0

> <i_epik_Tot_abs_Q>
0

> <r_epik_Metal_State_Penalty>
-0

> <b_epik_Metal_Only>
0

> <s_epik_Chemistry_Notes>
This compound has an ester and may undergo hydrolysis at high or low pH. This compound contains an acetal/aminal-like group ( X-CH(R)-Y where X, Y are N, S, or O) that may be acid/base labile, releasing an aldehyde.

> <s_lp_Force_Field>
OPLS_2005

> <r_lp_Energy>
52.4355

> <b_lp_Chiralities_Consistent>
1

> <s_lp_Variant>
AV-unprocessed.smi:12-4

> <Gold.Version>
5.8.1

> <Gold.Id.Protein>
6NUR|6NUR_protein|mol2

> <Gold.PLP.Fitness>
46.8053

> <Gold.PLP.PLP>
-45.2807

> <Gold.PLP.part.hbond>
-1.0000

> <Gold.PLP.part.metal>
0.0000

> <Gold.PLP.part.buried>
-3.9256

> <Gold.PLP.part.nonpolar>
-39.2552

> <Gold.PLP.part.repulsive>
0.0984

> <Gold.PLP.ligand.clash>
0.0000

> <Gold.PLP.ligand.torsion>
0.7401

> <Gold.PLP.Chemscore.Hbond>
1.0000

> <Gold.PLP.Chemscore.CHOScore>
0.0000

> <Gold.PLP.Chemscore.Metal>
0.0000

> <Gold.Chemscore.Hbonds>
donor molecule, donor type, donor heavy atom, donor atom, acceptor molecule, acceptor atom, score
      P1  H  7997  8008       L1    17  1.00

> <Gold.PLP.Chemscore.Internal.Correction>
0.0048

> <Gold.Rescore>
     Score         DG    S(hbond)    S(metal)    S(lipo)     H(rot)  DE(clash)    DE(int)     intcor
     14.73     -15.45       0.98        0.00     104.96       2.18       0.06       0.67       ----

> <Gold.Chemscore.Fitness>
14.7264

> <Gold.Chemscore.DG>
-15.4548

> <Gold.Chemscore.ZeroCoef>
-5.4800

> <Gold.Chemscore.Hbond>
0.9806

> <Gold.Chemscore.Metal>
0.0000

> <Gold.Chemscore.Lipo>
104.9595

> <Gold.Chemscore.Internal_Hbond>
0.0000

> <Gold.Chemscore.DEClash>
0.0556

> <Gold.Chemscore.DEInternal>
0.6728

> <Gold.Chemscore.Rot>
2.1800

> <Gold.Chemscore.Internal.Correction>
   9.000000E+99

> <Gold.Chemscore.Hbonds>
donor molecule, donor type, donor heavy atom, donor atom, acceptor molecule, acceptor atom, score
      P1  H  7997  8008       L1    17  0.94

> <Gold.Chemscore.Hbond.Weighted>
-3.2753

> <Gold.Chemscore.Metal.Weighted>
-0.0000

> <Gold.Chemscore.Lipo.Weighted>
-12.2803

> <Gold.Chemscore.Internal_Hbond.Weighted>
0.0000

> <Gold.Chemscore.DEClash.Weighted>
0.0556

> <Gold.Chemscore.DEInternal.Weighted>
0.6728

> <Gold.Chemscore.Rot.Weighted>
5.5807

> <Gold.Chemscore.Internal.Correction.Weighted>
   9.000000E+99

> <Gold.Protein.RotatedTorsions>
[ 6907 6896 6895 6894 ] final  -83.46 input  -60.11 | X-H torsion
[ 7974 7965 7964 7962 ] final -164.81 input  175.53 | X-H torsion
[ 8008 7997 7996 7995 ] final -114.33 input   59.86 | X-H torsion
[ 10167 10162 10161 10158 ] final   81.57 input  -65.29 | X-H torsion
[ 10718 10713 10712 10709 ] final  -26.95 input   66.30 | X-H torsion
[ 10763 10752 10751 10750 ] final  -93.62 input  -60.55 | X-H torsion
[ 11005 11000 10999 10996 ] final  -53.74 input  -57.11 | X-H torsion

> <Gold.Protein.ActiveResidues>
 VAL166  LYS551  ARG553  GLY616  TRP617  ASP618  TYR619  PRO620  LYS621  CYS622 
 ASP623  PHE694  ASN695  SER759  ASP760  ASP761  ALA762  ILE779  LEU786  VAL792 
 PHE793  MET794  SER795  GLU796  ALA797  LYS798  CYS799  TRP800  GLU811  SER814 

> <Gold.Protein.RotatedAtoms>
  150.6885  134.3508  159.4907 H   0  0  0  0  0  0  0  0  0  0  0  0  # atno 6907 bound_to 6896
  152.1349  134.9104  160.0566 H   0  0  0  0  0  0  0  0  0  0  0  0  # atno 6908 bound_to 6896
  152.0260  133.3883  159.4314 H   0  0  0  0  0  0  0  0  0  0  0  0  # atno 6909 bound_to 6896
  144.7287  140.2906  143.6221 H   0  0  0  0  0  0  0  0  0  0  0  0  # atno 7974 bound_to 7965
  155.0346  140.0392  157.2487 H   0  0  0  0  0  0  0  0  0  0  0  0  # atno 8008 bound_to 7997
  154.7267  140.2722  155.6468 H   0  0  0  0  0  0  0  0  0  0  0  0  # atno 8009 bound_to 7997
  156.2831  140.2692  156.1955 H   0  0  0  0  0  0  0  0  0  0  0  0  # atno 8010 bound_to 7997
  139.9379  144.6109  150.8280 H   0  0  0  0  0  0  0  0  0  0  0  0  # atno 10167 bound_to 10162
  156.4446  130.4471  149.7030 H   0  0  0  0  0  0  0  0  0  0  0  0  # atno 10718 bound_to 10713
  154.6977  135.5187  153.8482 H   0  0  0  0  0  0  0  0  0  0  0  0  # atno 10763 bound_to 10752
  153.0680  135.6591  154.0321 H   0  0  0  0  0  0  0  0  0  0  0  0  # atno 10764 bound_to 10752
  154.0185  135.2996  155.3363 H   0  0  0  0  0  0  0  0  0  0  0  0  # atno 10765 bound_to 10752
  141.0991  133.6620  156.4217 H   0  0  0  0  0  0  0  0  0  0  0  0  # atno 11005 bound_to 11000
  145.7859  139.1908  143.2131 LP  0  0  0  0  0  0  0  0  0  0  0  0  # atno 17320 bound_to 7965
  146.0796  140.7779  142.9648 LP  0  0  0  0  0  0  0  0  0  0  0  0  # atno 17321 bound_to 7965
  140.7619  143.3186  151.2676 LP  0  0  0  0  0  0  0  0  0  0  0  0  # atno 17342 bound_to 10162
  139.6728  143.9990  152.2763 LP  0  0  0  0  0  0  0  0  0  0  0  0  # atno 17343 bound_to 10162
  156.3881  130.7613  151.2612 LP  0  0  0  0  0  0  0  0  0  0  0  0  # atno 17370 bound_to 10713
  157.7505  131.0276  150.4012 LP  0  0  0  0  0  0  0  0  0  0  0  0  # atno 17371 bound_to 10713
  140.5067  134.6434  157.5269 LP  0  0  0  0  0  0  0  0  0  0  0  0  # atno 17394 bound_to 11000
  139.9837  134.7096  155.9813 LP  0  0  0  0  0  0  0  0  0  0  0  0  # atno 17395 bound_to 11000

$$$$
