AV-unprocessed.smi:256|AV-procd|sdf|1959|dock10
  -GOLD-   2262021103D 1   1.00000     0.00000
 Structure written by MMmdl.
 62 65  0  0  0  0  0  0  0  0  2 V2000
  145.7787  140.2050  157.0811 C   0  0  0  0  0  0  0  0  0  0  0  0
  147.2198  139.9490  156.6181 C   0  0  0  0  0  0  0  0  0  0  0  0
  147.7682  141.0162  155.6335 C   0  0  2  0  0  0  0  0  0  0  0  0
  146.9945  141.0705  154.2942 C   0  0  0  0  0  0  0  0  0  0  0  0
  147.3100  139.9173  153.4515 N   0  0  0  0  0  0  0  0  0  0  0  0
  146.4692  138.8457  153.4784 C   0  0  0  0  0  0  0  0  0  0  0  0
  145.8277  138.5907  154.6490 N   0  0  0  0  0  0  0  0  0  0  0  0
  144.9918  137.5559  154.7611 C   0  0  0  0  0  0  0  0  0  0  0  0
  144.6544  136.6563  153.8385 N   0  0  0  0  0  0  0  0  0  0  0  0
  145.2901  136.8978  152.6577 C   0  0  0  0  0  0  0  0  0  0  0  0
  146.2010  137.9613  152.3873 C   0  0  0  0  0  0  0  0  0  0  0  0
  146.6386  137.8643  151.0695 N   0  0  0  0  0  0  0  0  0  0  0  0
  146.0182  136.8219  150.5911 C   0  0  0  0  0  0  0  0  0  0  0  0
  145.1976  136.1726  151.4828 N   0  0  0  0  0  0  0  0  0  0  0  0
  144.3982  134.9836  151.2285 C   0  0  0  0  0  0  0  0  0  0  0  0
  145.2038  133.6610  151.2684 C   0  0  0  0  0  0  0  0  0  0  0  0
  146.1543  133.6960  150.2177 O   0  0  0  0  0  0  0  0  0  0  0  0
  145.9624  133.5377  152.6050 C   0  0  0  0  0  0  0  0  0  0  0  0
  146.6372  132.1640  152.7650 C   0  0  0  0  0  0  0  0  0  0  0  0
  145.6707  131.1301  152.6244 O   0  0  0  0  0  0  0  0  0  0  0  0
  145.0759  131.1059  151.3326 C   0  0  0  0  0  0  0  0  0  0  0  0
  144.3103  132.4162  151.0755 C   0  0  0  0  0  0  0  0  0  0  0  0
  148.7322  139.7630  153.1709 C   0  0  0  0  0  0  0  0  0  0  0  0
  149.5487  139.7109  154.4753 C   0  0  0  0  0  0  0  0  0  0  0  0
  149.2333  140.8680  155.3551 N   0  3  2  0  0  0  0  0  0  0  0  0
  150.1438  140.9439  156.5303 C   0  0  0  0  0  0  0  0  0  0  0  0
  150.5211  142.3855  156.9254 C   0  0  0  0  0  0  0  0  0  0  0  0
  151.4305  142.4210  158.0178 O   0  0  0  0  0  0  0  0  0  0  0  0
  151.8404  143.7259  158.3967 C   0  0  0  0  0  0  0  0  0  0  0  0
  145.4868  139.4823  157.8433 H   0  0  0  0  0  0  0  0  0  0  0  0
  145.0658  140.1126  156.2622 H   0  0  0  0  0  0  0  0  0  0  0  0
  145.6724  141.2009  157.5120 H   0  0  0  0  0  0  0  0  0  0  0  0
  147.8362  139.9213  157.5153 H   0  0  0  0  0  0  0  0  0  0  0  0
  147.2813  138.9523  156.1819 H   0  0  0  0  0  0  0  0  0  0  0  0
  147.6200  141.9903  156.0985 H   0  0  0  0  0  0  0  0  0  0  0  0
  145.9261  141.1946  154.4640 H   0  0  0  0  0  0  0  0  0  0  0  0
  147.2982  141.9635  153.7464 H   0  0  0  0  0  0  0  0  0  0  0  0
  144.5283  137.4299  155.7285 H   0  0  0  0  0  0  0  0  0  0  0  0
  146.1516  136.4889  149.5720 H   0  0  0  0  0  0  0  0  0  0  0  0
  143.5877  134.9543  151.9582 H   0  0  0  0  0  0  0  0  0  0  0  0
  143.9220  135.1014  150.2542 H   0  0  0  0  0  0  0  0  0  0  0  0
  145.8361  134.2763  149.5432 H   0  0  0  0  0  0  0  0  0  0  0  0
  146.7043  134.3320  152.6987 H   0  0  0  0  0  0  0  0  0  0  0  0
  145.2632  133.6756  153.4309 H   0  0  0  0  0  0  0  0  0  0  0  0
  147.4390  132.0312  152.0372 H   0  0  0  0  0  0  0  0  0  0  0  0
  147.0931  132.0864  153.7521 H   0  0  0  0  0  0  0  0  0  0  0  0
  145.8391  130.9409  150.5708 H   0  0  0  0  0  0  0  0  0  0  0  0
  144.3907  130.2596  151.2794 H   0  0  0  0  0  0  0  0  0  0  0  0
  143.4696  132.4677  151.7684 H   0  0  0  0  0  0  0  0  0  0  0  0
  143.8810  132.3952  150.0733 H   0  0  0  0  0  0  0  0  0  0  0  0
  148.9316  138.9009  152.5358 H   0  0  0  0  0  0  0  0  0  0  0  0
  149.0472  140.6295  152.5883 H   0  0  0  0  0  0  0  0  0  0  0  0
  149.3591  138.7835  155.0155 H   0  0  0  0  0  0  0  0  0  0  0  0
  150.6109  139.7138  154.2281 H   0  0  0  0  0  0  0  0  0  0  0  0
  149.7063  140.4236  157.3821 H   0  0  0  0  0  0  0  0  0  0  0  0
  151.0553  140.3931  156.2985 H   0  0  0  0  0  0  0  0  0  0  0  0
  150.9811  142.8986  156.0811 H   0  0  0  0  0  0  0  0  0  0  0  0
  149.6247  142.9604  157.1622 H   0  0  0  0  0  0  0  0  0  0  0  0
  152.5796  143.6552  159.1945 H   0  0  0  0  0  0  0  0  0  0  0  0
  151.0076  144.3200  158.7727 H   0  0  0  0  0  0  0  0  0  0  0  0
  152.3013  144.2549  157.5615 H   0  0  0  0  0  0  0  0  0  0  0  0
  149.4662  141.6792  154.8000 H   0  0  0  0  0  0  0  0  0  0  0  0
  1  2  1  0  0  0  0
  1 30  1  0  0  0  0
  1 31  1  0  0  0  0
  1 32  1  0  0  0  0
  2  3  1  0  0  0  0
  2 33  1  0  0  0  0
  2 34  1  0  0  0  0
  3 25  1  0  0  0  0
  3  4  1  0  0  0  0
  3 35  1  0  0  0  0
  4  5  1  0  0  0  0
  4 36  1  0  0  0  0
  4 37  1  0  0  0  0
  5  6  1  0  0  0  0
  5 23  1  0  0  0  0
  6 11  1  0  0  0  0
  6  7  2  0  0  0  0
  7  8  1  0  0  0  0
  8  9  2  0  0  0  0
  8 38  1  0  0  0  0
  9 10  1  0  0  0  0
 10 14  1  0  0  0  0
 10 11  2  0  0  0  0
 11 12  1  0  0  0  0
 12 13  2  0  0  0  0
 13 14  1  0  0  0  0
 13 39  1  0  0  0  0
 14 15  1  0  0  0  0
 15 16  1  0  0  0  0
 15 40  1  0  0  0  0
 15 41  1  0  0  0  0
 16 22  1  0  0  0  0
 16 17  1  0  0  0  0
 16 18  1  0  0  0  0
 17 42  1  0  0  0  0
 18 19  1  0  0  0  0
 18 43  1  0  0  0  0
 18 44  1  0  0  0  0
 19 20  1  0  0  0  0
 19 45  1  0  0  0  0
 19 46  1  0  0  0  0
 20 21  1  0  0  0  0
 21 22  1  0  0  0  0
 21 47  1  0  0  0  0
 21 48  1  0  0  0  0
 22 49  1  0  0  0  0
 22 50  1  0  0  0  0
 23 24  1  0  0  0  0
 23 51  1  0  0  0  0
 23 52  1  0  0  0  0
 24 25  1  0  0  0  0
 24 53  1  0  0  0  0
 24 54  1  0  0  0  0
 25 26  1  0  0  0  0
 25 62  1  0  0  0  0
 26 27  1  0  0  0  0
 26 55  1  0  0  0  0
 26 56  1  0  0  0  0
 27 28  1  0  0  0  0
 27 57  1  0  0  0  0
 27 58  1  0  0  0  0
 28 29  1  0  0  0  0
 29 59  1  0  0  0  0
 29 60  1  0  0  0  0
 29 61  1  0  0  0  0
M  CHG  1  25   1
M  END
> <s_m_source_file>
AV-unprocessed.smi

> <i_m_source_file_index>
256

> <i_lp_mmshare_version>
43012

> <i_f3d_flags>
0

> <s_epik_input>
W0NIM11PW0NIMl1bQ0gyXU4xW0NIMl1bQ0gyXU4oW0NIMl1bQ0BIXTFbQ0gyXVtDSDNdKWMobltjSF1uMiljKGMyMyluW2NIXW4zW0NIMl1DNChbT0hdKVtDSDJdW0NIMl1PW0NIMl1bQ0gyXTQ=

> <s_epik_cmdline>
J2VwaWtfcHl0aG9uJywgJy1waCcsICc3LjAnLCAnLXRuJywgJzgnLCAnLW1hJywgJzIwMCcsICctbWV0YWxfYmluZGluZycsICctaW1hZScsICc8aW5maWxlLm1hZT4nLCAnLW9tYWUnLCAnPG91dGZpbGUubWFlPic=

> <r_lp_tautomer_probability>
1

> <r_epik_Ionization_Penalty>
0.233023

> <r_epik_Ionization_Penalty_Charging>
0.23295

> <r_epik_Ionization_Penalty_Neutral>
7.2493e-05

> <r_epik_State_Penalty>
0.223667

> <r_epik_Charging_Adjusted_Penalty>
0.456618

> <i_epik_Tot_Q>
1

> <i_epik_Tot_abs_Q>
1

> <r_epik_Metal_State_Penalty>
0.226879

> <b_epik_Metal_Only>
0

> <s_lp_Force_Field>
OPLS_2005

> <r_lp_Energy>
46.9359

> <b_lp_Chiralities_Consistent>
1

> <s_lp_Variant>
AV-unprocessed.smi:256-3

> <Gold.Version>
5.8.1

> <Gold.Id.Protein>
6NUR|6NUR_protein|mol2

> <Gold.PLP.Fitness>
40.9985

> <Gold.PLP.PLP>
-35.1428

> <Gold.PLP.part.hbond>
-2.0105

> <Gold.PLP.part.metal>
0.0000

> <Gold.PLP.part.buried>
3.2022

> <Gold.PLP.part.nonpolar>
-39.0753

> <Gold.PLP.part.repulsive>
2.4252

> <Gold.PLP.ligand.clash>
0.0000

> <Gold.PLP.ligand.torsion>
1.4702

> <Gold.PLP.Chemscore.Hbond>
1.7840

> <Gold.PLP.Chemscore.CHOScore>
1.0000

> <Gold.PLP.Chemscore.Metal>
0.0000

> <Gold.Chemscore.Hbonds>
donor molecule, donor type, donor heavy atom, donor atom, acceptor molecule, acceptor atom, score
      L1  H    17    42       P1  7921  0.83
      P1  H  7954  7966       L1    12  0.95
      L1  C    13    39       P1  7921  1.00

> <Gold.PLP.Chemscore.Internal.Correction>
0.4442

> <Gold.Rescore>
     Score         DG    S(hbond)    S(metal)    S(lipo)     H(rot)  DE(clash)    DE(int)     intcor
      7.15     -14.14       1.22        0.00      97.21       2.65       3.97       3.02       ----

> <Gold.Chemscore.Fitness>
7.1468

> <Gold.Chemscore.DG>
-14.1408

> <Gold.Chemscore.ZeroCoef>
-5.4800

> <Gold.Chemscore.Hbond>
1.2159

> <Gold.Chemscore.Metal>
0.0000

> <Gold.Chemscore.Lipo>
97.2134

> <Gold.Chemscore.Internal_Hbond>
0.0000

> <Gold.Chemscore.DEClash>
3.9721

> <Gold.Chemscore.DEInternal>
3.0219

> <Gold.Chemscore.Rot>
2.6462

> <Gold.Chemscore.Internal.Correction>
   9.000000E+99

> <Gold.Chemscore.Hbonds>
donor molecule, donor type, donor heavy atom, donor atom, acceptor molecule, acceptor atom, score
      L1  H    17    42       P1  7921  0.44
      P1  H  7954  7966       L1    12  0.21

> <Gold.Chemscore.Hbond.Weighted>
-4.0610

> <Gold.Chemscore.Metal.Weighted>
-0.0000

> <Gold.Chemscore.Lipo.Weighted>
-11.3740

> <Gold.Chemscore.Internal_Hbond.Weighted>
0.0000

> <Gold.Chemscore.DEClash.Weighted>
3.9721

> <Gold.Chemscore.DEInternal.Weighted>
3.0219

> <Gold.Chemscore.Rot.Weighted>
6.7742

> <Gold.Chemscore.Internal.Correction.Weighted>
   9.000000E+99

> <Gold.Protein.RotatedTorsions>
[ 6907 6896 6895 6894 ] final  168.32 input  -60.11 | X-H torsion
[ 7974 7965 7964 7962 ] final    9.96 input  175.53 | X-H torsion
[ 8008 7997 7996 7995 ] final -147.48 input   59.86 | X-H torsion
[ 10167 10162 10161 10158 ] final   70.88 input  -65.29 | X-H torsion
[ 10718 10713 10712 10709 ] final  161.07 input   66.30 | X-H torsion
[ 10763 10752 10751 10750 ] final   59.27 input  -60.55 | X-H torsion
[ 11005 11000 10999 10996 ] final  178.38 input  -57.11 | X-H torsion

> <Gold.Protein.ActiveResidues>
 VAL166  LYS551  ARG553  GLY616  TRP617  ASP618  TYR619  PRO620  LYS621  CYS622 
 ASP623  PHE694  ASN695  SER759  ASP760  ASP761  ALA762  ILE779  LEU786  VAL792 
 PHE793  MET794  SER795  GLU796  ALA797  LYS798  CYS799  TRP800  GLU811  SER814 

> <Gold.Protein.RotatedAtoms>
  151.8494  133.3437  159.3668 H   0  0  0  0  0  0  0  0  0  0  0  0  # atno 6907 bound_to 6896
  150.7211  134.5314  159.5711 H   0  0  0  0  0  0  0  0  0  0  0  0  # atno 6908 bound_to 6896
  152.2804  134.7835  160.0448 H   0  0  0  0  0  0  0  0  0  0  0  0  # atno 6909 bound_to 6896
  146.2396  139.9706  142.8447 H   0  0  0  0  0  0  0  0  0  0  0  0  # atno 7974 bound_to 7965
  155.5762  140.0639  157.2794 H   0  0  0  0  0  0  0  0  0  0  0  0  # atno 8008 bound_to 7997
  154.4346  140.1860  156.0975 H   0  0  0  0  0  0  0  0  0  0  0  0  # atno 8009 bound_to 7997
  156.0340  140.3303  155.7174 H   0  0  0  0  0  0  0  0  0  0  0  0  # atno 8010 bound_to 7997
  140.0522  144.5302  150.7355 H   0  0  0  0  0  0  0  0  0  0  0  0  # atno 10167 bound_to 10162
  157.1416  131.0542  151.2324 H   0  0  0  0  0  0  0  0  0  0  0  0  # atno 10718 bound_to 10713
  152.9890  135.5577  154.5686 H   0  0  0  0  0  0  0  0  0  0  0  0  # atno 10763 bound_to 10752
  154.5091  135.2801  155.1360 H   0  0  0  0  0  0  0  0  0  0  0  0  # atno 10764 bound_to 10752
  154.2759  135.6354  153.5381 H   0  0  0  0  0  0  0  0  0  0  0  0  # atno 10765 bound_to 10752
  140.3945  134.6832  157.4527 H   0  0  0  0  0  0  0  0  0  0  0  0  # atno 11005 bound_to 11000
  145.1685  140.9709  143.4335 LP  0  0  0  0  0  0  0  0  0  0  0  0  # atno 17320 bound_to 7965
  145.0050  139.3562  143.6148 LP  0  0  0  0  0  0  0  0  0  0  0  0  # atno 17321 bound_to 7965
  140.7211  143.2590  151.4274 LP  0  0  0  0  0  0  0  0  0  0  0  0  # atno 17342 bound_to 10162
  139.5946  144.1425  152.2129 LP  0  0  0  0  0  0  0  0  0  0  0  0  # atno 17343 bound_to 10162
  157.4302  130.7486  149.6984 LP  0  0  0  0  0  0  0  0  0  0  0  0  # atno 17370 bound_to 10713
  155.9787  130.4048  150.3629 LP  0  0  0  0  0  0  0  0  0  0  0  0  # atno 17371 bound_to 10713
  140.0382  134.6306  155.9016 LP  0  0  0  0  0  0  0  0  0  0  0  0  # atno 17394 bound_to 11000
  141.1879  133.6561  156.5301 LP  0  0  0  0  0  0  0  0  0  0  0  0  # atno 17395 bound_to 11000

$$$$
