#       Name:                AV-unprocessed.smi:21
#       Creating user name   scv26
#       Creation time:       Thu Mar 26 15:34:51 2020


#       File generated by GOLD software.
#

@<TRIPOS>MOLECULE
AV-unprocessed.smi:21
    71    74     1
SMALL
NO_CHARGES


@<TRIPOS>ATOM
      1 ****        -2.9869  -5.0859   3.0383 C.3            1 S1                 0.0000
      2 ****        -2.9075  -3.9453   2.1978 O.3            1 S1                 0.0000
      3 ****        -2.2883  -4.1983   0.9431 C.3            1 S1                 0.0000
      4 ****        -1.8975  -2.8692   0.3110 C.3            1 S1                 0.0000
      5 ****        -3.2003  -2.3640  -0.3208 C.3            1 S1                 0.0000
      6 ****        -2.9962  -1.3209  -1.4470 C.3            1 S1                 0.0000
      7 ****        -2.3700  -0.0889  -0.9630 N.pl3          1 S1                 0.0000
      8 ****        -3.1780   0.8326  -0.1744 C.3            1 S1                 0.0000
      9 ****        -1.0119   0.0144  -0.9408 C.ar           1 S1                 0.0000
     10 ****        -0.3107  -0.5636  -1.9520 N.ar           1 S1                 0.0000
     11 ****         1.0223  -0.4948  -1.9864 C.ar           1 S1                 0.0000
     12 ****         1.8480   0.0909  -1.1198 N.ar           1 S1                 0.0000
     13 ****         1.1597   0.6696  -0.0957 C.ar           1 S1                 0.0000
     14 ****        -0.2561   0.6810   0.0723 C.ar           1 S1                 0.0000
     15 ****        -0.5753   1.3549   1.2473 N.2            1 S1                 0.0000
     16 ****         0.5756   1.7264   1.7353 C.2            1 S1                 0.0000
     17 ****         1.6704   1.3635   0.9874 N.pl3          1 S1                 0.0000
     18 ****         3.0608   1.6488   1.2984 C.3            1 S1                 0.0000
     19 ****         3.4232   3.1471   1.1519 C.3            1 S1                 0.0000
     20 ****         4.8796   3.3983   1.6076 C.3            1 S1                 0.0000
     21 ****         4.9969   3.2349   3.0058 O.3            1 S1                 0.0000
     22 ****         3.1110   3.6992  -0.2677 C.3            1 S1                 0.0000
     23 ****         3.9909   3.1797  -1.3981 C.3            1 S1                 0.0000
     24 ****         3.8930   4.3048  -2.4178 C.3            1 S1                 0.0000
     25 ****         3.9489   5.4666  -1.6064 O.3            1 S1                 0.0000
     26 ****         3.1957   5.2283  -0.4215 C.3            1 S1                 0.0000
     27 ****        -3.9616  -3.5901  -0.6982 N.4            1 S1                 1.0000
     28 ****        -4.2551  -3.7989  -2.1362 C.3            1 S1                 0.0000
     29 ****        -3.2952  -4.7561  -0.0692 C.3            1 S1                 0.0000
     30 ****        -1.4162  -4.8430   1.0656 H              1 S1                 0.0000
     31 ****        -3.7911  -1.8995   0.4701 H              1 S1                 0.0000
     32 ****        -3.4646  -4.8113   3.9786 H              1 S1                 0.0000
     33 ****        -1.9942  -5.4738   3.2702 H              1 S1                 0.0000
     34 ****        -3.5758  -5.8838   2.5864 H              1 S1                 0.0000
     35 ****        -1.4712  -2.1680   1.0294 H              1 S1                 0.0000
     36 ****        -1.1512  -3.0441  -0.4654 H              1 S1                 0.0000
     37 ****        -2.4358  -1.7541  -2.2751 H              1 S1                 0.0000
     38 ****        -3.9641  -1.0406  -1.8631 H              1 S1                 0.0000
     39 ****        -2.8250   1.8581  -0.2887 H              1 S1                 0.0000
     40 ****        -3.1486   0.5644   0.8820 H              1 S1                 0.0000
     41 ****        -4.2185   0.8057  -0.4983 H              1 S1                 0.0000
     42 ****         1.4950  -0.9772  -2.8293 H              1 S1                 0.0000
     43 ****         0.6591   2.2817   2.6585 H              1 S1                 0.0000
     44 ****         3.2441   1.3096   2.3185 H              1 S1                 0.0000
     45 ****         3.6988   1.0416   0.6556 H              1 S1                 0.0000
     46 ****         2.7769   3.7022   1.8341 H              1 S1                 0.0000
     47 ****         5.5700   2.7123   1.1167 H              1 S1                 0.0000
     48 ****         5.2093   4.4077   1.3658 H              1 S1                 0.0000
     49 ****         5.8907   3.4136   3.2557 H              1 S1                 0.0000
     50 ****         2.0827   3.4416  -0.5233 H              1 S1                 0.0000
     51 ****         5.0285   3.0719  -1.0847 H              1 S1                 0.0000
     52 ****         3.6562   2.2213  -1.7947 H              1 S1                 0.0000
     53 ****         4.7002   4.2842  -3.1502 H              1 S1                 0.0000
     54 ****         2.9399   4.2711  -2.9485 H              1 S1                 0.0000
     55 ****         2.1984   5.6559  -0.5325 H              1 S1                 0.0000
     56 ****         3.6692   5.7274   0.4233 H              1 S1                 0.0000
     57 ****        -3.3388  -3.8666  -2.7240 H              1 S1                 0.0000
     58 ****        -4.8719  -2.9942  -2.5358 H              1 S1                 0.0000
     59 ****        -4.8108  -4.7273  -2.2730 H              1 S1                 0.0000
     60 ****        -2.7464  -5.3147  -0.8294 H              1 S1                 0.0000
     61 ****        -4.0234  -5.4379   0.3689 H              1 S1                 0.0000
     62 ****        -4.8583  -3.4968  -0.2425 H              1 S1                 0.0000
     63 ****        -2.3810  -3.2400   2.6725 LP             1 S1                 0.0000
     64 ****        -3.8353  -3.6123   2.0299 LP             1 S1                 0.0000
     65 ****        -0.7992  -1.0462  -2.6790 LP             1 S1                 0.0000
     66 ****         2.8439   0.1041  -1.2094 LP             1 S1                 0.0000
     67 ****        -1.4840   1.5178   1.6315 LP             1 S1                 0.0000
     68 ****         4.7579   2.2968   3.2567 LP             1 S1                 0.0000
     69 ****         4.3828   3.8715   3.4722 LP             1 S1                 0.0000
     70 ****         3.5604   6.2432  -2.1024 LP             1 S1                 0.0000
     71 ****         4.8994   5.6655  -1.3675 LP             1 S1                 0.0000
@<TRIPOS>BOND
    1    1    2 1     
    2    1   32 1     
    3    1   33 1     
    4    1   34 1     
    5    2    3 1     
    6    3   30 1     
    7    3   29 1     
    8    3    4 1     
    9    4    5 1     
   10    4   35 1     
   11    4   36 1     
   12    5   31 1     
   13    5    6 1     
   14    5   27 1     
   15    6    7 1     
   16    6   37 1     
   17    6   38 1     
   18    7    8 1     
   19    7    9 1     
   20    8   39 1     
   21    8   40 1     
   22    8   41 1     
   23    9   14 ar    
   24    9   10 ar    
   25   10   11 ar    
   26   11   12 ar    
   27   11   42 1     
   28   12   13 ar    
   29   13   17 1     
   30   13   14 ar    
   31   14   15 1     
   32   15   16 2     
   33   16   17 1     
   34   16   43 1     
   35   17   18 1     
   36   18   19 1     
   37   18   44 1     
   38   18   45 1     
   39   19   20 1     
   40   19   22 1     
   41   19   46 1     
   42   20   21 1     
   43   20   47 1     
   44   20   48 1     
   45   21   49 1     
   46   22   26 1     
   47   22   23 1     
   48   22   50 1     
   49   23   24 1     
   50   23   51 1     
   51   23   52 1     
   52   24   25 1     
   53   24   53 1     
   54   24   54 1     
   55   25   26 1     
   56   26   55 1     
   57   26   56 1     
   58   27   28 1     
   59   27   29 1     
   60   27   62 1     
   61   28   57 1     
   62   28   58 1     
   63   28   59 1     
   64   29   60 1     
   65   29   61 1     
   66    2   63 1     
   67    2   64 1     
   68   10   65 1     
   69   12   66 1     
   70   15   67 1     
   71   21   68 1     
   72   21   69 1     
   73   25   70 1     
   74   25   71 1     
@<TRIPOS>SUBSTRUCTURE
      1 S1             1
@<TRIPOS>SET
LONE_PAIRS      STATIC     ATOMS    <user>   **** ""
9 63 64 65 66 67 68 69 70 71
DONOR_HYDROGENS      STATIC     ATOMS    <user>   **** ""
2 49 62
ATOM$BLUE        STATIC     ATOMS    COLORGROUP SYSTEM
9 63 64 65 66 67 68 69 70 71
ATOM$RED        STATIC     ATOMS    COLORGROUP SYSTEM
2 49 62
