AV-unprocessed.smi:12|AV-procd|sdf|65|dock1
  -GOLD-   2262015183D 1   1.00000     0.00000
 Structure written by MMmdl.
 41 44  0  0  0  0  0  0  0  0  1 V2000
  152.7868  142.9154  160.6525 C   0  0  0  0  0  0  0  0  0  0  0  0
  152.5996  141.9761  159.4743 C   0  0  0  0  0  0  0  0  0  0  0  0
  151.8155  142.3043  158.4205 C   0  0  0  0  0  0  0  0  0  0  0  0
  151.6755  141.4203  157.3874 N   0  0  0  0  0  0  0  0  0  0  0  0
  152.3671  140.1881  157.4206 C   0  0  0  0  0  0  0  0  0  0  0  0
  153.1361  139.8032  158.3913 N   0  0  0  0  0  0  0  0  0  0  0  0
  153.2992  140.6668  159.4916 C   0  0  0  0  0  0  0  0  0  0  0  0
  154.0096  140.3400  160.4413 O   0  0  0  0  0  0  0  0  0  0  0  0
  152.1019  139.4988  156.2756 O   0  0  0  0  0  0  0  0  0  0  0  0
  151.1944  140.2557  155.4615 C   0  0  1  0  0  0  0  0  0  0  0  0
  149.8146  139.6067  155.3205 C   0  0  1  0  0  0  0  0  0  0  0  0
  149.5947  138.5984  156.2918 O   0  0  0  0  0  0  0  0  0  0  0  0
  148.8601  140.7898  155.5417 C   0  0  1  0  0  0  0  0  0  0  0  0
  147.4392  140.4579  156.0243 C   0  0  0  0  0  0  0  0  0  0  0  0
  146.5849  141.5652  155.7865 O   0  0  0  0  0  0  0  0  0  0  0  0
  146.4036  142.0163  154.5296 C   0  0  0  0  0  0  0  0  0  0  0  0
  146.8994  141.4824  153.5352 O   0  0  0  0  0  0  0  0  0  0  0  0
  145.5374  143.2288  154.4653 C   0  0  0  0  0  0  0  0  0  0  0  0
  145.4806  143.9755  153.2653 C   0  0  0  0  0  0  0  0  0  0  0  0
  144.6691  145.1227  153.1713 C   0  0  0  0  0  0  0  0  0  0  0  0
  143.9046  145.5380  154.2770 C   0  0  0  0  0  0  0  0  0  0  0  0
  143.9531  144.8047  155.4769 C   0  0  0  0  0  0  0  0  0  0  0  0
  144.7643  143.6569  155.5729 C   0  0  0  0  0  0  0  0  0  0  0  0
  149.5425  141.6007  156.4869 O   0  0  0  0  0  0  0  0  0  0  0  0
  150.8955  141.5935  156.1623 C   0  0  1  0  0  0  0  0  0  0  0  0
  152.2244  143.8395  160.5157 H   0  0  0  0  0  0  0  0  0  0  0  0
  153.8391  143.1761  160.7705 H   0  0  0  0  0  0  0  0  0  0  0  0
  152.4423  142.4451  161.5740 H   0  0  0  0  0  0  0  0  0  0  0  0
  151.2955  143.2505  158.3859 H   0  0  0  0  0  0  0  0  0  0  0  0
  151.6359  140.4662  154.4866 H   0  0  0  0  0  0  0  0  0  0  0  0
  149.6780  139.1630  154.3337 H   0  0  0  0  0  0  0  0  0  0  0  0
  148.7097  138.6776  156.6136 H   0  0  0  0  0  0  0  0  0  0  0  0
  148.7938  141.3655  154.6163 H   0  0  0  0  0  0  0  0  0  0  0  0
  147.0568  139.5652  155.5279 H   0  0  0  0  0  0  0  0  0  0  0  0
  147.4576  140.2463  157.0943 H   0  0  0  0  0  0  0  0  0  0  0  0
  146.0583  143.6757  152.4027 H   0  0  0  0  0  0  0  0  0  0  0  0
  144.6326  145.6839  152.2492 H   0  0  0  0  0  0  0  0  0  0  0  0
  143.2816  146.4173  154.2048 H   0  0  0  0  0  0  0  0  0  0  0  0
  143.3660  145.1225  156.3258 H   0  0  0  0  0  0  0  0  0  0  0  0
  144.7783  143.1170  156.5085 H   0  0  0  0  0  0  0  0  0  0  0  0
  151.2731  142.4892  155.6680 H   0  0  0  0  0  0  0  0  0  0  0  0
  1  2  1  0  0  0  0
  1 26  1  0  0  0  0
  1 27  1  0  0  0  0
  1 28  1  0  0  0  0
  2  7  1  0  0  0  0
  2  3  2  0  0  0  0
  3  4  1  0  0  0  0
  3 29  1  0  0  0  0
  4 25  1  0  0  0  0
  4  5  1  0  0  0  0
  5  6  2  0  0  0  0
  5  9  1  0  0  0  0
  6  7  1  0  0  0  0
  7  8  2  0  0  0  0
  9 10  1  0  0  0  0
 10 25  1  0  0  0  0
 10 11  1  0  0  0  0
 10 30  1  0  0  0  0
 11 12  1  0  0  0  0
 11 13  1  0  0  0  0
 11 31  1  0  0  0  0
 12 32  1  0  0  0  0
 13 14  1  0  0  0  0
 13 24  1  0  0  0  0
 13 33  1  0  0  0  0
 14 15  1  0  0  0  0
 14 34  1  0  0  0  0
 14 35  1  0  0  0  0
 15 16  1  0  0  0  0
 16 17  2  0  0  0  0
 16 18  1  0  0  0  0
 18 23  1  0  0  0  0
 18 19  2  0  0  0  0
 19 20  1  0  0  0  0
 19 36  1  0  0  0  0
 20 21  2  0  0  0  0
 20 37  1  0  0  0  0
 21 22  1  0  0  0  0
 21 38  1  0  0  0  0
 22 23  2  0  0  0  0
 22 39  1  0  0  0  0
 23 40  1  0  0  0  0
 24 25  1  0  0  0  0
 25 41  1  0  0  0  0
M  END
> <s_m_source_file>
AV-unprocessed.smi

> <i_m_source_file_index>
12

> <i_lp_mmshare_version>
43012

> <i_f3d_flags>
0

> <s_epik_input>
W0NIM11jKFtjSF0xKWMoPU8pbmMobjEyKU9bQ0BIXTNbQ0BASF0yT1tDQEBIXShbQ0BASF0zW09IXSlbQ0gyXU9DKD1PKWM0W2NIXVtjSF1bY0hdW2NIXVtjSF00

> <s_epik_cmdline>
J2VwaWtfcHl0aG9uJywgJy1waCcsICc3LjAnLCAnLXRuJywgJzgnLCAnLW1hJywgJzIwMCcsICctbWV0YWxfYmluZGluZycsICctaW1hZScsICc8aW5maWxlLm1hZT4nLCAnLW9tYWUnLCAnPG91dGZpbGUubWFlPic=

> <r_lp_tautomer_probability>
0.933681

> <r_epik_Ionization_Penalty>
0.00399549

> <r_epik_Ionization_Penalty_Charging>
3.09373e-09

> <r_epik_Ionization_Penalty_Neutral>
0.00399549

> <r_epik_State_Penalty>
0.00284953

> <r_epik_Charging_Adjusted_Penalty>
0.00284953

> <i_epik_Tot_Q>
0

> <i_epik_Tot_abs_Q>
0

> <r_epik_Metal_State_Penalty>
-0

> <b_epik_Metal_Only>
0

> <s_epik_Chemistry_Notes>
This compound has an ester and may undergo hydrolysis at high or low pH. This compound contains an acetal/aminal-like group ( X-CH(R)-Y where X, Y are N, S, or O) that may be acid/base labile, releasing an aldehyde.

> <s_lp_Force_Field>
OPLS_2005

> <r_lp_Energy>
52.4365

> <b_lp_Chiralities_Consistent>
1

> <s_lp_Variant>
AV-unprocessed.smi:12-5

> <Gold.Version>
5.8.1

> <Gold.Id.Protein>
6NUR|6NUR_protein|mol2

> <Gold.PLP.Fitness>
44.2339

> <Gold.PLP.PLP>
-42.9684

> <Gold.PLP.part.hbond>
-1.0000

> <Gold.PLP.part.metal>
0.0000

> <Gold.PLP.part.buried>
-4.6783

> <Gold.PLP.part.nonpolar>
-37.6493

> <Gold.PLP.part.repulsive>
0.4137

> <Gold.PLP.ligand.clash>
0.0000

> <Gold.PLP.ligand.torsion>
0.2510

> <Gold.PLP.Chemscore.Hbond>
0.5773

> <Gold.PLP.Chemscore.CHOScore>
0.0000

> <Gold.PLP.Chemscore.Metal>
0.0000

> <Gold.Chemscore.Hbonds>
donor molecule, donor type, donor heavy atom, donor atom, acceptor molecule, acceptor atom, score
      P1  H  7997  8008       L1     6  0.47

> <Gold.PLP.Chemscore.Internal.Correction>
0.0357

> <Gold.Rescore>
     Score         DG    S(hbond)    S(metal)    S(lipo)     H(rot)  DE(clash)    DE(int)     intcor
      9.40     -10.90       0.00        0.00      93.90       2.18       0.10       1.40       ----

> <Gold.Chemscore.Fitness>
9.4025

> <Gold.Chemscore.DG>
-10.8963

> <Gold.Chemscore.ZeroCoef>
-5.4800

> <Gold.Chemscore.Hbond>
0.0031

> <Gold.Chemscore.Metal>
0.0000

> <Gold.Chemscore.Lipo>
93.9041

> <Gold.Chemscore.Internal_Hbond>
0.0000

> <Gold.Chemscore.DEClash>
0.0979

> <Gold.Chemscore.DEInternal>
1.3960

> <Gold.Chemscore.Rot>
2.1800

> <Gold.Chemscore.Internal.Correction>
   9.000000E+99

> <Gold.Chemscore.Hbonds>
donor molecule, donor type, donor heavy atom, donor atom, acceptor molecule, acceptor atom, score
      P1  H  7997  8008       L1     6  0.01

> <Gold.Chemscore.Hbond.Weighted>
-0.0103

> <Gold.Chemscore.Metal.Weighted>
-0.0000

> <Gold.Chemscore.Lipo.Weighted>
-10.9868

> <Gold.Chemscore.Internal_Hbond.Weighted>
0.0000

> <Gold.Chemscore.DEClash.Weighted>
0.0979

> <Gold.Chemscore.DEInternal.Weighted>
1.3960

> <Gold.Chemscore.Rot.Weighted>
5.5807

> <Gold.Chemscore.Internal.Correction.Weighted>
   9.000000E+99

> <Gold.Protein.RotatedTorsions>
[ 6907 6896 6895 6894 ] final -151.72 input  -60.11 | X-H torsion
[ 7974 7965 7964 7962 ] final  -50.81 input  175.53 | X-H torsion
[ 8008 7997 7996 7995 ] final -101.38 input   59.86 | X-H torsion
[ 10167 10162 10161 10158 ] final  -67.24 input  -65.29 | X-H torsion
[ 10718 10713 10712 10709 ] final  -57.38 input   66.30 | X-H torsion
[ 10763 10752 10751 10750 ] final   11.17 input  -60.55 | X-H torsion
[ 11005 11000 10999 10996 ] final   67.81 input  -57.11 | X-H torsion

> <Gold.Protein.ActiveResidues>
 VAL166  LYS551  ARG553  GLY616  TRP617  ASP618  TYR619  PRO620  LYS621  CYS622 
 ASP623  PHE694  ASN695  SER759  ASP760  ASP761  ALA762  ILE779  LEU786  VAL792 
 PHE793  MET794  SER795  GLU796  ALA797  LYS798  CYS799  TRP800  GLU811  SER814 

> <Gold.Protein.RotatedAtoms>
  151.2172  133.4523  159.2599 H   0  0  0  0  0  0  0  0  0  0  0  0  # atno 6907 bound_to 6896
  151.0920  134.9921  159.8417 H   0  0  0  0  0  0  0  0  0  0  0  0  # atno 6908 bound_to 6896
  152.5435  134.2105  159.8801 H   0  0  0  0  0  0  0  0  0  0  0  0  # atno 6909 bound_to 6896
  145.9258  140.7793  142.9624 H   0  0  0  0  0  0  0  0  0  0  0  0  # atno 7974 bound_to 7965
  154.8417  140.0435  157.1546 H   0  0  0  0  0  0  0  0  0  0  0  0  # atno 8008 bound_to 7997
  154.9040  140.3004  155.5282 H   0  0  0  0  0  0  0  0  0  0  0  0  # atno 8009 bound_to 7997
  156.2992  140.2370  156.4071 H   0  0  0  0  0  0  0  0  0  0  0  0  # atno 8010 bound_to 7997
  140.5597  143.2312  151.6751 H   0  0  0  0  0  0  0  0  0  0  0  0  # atno 10167 bound_to 10162
  156.1215  130.4166  150.0433 H   0  0  0  0  0  0  0  0  0  0  0  0  # atno 10718 bound_to 10713
  153.1954  135.6848  153.8298 H   0  0  0  0  0  0  0  0  0  0  0  0  # atno 10763 bound_to 10752
  153.7583  135.3213  155.3334 H   0  0  0  0  0  0  0  0  0  0  0  0  # atno 10764 bound_to 10752
  154.8142  135.4697  154.0697 H   0  0  0  0  0  0  0  0  0  0  0  0  # atno 10765 bound_to 10752
  139.9748  134.6840  156.0374 H   0  0  0  0  0  0  0  0  0  0  0  0  # atno 11005 bound_to 11000
  144.6758  140.2048  143.7383 LP  0  0  0  0  0  0  0  0  0  0  0  0  # atno 17320 bound_to 7965
  145.8490  139.2166  143.1783 LP  0  0  0  0  0  0  0  0  0  0  0  0  # atno 17321 bound_to 7965
  139.5064  144.3681  152.0496 LP  0  0  0  0  0  0  0  0  0  0  0  0  # atno 17342 bound_to 10162
  140.2807  144.3863  150.6120 LP  0  0  0  0  0  0  0  0  0  0  0  0  # atno 17343 bound_to 10162
  156.8370  130.9412  151.3634 LP  0  0  0  0  0  0  0  0  0  0  0  0  # atno 17370 bound_to 10713
  157.6398  130.8796  149.9427 LP  0  0  0  0  0  0  0  0  0  0  0  0  # atno 17371 bound_to 10713
  141.1426  133.6562  156.3774 LP  0  0  0  0  0  0  0  0  0  0  0  0  # atno 17394 bound_to 11000
  140.5217  134.6298  157.5320 LP  0  0  0  0  0  0  0  0  0  0  0  0  # atno 17395 bound_to 11000

$$$$
