#       Name:                AV-unprocessed.smi:2063
#       Creating user name   scv26
#       Creation time:       Fri Mar 27 11:10:17 2020


#       File generated by GOLD software.
#

@<TRIPOS>MOLECULE
AV-unprocessed.smi:2063
    45    46     1
SMALL
NO_CHARGES


@<TRIPOS>ATOM
      1 ****        -5.9204   2.8851   0.6862 C.3            1 S1                 0.0000
      2 ****        -5.2754   1.7035  -0.0527 C.3            1 S1                 0.0000
      3 ****        -6.2074   0.4897  -0.1779 C.3            1 S1                 0.0000
      4 ****        -3.9443   1.3359   0.5250 C.2            1 S1                 0.0000
      5 ****        -3.7903   0.8736   1.7697 N.2            1 S1                 0.0000
      6 ****        -2.4624   0.6091   2.0707 N.2            1 S1                 0.0000
      7 ****        -1.6314   0.8641   1.0503 C.2            1 S1                 0.0000
      8 ****        -0.3037   0.6803   1.1369 N.pl3          1 S1                -1.0000
      9 ****         0.2545  -0.4560   0.6607 C.2            1 S1                 0.0000
     10 ****        -0.3444  -1.4040   0.1481 O.2            1 S1                 0.0000
     11 ****         1.5893  -0.4900   0.7836 N.am           1 S1                 0.0000
     12 ****         2.4773  -1.5637   0.3405 C.3            1 S1                 0.0000
     13 ****         2.7414  -2.5295   1.5061 C.3            1 S1                 0.0000
     14 ****         3.7803  -0.9596  -0.2162 C.3            1 S1                 0.0000
     15 ****         3.5848   0.0083  -1.3871 C.3            1 S1                 0.0000
     16 ****         4.8801  -0.1025  -2.1780 C.3            1 S1                 0.0000
     17 ****         5.5977  -1.3026  -1.5563 C.3            1 S1                 0.0000
     18 ****         4.6014  -1.9643  -0.7915 O.3            1 S1                 0.0000
     19 ****        -2.4487   1.4830  -0.3839 S.3            1 S1                 0.0000
     20 ****        -5.2605   3.7534   0.6876 H              1 S1                 0.0000
     21 ****        -6.1399   2.6316   1.7238 H              1 S1                 0.0000
     22 ****        -6.8562   3.1817   0.2118 H              1 S1                 0.0000
     23 ****        -5.0831   2.0477  -1.0698 H              1 S1                 0.0000
     24 ****        -5.7510  -0.2940  -0.7833 H              1 S1                 0.0000
     25 ****        -7.1499   0.7656  -0.6512 H              1 S1                 0.0000
     26 ****        -6.4380   0.0643   0.7993 H              1 S1                 0.0000
     27 ****         2.0288   0.3101   1.2144 H              1 S1                 0.0000
     28 ****         2.0003  -2.1230  -0.4661 H              1 S1                 0.0000
     29 ****         3.3866  -3.3523   1.1970 H              1 S1                 0.0000
     30 ****         1.8114  -2.9638   1.8743 H              1 S1                 0.0000
     31 ****         3.2257  -2.0214   2.3406 H              1 S1                 0.0000
     32 ****         4.3394  -0.4635   0.5799 H              1 S1                 0.0000
     33 ****         2.7500  -0.3152  -2.0105 H              1 S1                 0.0000
     34 ****         3.3770   1.0260  -1.0550 H              1 S1                 0.0000
     35 ****         4.6680  -0.2706  -3.2343 H              1 S1                 0.0000
     36 ****         5.4860   0.8005  -2.0964 H              1 S1                 0.0000
     37 ****         6.0307  -1.9674  -2.3041 H              1 S1                 0.0000
     38 ****         6.3967  -0.9701  -0.8919 H              1 S1                 0.0000
     39 ****        -4.5456   0.7344   2.4102 LP             1 S1                 0.0000
     40 ****        -2.1564   0.2636   2.9578 LP             1 S1                 0.0000
     41 ****         0.2722   1.3837   1.5535 LP             1 S1                 0.0000
     42 ****        -1.3396  -1.3748   0.0541 LP             1 S1                 0.0000
     43 ****         0.1650  -2.2021  -0.1737 LP             1 S1                 0.0000
     44 ****         4.0543  -2.5581  -1.3815 LP             1 S1                 0.0000
     45 ****         5.0287  -2.5116  -0.0719 LP             1 S1                 0.0000
@<TRIPOS>BOND
    1    1    2 1     
    2    1   20 1     
    3    1   21 1     
    4    1   22 1     
    5    2    3 1     
    6    2    4 1     
    7    2   23 1     
    8    3   24 1     
    9    3   25 1     
   10    3   26 1     
   11    4   19 1     
   12    4    5 2     
   13    5    6 1     
   14    6    7 2     
   15    7    8 1     
   16    7   19 1     
   17    8    9 1     
   18    9   10 2     
   19    9   11 am    
   20   11   12 1     
   21   11   27 1     
   22   12   13 1     
   23   12   14 1     
   24   12   28 1     
   25   13   29 1     
   26   13   30 1     
   27   13   31 1     
   28   14   18 1     
   29   14   15 1     
   30   14   32 1     
   31   15   16 1     
   32   15   33 1     
   33   15   34 1     
   34   16   17 1     
   35   16   35 1     
   36   16   36 1     
   37   17   18 1     
   38   17   37 1     
   39   17   38 1     
   40    5   39 1     
   41    6   40 1     
   42    8   41 1     
   43   10   42 1     
   44   10   43 1     
   45   18   44 1     
   46   18   45 1     
@<TRIPOS>SUBSTRUCTURE
      1 S1             1
@<TRIPOS>SET
LONE_PAIRS      STATIC     ATOMS    <user>   **** ""
7 39 40 41 42 43 44 45
DONOR_HYDROGENS      STATIC     ATOMS    <user>   **** ""
1 27
ATOM$BLUE        STATIC     ATOMS    COLORGROUP SYSTEM
7 39 40 41 42 43 44 45
ATOM$RED        STATIC     ATOMS    COLORGROUP SYSTEM
1 27
