AV-unprocessed.smi:3030|AV-procd|sdf|11533|dock10
  -GOLD-   2272016483D 1   1.00000     0.00000
 Structure written by MMmdl.
 52 53  0  0  0  0  0  0  0  0  1 V2000
  150.0397  129.2789  153.8210 C   0  0  0  0  0  0  0  0  0  0  0  0
  148.9508  130.3541  153.9087 C   0  0  0  0  0  0  0  0  0  0  0  0
  149.4082  131.5255  154.6416 N   0  0  0  0  0  0  0  0  0  0  0  0
  150.1689  131.4025  155.7999 C   0  0  0  0  0  0  0  0  0  0  0  0
  150.6510  132.4470  156.5008 C   0  0  0  0  0  0  0  0  0  0  0  0
  150.3775  133.8208  156.0327 C   0  0  0  0  0  0  0  0  0  0  0  0
  150.7920  134.7986  156.6550 O   0  0  0  0  0  0  0  0  0  0  0  0
  149.5829  133.9512  154.7829 C   0  0  0  0  0  0  0  0  0  0  0  0
  149.3183  135.2581  154.3443 N   0  0  0  0  0  0  0  0  0  0  0  0
  149.0053  136.3467  155.0695 C   0  0  0  0  0  0  0  0  0  0  0  0
  148.8381  136.3746  156.2886 O   0  0  0  0  0  0  0  0  0  0  0  0
  148.8852  137.4231  154.2788 N   0  0  0  0  0  0  0  0  0  0  0  0
  148.5340  138.7773  154.7063 C   0  0  2  0  0  0  0  0  0  0  0  0
  147.3731  139.2680  153.8147 C   0  0  0  0  0  0  0  0  0  0  0  0
  146.9634  140.7255  154.0944 C   0  0  1  0  0  0  0  0  0  0  0  0
  146.1972  140.8850  155.4196 C   0  0  0  0  0  0  0  0  0  0  0  0
  148.1904  141.6489  153.9993 C   0  0  0  0  0  0  0  0  0  0  0  0
  149.3388  141.1869  154.9098 C   0  0  0  0  0  0  0  0  0  0  0  0
  149.7636  139.7273  154.6200 C   0  0  1  0  0  0  0  0  0  0  0  0
  150.9838  139.2684  155.4749 C   0  0  0  0  0  0  0  0  0  0  0  0
  151.8435  140.4259  156.0162 C   0  0  0  0  0  0  0  0  0  0  0  0
  151.8632  138.2419  154.7400 C   0  0  0  0  0  0  0  0  0  0  0  0
  149.1521  132.8146  154.1787 C   0  0  0  0  0  0  0  0  0  0  0  0
  149.6821  128.4092  153.2700 H   0  0  0  0  0  0  0  0  0  0  0  0
  150.3425  128.9431  154.8132 H   0  0  0  0  0  0  0  0  0  0  0  0
  150.9254  129.6564  153.3090 H   0  0  0  0  0  0  0  0  0  0  0  0
  148.6412  130.6503  152.9059 H   0  0  0  0  0  0  0  0  0  0  0  0
  148.0639  129.9448  154.3937 H   0  0  0  0  0  0  0  0  0  0  0  0
  150.3458  130.3829  156.1109 H   0  0  0  0  0  0  0  0  0  0  0  0
  151.2346  132.3033  157.3983 H   0  0  0  0  0  0  0  0  0  0  0  0
  149.3509  135.3786  153.3424 H   0  0  0  0  0  0  0  0  0  0  0  0
  149.0424  137.2950  153.2897 H   0  0  0  0  0  0  0  0  0  0  0  0
  148.1726  138.7600  155.7347 H   0  0  0  0  0  0  0  0  0  0  0  0
  147.6698  139.1871  152.7676 H   0  0  0  0  0  0  0  0  0  0  0  0
  146.5091  138.6122  153.9313 H   0  0  0  0  0  0  0  0  0  0  0  0
  146.2717  141.0240  153.3056 H   0  0  0  0  0  0  0  0  0  0  0  0
  146.8024  140.6075  156.2822 H   0  0  0  0  0  0  0  0  0  0  0  0
  145.3040  140.2600  155.4311 H   0  0  0  0  0  0  0  0  0  0  0  0
  145.8754  141.9170  155.5615 H   0  0  0  0  0  0  0  0  0  0  0  0
  148.5437  141.6691  152.9674 H   0  0  0  0  0  0  0  0  0  0  0  0
  147.9105  142.6744  154.2424 H   0  0  0  0  0  0  0  0  0  0  0  0
  150.1811  141.8631  154.7687 H   0  0  0  0  0  0  0  0  0  0  0  0
  149.0359  141.2932  155.9510 H   0  0  0  0  0  0  0  0  0  0  0  0
  150.0934  139.7027  153.5798 H   0  0  0  0  0  0  0  0  0  0  0  0
  150.5959  138.7368  156.3434 H   0  0  0  0  0  0  0  0  0  0  0  0
  152.3395  140.9715  155.2141 H   0  0  0  0  0  0  0  0  0  0  0  0
  152.6220  140.0495  156.6801 H   0  0  0  0  0  0  0  0  0  0  0  0
  151.2530  141.1383  156.5908 H   0  0  0  0  0  0  0  0  0  0  0  0
  152.3937  138.6877  153.8988 H   0  0  0  0  0  0  0  0  0  0  0  0
  151.2688  137.4107  154.3601 H   0  0  0  0  0  0  0  0  0  0  0  0
  152.6149  137.8248  155.4107 H   0  0  0  0  0  0  0  0  0  0  0  0
  148.5451  132.8198  153.2869 H   0  0  0  0  0  0  0  0  0  0  0  0
  1  2  1  0  0  0  0
  1 24  1  0  0  0  0
  1 25  1  0  0  0  0
  1 26  1  0  0  0  0
  2  3  1  0  0  0  0
  2 27  1  0  0  0  0
  2 28  1  0  0  0  0
  3 23  1  0  0  0  0
  3  4  1  0  0  0  0
  4  5  2  0  0  0  0
  4 29  1  0  0  0  0
  5  6  1  0  0  0  0
  5 30  1  0  0  0  0
  6  7  2  0  0  0  0
  6  8  1  0  0  0  0
  8  9  1  0  0  0  0
  8 23  2  0  0  0  0
  9 10  1  0  0  0  0
  9 31  1  0  0  0  0
 10 11  2  0  0  0  0
 10 12  1  0  0  0  0
 12 13  1  0  0  0  0
 12 32  1  0  0  0  0
 13 19  1  0  0  0  0
 13 14  1  0  0  0  0
 13 33  1  0  0  0  0
 14 15  1  0  0  0  0
 14 34  1  0  0  0  0
 14 35  1  0  0  0  0
 15 16  1  0  0  0  0
 15 17  1  0  0  0  0
 15 36  1  0  0  0  0
 16 37  1  0  0  0  0
 16 38  1  0  0  0  0
 16 39  1  0  0  0  0
 17 18  1  0  0  0  0
 17 40  1  0  0  0  0
 17 41  1  0  0  0  0
 18 19  1  0  0  0  0
 18 42  1  0  0  0  0
 18 43  1  0  0  0  0
 19 20  1  0  0  0  0
 19 44  1  0  0  0  0
 20 21  1  0  0  0  0
 20 22  1  0  0  0  0
 20 45  1  0  0  0  0
 21 46  1  0  0  0  0
 21 47  1  0  0  0  0
 21 48  1  0  0  0  0
 22 49  1  0  0  0  0
 22 50  1  0  0  0  0
 22 51  1  0  0  0  0
 23 52  1  0  0  0  0
M  END
> <s_m_source_file>
AV-unprocessed.smi

> <i_m_source_file_index>
3030

> <i_lp_mmshare_version>
43012

> <i_f3d_flags>
0

> <s_epik_input>
W0NIM11bQ0gyXW4xW2NIXVtjSF1jKD1PKWMoW2NIXTEpW05IXUMoPU8pW05IXVtDQEBIXTJbQ0gyXVtDQEBIXShbQ0gzXSlbQ0gyXVtDSDJdW0NASF0yW0NIXShbQ0gzXSlbQ0gzXQ==

> <s_epik_cmdline>
J2VwaWtfcHl0aG9uJywgJy1waCcsICc3LjAnLCAnLXRuJywgJzgnLCAnLW1hJywgJzIwMCcsICctbWV0YWxfYmluZGluZycsICctaW1hZScsICc8aW5maWxlLm1hZT4nLCAnLW9tYWUnLCAnPG91dGZpbGUubWFlPic=

> <r_lp_tautomer_probability>
1

> <r_epik_Ionization_Penalty>
0.00147933

> <r_epik_Ionization_Penalty_Charging>
0.00145753

> <r_epik_Ionization_Penalty_Neutral>
2.17987e-05

> <r_epik_State_Penalty>
0.00097457

> <r_epik_Charging_Adjusted_Penalty>
0.0024321

> <i_epik_Tot_Q>
0

> <i_epik_Tot_abs_Q>
0

> <r_epik_Metal_State_Penalty>
-0

> <b_epik_Metal_Only>
0

> <s_lp_Force_Field>
OPLS_2005

> <r_lp_Energy>
11.9489

> <b_lp_Chiralities_Consistent>
1

> <s_lp_Variant>
AV-unprocessed.smi:3030-1

> <Gold.Version>
5.8.1

> <Gold.Id.Protein>
6NUR|6NUR_protein|mol2

> <Gold.PLP.Fitness>
42.6388

> <Gold.PLP.PLP>
-39.5847

> <Gold.PLP.part.hbond>
-2.0000

> <Gold.PLP.part.metal>
0.0000

> <Gold.PLP.part.buried>
-3.9843

> <Gold.PLP.part.nonpolar>
-33.7509

> <Gold.PLP.part.repulsive>
0.0488

> <Gold.PLP.ligand.clash>
0.0000

> <Gold.PLP.ligand.torsion>
1.4308

> <Gold.PLP.Chemscore.Hbond>
1.9500

> <Gold.PLP.Chemscore.CHOScore>
0.0000

> <Gold.PLP.Chemscore.Metal>
0.0000

> <Gold.Chemscore.Hbonds>
donor molecule, donor type, donor heavy atom, donor atom, acceptor molecule, acceptor atom, score
      L1  H     9    31       P1  7948  0.85
      L1  H    12    32       P1  7948  0.99

> <Gold.PLP.Chemscore.Internal.Correction>
0.0656

> <Gold.Rescore>
     Score         DG    S(hbond)    S(metal)    S(lipo)     H(rot)  DE(clash)    DE(int)     intcor
     14.10     -18.03       1.65        0.00      88.06       1.27       0.08       3.85       ----

> <Gold.Chemscore.Fitness>
14.1000

> <Gold.Chemscore.DG>
-18.0311

> <Gold.Chemscore.ZeroCoef>
-5.4800

> <Gold.Chemscore.Hbond>
1.6454

> <Gold.Chemscore.Metal>
0.0000

> <Gold.Chemscore.Lipo>
88.0584

> <Gold.Chemscore.Internal_Hbond>
0.0000

> <Gold.Chemscore.DEClash>
0.0828

> <Gold.Chemscore.DEInternal>
3.8483

> <Gold.Chemscore.Rot>
1.2685

> <Gold.Chemscore.Internal.Correction>
   9.000000E+99

> <Gold.Chemscore.Hbonds>
donor molecule, donor type, donor heavy atom, donor atom, acceptor molecule, acceptor atom, score
      L1  H     9    31       P1  7948  0.14
      L1  H    12    32       P1  7948  0.94

> <Gold.Chemscore.Hbond.Weighted>
-5.4957

> <Gold.Chemscore.Metal.Weighted>
-0.0000

> <Gold.Chemscore.Lipo.Weighted>
-10.3028

> <Gold.Chemscore.Internal_Hbond.Weighted>
0.0000

> <Gold.Chemscore.DEClash.Weighted>
0.0828

> <Gold.Chemscore.DEInternal.Weighted>
3.8483

> <Gold.Chemscore.Rot.Weighted>
3.2474

> <Gold.Chemscore.Internal.Correction.Weighted>
   9.000000E+99

> <Gold.Protein.RotatedTorsions>
[ 6907 6896 6895 6894 ] final  174.37 input  -60.11 | X-H torsion
[ 7974 7965 7964 7962 ] final  142.16 input  175.53 | X-H torsion
[ 8008 7997 7996 7995 ] final   47.02 input   59.86 | X-H torsion
[ 10167 10162 10161 10158 ] final -116.85 input  -65.29 | X-H torsion
[ 10718 10713 10712 10709 ] final   99.98 input   66.30 | X-H torsion
[ 10763 10752 10751 10750 ] final  120.75 input  -60.55 | X-H torsion
[ 11005 11000 10999 10996 ] final  132.66 input  -57.11 | X-H torsion

> <Gold.Protein.ActiveResidues>
 VAL166  LYS551  ARG553  GLY616  TRP617  ASP618  TYR619  PRO620  LYS621  CYS622 
 ASP623  PHE694  ASN695  SER759  ASP760  ASP761  ALA762  ILE779  LEU786  VAL792 
 PHE793  MET794  SER795  GLU796  ALA797  LYS798  CYS799  TRP800  GLU811  SER814 

> <Gold.Protein.RotatedAtoms>
  151.7533  133.3329  159.3397 H   0  0  0  0  0  0  0  0  0  0  0  0  # atno 6907 bound_to 6896
  150.7526  134.6172  159.6126 H   0  0  0  0  0  0  0  0  0  0  0  0  # atno 6908 bound_to 6896
  152.3454  134.7080  160.0303 H   0  0  0  0  0  0  0  0  0  0  0  0  # atno 6909 bound_to 6896
  144.9032  139.5393  143.5743 H   0  0  0  0  0  0  0  0  0  0  0  0  # atno 7974 bound_to 7965
  155.3621  140.3419  155.4241 H   0  0  0  0  0  0  0  0  0  0  0  0  # atno 8008 bound_to 7997
  156.1708  140.1631  156.8485 H   0  0  0  0  0  0  0  0  0  0  0  0  # atno 8009 bound_to 7997
  154.5231  140.0762  156.8191 H   0  0  0  0  0  0  0  0  0  0  0  0  # atno 8010 bound_to 7997
  140.0747  143.4844  152.1960 H   0  0  0  0  0  0  0  0  0  0  0  0  # atno 10167 bound_to 10162
  157.6864  131.0685  150.5031 H   0  0  0  0  0  0  0  0  0  0  0  0  # atno 10718 bound_to 10713
  153.6034  135.3444  155.2953 H   0  0  0  0  0  0  0  0  0  0  0  0  # atno 10763 bound_to 10752
  154.8632  135.4233  154.2388 H   0  0  0  0  0  0  0  0  0  0  0  0  # atno 10764 bound_to 10752
  153.3222  135.7039  153.7092 H   0  0  0  0  0  0  0  0  0  0  0  0  # atno 10765 bound_to 10752
  139.9804  134.9550  156.9614 H   0  0  0  0  0  0  0  0  0  0  0  0  # atno 11005 bound_to 11000
  146.3120  139.7780  142.9013 LP  0  0  0  0  0  0  0  0  0  0  0  0  # atno 17320 bound_to 7965
  145.3580  141.0320  143.3301 LP  0  0  0  0  0  0  0  0  0  0  0  0  # atno 17321 bound_to 7965
  139.5815  144.7512  151.3629 LP  0  0  0  0  0  0  0  0  0  0  0  0  # atno 17342 bound_to 10162
  140.7108  143.7396  150.7563 LP  0  0  0  0  0  0  0  0  0  0  0  0  # atno 17343 bound_to 10162
  156.5351  130.4194  149.6182 LP  0  0  0  0  0  0  0  0  0  0  0  0  # atno 17370 bound_to 10713
  156.3034  130.7189  151.2066 LP  0  0  0  0  0  0  0  0  0  0  0  0  # atno 17371 bound_to 10713
  140.5108  134.1004  155.7270 LP  0  0  0  0  0  0  0  0  0  0  0  0  # atno 17394 bound_to 11000
  141.1476  133.9026  157.2176 LP  0  0  0  0  0  0  0  0  0  0  0  0  # atno 17395 bound_to 11000

$$$$
