AV-unprocessed.smi:3211|AV-procd|sdf|12276|dock8
  -GOLD-   2272018113D 1   1.00000     0.00000
 Structure written by MMmdl.
 34 35  0  0  0  0  0  0  0  0  1 V2000
  153.4596  141.8366  162.2253 C   0  0  0  0  0  0  0  0  0  0  0  0
  152.9669  143.2767  162.0464 C   0  0  0  0  0  0  0  0  0  0  0  0
  152.2265  143.4751  160.7662 C   0  0  0  0  0  0  0  0  0  0  0  0
  151.7921  142.4691  160.0021 N   0  0  0  0  0  0  0  0  0  0  0  0
  151.1039  142.9121  158.8680 C   0  0  0  0  0  0  0  0  0  0  0  0
  150.5617  141.9198  157.8845 C   0  0  0  0  0  0  0  0  0  0  0  0
  150.9512  142.2669  156.4384 C   0  0  0  0  0  0  0  0  0  0  0  0
  149.7845  142.3183  155.5645 N   0  0  0  0  0  0  0  0  0  0  0  0
  149.4833  141.4068  154.6270 C   0  0  0  0  0  0  0  0  0  0  0  0
  150.1844  140.4175  154.4115 O   0  0  0  0  0  0  0  0  0  0  0  0
  148.2175  141.7029  153.8833 C   0  0  2  0  0  0  0  0  0  0  0  0
  146.9548  141.9230  154.6932 C   0  0  0  0  0  0  0  0  0  0  0  0
  147.0889  140.6799  153.8467 C   0  0  2  0  0  0  0  0  0  0  0  0
  147.1534  139.3061  154.4909 C   0  0  0  0  0  0  0  0  0  0  0  0
  151.0086  144.2794  158.7930 C   0  0  0  0  0  0  0  0  0  0  0  0
  151.7810  145.0602  160.1451 S   0  0  0  0  0  0  0  0  0  0  0  0
  153.9989  141.7244  163.1661 H   0  0  0  0  0  0  0  0  0  0  0  0
  154.1339  141.5488  161.4182 H   0  0  0  0  0  0  0  0  0  0  0  0
  152.6259  141.1337  162.2324 H   0  0  0  0  0  0  0  0  0  0  0  0
  152.3119  143.5512  162.8740 H   0  0  0  0  0  0  0  0  0  0  0  0
  153.8119  143.9656  162.0759 H   0  0  0  0  0  0  0  0  0  0  0  0
  150.9229  140.9199  158.1284 H   0  0  0  0  0  0  0  0  0  0  0  0
  149.4753  141.8734  157.9708 H   0  0  0  0  0  0  0  0  0  0  0  0
  151.4873  143.2170  156.4056 H   0  0  0  0  0  0  0  0  0  0  0  0
  151.6345  141.5131  156.0459 H   0  0  0  0  0  0  0  0  0  0  0  0
  149.1582  143.1011  155.6850 H   0  0  0  0  0  0  0  0  0  0  0  0
  148.3314  142.3052  152.9830 H   0  0  0  0  0  0  0  0  0  0  0  0
  147.0026  141.8060  155.7746 H   0  0  0  0  0  0  0  0  0  0  0  0
  146.2776  142.7021  154.3493 H   0  0  0  0  0  0  0  0  0  0  0  0
  146.5337  140.6688  152.9107 H   0  0  0  0  0  0  0  0  0  0  0  0
  147.5075  139.3597  155.5198 H   0  0  0  0  0  0  0  0  0  0  0  0
  147.8184  138.6560  153.9223 H   0  0  0  0  0  0  0  0  0  0  0  0
  146.1600  138.8579  154.5039 H   0  0  0  0  0  0  0  0  0  0  0  0
  150.5313  144.8724  158.0269 H   0  0  0  0  0  0  0  0  0  0  0  0
  1  2  1  0  0  0  0
  1 17  1  0  0  0  0
  1 18  1  0  0  0  0
  1 19  1  0  0  0  0
  2  3  1  0  0  0  0
  2 20  1  0  0  0  0
  2 21  1  0  0  0  0
  3 16  1  0  0  0  0
  3  4  2  0  0  0  0
  4  5  1  0  0  0  0
  5  6  1  0  0  0  0
  5 15  2  0  0  0  0
  6  7  1  0  0  0  0
  6 22  1  0  0  0  0
  6 23  1  0  0  0  0
  7  8  1  0  0  0  0
  7 24  1  0  0  0  0
  7 25  1  0  0  0  0
  8  9  1  0  0  0  0
  8 26  1  0  0  0  0
  9 10  2  0  0  0  0
  9 11  1  0  0  0  0
 11 13  1  0  0  0  0
 11 12  1  0  0  0  0
 11 27  1  0  0  0  0
 12 13  1  0  0  0  0
 12 28  1  0  0  0  0
 12 29  1  0  0  0  0
 13 14  1  0  0  0  0
 13 30  1  0  0  0  0
 14 31  1  0  0  0  0
 14 32  1  0  0  0  0
 14 33  1  0  0  0  0
 15 16  1  0  0  0  0
 15 34  1  0  0  0  0
M  END
> <s_m_source_file>
AV-unprocessed.smi

> <i_m_source_file_index>
3211

> <i_lp_mmshare_version>
43012

> <i_f3d_flags>
0

> <s_epik_input>
W0NIM11bQ0gyXWMxbmMoW2NIXXMxKVtDSDJdW0NIMl1bTkhdQyg9TylbQ0BASF0yW0NIMl1bQ0BIXTJbQ0gzXQ==

> <s_epik_cmdline>
J2VwaWtfcHl0aG9uJywgJy1waCcsICc3LjAnLCAnLXRuJywgJzgnLCAnLW1hJywgJzIwMCcsICctbWV0YWxfYmluZGluZycsICctaW1hZScsICc8aW5maWxlLm1hZT4nLCAnLW9tYWUnLCAnPG91dGZpbGUubWFlPic=

> <r_epik_Ionization_Penalty>
0.00109667

> <r_epik_Ionization_Penalty_Charging>
0

> <r_epik_Ionization_Penalty_Neutral>
0.00109667

> <r_epik_State_Penalty>
0.000719322

> <r_epik_Charging_Adjusted_Penalty>
0.000719322

> <i_epik_Tot_Q>
0

> <i_epik_Tot_abs_Q>
0

> <r_epik_Metal_State_Penalty>
-0

> <b_epik_Metal_Only>
0

> <s_lp_Force_Field>
OPLS_2005

> <r_lp_Energy>
-0.716075

> <b_lp_Chiralities_Consistent>
1

> <s_lp_Variant>
AV-unprocessed.smi:3211-3

> <Gold.Version>
5.8.1

> <Gold.Id.Protein>
6NUR|6NUR_protein|mol2

> <Gold.PLP.Fitness>
47.7342

> <Gold.PLP.PLP>
-40.3569

> <Gold.PLP.part.hbond>
-2.5407

> <Gold.PLP.part.metal>
0.0000

> <Gold.PLP.part.buried>
-4.4981

> <Gold.PLP.part.nonpolar>
-32.9556

> <Gold.PLP.part.repulsive>
0.2869

> <Gold.PLP.ligand.clash>
0.0000

> <Gold.PLP.ligand.torsion>
0.7083

> <Gold.PLP.Chemscore.Hbond>
2.0000

> <Gold.PLP.Chemscore.CHOScore>
0.8968

> <Gold.PLP.Chemscore.Metal>
0.0000

> <Gold.Chemscore.Hbonds>
donor molecule, donor type, donor heavy atom, donor atom, acceptor molecule, acceptor atom, score
      L1  H     8    26       P1  8028  1.00
      P1  H  7989  7998       L1    10  0.94
      L1  C    15    34       P1  8028  0.17
      L1  C    15    34       P1  8029  0.01

> <Gold.PLP.Chemscore.Internal.Correction>
0.1035

> <Gold.Rescore>
     Score         DG    S(hbond)    S(metal)    S(lipo)     H(rot)  DE(clash)    DE(int)     intcor
     16.94     -17.86       1.28        0.00     102.43       1.51       0.45       0.47       ----

> <Gold.Chemscore.Fitness>
16.9421

> <Gold.Chemscore.DG>
-17.8590

> <Gold.Chemscore.ZeroCoef>
-5.4800

> <Gold.Chemscore.Hbond>
1.2751

> <Gold.Chemscore.Metal>
0.0000

> <Gold.Chemscore.Lipo>
102.4344

> <Gold.Chemscore.Internal_Hbond>
0.0000

> <Gold.Chemscore.DEClash>
0.4502

> <Gold.Chemscore.DEInternal>
0.4667

> <Gold.Chemscore.Rot>
1.5096

> <Gold.Chemscore.Internal.Correction>
   9.000000E+99

> <Gold.Chemscore.Hbonds>
donor molecule, donor type, donor heavy atom, donor atom, acceptor molecule, acceptor atom, score
      L1  H     8    26       P1  8028  0.94
      P1  H  7989  7998       L1    10  0.68

> <Gold.Chemscore.Hbond.Weighted>
-4.2587

> <Gold.Chemscore.Metal.Weighted>
-0.0000

> <Gold.Chemscore.Lipo.Weighted>
-11.9848

> <Gold.Chemscore.Internal_Hbond.Weighted>
0.0000

> <Gold.Chemscore.DEClash.Weighted>
0.4502

> <Gold.Chemscore.DEInternal.Weighted>
0.4667

> <Gold.Chemscore.Rot.Weighted>
3.8646

> <Gold.Chemscore.Internal.Correction.Weighted>
   9.000000E+99

> <Gold.Protein.RotatedTorsions>
[ 6907 6896 6895 6894 ] final -137.03 input  -60.11 | X-H torsion
[ 7974 7965 7964 7962 ] final   81.92 input  175.53 | X-H torsion
[ 8008 7997 7996 7995 ] final -123.58 input   59.86 | X-H torsion
[ 10167 10162 10161 10158 ] final   95.52 input  -65.29 | X-H torsion
[ 10718 10713 10712 10709 ] final -160.37 input   66.30 | X-H torsion
[ 10763 10752 10751 10750 ] final  -98.61 input  -60.55 | X-H torsion
[ 11005 11000 10999 10996 ] final -106.82 input  -57.11 | X-H torsion

> <Gold.Protein.ActiveResidues>
 VAL166  LYS551  ARG553  GLY616  TRP617  ASP618  TYR619  PRO620  LYS621  CYS622 
 ASP623  PHE694  ASN695  SER759  ASP760  ASP761  ALA762  ILE779  LEU786  VAL792 
 PHE793  MET794  SER795  GLU796  ALA797  LYS798  CYS799  TRP800  GLU811  SER814 

> <Gold.Protein.RotatedAtoms>
  151.0174  133.5909  159.2675 H   0  0  0  0  0  0  0  0  0  0  0  0  # atno 6907 bound_to 6896
  151.3038  135.0775  159.9258 H   0  0  0  0  0  0  0  0  0  0  0  0  # atno 6908 bound_to 6896
  152.5315  133.9851  159.7878 H   0  0  0  0  0  0  0  0  0  0  0  0  # atno 6909 bound_to 6896
  145.6318  139.2406  143.2080 H   0  0  0  0  0  0  0  0  0  0  0  0  # atno 7974 bound_to 7965
  155.1828  140.0411  157.2885 H   0  0  0  0  0  0  0  0  0  0  0  0  # atno 8008 bound_to 7997
  154.6192  140.2496  155.7543 H   0  0  0  0  0  0  0  0  0  0  0  0  # atno 8009 bound_to 7997
  156.2424  140.2898  156.0491 H   0  0  0  0  0  0  0  0  0  0  0  0  # atno 8010 bound_to 7997
  139.7981  144.6825  150.9802 H   0  0  0  0  0  0  0  0  0  0  0  0  # atno 10167 bound_to 10162
  156.5811  130.8730  151.2865 H   0  0  0  0  0  0  0  0  0  0  0  0  # atno 10718 bound_to 10713
  154.7429  135.5003  153.9154 H   0  0  0  0  0  0  0  0  0  0  0  0  # atno 10763 bound_to 10752
  153.1062  135.6697  153.9591 H   0  0  0  0  0  0  0  0  0  0  0  0  # atno 10764 bound_to 10752
  153.9363  135.3072  155.3423 H   0  0  0  0  0  0  0  0  0  0  0  0  # atno 10765 bound_to 10752
  141.0985  133.8927  157.1902 H   0  0  0  0  0  0  0  0  0  0  0  0  # atno 11005 bound_to 11000
  146.1350  140.7134  142.9394 LP  0  0  0  0  0  0  0  0  0  0  0  0  # atno 17320 bound_to 7965
  144.7191  140.4311  143.7022 LP  0  0  0  0  0  0  0  0  0  0  0  0  # atno 17321 bound_to 7965
  140.7820  143.4310  151.0694 LP  0  0  0  0  0  0  0  0  0  0  0  0  # atno 17342 bound_to 10162
  139.7983  143.8119  152.3160 LP  0  0  0  0  0  0  0  0  0  0  0  0  # atno 17343 bound_to 10162
  157.7326  130.9718  150.1937 LP  0  0  0  0  0  0  0  0  0  0  0  0  # atno 17370 bound_to 10713
  156.2630  130.3713  149.8110 LP  0  0  0  0  0  0  0  0  0  0  0  0  # atno 17371 bound_to 10713
  139.9829  135.0092  156.9793 LP  0  0  0  0  0  0  0  0  0  0  0  0  # atno 17394 bound_to 11000
  140.5080  134.1030  155.7264 LP  0  0  0  0  0  0  0  0  0  0  0  0  # atno 17395 bound_to 11000

$$$$
