AV-unprocessed.smi:2862|AV-procd|sdf|11009|dock8
  -GOLD-   2272015473D 1   1.00000     0.00000
 Structure written by MMmdl.
 52 54  0  0  0  0  0  0  0  0  1 V2000
  149.5432  134.6381  155.7394 C   0  0  0  0  0  0  0  0  0  0  0  0
  148.1704  134.6297  155.0451 C   0  0  1  0  0  0  0  0  0  0  0  0
  148.0077  135.7999  154.1838 N   0  0  0  0  0  0  0  0  0  0  0  0
  147.1753  136.8417  154.3671 C   0  0  0  0  0  0  0  0  0  0  0  0
  146.4187  136.9348  155.3324 O   0  0  0  0  0  0  0  0  0  0  0  0
  147.1734  137.9645  153.3142 C   0  0  0  0  0  0  0  0  0  0  0  0
  147.6174  139.2824  153.8062 N   0  0  0  0  0  0  0  0  0  0  0  0
  146.8001  140.3852  153.4874 C   0  0  0  0  0  0  0  0  0  0  0  0
  147.0966  141.6319  153.8839 C   0  0  0  0  0  0  0  0  0  0  0  0
  148.2941  141.8360  154.6608 C   0  0  0  0  0  0  0  0  0  0  0  0
  149.0707  140.7821  155.0014 C   0  0  0  0  0  0  0  0  0  0  0  0
  150.3290  140.9430  155.7425 C   0  0  0  0  0  0  0  0  0  0  0  0
  151.3854  140.4279  155.3707 O   0  0  0  0  0  0  0  0  0  0  0  0
  150.2696  141.7313  156.8550 N   0  0  0  0  0  0  0  0  0  0  0  0
  149.0213  142.0130  157.5846 C   0  0  0  0  0  0  0  0  0  0  0  0
  151.4771  142.2409  157.5418 C   0  0  2  0  0  0  0  0  0  0  0  0
  151.6382  141.6298  158.9484 C   0  0  0  0  0  0  0  0  0  0  0  0
  151.5933  143.7593  157.5839 C   0  0  0  0  0  0  0  0  0  0  0  0
  152.7095  144.4380  158.3408 C   0  0  0  0  0  0  0  0  0  0  0  0
  151.2876  144.5260  158.8482 C   0  0  0  0  0  0  0  0  0  0  0  0
  148.7611  139.4057  154.5506 C   0  0  0  0  0  0  0  0  0  0  0  0
  149.4450  138.4159  154.8264 O   0  0  0  0  0  0  0  0  0  0  0  0
  147.8876  133.2959  154.3707 C   0  0  0  0  0  0  0  0  0  0  0  0
  148.8600  132.7031  153.3800 C   0  0  0  0  0  0  0  0  0  0  0  0
  147.5220  133.2274  152.9075 C   0  0  0  0  0  0  0  0  0  0  0  0
  149.6067  133.8446  156.4846 H   0  0  0  0  0  0  0  0  0  0  0  0
  149.7194  135.5840  156.2526 H   0  0  0  0  0  0  0  0  0  0  0  0
  150.3570  134.4861  155.0300 H   0  0  0  0  0  0  0  0  0  0  0  0
  147.4218  134.7550  155.8283 H   0  0  0  0  0  0  0  0  0  0  0  0
  148.5884  135.8205  153.3581 H   0  0  0  0  0  0  0  0  0  0  0  0
  147.7896  137.6484  152.4705 H   0  0  0  0  0  0  0  0  0  0  0  0
  146.1642  138.0371  152.9068 H   0  0  0  0  0  0  0  0  0  0  0  0
  145.9180  140.1514  152.9088 H   0  0  0  0  0  0  0  0  0  0  0  0
  146.4530  142.4616  153.6310 H   0  0  0  0  0  0  0  0  0  0  0  0
  148.5658  142.8401  154.9538 H   0  0  0  0  0  0  0  0  0  0  0  0
  148.2564  141.2514  157.4276 H   0  0  0  0  0  0  0  0  0  0  0  0
  148.6147  142.9786  157.2832 H   0  0  0  0  0  0  0  0  0  0  0  0
  149.1834  142.0443  158.6625 H   0  0  0  0  0  0  0  0  0  0  0  0
  152.3491  141.8833  156.9915 H   0  0  0  0  0  0  0  0  0  0  0  0
  152.6142  141.8775  159.3668 H   0  0  0  0  0  0  0  0  0  0  0  0
  151.5654  140.5423  158.9147 H   0  0  0  0  0  0  0  0  0  0  0  0
  150.8883  141.9942  159.6499 H   0  0  0  0  0  0  0  0  0  0  0  0
  151.2797  144.2527  156.6664 H   0  0  0  0  0  0  0  0  0  0  0  0
  153.4020  143.8108  158.8982 H   0  0  0  0  0  0  0  0  0  0  0  0
  153.1435  145.3319  157.8976 H   0  0  0  0  0  0  0  0  0  0  0  0
  150.7733  145.4791  158.7443 H   0  0  0  0  0  0  0  0  0  0  0  0
  151.0381  143.9563  159.7412 H   0  0  0  0  0  0  0  0  0  0  0  0
  147.3684  132.5824  155.0078 H   0  0  0  0  0  0  0  0  0  0  0  0
  149.7448  133.2844  153.1279 H   0  0  0  0  0  0  0  0  0  0  0  0
  149.0006  131.6243  153.4005 H   0  0  0  0  0  0  0  0  0  0  0  0
  146.7723  132.4969  152.6104 H   0  0  0  0  0  0  0  0  0  0  0  0
  147.5187  134.1564  152.3405 H   0  0  0  0  0  0  0  0  0  0  0  0
  1  2  1  0  0  0  0
  1 26  1  0  0  0  0
  1 27  1  0  0  0  0
  1 28  1  0  0  0  0
  2  3  1  0  0  0  0
  2 23  1  0  0  0  0
  2 29  1  0  0  0  0
  3  4  1  0  0  0  0
  3 30  1  0  0  0  0
  4  5  2  0  0  0  0
  4  6  1  0  0  0  0
  6  7  1  0  0  0  0
  6 31  1  0  0  0  0
  6 32  1  0  0  0  0
  7 21  1  0  0  0  0
  7  8  1  0  0  0  0
  8  9  2  0  0  0  0
  8 33  1  0  0  0  0
  9 10  1  0  0  0  0
  9 34  1  0  0  0  0
 10 11  2  0  0  0  0
 10 35  1  0  0  0  0
 11 12  1  0  0  0  0
 11 21  1  0  0  0  0
 12 13  2  0  0  0  0
 12 14  1  0  0  0  0
 14 15  1  0  0  0  0
 14 16  1  0  0  0  0
 15 36  1  0  0  0  0
 15 37  1  0  0  0  0
 15 38  1  0  0  0  0
 16 17  1  0  0  0  0
 16 18  1  0  0  0  0
 16 39  1  0  0  0  0
 17 40  1  0  0  0  0
 17 41  1  0  0  0  0
 17 42  1  0  0  0  0
 18 20  1  0  0  0  0
 18 19  1  0  0  0  0
 18 43  1  0  0  0  0
 19 20  1  0  0  0  0
 19 44  1  0  0  0  0
 19 45  1  0  0  0  0
 20 46  1  0  0  0  0
 20 47  1  0  0  0  0
 21 22  2  0  0  0  0
 23 25  1  0  0  0  0
 23 24  1  0  0  0  0
 23 48  1  0  0  0  0
 24 25  1  0  0  0  0
 24 49  1  0  0  0  0
 24 50  1  0  0  0  0
 25 51  1  0  0  0  0
 25 52  1  0  0  0  0
M  END
> <s_m_source_file>
AV-unprocessed.smi

> <i_m_source_file_index>
2862

> <i_lp_mmshare_version>
43012

> <i_f3d_flags>
0

> <s_epik_input>
W0NIMl0xW0NIMl1bQ0hdMVtDQEhdKFtDSDNdKVtOSF1DKD1PKVtDSDJdbjJbY0hdW2NIXVtjSF1jKGMyPU8pQyg9TylOKFtDSDNdKVtDQEhdKFtDSDNdKVtDSF0zW0NIMl1bQ0gyXTM=

> <s_epik_cmdline>
J2VwaWtfcHl0aG9uJywgJy1waCcsICc3LjAnLCAnLXRuJywgJzgnLCAnLW1hJywgJzIwMCcsICctbWV0YWxfYmluZGluZycsICctaW1hZScsICc8aW5maWxlLm1hZT4nLCAnLW9tYWUnLCAnPG91dGZpbGUubWFlPic=

> <r_lp_tautomer_probability>
1

> <r_epik_Ionization_Penalty>
4.00841e-08

> <r_epik_Ionization_Penalty_Charging>
2.07773e-08

> <r_epik_Ionization_Penalty_Neutral>
1.93069e-08

> <r_epik_State_Penalty>
-0

> <r_epik_Charging_Adjusted_Penalty>
2.07773e-08

> <i_epik_Tot_Q>
0

> <i_epik_Tot_abs_Q>
0

> <r_epik_Metal_State_Penalty>
-0

> <b_epik_Metal_Only>
0

> <s_lp_Force_Field>
OPLS_2005

> <r_lp_Energy>
60.0482

> <b_lp_Chiralities_Consistent>
1

> <s_lp_Variant>
AV-unprocessed.smi:2862-2

> <Gold.Version>
5.8.1

> <Gold.Id.Protein>
6NUR|6NUR_protein|mol2

> <Gold.PLP.Fitness>
52.2878

> <Gold.PLP.PLP>
-44.4392

> <Gold.PLP.part.hbond>
-1.8534

> <Gold.PLP.part.metal>
0.0000

> <Gold.PLP.part.buried>
-1.4859

> <Gold.PLP.part.nonpolar>
-42.6299

> <Gold.PLP.part.repulsive>
0.2059

> <Gold.PLP.ligand.clash>
0.0000

> <Gold.PLP.ligand.torsion>
2.5706

> <Gold.PLP.Chemscore.Hbond>
1.8800

> <Gold.PLP.Chemscore.CHOScore>
1.0000

> <Gold.PLP.Chemscore.Metal>
0.0000

> <Gold.Chemscore.Hbonds>
donor molecule, donor type, donor heavy atom, donor atom, acceptor molecule, acceptor atom, score
      L1  H     3    30       P1  7948  1.00
      P1  H  7989  7998       L1    13  0.91
      L1  C     8    33       P1 10175  1.00

> <Gold.PLP.Chemscore.Internal.Correction>
4.3499

> <Gold.Rescore>
     Score         DG    S(hbond)    S(metal)    S(lipo)     H(rot)  DE(clash)    DE(int)     intcor
     14.47     -19.87       1.84        0.00     108.42       1.73       0.21       5.20       ----

> <Gold.Chemscore.Fitness>
14.4684

> <Gold.Chemscore.DG>
-19.8741

> <Gold.Chemscore.ZeroCoef>
-5.4800

> <Gold.Chemscore.Hbond>
1.8414

> <Gold.Chemscore.Metal>
0.0000

> <Gold.Chemscore.Lipo>
108.4174

> <Gold.Chemscore.Internal_Hbond>
0.0000

> <Gold.Chemscore.DEClash>
0.2086

> <Gold.Chemscore.DEInternal>
5.1972

> <Gold.Chemscore.Rot>
1.7348

> <Gold.Chemscore.Internal.Correction>
   9.000000E+99

> <Gold.Chemscore.Hbonds>
donor molecule, donor type, donor heavy atom, donor atom, acceptor molecule, acceptor atom, score
      L1  H     3    30       P1  7948  0.96
      P1  H  7989  7998       L1    13  0.57

> <Gold.Chemscore.Hbond.Weighted>
-6.1504

> <Gold.Chemscore.Metal.Weighted>
-0.0000

> <Gold.Chemscore.Lipo.Weighted>
-12.6848

> <Gold.Chemscore.Internal_Hbond.Weighted>
0.0000

> <Gold.Chemscore.DEClash.Weighted>
0.2086

> <Gold.Chemscore.DEInternal.Weighted>
5.1972

> <Gold.Chemscore.Rot.Weighted>
4.4412

> <Gold.Chemscore.Internal.Correction.Weighted>
   9.000000E+99

> <Gold.Protein.RotatedTorsions>
[ 6907 6896 6895 6894 ] final   84.33 input  -60.11 | X-H torsion
[ 7974 7965 7964 7962 ] final  152.48 input  175.53 | X-H torsion
[ 8008 7997 7996 7995 ] final  135.06 input   59.86 | X-H torsion
[ 10167 10162 10161 10158 ] final  143.85 input  -65.29 | X-H torsion
[ 10718 10713 10712 10709 ] final  -23.22 input   66.30 | X-H torsion
[ 10763 10752 10751 10750 ] final  157.22 input  -60.55 | X-H torsion
[ 11005 11000 10999 10996 ] final -125.80 input  -57.11 | X-H torsion

> <Gold.Protein.ActiveResidues>
 VAL166  LYS551  ARG553  GLY616  TRP617  ASP618  TYR619  PRO620  LYS621  CYS622 
 ASP623  PHE694  ASN695  SER759  ASP760  ASP761  ALA762  ILE779  LEU786  VAL792 
 PHE793  MET794  SER795  GLU796  ALA797  LYS798  CYS799  TRP800  GLU811  SER814 

> <Gold.Protein.RotatedAtoms>
  152.5350  134.2757  159.8988 H   0  0  0  0  0  0  0  0  0  0  0  0  # atno 6907 bound_to 6896
  151.2713  133.4247  159.2629 H   0  0  0  0  0  0  0  0  0  0  0  0  # atno 6908 bound_to 6896
  151.0365  134.9592  159.8196 H   0  0  0  0  0  0  0  0  0  0  0  0  # atno 6909 bound_to 6896
  144.8220  139.6674  143.6096 H   0  0  0  0  0  0  0  0  0  0  0  0  # atno 7974 bound_to 7965
  156.3002  140.2480  156.3519 H   0  0  0  0  0  0  0  0  0  0  0  0  # atno 8008 bound_to 7997
  154.8958  140.0408  157.1884 H   0  0  0  0  0  0  0  0  0  0  0  0  # atno 8009 bound_to 7997
  154.8551  140.2912  155.5578 H   0  0  0  0  0  0  0  0  0  0  0  0  # atno 8010 bound_to 7997
  139.4960  144.6012  151.6476 H   0  0  0  0  0  0  0  0  0  0  0  0  # atno 10167 bound_to 10162
  156.4939  130.4573  149.6739 H   0  0  0  0  0  0  0  0  0  0  0  0  # atno 10718 bound_to 10713
  154.1967  135.2792  155.3004 H   0  0  0  0  0  0  0  0  0  0  0  0  # atno 10763 bound_to 10752
  154.5886  135.5567  153.7259 H   0  0  0  0  0  0  0  0  0  0  0  0  # atno 10764 bound_to 10752
  153.0098  135.6362  154.2105 H   0  0  0  0  0  0  0  0  0  0  0  0  # atno 10765 bound_to 10752
  140.9732  134.0776  157.3846 H   0  0  0  0  0  0  0  0  0  0  0  0  # atno 11005 bound_to 11000
  146.2525  139.6231  142.9417 LP  0  0  0  0  0  0  0  0  0  0  0  0  # atno 17320 bound_to 7965
  145.5084  141.0436  143.2501 LP  0  0  0  0  0  0  0  0  0  0  0  0  # atno 17321 bound_to 7965
  140.5662  144.0185  150.6194 LP  0  0  0  0  0  0  0  0  0  0  0  0  # atno 17342 bound_to 10162
  140.3288  143.3091  152.0709 LP  0  0  0  0  0  0  0  0  0  0  0  0  # atno 17343 bound_to 10162
  156.3399  130.7376  151.2320 LP  0  0  0  0  0  0  0  0  0  0  0  0  # atno 17370 bound_to 10713
  157.7470  131.0406  150.4608 LP  0  0  0  0  0  0  0  0  0  0  0  0  # atno 17371 bound_to 10713
  139.8920  135.0122  156.6824 LP  0  0  0  0  0  0  0  0  0  0  0  0  # atno 17394 bound_to 11000
  140.7297  133.9069  155.8203 LP  0  0  0  0  0  0  0  0  0  0  0  0  # atno 17395 bound_to 11000

$$$$
