AV-unprocessed.smi:1762|AV-procd|sdf|7110|dock8
  -GOLD-   22720 8333D 1   1.00000     0.00000
 Structure written by MMmdl.
 53 54  0  0  0  0  0  0  0  0  2 V2000
  152.3202  140.4938  157.0000 C   0  0  0  0  0  0  0  0  0  0  0  0
  151.3601  139.5208  156.3063 C   0  0  1  0  0  0  0  0  0  0  0  0
  150.2810  140.2555  155.4910 C   0  0  0  0  0  0  0  0  0  0  0  0
  149.4049  139.3410  154.7506 N   0  0  0  0  0  0  0  0  0  0  0  0
  148.3087  140.0519  154.0328 C   0  0  1  0  0  0  0  0  0  0  0  0
  147.0071  139.2224  153.9084 C   0  0  0  0  0  0  0  0  0  0  0  0
  145.9516  139.6338  154.3892 O   0  0  0  0  0  0  0  0  0  0  0  0
  147.1086  138.0344  153.2904 N   0  0  0  0  0  0  0  0  0  0  0  0
  146.0195  137.0742  153.1377 C   0  0  0  0  0  0  0  0  0  0  0  0
  145.7395  136.6986  151.6697 C   0  0  0  0  0  0  0  0  0  0  0  0
  145.5320  135.2105  151.4499 C   0  0  0  0  0  0  0  0  0  0  0  0
  144.3260  134.6926  150.9301 C   0  0  0  0  0  0  0  0  0  0  0  0
  144.1912  133.2990  150.7587 C   0  0  0  0  0  0  0  0  0  0  0  0
  145.2630  132.4530  151.1116 C   0  0  0  0  0  0  0  0  0  0  0  0
  146.4446  133.0233  151.6269 C   0  0  0  0  0  0  0  0  0  0  0  0
  146.5345  134.3630  151.7761 N   0  3  0  0  0  0  0  0  0  0  0  0
  148.0211  141.4997  154.5591 C   0  0  0  0  0  0  0  0  0  0  0  0
  147.6035  141.5588  156.0423 C   0  0  0  0  0  0  0  0  0  0  0  0
  147.0231  142.2889  153.6899 C   0  0  0  0  0  0  0  0  0  0  0  0
  150.2445  138.4733  153.9053 C   0  0  0  0  0  0  0  0  0  0  0  0
  151.3645  137.7532  154.6833 C   0  0  2  0  0  0  0  0  0  0  0  0
  150.8537  136.5901  155.5520 C   0  0  0  0  0  0  0  0  0  0  0  0
  152.1263  138.6893  155.4419 O   0  0  0  0  0  0  0  0  0  0  0  0
  151.7863  141.1456  157.6918 H   0  0  0  0  0  0  0  0  0  0  0  0
  152.8351  141.1250  156.2751 H   0  0  0  0  0  0  0  0  0  0  0  0
  153.0775  139.9548  157.5694 H   0  0  0  0  0  0  0  0  0  0  0  0
  150.8835  138.9091  157.0727 H   0  0  0  0  0  0  0  0  0  0  0  0
  149.7102  140.8564  156.1953 H   0  0  0  0  0  0  0  0  0  0  0  0
  150.7570  140.9528  154.7992 H   0  0  0  0  0  0  0  0  0  0  0  0
  148.6497  140.1866  153.0039 H   0  0  0  0  0  0  0  0  0  0  0  0
  148.0146  137.7596  152.9388 H   0  0  0  0  0  0  0  0  0  0  0  0
  146.2862  136.1784  153.6989 H   0  0  0  0  0  0  0  0  0  0  0  0
  145.1137  137.4657  153.6031 H   0  0  0  0  0  0  0  0  0  0  0  0
  144.8529  137.2306  151.3227 H   0  0  0  0  0  0  0  0  0  0  0  0
  146.5592  137.0403  151.0359 H   0  0  0  0  0  0  0  0  0  0  0  0
  143.5127  135.3534  150.6674 H   0  0  0  0  0  0  0  0  0  0  0  0
  143.2759  132.8843  150.3622 H   0  0  0  0  0  0  0  0  0  0  0  0
  145.1797  131.3830  150.9883 H   0  0  0  0  0  0  0  0  0  0  0  0
  147.3135  132.4537  151.9228 H   0  0  0  0  0  0  0  0  0  0  0  0
  148.9452  142.0687  154.4739 H   0  0  0  0  0  0  0  0  0  0  0  0
  146.6341  141.0934  156.2153 H   0  0  0  0  0  0  0  0  0  0  0  0
  147.5290  142.5922  156.3821 H   0  0  0  0  0  0  0  0  0  0  0  0
  148.3305  141.0624  156.6849 H   0  0  0  0  0  0  0  0  0  0  0  0
  146.0090  141.8978  153.7737 H   0  0  0  0  0  0  0  0  0  0  0  0
  147.3128  142.2633  152.6393 H   0  0  0  0  0  0  0  0  0  0  0  0
  146.9887  143.3359  153.9923 H   0  0  0  0  0  0  0  0  0  0  0  0
  149.6558  137.6996  153.4130 H   0  0  0  0  0  0  0  0  0  0  0  0
  150.6952  139.0710  153.1112 H   0  0  0  0  0  0  0  0  0  0  0  0
  152.0528  137.3229  153.9555 H   0  0  0  0  0  0  0  0  0  0  0  0
  150.3902  135.8206  154.9345 H   0  0  0  0  0  0  0  0  0  0  0  0
  150.1083  136.9152  156.2776 H   0  0  0  0  0  0  0  0  0  0  0  0
  151.6733  136.1237  156.0987 H   0  0  0  0  0  0  0  0  0  0  0  0
  147.3983  134.7548  152.1524 H   0  0  0  0  0  0  0  0  0  0  0  0
  1  2  1  0  0  0  0
  1 24  1  0  0  0  0
  1 25  1  0  0  0  0
  1 26  1  0  0  0  0
  2 23  1  0  0  0  0
  2  3  1  0  0  0  0
  2 27  1  0  0  0  0
  3  4  1  0  0  0  0
  3 28  1  0  0  0  0
  3 29  1  0  0  0  0
  4  5  1  0  0  0  0
  4 20  1  0  0  0  0
  5  6  1  0  0  0  0
  5 17  1  0  0  0  0
  5 30  1  0  0  0  0
  6  7  2  0  0  0  0
  6  8  1  0  0  0  0
  8  9  1  0  0  0  0
  8 31  1  0  0  0  0
  9 10  1  0  0  0  0
  9 32  1  0  0  0  0
  9 33  1  0  0  0  0
 10 11  1  0  0  0  0
 10 34  1  0  0  0  0
 10 35  1  0  0  0  0
 11 16  1  0  0  0  0
 11 12  2  0  0  0  0
 12 13  1  0  0  0  0
 12 36  1  0  0  0  0
 13 14  2  0  0  0  0
 13 37  1  0  0  0  0
 14 15  1  0  0  0  0
 14 38  1  0  0  0  0
 15 16  2  0  0  0  0
 15 39  1  0  0  0  0
 16 53  1  0  0  0  0
 17 18  1  0  0  0  0
 17 19  1  0  0  0  0
 17 40  1  0  0  0  0
 18 41  1  0  0  0  0
 18 42  1  0  0  0  0
 18 43  1  0  0  0  0
 19 44  1  0  0  0  0
 19 45  1  0  0  0  0
 19 46  1  0  0  0  0
 20 21  1  0  0  0  0
 20 47  1  0  0  0  0
 20 48  1  0  0  0  0
 21 22  1  0  0  0  0
 21 23  1  0  0  0  0
 21 49  1  0  0  0  0
 22 50  1  0  0  0  0
 22 51  1  0  0  0  0
 22 52  1  0  0  0  0
M  CHG  1  16   1
M  END
> <s_m_source_file>
AV-unprocessed.smi

> <i_m_source_file_index>
1762

> <i_lp_mmshare_version>
43012

> <i_f3d_flags>
0

> <s_epik_input>
W0NIM11bQ0BASF0xW0NIMl1OKFtDSDJdW0NASF0oTzEpW0NIM10pW0NAQEhdKFtDSF0oW0NIM10pW0NIM10pQyg9TylbTkhdW0NIMl1bQ0gyXWMyW2NIXVtjSF1bY0hdW2NIXW4y

> <s_epik_cmdline>
J2VwaWtfcHl0aG9uJywgJy1waCcsICc3LjAnLCAnLXRuJywgJzgnLCAnLW1hJywgJzIwMCcsICctbWV0YWxfYmluZGluZycsICctaW1hZScsICc8aW5maWxlLm1hZT4nLCAnLW9tYWUnLCAnPG91dGZpbGUubWFlPic=

> <r_epik_Ionization_Penalty>
1.86475

> <r_epik_Ionization_Penalty_Charging>
1.85347

> <r_epik_Ionization_Penalty_Neutral>
0.0112771

> <r_epik_State_Penalty>
1.99714

> <r_epik_Charging_Adjusted_Penalty>
3.85061

> <i_epik_Tot_Q>
1

> <i_epik_Tot_abs_Q>
1

> <r_epik_Metal_State_Penalty>
2.02271

> <b_epik_Metal_Only>
0

> <s_lp_Force_Field>
OPLS_2005

> <r_lp_Energy>
36.5288

> <b_lp_Chiralities_Consistent>
1

> <s_lp_Variant>
AV-unprocessed.smi:1762-12

> <Gold.Version>
5.8.1

> <Gold.Id.Protein>
6NUR|6NUR_protein|mol2

> <Gold.PLP.Fitness>
43.5880

> <Gold.PLP.PLP>
-38.2955

> <Gold.PLP.part.hbond>
-2.0000

> <Gold.PLP.part.metal>
0.0000

> <Gold.PLP.part.buried>
-2.7703

> <Gold.PLP.part.nonpolar>
-33.7195

> <Gold.PLP.part.repulsive>
0.7580

> <Gold.PLP.ligand.clash>
0.2562

> <Gold.PLP.ligand.torsion>
1.3548

> <Gold.PLP.Chemscore.Hbond>
2.6365

> <Gold.PLP.Chemscore.CHOScore>
0.0000

> <Gold.PLP.Chemscore.Metal>
0.0000

> <Gold.Chemscore.Hbonds>
donor molecule, donor type, donor heavy atom, donor atom, acceptor molecule, acceptor atom, score
      L1  H     8    31       P1  7948  0.73
      L1  H    16    53       P1  7948  1.37

> <Gold.PLP.Chemscore.Internal.Correction>
0.3488

> <Gold.Rescore>
     Score         DG    S(hbond)    S(metal)    S(lipo)     H(rot)  DE(clash)    DE(int)     intcor
     13.73     -18.23       1.35        0.00     108.06       1.72       1.26       3.24       ----

> <Gold.Chemscore.Fitness>
13.7261

> <Gold.Chemscore.DG>
-18.2296

> <Gold.Chemscore.ZeroCoef>
-5.4800

> <Gold.Chemscore.Hbond>
1.3482

> <Gold.Chemscore.Metal>
0.0000

> <Gold.Chemscore.Lipo>
108.0611

> <Gold.Chemscore.Internal_Hbond>
0.0000

> <Gold.Chemscore.DEClash>
1.2619

> <Gold.Chemscore.DEInternal>
3.2416

> <Gold.Chemscore.Rot>
1.7174

> <Gold.Chemscore.Internal.Correction>
   9.000000E+99

> <Gold.Chemscore.Hbonds>
donor molecule, donor type, donor heavy atom, donor atom, acceptor molecule, acceptor atom, score
      L1  H     8    31       P1  7948  0.71
      L1  H    16    53       P1  7948  0.60

> <Gold.Chemscore.Hbond.Weighted>
-4.5030

> <Gold.Chemscore.Metal.Weighted>
-0.0000

> <Gold.Chemscore.Lipo.Weighted>
-12.6431

> <Gold.Chemscore.Internal_Hbond.Weighted>
0.0000

> <Gold.Chemscore.DEClash.Weighted>
1.2619

> <Gold.Chemscore.DEInternal.Weighted>
3.2416

> <Gold.Chemscore.Rot.Weighted>
4.3966

> <Gold.Chemscore.Internal.Correction.Weighted>
   9.000000E+99

> <Gold.Protein.RotatedTorsions>
[ 6907 6896 6895 6894 ] final   67.79 input  -60.11 | X-H torsion
[ 7974 7965 7964 7962 ] final -153.68 input  175.53 | X-H torsion
[ 8008 7997 7996 7995 ] final   94.61 input   59.86 | X-H torsion
[ 10167 10162 10161 10158 ] final  -72.86 input  -65.29 | X-H torsion
[ 10718 10713 10712 10709 ] final -145.68 input   66.30 | X-H torsion
[ 10763 10752 10751 10750 ] final -126.43 input  -60.55 | X-H torsion
[ 11005 11000 10999 10996 ] final  143.80 input  -57.11 | X-H torsion

> <Gold.Protein.ActiveResidues>
 VAL166  LYS551  ARG553  GLY616  TRP617  ASP618  TYR619  PRO620  LYS621  CYS622 
 ASP623  PHE694  ASN695  SER759  ASP760  ASP761  ALA762  ILE779  LEU786  VAL792 
 PHE793  MET794  SER795  GLU796  ALA797  LYS798  CYS799  TRP800  GLU811  SER814 

> <Gold.Protein.RotatedAtoms>
  152.4576  134.5256  159.9795 H   0  0  0  0  0  0  0  0  0  0  0  0  # atno 6907 bound_to 6896
  151.5313  133.3443  159.2926 H   0  0  0  0  0  0  0  0  0  0  0  0  # atno 6908 bound_to 6896
  150.8526  134.7886  159.7083 H   0  0  0  0  0  0  0  0  0  0  0  0  # atno 6909 bound_to 6896
  144.7728  140.4493  143.5895 H   0  0  0  0  0  0  0  0  0  0  0  0  # atno 7974 bound_to 7965
  156.0598  140.3297  155.7448 H   0  0  0  0  0  0  0  0  0  0  0  0  # atno 8008 bound_to 7997
  155.5472  140.0607  157.2875 H   0  0  0  0  0  0  0  0  0  0  0  0  # atno 8009 bound_to 7997
  154.4476  140.1900  156.0638 H   0  0  0  0  0  0  0  0  0  0  0  0  # atno 8010 bound_to 7997
  140.5158  143.2338  151.7516 H   0  0  0  0  0  0  0  0  0  0  0  0  # atno 10167 bound_to 10162
  156.3854  130.7858  151.2055 H   0  0  0  0  0  0  0  0  0  0  0  0  # atno 10718 bound_to 10713
  154.8745  135.3996  154.3429 H   0  0  0  0  0  0  0  0  0  0  0  0  # atno 10763 bound_to 10752
  153.4226  135.7023  153.6289 H   0  0  0  0  0  0  0  0  0  0  0  0  # atno 10764 bound_to 10752
  153.4945  135.3741  155.2478 H   0  0  0  0  0  0  0  0  0  0  0  0  # atno 10765 bound_to 10752
  140.0582  134.9219  157.1137 H   0  0  0  0  0  0  0  0  0  0  0  0  # atno 11005 bound_to 11000
  145.6273  139.1531  143.2989 LP  0  0  0  0  0  0  0  0  0  0  0  0  # atno 17320 bound_to 7965
  146.1887  140.6379  142.9155 LP  0  0  0  0  0  0  0  0  0  0  0  0  # atno 17321 bound_to 7965
  139.4909  144.4326  151.9855 LP  0  0  0  0  0  0  0  0  0  0  0  0  # atno 17342 bound_to 10162
  140.3420  144.3191  150.5965 LP  0  0  0  0  0  0  0  0  0  0  0  0  # atno 17343 bound_to 10162
  157.7495  131.0331  150.4259 LP  0  0  0  0  0  0  0  0  0  0  0  0  # atno 17370 bound_to 10713
  156.4510  130.4011  149.6636 LP  0  0  0  0  0  0  0  0  0  0  0  0  # atno 17371 bound_to 10713
  140.3811  134.2286  155.7171 LP  0  0  0  0  0  0  0  0  0  0  0  0  # atno 17394 bound_to 11000
  141.1961  133.8089  157.0685 LP  0  0  0  0  0  0  0  0  0  0  0  0  # atno 17395 bound_to 11000

$$$$
