AV-unprocessed.smi:3214|AV-procd|sdf|12284|dock3
  -GOLD-   2272018123D 1   1.00000     0.00000
 Structure written by MMmdl.
 37 37  0  0  0  0  0  0  0  0  2 V2000
  142.1070  138.3213  152.1406 C   0  0  0  0  0  0  0  0  0  0  0  0
  143.3512  137.4281  152.1126 C   0  0  0  0  0  0  0  0  0  0  0  0
  144.5495  138.2245  151.8867 N   0  0  0  0  0  0  0  0  0  0  0  0
  145.7463  137.7154  151.5613 C   0  0  0  0  0  0  0  0  0  0  0  0
  145.9502  136.5091  151.4242 O   0  0  0  0  0  0  0  0  0  0  0  0
  146.8846  138.7224  151.3690 C   0  0  0  0  0  0  0  0  0  0  0  0
  147.3309  139.3756  152.6878 C   0  0  0  0  0  0  0  0  0  0  0  0
  148.7047  138.9616  153.0443 N   0  3  0  0  0  0  0  0  0  0  0  0
  149.0582  139.0873  154.4778 C   0  0  1  0  0  0  0  0  0  0  0  0
  150.5041  138.6139  154.6801 C   0  0  0  0  0  0  0  0  0  0  0  0
  148.8938  140.5395  154.9827 C   0  0  0  0  0  0  0  0  0  0  0  0
  149.6815  140.8391  156.1648 N   0  0  0  0  0  0  0  0  0  0  0  0
  150.4504  141.9548  156.4235 C   0  0  0  0  0  0  0  0  0  0  0  0
  151.0097  141.7852  157.6576 C   0  0  0  0  0  0  0  0  0  0  0  0
  150.5285  140.5130  158.0756 C   0  0  0  0  0  0  0  0  0  0  0  0
  149.7380  139.9473  157.1776 N   0  0  0  0  0  0  0  0  0  0  0  0
  141.2087  137.7278  152.3116 H   0  0  0  0  0  0  0  0  0  0  0  0
  141.9793  138.8509  151.1958 H   0  0  0  0  0  0  0  0  0  0  0  0
  142.1708  139.0636  152.9367 H   0  0  0  0  0  0  0  0  0  0  0  0
  143.4438  136.8901  153.0573 H   0  0  0  0  0  0  0  0  0  0  0  0
  143.2539  136.6813  151.3232 H   0  0  0  0  0  0  0  0  0  0  0  0
  144.4610  139.2256  151.9852 H   0  0  0  0  0  0  0  0  0  0  0  0
  147.7344  138.2235  150.9000 H   0  0  0  0  0  0  0  0  0  0  0  0
  146.5448  139.4884  150.6707 H   0  0  0  0  0  0  0  0  0  0  0  0
  147.2855  140.4598  152.5981 H   0  0  0  0  0  0  0  0  0  0  0  0
  146.6524  139.0912  153.4938 H   0  0  0  0  0  0  0  0  0  0  0  0
  148.7886  137.9858  152.7976 H   0  0  0  0  0  0  0  0  0  0  0  0
  148.4223  138.4205  155.0625 H   0  0  0  0  0  0  0  0  0  0  0  0
  150.7857  138.6522  155.7329 H   0  0  0  0  0  0  0  0  0  0  0  0
  151.2088  139.2344  154.1252 H   0  0  0  0  0  0  0  0  0  0  0  0
  150.6321  137.5836  154.3459 H   0  0  0  0  0  0  0  0  0  0  0  0
  149.1965  141.2409  154.2039 H   0  0  0  0  0  0  0  0  0  0  0  0
  147.8453  140.7524  155.1966 H   0  0  0  0  0  0  0  0  0  0  0  0
  150.5324  142.7695  155.7191 H   0  0  0  0  0  0  0  0  0  0  0  0
  151.6667  142.4640  158.1809 H   0  0  0  0  0  0  0  0  0  0  0  0
  150.7299  139.9868  158.9970 H   0  0  0  0  0  0  0  0  0  0  0  0
  149.3703  139.4870  152.4959 H   0  0  0  0  0  0  0  0  0  0  0  0
  1  2  1  0  0  0  0
  1 17  1  0  0  0  0
  1 18  1  0  0  0  0
  1 19  1  0  0  0  0
  2  3  1  0  0  0  0
  2 20  1  0  0  0  0
  2 21  1  0  0  0  0
  3  4  1  0  0  0  0
  3 22  1  0  0  0  0
  4  5  2  0  0  0  0
  4  6  1  0  0  0  0
  6  7  1  0  0  0  0
  6 23  1  0  0  0  0
  6 24  1  0  0  0  0
  7  8  1  0  0  0  0
  7 25  1  0  0  0  0
  7 26  1  0  0  0  0
  8  9  1  0  0  0  0
  8 27  1  0  0  0  0
  8 37  1  0  0  0  0
  9 10  1  0  0  0  0
  9 11  1  0  0  0  0
  9 28  1  0  0  0  0
 10 29  1  0  0  0  0
 10 30  1  0  0  0  0
 10 31  1  0  0  0  0
 11 12  1  0  0  0  0
 11 32  1  0  0  0  0
 11 33  1  0  0  0  0
 12 16  1  0  0  0  0
 12 13  1  0  0  0  0
 13 14  2  0  0  0  0
 13 34  1  0  0  0  0
 14 15  1  0  0  0  0
 14 35  1  0  0  0  0
 15 16  2  0  0  0  0
 15 36  1  0  0  0  0
M  CHG  1   8   1
M  END
> <s_m_source_file>
AV-unprocessed.smi

> <i_m_source_file_index>
3214

> <i_lp_mmshare_version>
43012

> <i_f3d_flags>
0

> <s_epik_input>
W0NIM11bQ0gyXVtOSF1DKD1PKVtDSDJdW0NIMl1bTkhdW0NASF0oW0NIM10pW0NIMl1uMVtjSF1bY0hdW2NIXW4x

> <s_epik_cmdline>
J2VwaWtfcHl0aG9uJywgJy1waCcsICc3LjAnLCAnLXRuJywgJzgnLCAnLW1hJywgJzIwMCcsICctbWV0YWxfYmluZGluZycsICctaW1hZScsICc8aW5maWxlLm1hZT4nLCAnLW9tYWUnLCAnPG91dGZpbGUubWFlPic=

> <r_lp_tautomer_probability>
1

> <r_epik_Ionization_Penalty>
0.00598156

> <r_epik_Ionization_Penalty_Charging>
0.00597743

> <r_epik_Ionization_Penalty_Neutral>
4.12922e-06

> <r_epik_State_Penalty>
0.00439883

> <r_epik_Charging_Adjusted_Penalty>
0.0103763

> <i_epik_Tot_Q>
1

> <i_epik_Tot_abs_Q>
1

> <r_epik_Metal_State_Penalty>
-0

> <b_epik_Metal_Only>
0

> <s_lp_Force_Field>
OPLS_2005

> <r_lp_Energy>
6.42892

> <b_lp_Chiralities_Consistent>
1

> <s_lp_Variant>
AV-unprocessed.smi:3214-2

> <Gold.Version>
5.8.1

> <Gold.Id.Protein>
6NUR|6NUR_protein|mol2

> <Gold.PLP.Fitness>
44.5659

> <Gold.PLP.PLP>
-31.6352

> <Gold.PLP.part.hbond>
-3.8599

> <Gold.PLP.part.metal>
0.0000

> <Gold.PLP.part.buried>
-2.8705

> <Gold.PLP.part.nonpolar>
-26.6871

> <Gold.PLP.part.repulsive>
0.3063

> <Gold.PLP.ligand.clash>
0.0000

> <Gold.PLP.ligand.torsion>
1.1044

> <Gold.PLP.Chemscore.Hbond>
3.9913

> <Gold.PLP.Chemscore.CHOScore>
0.9920

> <Gold.PLP.Chemscore.Metal>
0.0000

> <Gold.Chemscore.Hbonds>
donor molecule, donor type, donor heavy atom, donor atom, acceptor molecule, acceptor atom, score
      L1  H     3    22       P1 10175  0.98
      L1  H     8    27       P1  7948  2.00
      L1  H     8    37       P1  7957  0.70
      L1  C    13    34       P1  8028  0.83

> <Gold.PLP.Chemscore.Internal.Correction>
0.1898

> <Gold.Rescore>
     Score         DG    S(hbond)    S(metal)    S(lipo)     H(rot)  DE(clash)    DE(int)     intcor
     15.77     -16.59       2.93        0.00      63.61       2.39       0.01       0.82       ----

> <Gold.Chemscore.Fitness>
15.7658

> <Gold.Chemscore.DG>
-16.5927

> <Gold.Chemscore.ZeroCoef>
-5.4800

> <Gold.Chemscore.Hbond>
2.9346

> <Gold.Chemscore.Metal>
0.0000

> <Gold.Chemscore.Lipo>
63.6055

> <Gold.Chemscore.Internal_Hbond>
0.0000

> <Gold.Chemscore.DEClash>
0.0069

> <Gold.Chemscore.DEInternal>
0.8201

> <Gold.Chemscore.Rot>
2.3948

> <Gold.Chemscore.Internal.Correction>
   9.000000E+99

> <Gold.Chemscore.Hbonds>
donor molecule, donor type, donor heavy atom, donor atom, acceptor molecule, acceptor atom, score
      L1  H     3    22       P1 10175  0.87
      L1  H     8    27       P1  7948  0.98
      L1  H     8    37       P1  7957  0.68

> <Gold.Chemscore.Hbond.Weighted>
-9.8015

> <Gold.Chemscore.Metal.Weighted>
-0.0000

> <Gold.Chemscore.Lipo.Weighted>
-7.4418

> <Gold.Chemscore.Internal_Hbond.Weighted>
0.0000

> <Gold.Chemscore.DEClash.Weighted>
0.0069

> <Gold.Chemscore.DEInternal.Weighted>
0.8201

> <Gold.Chemscore.Rot.Weighted>
6.1306

> <Gold.Chemscore.Internal.Correction.Weighted>
   9.000000E+99

> <Gold.Protein.RotatedTorsions>
[ 6907 6896 6895 6894 ] final   37.32 input  -60.11 | X-H torsion
[ 7974 7965 7964 7962 ] final  -94.75 input  175.53 | X-H torsion
[ 8008 7997 7996 7995 ] final   19.29 input   59.86 | X-H torsion
[ 10167 10162 10161 10158 ] final  164.78 input  -65.29 | X-H torsion
[ 10718 10713 10712 10709 ] final  174.09 input   66.30 | X-H torsion
[ 10763 10752 10751 10750 ] final   48.31 input  -60.55 | X-H torsion
[ 11005 11000 10999 10996 ] final  -52.16 input  -57.11 | X-H torsion

> <Gold.Protein.ActiveResidues>
 VAL166  LYS551  ARG553  GLY616  TRP617  ASP618  TYR619  PRO620  LYS621  CYS622 
 ASP623  PHE694  ASN695  SER759  ASP760  ASP761  ALA762  ILE779  LEU786  VAL792 
 PHE793  MET794  SER795  GLU796  ALA797  LYS798  CYS799  TRP800  GLU811  SER814 

> <Gold.Protein.RotatedAtoms>
  152.1415  134.9058  160.0553 H   0  0  0  0  0  0  0  0  0  0  0  0  # atno 6907 bound_to 6896
  152.0124  133.3862  159.4233 H   0  0  0  0  0  0  0  0  0  0  0  0  # atno 6908 bound_to 6896
  150.6865  134.3637  159.5005 H   0  0  0  0  0  0  0  0  0  0  0  0  # atno 6909 bound_to 6896
  145.3692  140.9503  143.2457 H   0  0  0  0  0  0  0  0  0  0  0  0  # atno 7974 bound_to 7965
  154.9186  140.3024  155.5228 H   0  0  0  0  0  0  0  0  0  0  0  0  # atno 8008 bound_to 7997
  156.3011  140.2375  156.4169 H   0  0  0  0  0  0  0  0  0  0  0  0  # atno 8009 bound_to 7997
  154.8353  140.0416  157.1494 H   0  0  0  0  0  0  0  0  0  0  0  0  # atno 8010 bound_to 7997
  139.4894  144.4200  151.9197 H   0  0  0  0  0  0  0  0  0  0  0  0  # atno 10167 bound_to 10162
  156.9546  131.0042  151.2941 H   0  0  0  0  0  0  0  0  0  0  0  0  # atno 10718 bound_to 10713
  152.9793  135.5948  154.3905 H   0  0  0  0  0  0  0  0  0  0  0  0  # atno 10763 bound_to 10752
  154.3561  135.2767  155.2347 H   0  0  0  0  0  0  0  0  0  0  0  0  # atno 10764 bound_to 10752
  154.4365  135.6023  153.6157 H   0  0  0  0  0  0  0  0  0  0  0  0  # atno 10765 bound_to 10752
  141.0910  133.6633  156.3983 H   0  0  0  0  0  0  0  0  0  0  0  0  # atno 11005 bound_to 11000
  144.8589  139.5207  143.6821 LP  0  0  0  0  0  0  0  0  0  0  0  0  # atno 17320 bound_to 7965
  146.2893  139.7093  142.9172 LP  0  0  0  0  0  0  0  0  0  0  0  0  # atno 17321 bound_to 7965
  140.3644  144.2933  150.5928 LP  0  0  0  0  0  0  0  0  0  0  0  0  # atno 17342 bound_to 10162
  140.5374  143.2230  151.8140 LP  0  0  0  0  0  0  0  0  0  0  0  0  # atno 17343 bound_to 10162
  157.5699  130.8303  149.8377 LP  0  0  0  0  0  0  0  0  0  0  0  0  # atno 17370 bound_to 10713
  156.0348  130.3754  150.1590 LP  0  0  0  0  0  0  0  0  0  0  0  0  # atno 17371 bound_to 10713
  140.5253  134.6265  157.5332 LP  0  0  0  0  0  0  0  0  0  0  0  0  # atno 17394 bound_to 11000
  139.9735  134.7253  155.9994 LP  0  0  0  0  0  0  0  0  0  0  0  0  # atno 17395 bound_to 11000

$$$$
