AV-unprocessed.smi:67|AV-procd|sdf|631|dock8
  -GOLD-   2262016523D 1   1.00000     0.00000
 Structure written by MMmdl.
 49 51  0  0  0  0  0  0  0  0  3 V2000
  147.4665  142.4894  154.3804 O   0  0  0  0  0  0  0  0  0  0  0  0
  147.9482  141.1942  154.6966 C   0  0  1  0  0  0  0  0  0  0  0  0
  149.4848  141.2707  154.8581 C   0  0  0  0  0  0  0  0  0  0  0  0
  150.0135  140.2632  155.8182 N   0  3  2  0  0  0  0  0  0  0  0  0
  150.1766  140.8067  157.1916 C   0  0  0  0  0  0  0  0  0  0  0  0
  150.5799  139.7027  158.1854 C   0  0  0  0  0  0  0  0  0  0  0  0
  151.8553  138.9693  157.7407 C   0  0  2  0  0  0  0  0  0  0  0  0
  152.9379  139.8940  157.8272 O   0  0  0  0  0  0  0  0  0  0  0  0
  153.0141  140.7730  158.8884 C   0  0  0  0  0  0  0  0  0  0  0  0
  153.5930  140.4725  160.1471 C   0  0  0  0  0  0  0  0  0  0  0  0
  153.6158  141.4402  161.1693 C   0  0  0  0  0  0  0  0  0  0  0  0
  153.0644  142.7158  160.9506 C   0  0  0  0  0  0  0  0  0  0  0  0
  152.4878  143.0332  159.7028 C   0  0  0  0  0  0  0  0  0  0  0  0
  151.8794  144.4049  159.4526 C   0  0  0  0  0  0  0  0  0  0  0  0
  152.4565  144.9836  158.3990 F   0  0  0  0  0  0  0  0  0  0  0  0
  150.5767  144.2691  159.2082 F   0  0  0  0  0  0  0  0  0  0  0  0
  152.0366  145.2065  160.5068 F   0  0  0  0  0  0  0  0  0  0  0  0
  152.4631  142.0551  158.6856 C   0  0  0  0  0  0  0  0  0  0  0  0
  151.6702  138.4595  156.2972 C   0  0  0  0  0  0  0  0  0  0  0  0
  151.2558  139.5959  155.3475 C   0  0  0  0  0  0  0  0  0  0  0  0
  147.1865  140.6411  155.9057 C   0  0  0  0  0  0  0  0  0  0  0  0
  145.8667  140.1449  155.3145 C   0  0  0  0  0  0  0  0  0  0  0  0
  146.1758  139.7205  153.9364 N   0  3  0  0  0  0  0  0  0  0  0  0
  147.5108  140.2392  153.5708 C   0  0  0  0  0  0  0  0  0  0  0  0
  148.1335  143.1258  154.5915 H   0  0  0  0  0  0  0  0  0  0  0  0
  149.9811  141.1631  153.8924 H   0  0  0  0  0  0  0  0  0  0  0  0
  149.7367  142.2760  155.2005 H   0  0  0  0  0  0  0  0  0  0  0  0
  150.9238  141.6021  157.1843 H   0  0  0  0  0  0  0  0  0  0  0  0
  149.2388  141.2550  157.5224 H   0  0  0  0  0  0  0  0  0  0  0  0
  150.7224  140.1293  159.1788 H   0  0  0  0  0  0  0  0  0  0  0  0
  149.7633  138.9849  158.2759 H   0  0  0  0  0  0  0  0  0  0  0  0
  152.0089  138.1380  158.4291 H   0  0  0  0  0  0  0  0  0  0  0  0
  154.0276  139.5081  160.3589 H   0  0  0  0  0  0  0  0  0  0  0  0
  154.0565  141.2018  162.1262 H   0  0  0  0  0  0  0  0  0  0  0  0
  153.0850  143.4454  161.7466 H   0  0  0  0  0  0  0  0  0  0  0  0
  152.0134  142.2902  157.7319 H   0  0  0  0  0  0  0  0  0  0  0  0
  152.5804  137.9878  155.9282 H   0  0  0  0  0  0  0  0  0  0  0  0
  150.9035  137.6838  156.2851 H   0  0  0  0  0  0  0  0  0  0  0  0
  151.1105  139.1869  154.3491 H   0  0  0  0  0  0  0  0  0  0  0  0
  152.0591  140.3304  155.2698 H   0  0  0  0  0  0  0  0  0  0  0  0
  147.7250  139.7899  156.3250 H   0  0  0  0  0  0  0  0  0  0  0  0
  147.0445  141.3721  156.7030 H   0  0  0  0  0  0  0  0  0  0  0  0
  145.4239  139.3353  155.8953 H   0  0  0  0  0  0  0  0  0  0  0  0
  145.1449  140.9614  155.2700 H   0  0  0  0  0  0  0  0  0  0  0  0
  146.1864  138.7119  153.8824 H   0  0  0  0  0  0  0  0  0  0  0  0
  147.5038  140.7083  152.5859 H   0  0  0  0  0  0  0  0  0  0  0  0
  148.1853  139.3835  153.5173 H   0  0  0  0  0  0  0  0  0  0  0  0
  145.4739  140.0851  153.3078 H   0  0  0  0  0  0  0  0  0  0  0  0
  149.3037  139.5476  155.8887 H   0  0  0  0  0  0  0  0  0  0  0  0
  1  2  1  0  0  0  0
  1 25  1  0  0  0  0
  2 24  1  0  0  0  0
  2  3  1  0  0  0  0
  2 21  1  0  0  0  0
  3  4  1  0  0  0  0
  3 26  1  0  0  0  0
  3 27  1  0  0  0  0
  4 20  1  0  0  0  0
  4  5  1  0  0  0  0
  4 49  1  0  0  0  0
  5  6  1  0  0  0  0
  5 28  1  0  0  0  0
  5 29  1  0  0  0  0
  6  7  1  0  0  0  0
  6 30  1  0  0  0  0
  6 31  1  0  0  0  0
  7  8  1  0  0  0  0
  7 19  1  0  0  0  0
  7 32  1  0  0  0  0
  8  9  1  0  0  0  0
  9 18  1  0  0  0  0
  9 10  2  0  0  0  0
 10 11  1  0  0  0  0
 10 33  1  0  0  0  0
 11 12  2  0  0  0  0
 11 34  1  0  0  0  0
 12 13  1  0  0  0  0
 12 35  1  0  0  0  0
 13 14  1  0  0  0  0
 13 18  2  0  0  0  0
 14 15  1  0  0  0  0
 14 16  1  0  0  0  0
 14 17  1  0  0  0  0
 18 36  1  0  0  0  0
 19 20  1  0  0  0  0
 19 37  1  0  0  0  0
 19 38  1  0  0  0  0
 20 39  1  0  0  0  0
 20 40  1  0  0  0  0
 21 22  1  0  0  0  0
 21 41  1  0  0  0  0
 21 42  1  0  0  0  0
 22 23  1  0  0  0  0
 22 43  1  0  0  0  0
 22 44  1  0  0  0  0
 23 24  1  0  0  0  0
 23 45  1  0  0  0  0
 23 48  1  0  0  0  0
 24 46  1  0  0  0  0
 24 47  1  0  0  0  0
M  CHG  1   4   1
M  CHG  1  23   1
M  END
> <s_m_source_file>
AV-unprocessed.smi

> <i_m_source_file_index>
67

> <i_lp_mmshare_version>
43012

> <i_f3d_flags>
0

> <s_epik_input>
W0NIMl0xW05IXVtDSDJdW0NIMl1bQ0BAXTEoW09IXSlbQ0gyXU4yW0NIMl1bQ0gyXVtDSF0oW0NIMl1bQ0gyXTIpT2MzW2NIXVtjSF1bY0hdYyhDKEYpKEYpRilbY0hdMw==

> <s_epik_cmdline>
J2VwaWtfcHl0aG9uJywgJy1waCcsICc3LjAnLCAnLXRuJywgJzgnLCAnLW1hJywgJzIwMCcsICctbWV0YWxfYmluZGluZycsICctaW1hZScsICc8aW5maWxlLm1hZT4nLCAnLW9tYWUnLCAnPG91dGZpbGUubWFlPic=

> <r_lp_tautomer_probability>
1

> <r_epik_Ionization_Penalty>
0.0989853

> <r_epik_Ionization_Penalty_Charging>
0.0989662

> <r_epik_Ionization_Penalty_Neutral>
1.91014e-05

> <r_epik_State_Penalty>
0.0852826

> <r_epik_Charging_Adjusted_Penalty>
0.184249

> <i_epik_Tot_Q>
2

> <i_epik_Tot_abs_Q>
2

> <r_epik_Metal_State_Penalty>
0.0849414

> <b_epik_Metal_Only>
0

> <s_lp_Force_Field>
OPLS_2005

> <r_lp_Energy>
57.962

> <b_lp_Chiralities_Consistent>
1

> <s_lp_Variant>
AV-unprocessed.smi:67-3

> <Gold.Version>
5.8.1

> <Gold.Id.Protein>
6NUR|6NUR_protein|mol2

> <Gold.PLP.Fitness>
61.5515

> <Gold.PLP.PLP>
-52.5095

> <Gold.PLP.part.hbond>
-3.0000

> <Gold.PLP.part.metal>
0.0000

> <Gold.PLP.part.buried>
-5.3037

> <Gold.PLP.part.nonpolar>
-43.4451

> <Gold.PLP.part.repulsive>
0.0749

> <Gold.PLP.ligand.clash>
0.6979

> <Gold.PLP.ligand.torsion>
1.6937

> <Gold.PLP.Chemscore.Hbond>
4.0000

> <Gold.PLP.Chemscore.CHOScore>
0.0000

> <Gold.PLP.Chemscore.Metal>
0.0000

> <Gold.Chemscore.Hbonds>
donor molecule, donor type, donor heavy atom, donor atom, acceptor molecule, acceptor atom, score
      L1  H     1    25       P1  8028  1.00
      L1  H    23    48       P1 10175  2.00
      P1  H  7997  8008       L1     8  1.00

> <Gold.PLP.Chemscore.Internal.Correction>
1.1272

> <Gold.Rescore>
     Score         DG    S(hbond)    S(metal)    S(lipo)     H(rot)  DE(clash)    DE(int)     intcor
     21.16     -23.14       2.76        0.00     120.96       2.24       0.23       1.74       ----

> <Gold.Chemscore.Fitness>
21.1644

> <Gold.Chemscore.DG>
-23.1422

> <Gold.Chemscore.ZeroCoef>
-5.4800

> <Gold.Chemscore.Hbond>
2.7639

> <Gold.Chemscore.Metal>
0.0000

> <Gold.Chemscore.Lipo>
120.9643

> <Gold.Chemscore.Internal_Hbond>
0.0000

> <Gold.Chemscore.DEClash>
0.2343

> <Gold.Chemscore.DEInternal>
1.7435

> <Gold.Chemscore.Rot>
2.2352

> <Gold.Chemscore.Internal.Correction>
   9.000000E+99

> <Gold.Chemscore.Hbonds>
donor molecule, donor type, donor heavy atom, donor atom, acceptor molecule, acceptor atom, score
      L1  H     1    25       P1  8028  0.88
      L1  H    23    48       P1 10175  0.95
      P1  H  7997  8008       L1     8  0.75

> <Gold.Chemscore.Hbond.Weighted>
-9.2315

> <Gold.Chemscore.Metal.Weighted>
-0.0000

> <Gold.Chemscore.Lipo.Weighted>
-14.1528

> <Gold.Chemscore.Internal_Hbond.Weighted>
0.0000

> <Gold.Chemscore.DEClash.Weighted>
0.2343

> <Gold.Chemscore.DEInternal.Weighted>
1.7435

> <Gold.Chemscore.Rot.Weighted>
5.7221

> <Gold.Chemscore.Internal.Correction.Weighted>
   9.000000E+99

> <Gold.Protein.RotatedTorsions>
[ 6907 6896 6895 6894 ] final   48.04 input  -60.11 | X-H torsion
[ 7974 7965 7964 7962 ] final -159.08 input  175.53 | X-H torsion
[ 8008 7997 7996 7995 ] final  -61.83 input   59.86 | X-H torsion
[ 10167 10162 10161 10158 ] final  -78.11 input  -65.29 | X-H torsion
[ 10718 10713 10712 10709 ] final   57.61 input   66.30 | X-H torsion
[ 10763 10752 10751 10750 ] final -122.02 input  -60.55 | X-H torsion
[ 11005 11000 10999 10996 ] final   94.63 input  -57.11 | X-H torsion

> <Gold.Protein.ActiveResidues>
 VAL166  LYS551  ARG553  GLY616  TRP617  ASP618  TYR619  PRO620  LYS621  CYS622 
 ASP623  PHE694  ASN695  SER759  ASP760  ASP761  ALA762  ILE779  LEU786  VAL792 
 PHE793  MET794  SER795  GLU796  ALA797  LYS798  CYS799  TRP800  GLU811  SER814 

> <Gold.Protein.RotatedAtoms>
  152.2749  134.7892  160.0407 H   0  0  0  0  0  0  0  0  0  0  0  0  # atno 6907 bound_to 6896
  151.8491  133.3431  159.3675 H   0  0  0  0  0  0  0  0  0  0  0  0  # atno 6908 bound_to 6896
  150.7166  134.5244  159.5714 H   0  0  0  0  0  0  0  0  0  0  0  0  # atno 6909 bound_to 6896
  144.7479  140.3736  143.6070 H   0  0  0  0  0  0  0  0  0  0  0  0  # atno 7974 bound_to 7965
  154.4468  140.1009  156.6492 H   0  0  0  0  0  0  0  0  0  0  0  0  # atno 8008 bound_to 7997
  155.5417  140.3483  155.4430 H   0  0  0  0  0  0  0  0  0  0  0  0  # atno 8009 bound_to 7997
  156.0592  140.1322  156.9949 H   0  0  0  0  0  0  0  0  0  0  0  0  # atno 8010 bound_to 7997
  140.4711  143.2426  151.8204 H   0  0  0  0  0  0  0  0  0  0  0  0  # atno 10167 bound_to 10162
  157.5528  130.8778  149.8990 H   0  0  0  0  0  0  0  0  0  0  0  0  # atno 10718 bound_to 10713
  154.8681  135.4147  154.2715 H   0  0  0  0  0  0  0  0  0  0  0  0  # atno 10763 bound_to 10752
  153.3624  135.7004  153.6707 H   0  0  0  0  0  0  0  0  0  0  0  0  # atno 10764 bound_to 10752
  153.5603  135.3611  155.2768 H   0  0  0  0  0  0  0  0  0  0  0  0  # atno 10765 bound_to 10752
  139.8796  134.8856  156.3893 H   0  0  0  0  0  0  0  0  0  0  0  0  # atno 11005 bound_to 11000
  145.7052  139.1671  143.2570 LP  0  0  0  0  0  0  0  0  0  0  0  0  # atno 17320 bound_to 7965
  146.1387  140.7087  142.9377 LP  0  0  0  0  0  0  0  0  0  0  0  0  # atno 17321 bound_to 7965
  139.4818  144.4891  151.9208 LP  0  0  0  0  0  0  0  0  0  0  0  0  # atno 17342 bound_to 10162
  140.3976  144.2535  150.5895 LP  0  0  0  0  0  0  0  0  0  0  0  0  # atno 17343 bound_to 10162
  156.0592  130.3703  150.1021 LP  0  0  0  0  0  0  0  0  0  0  0  0  # atno 17370 bound_to 10713
  156.9192  130.9677  151.3551 LP  0  0  0  0  0  0  0  0  0  0  0  0  # atno 17371 bound_to 10713
  140.9344  133.7557  156.0066 LP  0  0  0  0  0  0  0  0  0  0  0  0  # atno 17394 bound_to 11000
  140.8292  134.3198  157.5355 LP  0  0  0  0  0  0  0  0  0  0  0  0  # atno 17395 bound_to 11000

$$$$
