AV-unprocessed.smi:1703|AV-procd|sdf|6861|dock6
  -GOLD-   22720 8 53D 1   1.00000     0.00000
 Structure written by MMmdl.
 49 51  0  0  0  0  0  0  0  0  2 V2000
  144.6852  144.7738  153.0972 C   0  0  0  0  0  0  0  0  0  0  0  0
  145.4347  144.0827  154.2413 C   0  0  2  0  0  0  0  0  0  0  0  0
  146.4846  143.0825  153.7241 C   0  0  0  0  0  0  0  0  0  0  0  0
  147.1234  142.3765  154.8601 N   0  3  2  0  0  0  0  0  0  0  0  0
  148.2314  141.4730  154.4578 C   0  0  0  0  0  0  0  0  0  0  0  0
  149.0853  141.0235  155.6596 C   0  0  1  0  0  0  0  0  0  0  0  0
  148.4942  139.8709  156.2295 O   0  0  0  0  0  0  0  0  0  0  0  0
  150.5372  140.7088  155.2465 C   0  0  0  0  0  0  0  0  0  0  0  0
  151.4158  140.4996  156.3903 N   0  0  0  0  0  0  0  0  0  0  0  0
  152.2326  139.4444  156.6380 C   0  0  0  0  0  0  0  0  0  0  0  0
  152.3329  138.2740  155.7086 C   0  0  0  0  0  0  0  0  0  0  0  0
  153.1369  137.2354  156.2254 O   0  0  0  0  0  0  0  0  0  0  0  0
  152.9397  139.5098  157.7663 N   0  0  0  0  0  0  0  0  0  0  0  0
  152.5414  140.7172  158.3056 C   0  0  0  0  0  0  0  0  0  0  0  0
  152.9315  141.3620  159.5011 C   0  0  0  0  0  0  0  0  0  0  0  0
  152.3811  142.6125  159.8501 C   0  0  0  0  0  0  0  0  0  0  0  0
  151.4336  143.2344  159.0115 C   0  0  0  0  0  0  0  0  0  0  0  0
  151.0307  142.6089  157.8159 C   0  0  0  0  0  0  0  0  0  0  0  0
  151.5848  141.3613  157.4706 C   0  0  0  0  0  0  0  0  0  0  0  0
  146.0972  141.6948  155.6831 C   0  0  0  0  0  0  0  0  0  0  0  0
  145.0193  142.6894  156.1574 C   0  0  1  0  0  0  0  0  0  0  0  0
  145.5057  143.6397  157.2663 C   0  0  0  0  0  0  0  0  0  0  0  0
  144.4759  143.3944  155.0410 O   0  0  0  0  0  0  0  0  0  0  0  0
  145.3717  145.3261  152.4549 H   0  0  0  0  0  0  0  0  0  0  0  0
  143.9513  145.4813  153.4843 H   0  0  0  0  0  0  0  0  0  0  0  0
  144.1549  144.0501  152.4775 H   0  0  0  0  0  0  0  0  0  0  0  0
  145.9251  144.8535  154.8358 H   0  0  0  0  0  0  0  0  0  0  0  0
  146.0186  142.3551  153.0574 H   0  0  0  0  0  0  0  0  0  0  0  0
  147.2326  143.6160  153.1386 H   0  0  0  0  0  0  0  0  0  0  0  0
  147.8246  140.5849  153.9711 H   0  0  0  0  0  0  0  0  0  0  0  0
  148.8506  141.9714  153.7104 H   0  0  0  0  0  0  0  0  0  0  0  0
  149.0993  141.8020  156.4211 H   0  0  0  0  0  0  0  0  0  0  0  0
  147.6026  140.0741  156.4691 H   0  0  0  0  0  0  0  0  0  0  0  0
  150.5678  139.8167  154.6193 H   0  0  0  0  0  0  0  0  0  0  0  0
  150.9403  141.5161  154.6351 H   0  0  0  0  0  0  0  0  0  0  0  0
  151.3382  137.8877  155.4890 H   0  0  0  0  0  0  0  0  0  0  0  0
  152.7578  138.6030  154.7596 H   0  0  0  0  0  0  0  0  0  0  0  0
  153.3334  137.4287  157.1292 H   0  0  0  0  0  0  0  0  0  0  0  0
  153.6564  140.8938  160.1504 H   0  0  0  0  0  0  0  0  0  0  0  0
  152.6873  143.0965  160.7661 H   0  0  0  0  0  0  0  0  0  0  0  0
  151.0171  144.1923  159.2865 H   0  0  0  0  0  0  0  0  0  0  0  0
  150.3063  143.0846  157.1725 H   0  0  0  0  0  0  0  0  0  0  0  0
  145.6347  140.9036  155.0908 H   0  0  0  0  0  0  0  0  0  0  0  0
  146.5618  141.2139  156.5450 H   0  0  0  0  0  0  0  0  0  0  0  0
  144.1963  142.1110  156.5784 H   0  0  0  0  0  0  0  0  0  0  0  0
  145.7918  143.0795  158.1566 H   0  0  0  0  0  0  0  0  0  0  0  0
  144.7176  144.3353  157.5554 H   0  0  0  0  0  0  0  0  0  0  0  0
  146.3731  144.2247  156.9614 H   0  0  0  0  0  0  0  0  0  0  0  0
  147.5377  143.0820  155.4532 H   0  0  0  0  0  0  0  0  0  0  0  0
  1  2  1  0  0  0  0
  1 24  1  0  0  0  0
  1 25  1  0  0  0  0
  1 26  1  0  0  0  0
  2 23  1  0  0  0  0
  2  3  1  0  0  0  0
  2 27  1  0  0  0  0
  3  4  1  0  0  0  0
  3 28  1  0  0  0  0
  3 29  1  0  0  0  0
  4  5  1  0  0  0  0
  4 20  1  0  0  0  0
  4 49  1  0  0  0  0
  5  6  1  0  0  0  0
  5 30  1  0  0  0  0
  5 31  1  0  0  0  0
  6  7  1  0  0  0  0
  6  8  1  0  0  0  0
  6 32  1  0  0  0  0
  7 33  1  0  0  0  0
  8  9  1  0  0  0  0
  8 34  1  0  0  0  0
  8 35  1  0  0  0  0
  9 19  1  0  0  0  0
  9 10  1  0  0  0  0
 10 11  1  0  0  0  0
 10 13  2  0  0  0  0
 11 12  1  0  0  0  0
 11 36  1  0  0  0  0
 11 37  1  0  0  0  0
 12 38  1  0  0  0  0
 13 14  1  0  0  0  0
 14 19  2  0  0  0  0
 14 15  1  0  0  0  0
 15 16  2  0  0  0  0
 15 39  1  0  0  0  0
 16 17  1  0  0  0  0
 16 40  1  0  0  0  0
 17 18  2  0  0  0  0
 17 41  1  0  0  0  0
 18 19  1  0  0  0  0
 18 42  1  0  0  0  0
 20 21  1  0  0  0  0
 20 43  1  0  0  0  0
 20 44  1  0  0  0  0
 21 22  1  0  0  0  0
 21 23  1  0  0  0  0
 21 45  1  0  0  0  0
 22 46  1  0  0  0  0
 22 47  1  0  0  0  0
 22 48  1  0  0  0  0
M  CHG  1   4   1
M  END
> <s_m_source_file>
AV-unprocessed.smi

> <i_m_source_file_index>
1703

> <i_lp_mmshare_version>
43012

> <i_f3d_flags>
0

> <s_epik_input>
W0NIM11bQ0BASF0xW0NIMl1OKFtDSDJdW0NASF0oTzEpW0NIM10pW0NIMl1bQ0BIXShbT0hdKVtDSDJdbihjKG4yKVtDSDJdW09IXSljKGMyMylbY0hdW2NIXVtjSF1bY0hdMw==

> <s_epik_cmdline>
J2VwaWtfcHl0aG9uJywgJy1waCcsICc3LjAnLCAnLXRuJywgJzgnLCAnLW1hJywgJzIwMCcsICctbWV0YWxfYmluZGluZycsICctaW1hZScsICc8aW5maWxlLm1hZT4nLCAnLW9tYWUnLCAnPG91dGZpbGUubWFlPic=

> <r_epik_Ionization_Penalty>
0.655661

> <r_epik_Ionization_Penalty_Charging>
0.608065

> <r_epik_Ionization_Penalty_Neutral>
0.0475963

> <r_epik_State_Penalty>
0.695267

> <r_epik_Charging_Adjusted_Penalty>
1.30333

> <i_epik_Tot_Q>
1

> <i_epik_Tot_abs_Q>
1

> <r_epik_Metal_State_Penalty>
0.653591

> <b_epik_Metal_Only>
0

> <s_lp_Force_Field>
OPLS_2005

> <r_lp_Energy>
24.4185

> <b_lp_Chiralities_Consistent>
1

> <s_lp_Variant>
AV-unprocessed.smi:1703-9

> <Gold.Version>
5.8.1

> <Gold.Id.Protein>
6NUR|6NUR_protein|mol2

> <Gold.PLP.Fitness>
49.2946

> <Gold.PLP.PLP>
-40.3758

> <Gold.PLP.part.hbond>
-3.0000

> <Gold.PLP.part.metal>
0.0000

> <Gold.PLP.part.buried>
-2.5294

> <Gold.PLP.part.nonpolar>
-33.5890

> <Gold.PLP.part.repulsive>
0.2676

> <Gold.PLP.ligand.clash>
0.0000

> <Gold.PLP.ligand.torsion>
0.5137

> <Gold.PLP.Chemscore.Hbond>
3.3046

> <Gold.PLP.Chemscore.CHOScore>
0.0000

> <Gold.PLP.Chemscore.Metal>
0.0000

> <Gold.Chemscore.Hbonds>
donor molecule, donor type, donor heavy atom, donor atom, acceptor molecule, acceptor atom, score
      L1  H     4    49       P1  8028  1.59
      P1  H  7997  8009       L1    13  0.86
      P1  H 10752 10765       L1    12  0.45

> <Gold.PLP.Chemscore.Internal.Correction>
0.0322

> <Gold.Rescore>
     Score         DG    S(hbond)    S(metal)    S(lipo)     H(rot)  DE(clash)    DE(int)     intcor
     13.17     -14.42       1.19        0.00     107.31       2.96       0.76       0.48       ----

> <Gold.Chemscore.Fitness>
13.1716

> <Gold.Chemscore.DG>
-14.4171

> <Gold.Chemscore.ZeroCoef>
-5.4800

> <Gold.Chemscore.Hbond>
1.1864

> <Gold.Chemscore.Metal>
0.0000

> <Gold.Chemscore.Lipo>
107.3078

> <Gold.Chemscore.Internal_Hbond>
0.0000

> <Gold.Chemscore.DEClash>
0.7645

> <Gold.Chemscore.DEInternal>
0.4810

> <Gold.Chemscore.Rot>
2.9611

> <Gold.Chemscore.Internal.Correction>
   9.000000E+99

> <Gold.Chemscore.Hbonds>
donor molecule, donor type, donor heavy atom, donor atom, acceptor molecule, acceptor atom, score
      L1  H     4    49       P1  8028  0.23
      P1  H  7997  8009       L1    13  0.04
      P1  H 10752 10765       L1    12  0.38

> <Gold.Chemscore.Hbond.Weighted>
-3.9624

> <Gold.Chemscore.Metal.Weighted>
-0.0000

> <Gold.Chemscore.Lipo.Weighted>
-12.5550

> <Gold.Chemscore.Internal_Hbond.Weighted>
0.0000

> <Gold.Chemscore.DEClash.Weighted>
0.7645

> <Gold.Chemscore.DEInternal.Weighted>
0.4810

> <Gold.Chemscore.Rot.Weighted>
7.5803

> <Gold.Chemscore.Internal.Correction.Weighted>
   9.000000E+99

> <Gold.Protein.RotatedTorsions>
[ 6907 6896 6895 6894 ] final  133.18 input  -60.11 | X-H torsion
[ 7974 7965 7964 7962 ] final  -51.46 input  175.53 | X-H torsion
[ 8008 7997 7996 7995 ] final  153.59 input   59.86 | X-H torsion
[ 10167 10162 10161 10158 ] final  -10.99 input  -65.29 | X-H torsion
[ 10718 10713 10712 10709 ] final -145.51 input   66.30 | X-H torsion
[ 10763 10752 10751 10750 ] final -153.72 input  -60.55 | X-H torsion
[ 11005 11000 10999 10996 ] final   91.63 input  -57.11 | X-H torsion

> <Gold.Protein.ActiveResidues>
 VAL166  LYS551  ARG553  GLY616  TRP617  ASP618  TYR619  PRO620  LYS621  CYS622 
 ASP623  PHE694  ASN695  SER759  ASP760  ASP761  ALA762  ILE779  LEU786  VAL792 
 PHE793  MET794  SER795  GLU796  ALA797  LYS798  CYS799  TRP800  GLU811  SER814 

> <Gold.Protein.RotatedAtoms>
  152.3247  133.5892  159.5767 H   0  0  0  0  0  0  0  0  0  0  0  0  # atno 6907 bound_to 6896
  150.7390  133.9959  159.3631 H   0  0  0  0  0  0  0  0  0  0  0  0  # atno 6908 bound_to 6896
  151.7840  135.0754  160.0429 H   0  0  0  0  0  0  0  0  0  0  0  0  # atno 6909 bound_to 6896
  145.9187  140.7852  142.9658 H   0  0  0  0  0  0  0  0  0  0  0  0  # atno 7974 bound_to 7965
  156.2574  140.1989  156.6513 H   0  0  0  0  0  0  0  0  0  0  0  0  # atno 8008 bound_to 7997
  154.6534  140.0569  157.0006 H   0  0  0  0  0  0  0  0  0  0  0  0  # atno 8009 bound_to 7997
  155.1383  140.3240  155.4460 H   0  0  0  0  0  0  0  0  0  0  0  0  # atno 8010 bound_to 7997
  140.7127  143.5688  150.9115 H   0  0  0  0  0  0  0  0  0  0  0  0  # atno 10167 bound_to 10162
  156.3833  130.7848  151.2043 H   0  0  0  0  0  0  0  0  0  0  0  0  # atno 10718 bound_to 10713
  154.7908  135.3206  154.7781 H   0  0  0  0  0  0  0  0  0  0  0  0  # atno 10763 bound_to 10752
  153.8471  135.6865  153.4801 H   0  0  0  0  0  0  0  0  0  0  0  0  # atno 10764 bound_to 10752
  153.1577  135.4673  154.9669 H   0  0  0  0  0  0  0  0  0  0  0  0  # atno 10765 bound_to 10752
  139.8836  134.8685  156.3456 H   0  0  0  0  0  0  0  0  0  0  0  0  # atno 11005 bound_to 11000
  144.6750  140.1941  143.7394 LP  0  0  0  0  0  0  0  0  0  0  0  0  # atno 17320 bound_to 7965
  145.8578  139.2207  143.1734 LP  0  0  0  0  0  0  0  0  0  0  0  0  # atno 17321 bound_to 7965
  139.9414  143.6378  152.3053 LP  0  0  0  0  0  0  0  0  0  0  0  0  # atno 17342 bound_to 10162
  139.6864  144.7651  151.1516 LP  0  0  0  0  0  0  0  0  0  0  0  0  # atno 17343 bound_to 10162
  157.7494  131.0337  150.4286 LP  0  0  0  0  0  0  0  0  0  0  0  0  # atno 17370 bound_to 10713
  156.4534  130.4016  149.6622 LP  0  0  0  0  0  0  0  0  0  0  0  0  # atno 17371 bound_to 10713
  140.9629  133.7377  156.0426 LP  0  0  0  0  0  0  0  0  0  0  0  0  # atno 17394 bound_to 11000
  140.7967  134.3556  157.5450 LP  0  0  0  0  0  0  0  0  0  0  0  0  # atno 17395 bound_to 11000

$$$$
