#       Name:                AV-unprocessed.smi:1998
#       Creating user name   scv26
#       Creation time:       Fri Mar 27 10:30:47 2020


#       File generated by GOLD software.
#

@<TRIPOS>MOLECULE
AV-unprocessed.smi:1998
    53    54     1
SMALL
NO_CHARGES


@<TRIPOS>ATOM
      1 ****        -3.2104  -2.2838   0.2044 C.3            1 S1                 0.0000
      2 ****        -2.8693  -0.8587   0.5263 C.2            1 S1                 0.0000
      3 ****        -2.6784  -0.2685   1.8067 C.2            1 S1                 0.0000
      4 ****        -2.4054   1.0427   1.5373 C.2            1 S1                 0.0000
      5 ****        -2.1158   2.1756   2.4668 C.3            1 S1                 0.0000
      6 ****        -2.4360   1.1850   0.1608 N.pl3          1 S1                 0.0000
      7 ****        -2.1924   2.3742  -0.6451 C.3            1 S1                 0.0000
      8 ****        -0.6937   2.6543  -0.7671 C.2            1 S1                 0.0000
      9 ****        -0.2193   3.6933  -0.3091 O.2            1 S1                 0.0000
     10 ****         0.0386   1.6964  -1.3539 N.am           1 S1                 0.0000
     11 ****         1.4973   1.6255  -1.3910 C.3            1 S1                 0.0000
     12 ****         2.0597   0.6130  -0.3478 C.3            1 S1                 0.0000
     13 ****         3.5832   0.4958  -0.5909 C.3            1 S1                 0.0000
     14 ****         1.8710   1.2614   1.0476 C.3            1 S1                 0.0000
     15 ****         1.3533  -0.6966  -0.4269 N.3            1 S1                 0.0000
     16 ****         1.4320  -1.3618  -1.7322 C.3            1 S1                 0.0000
     17 ****         0.5610  -2.6271  -1.7863 C.3            1 S1                 0.0000
     18 ****         0.9435  -3.5185  -0.7455 O.3            1 S1                 0.0000
     19 ****         0.8365  -2.9291   0.5449 C.3            1 S1                 0.0000
     20 ****         1.7101  -1.6647   0.6149 C.3            1 S1                 0.0000
     21 ****        -2.7198   0.0156  -0.4554 N.2            1 S1                 0.0000
     22 ****        -3.1957  -2.9037   1.1009 H              1 S1                 0.0000
     23 ****        -2.5011  -2.7117  -0.5032 H              1 S1                 0.0000
     24 ****        -4.2056  -2.3586  -0.2347 H              1 S1                 0.0000
     25 ****        -2.7376  -0.7372   2.7778 H              1 S1                 0.0000
     26 ****        -2.1442   1.8440   3.5049 H              1 S1                 0.0000
     27 ****        -2.8503   2.9724   2.3494 H              1 S1                 0.0000
     28 ****        -1.1273   2.5942   2.2776 H              1 S1                 0.0000
     29 ****        -2.6243   2.2410  -1.6382 H              1 S1                 0.0000
     30 ****        -2.6996   3.2232  -0.1857 H              1 S1                 0.0000
     31 ****        -0.4544   0.8847  -1.6976 H              1 S1                 0.0000
     32 ****         1.7887   1.3444  -2.4029 H              1 S1                 0.0000
     33 ****         1.9359   2.6142  -1.2440 H              1 S1                 0.0000
     34 ****         4.0675   1.4692  -0.5057 H              1 S1                 0.0000
     35 ****         3.8131   0.1174  -1.5866 H              1 S1                 0.0000
     36 ****         4.0660  -0.1608   0.1326 H              1 S1                 0.0000
     37 ****         2.2094   2.2981   1.0581 H              1 S1                 0.0000
     38 ****         2.4418   0.7478   1.8212 H              1 S1                 0.0000
     39 ****         0.8253   1.2568   1.3561 H              1 S1                 0.0000
     40 ****         1.1037  -0.6984  -2.5302 H              1 S1                 0.0000
     41 ****         2.4636  -1.6362  -1.9531 H              1 S1                 0.0000
     42 ****        -0.4939  -2.3691  -1.6897 H              1 S1                 0.0000
     43 ****         0.6808  -3.1286  -2.7467 H              1 S1                 0.0000
     44 ****        -0.2058  -2.6883   0.7586 H              1 S1                 0.0000
     45 ****         1.1574  -3.6529   1.2941 H              1 S1                 0.0000
     46 ****         2.7579  -1.9506   0.5216 H              1 S1                 0.0000
     47 ****         1.5853  -1.2338   1.6065 H              1 S1                 0.0000
     48 ****        -0.8141   4.3571   0.1443 LP             1 S1                 0.0000
     49 ****         0.7609   3.8737  -0.3903 LP             1 S1                 0.0000
     50 ****         0.4081  -0.4089  -0.2723 LP             1 S1                 0.0000
     51 ****         1.8928  -3.7956  -0.8936 LP             1 S1                 0.0000
     52 ****         0.3519  -4.3241  -0.7799 LP             1 S1                 0.0000
     53 ****        -2.7994  -0.1519  -1.4381 LP             1 S1                 0.0000
@<TRIPOS>BOND
    1    1    2 1     
    2    1   22 1     
    3    1   23 1     
    4    1   24 1     
    5    2   21 2     
    6    2    3 1     
    7    3    4 2     
    8    3   25 1     
    9    4    5 1     
   10    4    6 1     
   11    5   26 1     
   12    5   27 1     
   13    5   28 1     
   14    6    7 1     
   15    6   21 1     
   16    7    8 1     
   17    7   29 1     
   18    7   30 1     
   19    8    9 2     
   20    8   10 am    
   21   10   11 1     
   22   10   31 1     
   23   11   12 1     
   24   11   32 1     
   25   11   33 1     
   26   12   13 1     
   27   12   14 1     
   28   12   15 1     
   29   13   34 1     
   30   13   35 1     
   31   13   36 1     
   32   14   37 1     
   33   14   38 1     
   34   14   39 1     
   35   15   20 1     
   36   15   16 1     
   37   16   17 1     
   38   16   40 1     
   39   16   41 1     
   40   17   18 1     
   41   17   42 1     
   42   17   43 1     
   43   18   19 1     
   44   19   20 1     
   45   19   44 1     
   46   19   45 1     
   47   20   46 1     
   48   20   47 1     
   49    9   48 1     
   50    9   49 1     
   51   15   50 1     
   52   18   51 1     
   53   18   52 1     
   54   21   53 1     
@<TRIPOS>SUBSTRUCTURE
      1 S1             1
@<TRIPOS>SET
LONE_PAIRS      STATIC     ATOMS    <user>   **** ""
6 48 49 50 51 52 53
DONOR_HYDROGENS      STATIC     ATOMS    <user>   **** ""
1 31
ATOM$BLUE        STATIC     ATOMS    COLORGROUP SYSTEM
6 48 49 50 51 52 53
ATOM$RED        STATIC     ATOMS    COLORGROUP SYSTEM
1 31
