AV-unprocessed.smi:1791|AV-procd|sdf|7220|dock5
  -GOLD-   22720 8463D 1   1.00000     0.00000
 Structure written by MMmdl.
 38 39  0  0  0  0  0  0  0  0  1 V2000
  150.5033  142.3554  157.5479 C   0  0  0  0  0  0  0  0  0  0  0  0
  151.0042  141.8902  156.2995 O   0  0  0  0  0  0  0  0  0  0  0  0
  150.2606  140.9621  155.5996 C   0  0  0  0  0  0  0  0  0  0  0  0
  148.8592  140.9724  155.7453 C   0  0  0  0  0  0  0  0  0  0  0  0
  148.0924  140.0324  155.0303 C   0  0  0  0  0  0  0  0  0  0  0  0
  148.7549  139.1125  154.1828 C   0  0  0  0  0  0  0  0  0  0  0  0
  148.0989  138.1091  153.4198 N   0  0  0  0  0  0  0  0  0  0  0  0
  146.7843  137.9641  153.1809 C   0  0  0  0  0  0  0  0  0  0  0  0
  145.8979  138.7027  153.6089 O   0  0  0  0  0  0  0  0  0  0  0  0
  146.5542  136.9097  152.3855 N   0  0  0  0  0  0  0  0  0  0  0  0
  145.2480  136.4679  151.8977 C   0  0  2  0  0  0  0  0  0  0  0  0
  144.3609  136.0776  153.0885 C   0  0  0  0  0  0  0  0  0  0  0  0
  145.4026  135.3128  150.8871 C   0  0  1  0  0  0  0  0  0  0  0  0
  146.1806  134.0955  151.3938 C   0  0  0  0  0  0  0  0  0  0  0  0
  145.6727  133.0119  150.4707 C   0  0  0  0  0  0  0  0  0  0  0  0
  144.1989  133.3848  150.3339 C   0  0  0  0  0  0  0  0  0  0  0  0
  144.1340  134.8011  150.4822 O   0  0  0  0  0  0  0  0  0  0  0  0
  150.1621  139.1742  154.1207 C   0  0  0  0  0  0  0  0  0  0  0  0
  150.9029  140.0732  154.8023 N   0  0  0  0  0  0  0  0  0  0  0  0
  151.2067  143.0699  157.9749 H   0  0  0  0  0  0  0  0  0  0  0  0
  150.3886  141.5380  158.2616 H   0  0  0  0  0  0  0  0  0  0  0  0
  149.5457  142.8645  157.4288 H   0  0  0  0  0  0  0  0  0  0  0  0
  148.3801  141.6880  156.3970 H   0  0  0  0  0  0  0  0  0  0  0  0
  147.0211  140.0304  155.1565 H   0  0  0  0  0  0  0  0  0  0  0  0
  148.7092  137.4648  152.9387 H   0  0  0  0  0  0  0  0  0  0  0  0
  147.3497  136.3692  152.0781 H   0  0  0  0  0  0  0  0  0  0  0  0
  144.7453  137.2864  151.3798 H   0  0  0  0  0  0  0  0  0  0  0  0
  143.3686  135.7738  152.7545 H   0  0  0  0  0  0  0  0  0  0  0  0
  144.2341  136.9158  153.7744 H   0  0  0  0  0  0  0  0  0  0  0  0
  144.7907  135.2485  153.6516 H   0  0  0  0  0  0  0  0  0  0  0  0
  145.9008  135.6827  149.9893 H   0  0  0  0  0  0  0  0  0  0  0  0
  147.2614  134.2305  151.3412 H   0  0  0  0  0  0  0  0  0  0  0  0
  145.9184  133.8514  152.4236 H   0  0  0  0  0  0  0  0  0  0  0  0
  146.1702  133.0821  149.5024 H   0  0  0  0  0  0  0  0  0  0  0  0
  145.8242  132.0059  150.8629 H   0  0  0  0  0  0  0  0  0  0  0  0
  143.7771  133.0650  149.3810 H   0  0  0  0  0  0  0  0  0  0  0  0
  143.6148  132.9277  151.1337 H   0  0  0  0  0  0  0  0  0  0  0  0
  150.7142  138.4845  153.4989 H   0  0  0  0  0  0  0  0  0  0  0  0
  1  2  1  0  0  0  0
  1 20  1  0  0  0  0
  1 21  1  0  0  0  0
  1 22  1  0  0  0  0
  2  3  1  0  0  0  0
  3 19  1  0  0  0  0
  3  4  2  0  0  0  0
  4  5  1  0  0  0  0
  4 23  1  0  0  0  0
  5  6  2  0  0  0  0
  5 24  1  0  0  0  0
  6  7  1  0  0  0  0
  6 18  1  0  0  0  0
  7  8  1  0  0  0  0
  7 25  1  0  0  0  0
  8  9  2  0  0  0  0
  8 10  1  0  0  0  0
 10 11  1  0  0  0  0
 10 26  1  0  0  0  0
 11 12  1  0  0  0  0
 11 13  1  0  0  0  0
 11 27  1  0  0  0  0
 12 28  1  0  0  0  0
 12 29  1  0  0  0  0
 12 30  1  0  0  0  0
 13 17  1  0  0  0  0
 13 14  1  0  0  0  0
 13 31  1  0  0  0  0
 14 15  1  0  0  0  0
 14 32  1  0  0  0  0
 14 33  1  0  0  0  0
 15 16  1  0  0  0  0
 15 34  1  0  0  0  0
 15 35  1  0  0  0  0
 16 17  1  0  0  0  0
 16 36  1  0  0  0  0
 16 37  1  0  0  0  0
 18 19  2  0  0  0  0
 18 38  1  0  0  0  0
M  END
> <s_m_source_file>
AV-unprocessed.smi

> <i_m_source_file_index>
1791

> <i_lp_mmshare_version>
43012

> <i_f3d_flags>
0

> <s_epik_input>
W0NIM11PYzFbY0hdW2NIXWMoW2NIXW4xKVtOSF1DKD1PKVtOSF1bQ0BIXShbQ0gzXSlbQ0BASF0yW0NIMl1bQ0gyXVtDSDJdTzI=

> <s_epik_cmdline>
J2VwaWtfcHl0aG9uJywgJy1waCcsICc3LjAnLCAnLXRuJywgJzgnLCAnLW1hJywgJzIwMCcsICctbWV0YWxfYmluZGluZycsICctaW1hZScsICc8aW5maWxlLm1hZT4nLCAnLW9tYWUnLCAnPG91dGZpbGUubWFlPic=

> <r_lp_tautomer_probability>
1

> <r_epik_Ionization_Penalty>
9.18737e-05

> <r_epik_Ionization_Penalty_Charging>
0

> <r_epik_Ionization_Penalty_Neutral>
9.18737e-05

> <r_epik_State_Penalty>
-0

> <r_epik_Charging_Adjusted_Penalty>
0

> <i_epik_Tot_Q>
0

> <i_epik_Tot_abs_Q>
0

> <r_epik_Metal_State_Penalty>
-0

> <b_epik_Metal_Only>
0

> <s_lp_Force_Field>
OPLS_2005

> <r_lp_Energy>
21.9226

> <b_lp_Chiralities_Consistent>
1

> <s_lp_Variant>
AV-unprocessed.smi:1791-3

> <Gold.Version>
5.8.1

> <Gold.Id.Protein>
6NUR|6NUR_protein|mol2

> <Gold.PLP.Fitness>
36.8650

> <Gold.PLP.PLP>
-28.7538

> <Gold.PLP.part.hbond>
-3.0219

> <Gold.PLP.part.metal>
0.0000

> <Gold.PLP.part.buried>
-4.1597

> <Gold.PLP.part.nonpolar>
-22.8521

> <Gold.PLP.part.repulsive>
1.0786

> <Gold.PLP.ligand.clash>
0.0000

> <Gold.PLP.ligand.torsion>
0.4577

> <Gold.PLP.Chemscore.Hbond>
3.0000

> <Gold.PLP.Chemscore.CHOScore>
0.0000

> <Gold.PLP.Chemscore.Metal>
0.0000

> <Gold.Chemscore.Hbonds>
donor molecule, donor type, donor heavy atom, donor atom, acceptor molecule, acceptor atom, score
      L1  H     7    25       P1  7948  1.00
      L1  H    10    26       P1  7948  1.00
      P1  H  7989  7998       L1    19  0.95

> <Gold.PLP.Chemscore.Internal.Correction>
0.0266

> <Gold.Rescore>
     Score         DG    S(hbond)    S(metal)    S(lipo)     H(rot)  DE(clash)    DE(int)     intcor
     14.94     -17.53       2.44        0.00      65.43       1.47       0.95       1.65       ----

> <Gold.Chemscore.Fitness>
14.9382

> <Gold.Chemscore.DG>
-17.5317

> <Gold.Chemscore.ZeroCoef>
-5.4800

> <Gold.Chemscore.Hbond>
2.4423

> <Gold.Chemscore.Metal>
0.0000

> <Gold.Chemscore.Lipo>
65.4339

> <Gold.Chemscore.Internal_Hbond>
0.0000

> <Gold.Chemscore.DEClash>
0.9450

> <Gold.Chemscore.DEInternal>
1.6485

> <Gold.Chemscore.Rot>
1.4693

> <Gold.Chemscore.Internal.Correction>
   9.000000E+99

> <Gold.Chemscore.Hbonds>
donor molecule, donor type, donor heavy atom, donor atom, acceptor molecule, acceptor atom, score
      L1  H     7    25       P1  7948  0.96
      L1  H    10    26       P1  7948  0.94
      P1  H  7989  7998       L1    19  0.16

> <Gold.Chemscore.Hbond.Weighted>
-8.1572

> <Gold.Chemscore.Metal.Weighted>
-0.0000

> <Gold.Chemscore.Lipo.Weighted>
-7.6558

> <Gold.Chemscore.Internal_Hbond.Weighted>
0.0000

> <Gold.Chemscore.DEClash.Weighted>
0.9450

> <Gold.Chemscore.DEInternal.Weighted>
1.6485

> <Gold.Chemscore.Rot.Weighted>
3.7613

> <Gold.Chemscore.Internal.Correction.Weighted>
   9.000000E+99

> <Gold.Protein.RotatedTorsions>
[ 6907 6896 6895 6894 ] final  -90.08 input  -60.11 | X-H torsion
[ 7974 7965 7964 7962 ] final -146.14 input  175.53 | X-H torsion
[ 8008 7997 7996 7995 ] final  -61.00 input   59.86 | X-H torsion
[ 10167 10162 10161 10158 ] final  -70.92 input  -65.29 | X-H torsion
[ 10718 10713 10712 10709 ] final    3.00 input   66.30 | X-H torsion
[ 10763 10752 10751 10750 ] final -150.37 input  -60.55 | X-H torsion
[ 11005 11000 10999 10996 ] final    3.24 input  -57.11 | X-H torsion

> <Gold.Protein.ActiveResidues>
 VAL166  LYS551  ARG553  GLY616  TRP617  ASP618  TYR619  PRO620  LYS621  CYS622 
 ASP623  PHE694  ASN695  SER759  ASP760  ASP761  ALA762  ILE779  LEU786  VAL792 
 PHE793  MET794  SER795  GLU796  ALA797  LYS798  CYS799  TRP800  GLU811  SER814 

> <Gold.Protein.RotatedAtoms>
  150.6879  134.2487  159.4501 H   0  0  0  0  0  0  0  0  0  0  0  0  # atno 6907 bound_to 6896
  152.0426  134.9700  160.0583 H   0  0  0  0  0  0  0  0  0  0  0  0  # atno 6908 bound_to 6896
  152.1196  133.4311  159.4706 H   0  0  0  0  0  0  0  0  0  0  0  0  # atno 6909 bound_to 6896
  144.8179  140.5494  143.5598 H   0  0  0  0  0  0  0  0  0  0  0  0  # atno 7974 bound_to 7965
  154.4426  140.1027  156.6362 H   0  0  0  0  0  0  0  0  0  0  0  0  # atno 8008 bound_to 7997
  155.5551  140.3486  155.4459 H   0  0  0  0  0  0  0  0  0  0  0  0  # atno 8009 bound_to 7997
  156.0500  140.1302  157.0049 H   0  0  0  0  0  0  0  0  0  0  0  0  # atno 8010 bound_to 7997
  140.5314  143.2321  151.7254 H   0  0  0  0  0  0  0  0  0  0  0  0  # atno 10167 bound_to 10162
  156.8714  130.5621  149.5657 H   0  0  0  0  0  0  0  0  0  0  0  0  # atno 10718 bound_to 10713
  154.8123  135.3286  154.7272 H   0  0  0  0  0  0  0  0  0  0  0  0  # atno 10763 bound_to 10752
  153.7919  135.6910  153.4874 H   0  0  0  0  0  0  0  0  0  0  0  0  # atno 10764 bound_to 10752
  153.1911  135.4550  155.0097 H   0  0  0  0  0  0  0  0  0  0  0  0  # atno 10765 bound_to 10752
  140.5954  133.9885  155.8107 H   0  0  0  0  0  0  0  0  0  0  0  0  # atno 11005 bound_to 11000
  145.5172  139.1477  143.3572 LP  0  0  0  0  0  0  0  0  0  0  0  0  # atno 17320 bound_to 7965
  146.2483  140.5312  142.8904 LP  0  0  0  0  0  0  0  0  0  0  0  0  # atno 17321 bound_to 7965
  139.4956  144.4108  152.0083 LP  0  0  0  0  0  0  0  0  0  0  0  0  # atno 17342 bound_to 10162
  140.3210  144.3428  150.6009 LP  0  0  0  0  0  0  0  0  0  0  0  0  # atno 17343 bound_to 10162
  156.0724  130.5754  150.9409 LP  0  0  0  0  0  0  0  0  0  0  0  0  # atno 17370 bound_to 10713
  157.6193  131.0931  150.8651 LP  0  0  0  0  0  0  0  0  0  0  0  0  # atno 17371 bound_to 10713
  141.0908  133.9920  157.3241 LP  0  0  0  0  0  0  0  0  0  0  0  0  # atno 17394 bound_to 11000
  139.9256  135.0201  156.8221 LP  0  0  0  0  0  0  0  0  0  0  0  0  # atno 17395 bound_to 11000

$$$$
