AV-unprocessed.smi:2182|AV-procd|sdf|8863|dock2
  -GOLD-   2272012 53D 1   1.00000     0.00000
 Structure written by MMmdl.
 41 43  0  0  0  0  0  0  0  0  1 V2000
  148.2101  132.1561  157.2267 N   0  0  0  0  0  0  0  0  0  0  0  0
  148.1478  133.0245  157.9893 C   0  0  0  0  0  0  0  0  0  0  0  0
  148.1017  134.0896  158.9359 C   0  0  0  0  0  0  0  0  0  0  0  0
  147.5909  133.9190  160.1727 C   0  0  0  0  0  0  0  0  0  0  0  0
  147.5449  134.9344  161.1028 N   0  0  0  0  0  0  0  0  0  0  0  0
  146.8509  134.7761  162.3498 C   0  0  0  0  0  0  0  0  0  0  0  0
  145.4662  134.1586  162.3844 C   0  0  0  0  0  0  0  0  0  0  0  0
  145.6391  135.6377  162.6298 C   0  0  0  0  0  0  0  0  0  0  0  0
  147.9710  136.2344  160.7546 C   0  0  0  0  0  0  0  0  0  0  0  0
  147.8480  137.1787  161.5395 O   0  0  0  0  0  0  0  0  0  0  0  0
  148.5317  136.4266  159.4682 N   0  0  0  0  0  0  0  0  0  0  0  0
  148.9862  137.7850  159.0997 C   0  0  0  0  0  0  0  0  0  0  0  0
  150.5115  137.9416  159.1815 C   0  0  0  0  0  0  0  0  0  0  0  0
  151.2343  136.9607  159.3614 O   0  0  0  0  0  0  0  0  0  0  0  0
  150.9835  139.1901  159.0472 N   0  0  0  0  0  0  0  0  0  0  0  0
  152.3938  139.5640  159.0339 C   0  0  0  0  0  0  0  0  0  0  0  0
  152.7103  140.6210  160.1066 C   0  0  2  0  0  0  0  0  0  0  0  0
  152.3306  142.0560  159.7444 C   0  0  0  0  0  0  0  0  0  0  0  0
  153.2236  142.8821  160.6522 C   0  0  0  0  0  0  0  0  0  0  0  0
  154.3764  141.9338  161.0002 C   0  0  0  0  0  0  0  0  0  0  0  0
  154.1114  140.7227  160.3012 O   0  0  0  0  0  0  0  0  0  0  0  0
  148.6251  135.3854  158.5093 C   0  0  0  0  0  0  0  0  0  0  0  0
  149.1066  135.5891  157.3936 O   0  0  0  0  0  0  0  0  0  0  0  0
  147.2060  132.9478  160.4494 H   0  0  0  0  0  0  0  0  0  0  0  0
  147.4853  134.5603  163.2078 H   0  0  0  0  0  0  0  0  0  0  0  0
  145.0094  133.8623  161.4419 H   0  0  0  0  0  0  0  0  0  0  0  0
  145.2186  133.5321  163.2389 H   0  0  0  0  0  0  0  0  0  0  0  0
  145.5041  135.9970  163.6480 H   0  0  0  0  0  0  0  0  0  0  0  0
  145.2991  136.3147  161.8483 H   0  0  0  0  0  0  0  0  0  0  0  0
  148.6468  138.0328  158.0922 H   0  0  0  0  0  0  0  0  0  0  0  0
  148.5328  138.5521  159.7287 H   0  0  0  0  0  0  0  0  0  0  0  0
  150.3156  139.9352  158.9122 H   0  0  0  0  0  0  0  0  0  0  0  0
  152.9774  138.6643  159.2298 H   0  0  0  0  0  0  0  0  0  0  0  0
  152.6975  139.9147  158.0459 H   0  0  0  0  0  0  0  0  0  0  0  0
  152.2485  140.3434  161.0564 H   0  0  0  0  0  0  0  0  0  0  0  0
  152.5800  142.2593  158.7021 H   0  0  0  0  0  0  0  0  0  0  0  0
  151.2699  142.2657  159.8867 H   0  0  0  0  0  0  0  0  0  0  0  0
  153.5686  143.7914  160.1589 H   0  0  0  0  0  0  0  0  0  0  0  0
  152.6893  143.1729  161.5575 H   0  0  0  0  0  0  0  0  0  0  0  0
  155.3465  142.3362  160.7072 H   0  0  0  0  0  0  0  0  0  0  0  0
  154.4009  141.7372  162.0730 H   0  0  0  0  0  0  0  0  0  0  0  0
  1  2  3  0  0  0  0
  2  3  1  0  0  0  0
  3 22  1  0  0  0  0
  3  4  2  0  0  0  0
  4  5  1  0  0  0  0
  4 24  1  0  0  0  0
  5  6  1  0  0  0  0
  5  9  1  0  0  0  0
  6  8  1  0  0  0  0
  6  7  1  0  0  0  0
  6 25  1  0  0  0  0
  7  8  1  0  0  0  0
  7 26  1  0  0  0  0
  7 27  1  0  0  0  0
  8 28  1  0  0  0  0
  8 29  1  0  0  0  0
  9 10  2  0  0  0  0
  9 11  1  0  0  0  0
 11 12  1  0  0  0  0
 11 22  1  0  0  0  0
 12 13  1  0  0  0  0
 12 30  1  0  0  0  0
 12 31  1  0  0  0  0
 13 14  2  0  0  0  0
 13 15  1  0  0  0  0
 15 16  1  0  0  0  0
 15 32  1  0  0  0  0
 16 17  1  0  0  0  0
 16 33  1  0  0  0  0
 16 34  1  0  0  0  0
 17 21  1  0  0  0  0
 17 18  1  0  0  0  0
 17 35  1  0  0  0  0
 18 19  1  0  0  0  0
 18 36  1  0  0  0  0
 18 37  1  0  0  0  0
 19 20  1  0  0  0  0
 19 38  1  0  0  0  0
 19 39  1  0  0  0  0
 20 21  1  0  0  0  0
 20 40  1  0  0  0  0
 20 41  1  0  0  0  0
 22 23  2  0  0  0  0
M  END
> <s_m_source_file>
AV-unprocessed.smi

> <i_m_source_file_index>
2182

> <i_lp_mmshare_version>
43012

> <i_f3d_flags>
0

> <s_epik_input>
TiNDYzFbY0hdbihbQ0hdMltDSDJdW0NIMl0yKWMoPU8pbihjMT1PKVtDSDJdQyg9TylbTkhdW0NIMl1bQ0BASF0zW0NIMl1bQ0gyXVtDSDJdTzM=

> <s_epik_cmdline>
J2VwaWtfcHl0aG9uJywgJy1waCcsICc3LjAnLCAnLXRuJywgJzgnLCAnLW1hJywgJzIwMCcsICctbWV0YWxfYmluZGluZycsICctaW1hZScsICc8aW5maWxlLm1hZT4nLCAnLW9tYWUnLCAnPG91dGZpbGUubWFlPic=

> <r_lp_tautomer_probability>
1

> <r_epik_Ionization_Penalty>
2.69429e-08

> <r_epik_Ionization_Penalty_Charging>
8.38654e-11

> <r_epik_Ionization_Penalty_Neutral>
2.6859e-08

> <r_epik_State_Penalty>
-0

> <r_epik_Charging_Adjusted_Penalty>
8.38654e-11

> <i_epik_Tot_Q>
0

> <i_epik_Tot_abs_Q>
0

> <r_epik_Metal_State_Penalty>
-0

> <b_epik_Metal_Only>
0

> <s_lp_Force_Field>
OPLS_2005

> <r_lp_Energy>
43.5175

> <b_lp_Chiralities_Consistent>
1

> <s_lp_Variant>
AV-unprocessed.smi:2182-1

> <Gold.Version>
5.8.1

> <Gold.Id.Protein>
6NUR|6NUR_protein|mol2

> <Gold.PLP.Fitness>
46.8982

> <Gold.PLP.PLP>
-39.2189

> <Gold.PLP.part.hbond>
-3.0000

> <Gold.PLP.part.metal>
0.0000

> <Gold.PLP.part.buried>
-5.6671

> <Gold.PLP.part.nonpolar>
-30.5694

> <Gold.PLP.part.repulsive>
0.1641

> <Gold.PLP.ligand.clash>
0.0000

> <Gold.PLP.ligand.torsion>
0.6129

> <Gold.PLP.Chemscore.Hbond>
2.8880

> <Gold.PLP.Chemscore.CHOScore>
0.0000

> <Gold.PLP.Chemscore.Metal>
0.0000

> <Gold.Chemscore.Hbonds>
donor molecule, donor type, donor heavy atom, donor atom, acceptor molecule, acceptor atom, score
      P1  H  6896  6907       L1    14  1.00
      P1  H  6931  6943       L1    10  1.00
      P1  H  6934  6947       L1    10  0.67

> <Gold.PLP.Chemscore.Internal.Correction>
0.2410

> <Gold.Rescore>
     Score         DG    S(hbond)    S(metal)    S(lipo)     H(rot)  DE(clash)    DE(int)     intcor
     16.61     -18.54       2.74        0.00      78.83       2.08       0.00       1.93       ----

> <Gold.Chemscore.Fitness>
16.6119

> <Gold.Chemscore.DG>
-18.5389

> <Gold.Chemscore.ZeroCoef>
-5.4800

> <Gold.Chemscore.Hbond>
2.7409

> <Gold.Chemscore.Metal>
0.0000

> <Gold.Chemscore.Lipo>
78.8331

> <Gold.Chemscore.Internal_Hbond>
0.0000

> <Gold.Chemscore.DEClash>
0.0009

> <Gold.Chemscore.DEInternal>
1.9261

> <Gold.Chemscore.Rot>
2.0778

> <Gold.Chemscore.Internal.Correction>
   9.000000E+99

> <Gold.Chemscore.Hbonds>
donor molecule, donor type, donor heavy atom, donor atom, acceptor molecule, acceptor atom, score
      P1  H  6896  6907       L1    14  0.96
      P1  H  6931  6943       L1    10  0.97
      P1  H  6934  6947       L1    10  0.63

> <Gold.Chemscore.Hbond.Weighted>
-9.1545

> <Gold.Chemscore.Metal.Weighted>
-0.0000

> <Gold.Chemscore.Lipo.Weighted>
-9.2235

> <Gold.Chemscore.Internal_Hbond.Weighted>
0.0000

> <Gold.Chemscore.DEClash.Weighted>
0.0009

> <Gold.Chemscore.DEInternal.Weighted>
1.9261

> <Gold.Chemscore.Rot.Weighted>
5.3191

> <Gold.Chemscore.Internal.Correction.Weighted>
   9.000000E+99

> <Gold.Protein.RotatedTorsions>
[ 6907 6896 6895 6894 ] final  -27.53 input  -60.11 | X-H torsion
[ 7974 7965 7964 7962 ] final   79.50 input  175.53 | X-H torsion
[ 8008 7997 7996 7995 ] final   34.94 input   59.86 | X-H torsion
[ 10167 10162 10161 10158 ] final  -85.21 input  -65.29 | X-H torsion
[ 10718 10713 10712 10709 ] final   18.25 input   66.30 | X-H torsion
[ 10763 10752 10751 10750 ] final  -28.40 input  -60.55 | X-H torsion
[ 11005 11000 10999 10996 ] final -174.39 input  -57.11 | X-H torsion

> <Gold.Protein.ActiveResidues>
 VAL166  LYS551  ARG553  GLY616  TRP617  ASP618  TYR619  PRO620  LYS621  CYS622 
 ASP623  PHE694  ASN695  SER759  ASP760  ASP761  ALA762  ILE779  LEU786  VAL792 
 PHE793  MET794  SER795  GLU796  ALA797  LYS798  CYS799  TRP800  GLU811  SER814 

> <Gold.Protein.RotatedAtoms>
  151.1457  135.0202  159.8645 H   0  0  0  0  0  0  0  0  0  0  0  0  # atno 6907 bound_to 6896
  152.5453  134.1448  159.8504 H   0  0  0  0  0  0  0  0  0  0  0  0  # atno 6908 bound_to 6896
  151.1528  133.4851  159.2628 H   0  0  0  0  0  0  0  0  0  0  0  0  # atno 6909 bound_to 6896
  145.6633  139.2477  143.1910 H   0  0  0  0  0  0  0  0  0  0  0  0  # atno 7974 bound_to 7965
  155.1630  140.3285  155.4407 H   0  0  0  0  0  0  0  0  0  0  0  0  # atno 8008 bound_to 7997
  156.2536  140.1957  156.6687 H   0  0  0  0  0  0  0  0  0  0  0  0  # atno 8009 bound_to 7997
  154.6391  140.0572  156.9811 H   0  0  0  0  0  0  0  0  0  0  0  0  # atno 8010 bound_to 7997
  140.4059  143.2643  151.9082 H   0  0  0  0  0  0  0  0  0  0  0  0  # atno 10167 bound_to 10162
  157.0936  130.6438  149.5855 H   0  0  0  0  0  0  0  0  0  0  0  0  # atno 10718 bound_to 10713
  153.7478  135.6928  153.4952 H   0  0  0  0  0  0  0  0  0  0  0  0  # atno 10763 bound_to 10752
  153.2024  135.4432  155.0281 H   0  0  0  0  0  0  0  0  0  0  0  0  # atno 10764 bound_to 10752
  154.8198  135.3416  154.7000 H   0  0  0  0  0  0  0  0  0  0  0  0  # atno 10765 bound_to 10752
  140.4751  134.6128  157.4897 H   0  0  0  0  0  0  0  0  0  0  0  0  # atno 11005 bound_to 11000
  146.1107  140.7432  142.9505 LP  0  0  0  0  0  0  0  0  0  0  0  0  # atno 17320 bound_to 7965
  144.7081  140.3934  143.7102 LP  0  0  0  0  0  0  0  0  0  0  0  0  # atno 17321 bound_to 7965
  139.4783  144.5586  151.8274 LP  0  0  0  0  0  0  0  0  0  0  0  0  # atno 17342 bound_to 10162
  140.4690  144.1614  150.5915 LP  0  0  0  0  0  0  0  0  0  0  0  0  # atno 17343 bound_to 10162
  155.9891  130.4938  150.7201 LP  0  0  0  0  0  0  0  0  0  0  0  0  # atno 17370 bound_to 10713
  157.4700  131.0892  151.0653 LP  0  0  0  0  0  0  0  0  0  0  0  0  # atno 17371 bound_to 10713
  139.9861  134.7059  155.9772 LP  0  0  0  0  0  0  0  0  0  0  0  0  # atno 17394 bound_to 11000
  141.1558  133.6543  156.4158 LP  0  0  0  0  0  0  0  0  0  0  0  0  # atno 17395 bound_to 11000

$$$$
