AV-unprocessed.smi:2528|AV-procd|sdf|9955|dock2
  -GOLD-   2272013593D 1   1.00000     0.00000
 Structure written by MMmdl.
 44 46  0  0  0  0  0  0  0  0  2 V2000
  150.0817  140.6521  156.1831 O   0  0  0  0  0  0  0  0  0  0  0  0
  149.7010  141.8208  156.1076 C   0  0  0  0  0  0  0  0  0  0  0  0
  148.8210  142.2493  155.1911 N   0  0  0  0  0  0  0  0  0  0  0  0
  148.1872  141.4059  154.1828 C   0  0  0  0  0  0  0  0  0  0  0  0
  146.6548  141.5489  154.1918 C   0  0  1  0  0  0  0  0  0  0  0  0
  145.9778  140.4434  155.0221 C   0  0  0  0  0  0  0  0  0  0  0  0
  144.5106  140.6439  155.0509 N   0  3  1  0  0  0  0  0  0  0  0  0
  143.8066  139.5733  155.8008 C   0  0  0  0  0  0  0  0  0  0  0  0
  142.2827  139.7587  155.7272 C   0  0  0  0  0  0  0  0  0  0  0  0
  141.8779  141.1472  156.2388 C   0  0  0  0  0  0  0  0  0  0  0  0
  142.6395  142.2342  155.4682 C   0  0  0  0  0  0  0  0  0  0  0  0
  144.1627  142.0067  155.5378 C   0  0  2  0  0  0  0  0  0  0  0  0
  144.9252  143.0685  154.7205 C   0  0  0  0  0  0  0  0  0  0  0  0
  146.3221  142.8077  154.7677 O   0  0  0  0  0  0  0  0  0  0  0  0
  150.0996  142.8240  156.9094 N   0  0  0  0  0  0  0  0  0  0  0  0
  151.0064  142.7679  158.0017 C   0  0  0  0  0  0  0  0  0  0  0  0
  151.1671  143.9808  158.7094 C   0  0  0  0  0  0  0  0  0  0  0  0
  152.0416  144.0289  159.8124 C   0  0  0  0  0  0  0  0  0  0  0  0
  152.7350  142.8619  160.1795 C   0  0  0  0  0  0  0  0  0  0  0  0
  152.5194  141.6967  159.4208 C   0  0  0  0  0  0  0  0  0  0  0  0
  151.6817  141.6481  158.3633 N   0  0  0  0  0  0  0  0  0  0  0  0
  148.5645  143.2257  155.1948 H   0  0  0  0  0  0  0  0  0  0  0  0
  148.5856  141.6577  153.1985 H   0  0  0  0  0  0  0  0  0  0  0  0
  148.4689  140.3701  154.3740 H   0  0  0  0  0  0  0  0  0  0  0  0
  146.2811  141.5058  153.1671 H   0  0  0  0  0  0  0  0  0  0  0  0
  146.2024  139.4662  154.5926 H   0  0  0  0  0  0  0  0  0  0  0  0
  146.3674  140.4439  156.0415 H   0  0  0  0  0  0  0  0  0  0  0  0
  144.0752  138.6004  155.3872 H   0  0  0  0  0  0  0  0  0  0  0  0
  144.1350  139.5778  156.8413 H   0  0  0  0  0  0  0  0  0  0  0  0
  141.9472  139.6339  154.6967 H   0  0  0  0  0  0  0  0  0  0  0  0
  141.7833  138.9853  156.3114 H   0  0  0  0  0  0  0  0  0  0  0  0
  140.8026  141.2908  156.1296 H   0  0  0  0  0  0  0  0  0  0  0  0
  142.0982  141.2271  157.3040 H   0  0  0  0  0  0  0  0  0  0  0  0
  142.3131  142.2366  154.4270 H   0  0  0  0  0  0  0  0  0  0  0  0
  142.3883  143.2157  155.8724 H   0  0  0  0  0  0  0  0  0  0  0  0
  144.4796  142.0841  156.5796 H   0  0  0  0  0  0  0  0  0  0  0  0
  144.5846  143.0885  153.6837 H   0  0  0  0  0  0  0  0  0  0  0  0
  144.7436  144.0617  155.1323 H   0  0  0  0  0  0  0  0  0  0  0  0
  149.7003  143.7323  156.7247 H   0  0  0  0  0  0  0  0  0  0  0  0
  150.6261  144.8685  158.4150 H   0  0  0  0  0  0  0  0  0  0  0  0
  152.1771  144.9458  160.3668 H   0  0  0  0  0  0  0  0  0  0  0  0
  153.4142  142.8597  161.0193 H   0  0  0  0  0  0  0  0  0  0  0  0
  153.0330  140.7796  159.6684 H   0  0  0  0  0  0  0  0  0  0  0  0
  144.1913  140.5867  154.0942 H   0  0  0  0  0  0  0  0  0  0  0  0
  1  2  2  0  0  0  0
  2  3  1  0  0  0  0
  2 15  1  0  0  0  0
  3  4  1  0  0  0  0
  3 22  1  0  0  0  0
  4  5  1  0  0  0  0
  4 23  1  0  0  0  0
  4 24  1  0  0  0  0
  5 14  1  0  0  0  0
  5  6  1  0  0  0  0
  5 25  1  0  0  0  0
  6  7  1  0  0  0  0
  6 26  1  0  0  0  0
  6 27  1  0  0  0  0
  7 12  1  0  0  0  0
  7  8  1  0  0  0  0
  7 44  1  0  0  0  0
  8  9  1  0  0  0  0
  8 28  1  0  0  0  0
  8 29  1  0  0  0  0
  9 10  1  0  0  0  0
  9 30  1  0  0  0  0
  9 31  1  0  0  0  0
 10 11  1  0  0  0  0
 10 32  1  0  0  0  0
 10 33  1  0  0  0  0
 11 12  1  0  0  0  0
 11 34  1  0  0  0  0
 11 35  1  0  0  0  0
 12 13  1  0  0  0  0
 12 36  1  0  0  0  0
 13 14  1  0  0  0  0
 13 37  1  0  0  0  0
 13 38  1  0  0  0  0
 15 16  1  0  0  0  0
 15 39  1  0  0  0  0
 16 21  1  0  0  0  0
 16 17  2  0  0  0  0
 17 18  1  0  0  0  0
 17 40  1  0  0  0  0
 18 19  2  0  0  0  0
 18 41  1  0  0  0  0
 19 20  1  0  0  0  0
 19 42  1  0  0  0  0
 20 21  2  0  0  0  0
 20 43  1  0  0  0  0
M  CHG  1   7   1
M  END
> <s_m_source_file>
AV-unprocessed.smi

> <i_m_source_file_index>
2528

> <i_lp_mmshare_version>
43012

> <i_f3d_flags>
0

> <s_epik_input>
bjFbY0hdW2NIXVtjSF1bY0hdYzFbTkhdQyg9TylbTkhdW0NIMl1bQ0BIXShbQ0gyXTIpT1tDSDJdW0NAQEhdKE4yMylbQ0gyXVtDSDJdW0NIMl1bQ0gyXTM=

> <s_epik_cmdline>
J2VwaWtfcHl0aG9uJywgJy1waCcsICc3LjAnLCAnLXRuJywgJzgnLCAnLW1hJywgJzIwMCcsICctbWV0YWxfYmluZGluZycsICctaW1hZScsICc8aW5maWxlLm1hZT4nLCAnLW9tYWUnLCAnPG91dGZpbGUubWFlPic=

> <r_epik_Ionization_Penalty>
0.0932337

> <r_epik_Ionization_Penalty_Charging>
0.0931942

> <r_epik_Ionization_Penalty_Neutral>
3.9565e-05

> <r_epik_State_Penalty>
0.0834605

> <r_epik_Charging_Adjusted_Penalty>
0.176655

> <i_epik_Tot_Q>
1

> <i_epik_Tot_abs_Q>
1

> <r_epik_Metal_State_Penalty>
0.0834607

> <b_epik_Metal_Only>
0

> <s_lp_Force_Field>
OPLS_2005

> <r_lp_Energy>
24.376

> <b_lp_Chiralities_Consistent>
1

> <s_lp_Variant>
AV-unprocessed.smi:2528-8

> <Gold.Version>
5.8.1

> <Gold.Id.Protein>
6NUR|6NUR_protein|mol2

> <Gold.PLP.Fitness>
47.7147

> <Gold.PLP.PLP>
-37.1582

> <Gold.PLP.part.hbond>
-3.0000

> <Gold.PLP.part.metal>
0.0000

> <Gold.PLP.part.buried>
-5.3487

> <Gold.PLP.part.nonpolar>
-31.0408

> <Gold.PLP.part.repulsive>
0.8853

> <Gold.PLP.ligand.clash>
0.0000

> <Gold.PLP.ligand.torsion>
0.5315

> <Gold.PLP.Chemscore.Hbond>
3.8720

> <Gold.PLP.Chemscore.CHOScore>
0.0000

> <Gold.PLP.Chemscore.Metal>
0.0000

> <Gold.Chemscore.Hbonds>
donor molecule, donor type, donor heavy atom, donor atom, acceptor molecule, acceptor atom, score
      L1  H     3    22       P1  8028  1.00
      L1  H     7    44       P1 10175  2.00
      L1  H    15    39       P1  8028  0.98

> <Gold.PLP.Chemscore.Internal.Correction>
0.0035

> <Gold.Rescore>
     Score         DG    S(hbond)    S(metal)    S(lipo)     H(rot)  DE(clash)    DE(int)     intcor
     18.65     -20.36       2.92        0.00      72.14       1.29       0.01       1.70       ----

> <Gold.Chemscore.Fitness>
18.6522

> <Gold.Chemscore.DG>
-20.3616

> <Gold.Chemscore.ZeroCoef>
-5.4800

> <Gold.Chemscore.Hbond>
2.9150

> <Gold.Chemscore.Metal>
0.0000

> <Gold.Chemscore.Lipo>
72.1399

> <Gold.Chemscore.Internal_Hbond>
0.0000

> <Gold.Chemscore.DEClash>
0.0106

> <Gold.Chemscore.DEInternal>
1.6988

> <Gold.Chemscore.Rot>
1.2870

> <Gold.Chemscore.Internal.Correction>
   9.000000E+99

> <Gold.Chemscore.Hbonds>
donor molecule, donor type, donor heavy atom, donor atom, acceptor molecule, acceptor atom, score
      L1  H     3    22       P1  8028  0.92
      L1  H     7    44       P1 10175  1.00
      L1  H    15    39       P1  8028  0.92

> <Gold.Chemscore.Hbond.Weighted>
-9.7361

> <Gold.Chemscore.Metal.Weighted>
-0.0000

> <Gold.Chemscore.Lipo.Weighted>
-8.4404

> <Gold.Chemscore.Internal_Hbond.Weighted>
0.0000

> <Gold.Chemscore.DEClash.Weighted>
0.0106

> <Gold.Chemscore.DEInternal.Weighted>
1.6988

> <Gold.Chemscore.Rot.Weighted>
3.2948

> <Gold.Chemscore.Internal.Correction.Weighted>
   9.000000E+99

> <Gold.Protein.RotatedTorsions>
[ 6907 6896 6895 6894 ] final   55.20 input  -60.11 | X-H torsion
[ 7974 7965 7964 7962 ] final -128.63 input  175.53 | X-H torsion
[ 8008 7997 7996 7995 ] final   54.00 input   59.86 | X-H torsion
[ 10167 10162 10161 10158 ] final   70.03 input  -65.29 | X-H torsion
[ 10718 10713 10712 10709 ] final  -34.78 input   66.30 | X-H torsion
[ 10763 10752 10751 10750 ] final    5.03 input  -60.55 | X-H torsion
[ 11005 11000 10999 10996 ] final -165.91 input  -57.11 | X-H torsion

> <Gold.Protein.ActiveResidues>
 VAL166  LYS551  ARG553  GLY616  TRP617  ASP618  TYR619  PRO620  LYS621  CYS622 
 ASP623  PHE694  ASN695  SER759  ASP760  ASP761  ALA762  ILE779  LEU786  VAL792 
 PHE793  MET794  SER795  GLU796  ALA797  LYS798  CYS799  TRP800  GLU811  SER814 

> <Gold.Protein.RotatedAtoms>
  152.3515  134.6999  160.0234 H   0  0  0  0  0  0  0  0  0  0  0  0  # atno 6907 bound_to 6896
  151.7351  133.3314  159.3359 H   0  0  0  0  0  0  0  0  0  0  0  0  # atno 6908 bound_to 6896
  150.7543  134.6262  159.6206 H   0  0  0  0  0  0  0  0  0  0  0  0  # atno 6909 bound_to 6896
  144.9652  140.7488  143.4704 H   0  0  0  0  0  0  0  0  0  0  0  0  # atno 7974 bound_to 7965
  155.4775  140.3467  155.4335 H   0  0  0  0  0  0  0  0  0  0  0  0  # atno 8008 bound_to 7997
  156.1061  140.1448  156.9431 H   0  0  0  0  0  0  0  0  0  0  0  0  # atno 8009 bound_to 7997
  154.4725  140.0896  156.7159 H   0  0  0  0  0  0  0  0  0  0  0  0  # atno 8010 bound_to 7997
  140.0613  144.5230  150.7292 H   0  0  0  0  0  0  0  0  0  0  0  0  # atno 10167 bound_to 10162
  156.3465  130.4301  149.7741 H   0  0  0  0  0  0  0  0  0  0  0  0  # atno 10718 bound_to 10713
  153.2642  135.6926  153.7547 H   0  0  0  0  0  0  0  0  0  0  0  0  # atno 10763 bound_to 10752
  153.6594  135.3363  155.3124 H   0  0  0  0  0  0  0  0  0  0  0  0  # atno 10764 bound_to 10752
  154.8441  135.4473  154.1643 H   0  0  0  0  0  0  0  0  0  0  0  0  # atno 10765 bound_to 10752
  140.5704  134.5243  157.5161 H   0  0  0  0  0  0  0  0  0  0  0  0  # atno 11005 bound_to 11000
  145.2641  139.1980  143.4876 LP  0  0  0  0  0  0  0  0  0  0  0  0  # atno 17320 bound_to 7965
  146.3365  140.2576  142.8601 LP  0  0  0  0  0  0  0  0  0  0  0  0  # atno 17321 bound_to 7965
  140.7170  143.2554  151.4401 LP  0  0  0  0  0  0  0  0  0  0  0  0  # atno 17342 bound_to 10162
  139.5892  144.1537  152.2067 LP  0  0  0  0  0  0  0  0  0  0  0  0  # atno 17343 bound_to 10162
  156.4958  130.8106  151.3113 LP  0  0  0  0  0  0  0  0  0  0  0  0  # atno 17370 bound_to 10713
  157.7455  130.9961  150.2766 LP  0  0  0  0  0  0  0  0  0  0  0  0  # atno 17371 bound_to 10713
  139.9364  134.7867  156.0791 LP  0  0  0  0  0  0  0  0  0  0  0  0  # atno 17394 bound_to 11000
  141.1059  133.6660  156.2863 LP  0  0  0  0  0  0  0  0  0  0  0  0  # atno 17395 bound_to 11000

$$$$
