AV-unprocessed.smi:234|AV-procd|sdf|1786|dock1
  -GOLD-   2262020343D 1   1.00000     0.00000
 Structure written by MMmdl.
 59 62  0  0  0  0  0  0  0  0  1 V2000
  152.3292  143.8832  159.4323 C   0  0  0  0  0  0  0  0  0  0  0  0
  151.7851  143.4170  158.0753 C   0  0  0  0  0  0  0  0  0  0  0  0
  151.0909  142.1821  158.1859 O   0  0  0  0  0  0  0  0  0  0  0  0
  150.4059  141.7857  157.0050 C   0  0  1  0  0  0  0  0  0  0  0  0
  151.2801  141.0633  155.9767 C   0  0  0  0  0  0  0  0  0  0  0  0
  150.0522  140.1856  155.7197 C   0  0  1  0  0  0  0  0  0  0  0  0
  150.3796  138.7876  155.4293 N   0  0  0  0  0  0  0  0  0  0  0  0
  151.2931  138.5540  154.3182 C   0  0  0  0  0  0  0  0  0  0  0  0
  149.3254  137.9416  155.3599 C   0  0  0  0  0  0  0  0  0  0  0  0
  149.3397  136.7691  156.0479 N   0  0  0  0  0  0  0  0  0  0  0  0
  148.2947  135.9391  155.9749 C   0  0  0  0  0  0  0  0  0  0  0  0
  147.1587  136.0850  155.2890 N   0  0  0  0  0  0  0  0  0  0  0  0
  147.1412  137.2632  154.6018 C   0  0  0  0  0  0  0  0  0  0  0  0
  148.1711  138.2446  154.5906 C   0  0  0  0  0  0  0  0  0  0  0  0
  147.8037  139.3146  153.7854 N   0  0  0  0  0  0  0  0  0  0  0  0
  146.6226  138.9826  153.3404 C   0  0  0  0  0  0  0  0  0  0  0  0
  146.1532  137.7608  153.7698 N   0  0  0  0  0  0  0  0  0  0  0  0
  144.8818  137.1467  153.4168 C   0  0  0  0  0  0  0  0  0  0  0  0
  145.0051  136.0705  152.3056 C   0  0  1  0  0  0  0  0  0  0  0  0
  145.3502  136.7279  151.0968 O   0  0  0  0  0  0  0  0  0  0  0  0
  146.0761  135.0197  152.5859 C   0  0  0  0  0  0  0  0  0  0  0  0
  145.5577  133.7954  151.8478 C   0  0  0  0  0  0  0  0  0  0  0  0
  144.1664  133.8535  152.1079 O   0  0  0  0  0  0  0  0  0  0  0  0
  143.7383  135.2112  152.0300 C   0  0  1  0  0  0  0  0  0  0  0  0
  142.5597  135.3831  153.0010 C   0  0  0  0  0  0  0  0  0  0  0  0
  149.5955  140.4769  157.1798 C   0  0  0  0  0  0  0  0  0  0  0  0
  150.0967  139.5336  158.2892 C   0  0  0  0  0  0  0  0  0  0  0  0
  148.0939  140.6645  157.3969 C   0  0  0  0  0  0  0  0  0  0  0  0
  152.9373  144.7805  159.3155 H   0  0  0  0  0  0  0  0  0  0  0  0
  152.9554  143.1146  159.8856 H   0  0  0  0  0  0  0  0  0  0  0  0
  151.5284  144.1207  160.1319 H   0  0  0  0  0  0  0  0  0  0  0  0
  151.1573  144.1838  157.6196 H   0  0  0  0  0  0  0  0  0  0  0  0
  152.6238  143.2617  157.3964 H   0  0  0  0  0  0  0  0  0  0  0  0
  149.8044  142.5802  156.5588 H   0  0  0  0  0  0  0  0  0  0  0  0
  151.5877  141.6767  155.1297 H   0  0  0  0  0  0  0  0  0  0  0  0
  152.1236  140.5324  156.4214 H   0  0  0  0  0  0  0  0  0  0  0  0
  149.3918  140.6452  154.9811 H   0  0  0  0  0  0  0  0  0  0  0  0
  151.5121  137.4915  154.2001 H   0  0  0  0  0  0  0  0  0  0  0  0
  152.2398  139.0676  154.4866 H   0  0  0  0  0  0  0  0  0  0  0  0
  150.8665  138.9236  153.3845 H   0  0  0  0  0  0  0  0  0  0  0  0
  148.3821  135.0268  156.5461 H   0  0  0  0  0  0  0  0  0  0  0  0
  146.0604  139.6202  152.6734 H   0  0  0  0  0  0  0  0  0  0  0  0
  144.4555  136.7167  154.3234 H   0  0  0  0  0  0  0  0  0  0  0  0
  144.2024  137.9398  153.1016 H   0  0  0  0  0  0  0  0  0  0  0  0
  144.5816  137.1669  150.7657 H   0  0  0  0  0  0  0  0  0  0  0  0
  147.0803  135.3163  152.2795 H   0  0  0  0  0  0  0  0  0  0  0  0
  146.1075  134.7909  153.6517 H   0  0  0  0  0  0  0  0  0  0  0  0
  145.7396  133.8736  150.7749 H   0  0  0  0  0  0  0  0  0  0  0  0
  145.9972  132.8654  152.2091 H   0  0  0  0  0  0  0  0  0  0  0  0
  143.3748  135.3841  151.0151 H   0  0  0  0  0  0  0  0  0  0  0  0
  142.1690  136.4004  152.9780 H   0  0  0  0  0  0  0  0  0  0  0  0
  142.8475  135.1492  154.0262 H   0  0  0  0  0  0  0  0  0  0  0  0
  141.7410  134.7154  152.7318 H   0  0  0  0  0  0  0  0  0  0  0  0
  149.5543  138.5882  158.2930 H   0  0  0  0  0  0  0  0  0  0  0  0
  149.9674  139.9783  159.2763 H   0  0  0  0  0  0  0  0  0  0  0  0
  151.1551  139.2957  158.1822 H   0  0  0  0  0  0  0  0  0  0  0  0
  147.5670  139.7102  157.4189 H   0  0  0  0  0  0  0  0  0  0  0  0
  147.6463  141.2614  156.6017 H   0  0  0  0  0  0  0  0  0  0  0  0
  147.8897  141.1744  158.3389 H   0  0  0  0  0  0  0  0  0  0  0  0
  1  2  1  0  0  0  0
  1 29  1  0  0  0  0
  1 30  1  0  0  0  0
  1 31  1  0  0  0  0
  2  3  1  0  0  0  0
  2 32  1  0  0  0  0
  2 33  1  0  0  0  0
  3  4  1  0  0  0  0
  4 26  1  0  0  0  0
  4  5  1  0  0  0  0
  4 34  1  0  0  0  0
  5  6  1  0  0  0  0
  5 35  1  0  0  0  0
  5 36  1  0  0  0  0
  6  7  1  0  0  0  0
  6 26  1  0  0  0  0
  6 37  1  0  0  0  0
  7  8  1  0  0  0  0
  7  9  1  0  0  0  0
  8 38  1  0  0  0  0
  8 39  1  0  0  0  0
  8 40  1  0  0  0  0
  9 14  1  0  0  0  0
  9 10  2  0  0  0  0
 10 11  1  0  0  0  0
 11 12  2  0  0  0  0
 11 41  1  0  0  0  0
 12 13  1  0  0  0  0
 13 17  1  0  0  0  0
 13 14  2  0  0  0  0
 14 15  1  0  0  0  0
 15 16  2  0  0  0  0
 16 17  1  0  0  0  0
 16 42  1  0  0  0  0
 17 18  1  0  0  0  0
 18 19  1  0  0  0  0
 18 43  1  0  0  0  0
 18 44  1  0  0  0  0
 19 24  1  0  0  0  0
 19 20  1  0  0  0  0
 19 21  1  0  0  0  0
 20 45  1  0  0  0  0
 21 22  1  0  0  0  0
 21 46  1  0  0  0  0
 21 47  1  0  0  0  0
 22 23  1  0  0  0  0
 22 48  1  0  0  0  0
 22 49  1  0  0  0  0
 23 24  1  0  0  0  0
 24 25  1  0  0  0  0
 24 50  1  0  0  0  0
 25 51  1  0  0  0  0
 25 52  1  0  0  0  0
 25 53  1  0  0  0  0
 26 27  1  0  0  0  0
 26 28  1  0  0  0  0
 27 54  1  0  0  0  0
 27 55  1  0  0  0  0
 27 56  1  0  0  0  0
 28 57  1  0  0  0  0
 28 58  1  0  0  0  0
 28 59  1  0  0  0  0
M  END
> <s_m_source_file>
AV-unprocessed.smi

> <i_m_source_file_index>
234

> <i_lp_mmshare_version>
43012

> <i_f3d_flags>
0

> <s_epik_input>
W0NIM11bQ0gyXU9bQ0BASF0oQzEoW0NIM10pW0NIM10pW0NIMl1bQ0BIXTFOKFtDSDNdKWMobltjSF1uMiljKGMyMyluW2NIXW4zW0NIMl1bQ0BAXTQoW09IXSlbQ0gyXVtDSDJdT1tDQEhdNFtDSDNd

> <s_epik_cmdline>
J2VwaWtfcHl0aG9uJywgJy1waCcsICc3LjAnLCAnLXRuJywgJzgnLCAnLW1hJywgJzIwMCcsICctbWV0YWxfYmluZGluZycsICctaW1hZScsICc8aW5maWxlLm1hZT4nLCAnLW9tYWUnLCAnPG91dGZpbGUubWFlPic=

> <r_lp_tautomer_probability>
1

> <r_epik_Ionization_Penalty>
0.00349132

> <r_epik_Ionization_Penalty_Charging>
0

> <r_epik_Ionization_Penalty_Neutral>
0.00349132

> <r_epik_State_Penalty>
0.00242418

> <r_epik_Charging_Adjusted_Penalty>
0.00242418

> <i_epik_Tot_Q>
0

> <i_epik_Tot_abs_Q>
0

> <r_epik_Metal_State_Penalty>
-0

> <b_epik_Metal_Only>
0

> <s_lp_Force_Field>
OPLS_2005

> <r_lp_Energy>
47.6345

> <b_lp_Chiralities_Consistent>
1

> <s_lp_Variant>
AV-unprocessed.smi:234-2

> <Gold.Version>
5.8.1

> <Gold.Id.Protein>
6NUR|6NUR_protein|mol2

> <Gold.PLP.Fitness>
39.3918

> <Gold.PLP.PLP>
-34.8284

> <Gold.PLP.part.hbond>
-1.0000

> <Gold.PLP.part.metal>
0.0000

> <Gold.PLP.part.buried>
-8.0015

> <Gold.PLP.part.nonpolar>
-27.3650

> <Gold.PLP.part.repulsive>
0.5071

> <Gold.PLP.ligand.clash>
0.0000

> <Gold.PLP.ligand.torsion>
1.1468

> <Gold.PLP.Chemscore.Hbond>
1.0000

> <Gold.PLP.Chemscore.CHOScore>
1.0000

> <Gold.PLP.Chemscore.Metal>
0.0000

> <Gold.Chemscore.Hbonds>
donor molecule, donor type, donor heavy atom, donor atom, acceptor molecule, acceptor atom, score
      L1  H    20    45       P1 10171  0.96
      L1  C    16    42       P1 10175  1.00

> <Gold.PLP.Chemscore.Internal.Correction>
0.8569

> <Gold.Rescore>
     Score         DG    S(hbond)    S(metal)    S(lipo)     H(rot)  DE(clash)    DE(int)     intcor
     11.24     -12.38       0.99        0.00      87.92       2.62       0.06       1.08       ----

> <Gold.Chemscore.Fitness>
11.2361

> <Gold.Chemscore.DG>
-12.3757

> <Gold.Chemscore.ZeroCoef>
-5.4800

> <Gold.Chemscore.Hbond>
0.9943

> <Gold.Chemscore.Metal>
0.0000

> <Gold.Chemscore.Lipo>
87.9213

> <Gold.Chemscore.Internal_Hbond>
0.0000

> <Gold.Chemscore.DEClash>
0.0572

> <Gold.Chemscore.DEInternal>
1.0823

> <Gold.Chemscore.Rot>
2.6219

> <Gold.Chemscore.Internal.Correction>
   9.000000E+99

> <Gold.Chemscore.Hbonds>
donor molecule, donor type, donor heavy atom, donor atom, acceptor molecule, acceptor atom, score
      L1  H    20    45       P1 10171  0.92

> <Gold.Chemscore.Hbond.Weighted>
-3.3210

> <Gold.Chemscore.Metal.Weighted>
-0.0000

> <Gold.Chemscore.Lipo.Weighted>
-10.2868

> <Gold.Chemscore.Internal_Hbond.Weighted>
0.0000

> <Gold.Chemscore.DEClash.Weighted>
0.0572

> <Gold.Chemscore.DEInternal.Weighted>
1.0823

> <Gold.Chemscore.Rot.Weighted>
6.7121

> <Gold.Chemscore.Internal.Correction.Weighted>
   9.000000E+99

> <Gold.Protein.RotatedTorsions>
[ 6907 6896 6895 6894 ] final  162.52 input  -60.11 | X-H torsion
[ 7974 7965 7964 7962 ] final -136.60 input  175.53 | X-H torsion
[ 8008 7997 7996 7995 ] final  146.97 input   59.86 | X-H torsion
[ 10167 10162 10161 10158 ] final  -74.12 input  -65.29 | X-H torsion
[ 10718 10713 10712 10709 ] final  107.20 input   66.30 | X-H torsion
[ 10763 10752 10751 10750 ] final  -96.50 input  -60.55 | X-H torsion
[ 11005 11000 10999 10996 ] final  -60.86 input  -57.11 | X-H torsion

> <Gold.Protein.ActiveResidues>
 VAL166  LYS551  ARG553  GLY616  TRP617  ASP618  TYR619  PRO620  LYS621  CYS622 
 ASP623  PHE694  ASN695  SER759  ASP760  ASP761  ALA762  ILE779  LEU786  VAL792 
 PHE793  MET794  SER795  GLU796  ALA797  LYS798  CYS799  TRP800  GLU811  SER814 

> <Gold.Protein.RotatedAtoms>
  151.9392  133.3633  159.3958 H   0  0  0  0  0  0  0  0  0  0  0  0  # atno 6907 bound_to 6896
  150.7002  134.4457  159.5322 H   0  0  0  0  0  0  0  0  0  0  0  0  # atno 6908 bound_to 6896
  152.2111  134.8501  160.0548 H   0  0  0  0  0  0  0  0  0  0  0  0  # atno 6909 bound_to 6896
  144.8913  140.6646  143.5143 H   0  0  0  0  0  0  0  0  0  0  0  0  # atno 7974 bound_to 7965
  156.2839  140.2168  156.5463 H   0  0  0  0  0  0  0  0  0  0  0  0  # atno 8008 bound_to 7997
  154.7328  140.0494  157.0764 H   0  0  0  0  0  0  0  0  0  0  0  0  # atno 8009 bound_to 7997
  155.0332  140.3137  155.4754 H   0  0  0  0  0  0  0  0  0  0  0  0  # atno 8010 bound_to 7997
  140.5054  143.2354  151.7683 H   0  0  0  0  0  0  0  0  0  0  0  0  # atno 10167 bound_to 10162
  157.6638  131.0867  150.6121 H   0  0  0  0  0  0  0  0  0  0  0  0  # atno 10718 bound_to 10713
  154.7245  135.5081  153.8864 H   0  0  0  0  0  0  0  0  0  0  0  0  # atno 10763 bound_to 10752
  153.0892  135.6654  153.9896 H   0  0  0  0  0  0  0  0  0  0  0  0  # atno 10764 bound_to 10752
  153.9711  135.3038  155.3406 H   0  0  0  0  0  0  0  0  0  0  0  0  # atno 10765 bound_to 10752
  141.1303  133.6625  156.5288 H   0  0  0  0  0  0  0  0  0  0  0  0  # atno 11005 bound_to 11000
  145.3778  139.1644  143.4297 LP  0  0  0  0  0  0  0  0  0  0  0  0  # atno 17320 bound_to 7965
  146.3055  140.3856  142.8689 LP  0  0  0  0  0  0  0  0  0  0  0  0  # atno 17321 bound_to 7965
  139.4882  144.4465  151.9704 LP  0  0  0  0  0  0  0  0  0  0  0  0  # atno 17342 bound_to 10162
  140.3555  144.3036  150.5942 LP  0  0  0  0  0  0  0  0  0  0  0  0  # atno 17343 bound_to 10162
  156.6423  130.4462  149.5748 LP  0  0  0  0  0  0  0  0  0  0  0  0  # atno 17370 bound_to 10713
  156.2200  130.6731  151.1358 LP  0  0  0  0  0  0  0  0  0  0  0  0  # atno 17371 bound_to 10713
  140.4233  134.7168  157.4902 LP  0  0  0  0  0  0  0  0  0  0  0  0  # atno 17394 bound_to 11000
  140.0345  134.6358  155.9062 LP  0  0  0  0  0  0  0  0  0  0  0  0  # atno 17395 bound_to 11000

$$$$
