AV-unprocessed.smi:3343|AV-procd|sdf|12892|dock6
  -GOLD-   2272019303D 1   1.00000     0.00000
 Structure written by MMmdl.
 42 43  0  0  0  0  0  0  0  0  2 V2000
  147.7217  134.6318  159.1307 C   0  0  0  0  0  0  0  0  0  0  0  0
  147.9282  135.9891  159.8276 C   0  0  1  0  0  0  0  0  0  0  0  0
  146.9834  137.0751  159.2937 C   0  0  0  0  0  0  0  0  0  0  0  0
  146.1863  137.6384  160.0455 O   0  0  0  0  0  0  0  0  0  0  0  0
  147.1060  137.3816  157.9927 N   0  0  0  0  0  0  0  0  0  0  0  0
  146.3739  138.4432  157.3148 C   0  0  0  0  0  0  0  0  0  0  0  0
  145.8088  137.9391  155.9737 C   0  0  0  0  0  0  0  0  0  0  0  0
  146.7535  137.0799  155.2564 N   0  0  0  0  0  0  0  0  0  0  0  0
  146.1910  136.3713  154.1005 C   0  0  0  0  0  0  0  0  0  0  0  0
  145.8437  137.3275  152.9397 C   0  0  0  0  0  0  0  0  0  0  0  0
  147.0415  138.0942  152.5247 N   0  3  0  0  0  0  0  0  0  0  0  0
  146.7782  138.9887  151.3774 C   0  0  0  0  0  0  0  0  0  0  0  0
  147.6340  138.8058  153.6810 C   0  0  0  0  0  0  0  0  0  0  0  0
  147.9456  137.8146  154.8233 C   0  0  0  0  0  0  0  0  0  0  0  0
  147.7720  135.8718  161.2708 N   0  0  0  0  0  0  0  0  0  0  0  0
  147.4310  134.8284  162.0328 C   0  0  0  0  0  0  0  0  0  0  0  0
  147.3537  135.1096  163.3258 N   0  0  0  0  0  0  0  0  0  0  0  0
  147.6799  136.4357  163.2901 C   0  0  0  0  0  0  0  0  0  0  0  0
  147.9330  136.9434  162.0837 N   0  0  0  0  0  0  0  0  0  0  0  0
  147.8435  134.7207  158.0506 H   0  0  0  0  0  0  0  0  0  0  0  0
  146.7291  134.2219  159.3203 H   0  0  0  0  0  0  0  0  0  0  0  0
  148.4513  133.9017  159.4823 H   0  0  0  0  0  0  0  0  0  0  0  0
  148.9526  136.3076  159.6233 H   0  0  0  0  0  0  0  0  0  0  0  0
  147.7837  136.8703  157.4454 H   0  0  0  0  0  0  0  0  0  0  0  0
  145.5613  138.7679  157.9655 H   0  0  0  0  0  0  0  0  0  0  0  0
  147.0317  139.3024  157.1815 H   0  0  0  0  0  0  0  0  0  0  0  0
  144.8561  137.4345  156.1292 H   0  0  0  0  0  0  0  0  0  0  0  0
  145.5946  138.8090  155.3510 H   0  0  0  0  0  0  0  0  0  0  0  0
  146.9253  135.6411  153.7574 H   0  0  0  0  0  0  0  0  0  0  0  0
  145.3144  135.7939  154.3908 H   0  0  0  0  0  0  0  0  0  0  0  0
  145.4814  136.7457  152.0916 H   0  0  0  0  0  0  0  0  0  0  0  0
  145.0358  138.0065  153.2151 H   0  0  0  0  0  0  0  0  0  0  0  0
  146.0422  139.7512  151.6361 H   0  0  0  0  0  0  0  0  0  0  0  0
  146.3994  138.4214  150.5268 H   0  0  0  0  0  0  0  0  0  0  0  0
  147.6940  139.4900  151.0626 H   0  0  0  0  0  0  0  0  0  0  0  0
  148.5572  139.2935  153.3661 H   0  0  0  0  0  0  0  0  0  0  0  0
  146.9644  139.5982  154.0185 H   0  0  0  0  0  0  0  0  0  0  0  0
  148.3836  138.3402  155.6728 H   0  0  0  0  0  0  0  0  0  0  0  0
  148.6959  137.0968  154.4893 H   0  0  0  0  0  0  0  0  0  0  0  0
  147.2280  133.8457  161.6322 H   0  0  0  0  0  0  0  0  0  0  0  0
  147.7268  137.0464  164.1798 H   0  0  0  0  0  0  0  0  0  0  0  0
  147.7269  137.4183  152.2189 H   0  0  0  0  0  0  0  0  0  0  0  0
  1  2  1  0  0  0  0
  1 20  1  0  0  0  0
  1 21  1  0  0  0  0
  1 22  1  0  0  0  0
  2  3  1  0  0  0  0
  2 15  1  0  0  0  0
  2 23  1  0  0  0  0
  3  4  2  0  0  0  0
  3  5  1  0  0  0  0
  5  6  1  0  0  0  0
  5 24  1  0  0  0  0
  6  7  1  0  0  0  0
  6 25  1  0  0  0  0
  6 26  1  0  0  0  0
  7  8  1  0  0  0  0
  7 27  1  0  0  0  0
  7 28  1  0  0  0  0
  8 14  1  0  0  0  0
  8  9  1  0  0  0  0
  9 10  1  0  0  0  0
  9 29  1  0  0  0  0
  9 30  1  0  0  0  0
 10 11  1  0  0  0  0
 10 31  1  0  0  0  0
 10 32  1  0  0  0  0
 11 12  1  0  0  0  0
 11 13  1  0  0  0  0
 11 42  1  0  0  0  0
 12 33  1  0  0  0  0
 12 34  1  0  0  0  0
 12 35  1  0  0  0  0
 13 14  1  0  0  0  0
 13 36  1  0  0  0  0
 13 37  1  0  0  0  0
 14 38  1  0  0  0  0
 14 39  1  0  0  0  0
 15 19  1  0  0  0  0
 15 16  1  0  0  0  0
 16 17  2  0  0  0  0
 16 40  1  0  0  0  0
 17 18  1  0  0  0  0
 18 19  2  0  0  0  0
 18 41  1  0  0  0  0
M  CHG  1  11   1
M  END
> <s_m_source_file>
AV-unprocessed.smi

> <i_m_source_file_index>
3343

> <i_lp_mmshare_version>
43012

> <i_f3d_flags>
0

> <s_epik_input>
bjFbY0hdbltjSF1uMVtDQEhdKFtDSDNdKUMoPU8pW05IXVtDSDJdW0NIMl1OMltDSDJdW0NIMl1OKFtDSDNdKVtDSDJdW0NIMl0y

> <s_epik_cmdline>
J2VwaWtfcHl0aG9uJywgJy1waCcsICc3LjAnLCAnLXRuJywgJzgnLCAnLW1hJywgJzIwMCcsICctbWV0YWxfYmluZGluZycsICctaW1hZScsICc8aW5maWxlLm1hZT4nLCAnLW9tYWUnLCAnPG91dGZpbGUubWFlPic=

> <r_lp_tautomer_probability>
1

> <r_epik_Ionization_Penalty>
0.0359277

> <r_epik_Ionization_Penalty_Charging>
0.0358005

> <r_epik_Ionization_Penalty_Neutral>
0.000127293

> <r_epik_State_Penalty>
0.0476325

> <r_epik_Charging_Adjusted_Penalty>
0.0834329

> <i_epik_Tot_Q>
1

> <i_epik_Tot_abs_Q>
1

> <r_epik_Metal_State_Penalty>
0.0476323

> <b_epik_Metal_Only>
0

> <s_lp_Force_Field>
OPLS_2005

> <r_lp_Energy>
19.669

> <b_lp_Chiralities_Consistent>
1

> <s_lp_Variant>
AV-unprocessed.smi:3343-2

> <Gold.Version>
5.8.1

> <Gold.Id.Protein>
6NUR|6NUR_protein|mol2

> <Gold.PLP.Fitness>
38.1421

> <Gold.PLP.PLP>
-26.5564

> <Gold.PLP.part.hbond>
-3.6324

> <Gold.PLP.part.metal>
0.0000

> <Gold.PLP.part.buried>
-2.9258

> <Gold.PLP.part.nonpolar>
-20.1476

> <Gold.PLP.part.repulsive>
0.1699

> <Gold.PLP.ligand.clash>
0.0000

> <Gold.PLP.ligand.torsion>
0.2572

> <Gold.PLP.Chemscore.Hbond>
4.0000

> <Gold.PLP.Chemscore.CHOScore>
0.0000

> <Gold.PLP.Chemscore.Metal>
0.0000

> <Gold.Chemscore.Hbonds>
donor molecule, donor type, donor heavy atom, donor atom, acceptor molecule, acceptor atom, score
      L1  H    11    42       P1  7948  2.00
      P1  H  6931  6943       L1    19  1.00
      P1  H  6934  6947       L1     4  1.00

> <Gold.PLP.Chemscore.Internal.Correction>
0.1001

> <Gold.Rescore>
     Score         DG    S(hbond)    S(metal)    S(lipo)     H(rot)  DE(clash)    DE(int)     intcor
     10.09     -11.81       2.84        0.00      30.66       2.63       0.05       1.68       ----

> <Gold.Chemscore.Fitness>
10.0904

> <Gold.Chemscore.DG>
-11.8146

> <Gold.Chemscore.ZeroCoef>
-5.4800

> <Gold.Chemscore.Hbond>
2.8368

> <Gold.Chemscore.Metal>
0.0000

> <Gold.Chemscore.Lipo>
30.6568

> <Gold.Chemscore.Internal_Hbond>
0.0000

> <Gold.Chemscore.DEClash>
0.0486

> <Gold.Chemscore.DEInternal>
1.6756

> <Gold.Chemscore.Rot>
2.6278

> <Gold.Chemscore.Internal.Correction>
   9.000000E+99

> <Gold.Chemscore.Hbonds>
donor molecule, donor type, donor heavy atom, donor atom, acceptor molecule, acceptor atom, score
      L1  H    11    42       P1  7948  1.00
      P1  H  6931  6943       L1    19  0.96
      P1  H  6934  6947       L1     4  0.59

> <Gold.Chemscore.Hbond.Weighted>
-9.4749

> <Gold.Chemscore.Metal.Weighted>
-0.0000

> <Gold.Chemscore.Lipo.Weighted>
-3.5868

> <Gold.Chemscore.Internal_Hbond.Weighted>
0.0000

> <Gold.Chemscore.DEClash.Weighted>
0.0486

> <Gold.Chemscore.DEInternal.Weighted>
1.6756

> <Gold.Chemscore.Rot.Weighted>
6.7271

> <Gold.Chemscore.Internal.Correction.Weighted>
   9.000000E+99

> <Gold.Protein.RotatedTorsions>
[ 6907 6896 6895 6894 ] final -145.84 input  -60.11 | X-H torsion
[ 7974 7965 7964 7962 ] final  100.12 input  175.53 | X-H torsion
[ 8008 7997 7996 7995 ] final  130.97 input   59.86 | X-H torsion
[ 10167 10162 10161 10158 ] final  129.27 input  -65.29 | X-H torsion
[ 10718 10713 10712 10709 ] final    2.82 input   66.30 | X-H torsion
[ 10763 10752 10751 10750 ] final -104.75 input  -60.55 | X-H torsion
[ 11005 11000 10999 10996 ] final  -65.08 input  -57.11 | X-H torsion

> <Gold.Protein.ActiveResidues>
 VAL166  LYS551  ARG553  GLY616  TRP617  ASP618  TYR619  PRO620  LYS621  CYS622 
 ASP623  PHE694  ASN695  SER759  ASP760  ASP761  ALA762  ILE779  LEU786  VAL792 
 PHE793  MET794  SER795  GLU796  ALA797  LYS798  CYS799  TRP800  GLU811  SER814 

> <Gold.Protein.RotatedAtoms>
  151.1333  133.5021  159.2598 H   0  0  0  0  0  0  0  0  0  0  0  0  # atno 6907 bound_to 6896
  151.1733  135.0327  159.8771 H   0  0  0  0  0  0  0  0  0  0  0  0  # atno 6908 bound_to 6896
  152.5460  134.1194  159.8446 H   0  0  0  0  0  0  0  0  0  0  0  0  # atno 6909 bound_to 6896
  145.3898  139.2365  143.3358 H   0  0  0  0  0  0  0  0  0  0  0  0  # atno 7974 bound_to 7965
  156.2963  140.2583  156.2850 H   0  0  0  0  0  0  0  0  0  0  0  0  # atno 8008 bound_to 7997
  154.9565  140.0393  157.2188 H   0  0  0  0  0  0  0  0  0  0  0  0  # atno 8009 bound_to 7997
  154.7987  140.2824  155.5942 H   0  0  0  0  0  0  0  0  0  0  0  0  # atno 8010 bound_to 7997
  139.5486  144.6794  151.4394 H   0  0  0  0  0  0  0  0  0  0  0  0  # atno 10167 bound_to 10162
  156.8687  130.5612  149.5658 H   0  0  0  0  0  0  0  0  0  0  0  0  # atno 10718 bound_to 10713
  154.7900  135.4774  154.0031 H   0  0  0  0  0  0  0  0  0  0  0  0  # atno 10763 bound_to 10752
  153.1616  135.6809  153.8741 H   0  0  0  0  0  0  0  0  0  0  0  0  # atno 10764 bound_to 10752
  153.8353  135.3186  155.3400 H   0  0  0  0  0  0  0  0  0  0  0  0  # atno 10765 bound_to 10752
  141.1444  133.6676  156.5931 H   0  0  0  0  0  0  0  0  0  0  0  0  # atno 11005 bound_to 11000
  146.2803  140.4579  142.8779 LP  0  0  0  0  0  0  0  0  0  0  0  0  # atno 17320 bound_to 7965
  144.8448  140.6913  143.6206 LP  0  0  0  0  0  0  0  0  0  0  0  0  # atno 17321 bound_to 7965
  140.6742  143.8227  150.7037 LP  0  0  0  0  0  0  0  0  0  0  0  0  # atno 17342 bound_to 10162
  140.1660  143.4235  152.2034 LP  0  0  0  0  0  0  0  0  0  0  0  0  # atno 17343 bound_to 10162
  156.0738  130.5765  150.9434 LP  0  0  0  0  0  0  0  0  0  0  0  0  # atno 17370 bound_to 10713
  157.6208  131.0930  150.8626 LP  0  0  0  0  0  0  0  0  0  0  0  0  # atno 17371 bound_to 10713
  140.3747  134.7575  157.4622 LP  0  0  0  0  0  0  0  0  0  0  0  0  # atno 17394 bound_to 11000
  140.0683  134.5898  155.8670 LP  0  0  0  0  0  0  0  0  0  0  0  0  # atno 17395 bound_to 11000

$$$$
