AV-unprocessed.smi:1749|AV-procd|sdf|7049|dock2
  -GOLD-   22720 8263D 1   1.00000     0.00000
 Structure written by MMmdl.
 31 32  0  0  0  0  0  0  0  0  2 V2000
  151.7485  145.3164  160.5114 C   0  0  0  0  0  0  0  0  0  0  0  0
  152.4926  144.0364  160.1054 C   0  0  1  0  0  0  0  0  0  0  0  0
  152.7971  143.1489  161.3274 C   0  0  0  0  0  0  0  0  0  0  0  0
  153.5453  141.8700  160.9206 C   0  0  0  0  0  0  0  0  0  0  0  0
  152.7648  141.0831  159.8572 C   0  0  0  0  0  0  0  0  0  0  0  0
  152.4580  141.9559  158.6267 C   0  0  1  0  0  0  0  0  0  0  0  0
  151.6725  141.1815  157.6701 N   0  0  0  0  0  0  0  0  0  0  0  0
  152.0109  139.9943  157.1294 C   0  0  0  0  0  0  0  0  0  0  0  0
  153.0925  139.4899  157.4285 O   0  0  0  0  0  0  0  0  0  0  0  0
  151.1296  139.4125  156.2734 N   0  5  0  0  0  0  0  0  0  0  0  0
  150.2492  140.1231  155.5444 C   0  0  0  0  0  0  0  0  0  0  0  0
  150.2797  140.1510  154.2023 N   0  0  0  0  0  0  0  0  0  0  0  0
  149.2867  140.9488  153.6501 N   0  0  0  0  0  0  0  0  0  0  0  0
  148.5220  141.4961  154.5945 C   0  0  0  0  0  0  0  0  0  0  0  0
  148.9452  141.0867  156.2433 S   0  0  0  0  0  0  0  0  0  0  0  0
  151.7105  143.2407  159.0418 C   0  0  0  0  0  0  0  0  0  0  0  0
  150.7828  145.0883  160.9632 H   0  0  0  0  0  0  0  0  0  0  0  0
  151.5690  145.9559  159.6466 H   0  0  0  0  0  0  0  0  0  0  0  0
  152.3263  145.8937  161.2335 H   0  0  0  0  0  0  0  0  0  0  0  0
  153.4438  144.3376  159.6639 H   0  0  0  0  0  0  0  0  0  0  0  0
  153.3914  143.7040  162.0539 H   0  0  0  0  0  0  0  0  0  0  0  0
  151.8666  142.8806  161.8298 H   0  0  0  0  0  0  0  0  0  0  0  0
  154.5308  142.1299  160.5322 H   0  0  0  0  0  0  0  0  0  0  0  0
  153.7137  141.2431  161.7967 H   0  0  0  0  0  0  0  0  0  0  0  0
  153.3354  140.2028  159.5586 H   0  0  0  0  0  0  0  0  0  0  0  0
  151.8335  140.7152  160.2910 H   0  0  0  0  0  0  0  0  0  0  0  0
  153.4067  142.2317  158.1624 H   0  0  0  0  0  0  0  0  0  0  0  0
  150.7840  141.5747  157.3962 H   0  0  0  0  0  0  0  0  0  0  0  0
  147.7031  142.1435  154.3190 H   0  0  0  0  0  0  0  0  0  0  0  0
  150.7240  142.9820  159.4299 H   0  0  0  0  0  0  0  0  0  0  0  0
  151.5406  143.8701  158.1673 H   0  0  0  0  0  0  0  0  0  0  0  0
  1  2  1  0  0  0  0
  1 17  1  0  0  0  0
  1 18  1  0  0  0  0
  1 19  1  0  0  0  0
  2 16  1  0  0  0  0
  2  3  1  0  0  0  0
  2 20  1  0  0  0  0
  3  4  1  0  0  0  0
  3 21  1  0  0  0  0
  3 22  1  0  0  0  0
  4  5  1  0  0  0  0
  4 23  1  0  0  0  0
  4 24  1  0  0  0  0
  5  6  1  0  0  0  0
  5 25  1  0  0  0  0
  5 26  1  0  0  0  0
  6  7  1  0  0  0  0
  6 16  1  0  0  0  0
  6 27  1  0  0  0  0
  7  8  1  0  0  0  0
  7 28  1  0  0  0  0
  8  9  2  0  0  0  0
  8 10  1  0  0  0  0
 10 11  1  0  0  0  0
 11 15  1  0  0  0  0
 11 12  2  0  0  0  0
 12 13  1  0  0  0  0
 13 14  2  0  0  0  0
 14 15  1  0  0  0  0
 14 29  1  0  0  0  0
 16 30  1  0  0  0  0
 16 31  1  0  0  0  0
M  CHG  1  10  -1
M  END
> <s_m_source_file>
AV-unprocessed.smi

> <i_m_source_file_index>
1749

> <i_lp_mmshare_version>
43012

> <i_f3d_flags>
0

> <s_epik_input>
W0NIM11bQ0BASF0xW0NIMl1bQ0gyXVtDSDJdW0NASF0oW0NIMl0xKVtOSF1DKD1PKVtOSF1jMm5uW2NIXXMy

> <s_epik_cmdline>
J2VwaWtfcHl0aG9uJywgJy1waCcsICc3LjAnLCAnLXRuJywgJzgnLCAnLW1hJywgJzIwMCcsICctbWV0YWxfYmluZGluZycsICctaW1hZScsICc8aW5maWxlLm1hZT4nLCAnLW9tYWUnLCAnPG91dGZpbGUubWFlPic=

> <r_lp_tautomer_probability>
1

> <r_epik_Ionization_Penalty>
4.55442

> <r_epik_Ionization_Penalty_Charging>
4.5081

> <r_epik_Ionization_Penalty_Neutral>
0.0463156

> <r_epik_State_Penalty>
4.50781

> <r_epik_Charging_Adjusted_Penalty>
9.01591

> <i_epik_Tot_Q>
-1

> <i_epik_Tot_abs_Q>
1

> <r_epik_Metal_State_Penalty>
0.823335

> <b_epik_Metal_Only>
1

> <s_lp_Force_Field>
OPLS_2005

> <r_lp_Energy>
8.86437

> <b_lp_Chiralities_Consistent>
1

> <s_lp_Variant>
AV-unprocessed.smi:1749-6

> <Gold.Version>
5.8.1

> <Gold.Id.Protein>
6NUR|6NUR_protein|mol2

> <Gold.PLP.Fitness>
40.6249

> <Gold.PLP.PLP>
-33.2713

> <Gold.PLP.part.hbond>
-3.9335

> <Gold.PLP.part.metal>
0.0000

> <Gold.PLP.part.buried>
-5.2800

> <Gold.PLP.part.nonpolar>
-27.3123

> <Gold.PLP.part.repulsive>
4.2692

> <Gold.PLP.ligand.clash>
0.0000

> <Gold.PLP.ligand.torsion>
0.7691

> <Gold.PLP.Chemscore.Hbond>
2.9600

> <Gold.PLP.Chemscore.CHOScore>
0.0000

> <Gold.PLP.Chemscore.Metal>
0.0000

> <Gold.Chemscore.Hbonds>
donor molecule, donor type, donor heavy atom, donor atom, acceptor molecule, acceptor atom, score
      P1  H  7989  7998       L1    12  0.90
      P1  H  7997  8009       L1     9  1.00
      P1  H  8011  8017       L1    13  0.99

> <Gold.PLP.Chemscore.Internal.Correction>
0.0117

> <Gold.Rescore>
     Score         DG    S(hbond)    S(metal)    S(lipo)     H(rot)  DE(clash)    DE(int)     intcor
     17.68     -20.02       2.18        0.00      83.93       1.00       0.21       2.12       ----

> <Gold.Chemscore.Fitness>
17.6806

> <Gold.Chemscore.DG>
-20.0178

> <Gold.Chemscore.ZeroCoef>
-5.4800

> <Gold.Chemscore.Hbond>
2.1790

> <Gold.Chemscore.Metal>
0.0000

> <Gold.Chemscore.Lipo>
83.9325

> <Gold.Chemscore.Internal_Hbond>
0.0000

> <Gold.Chemscore.DEClash>
0.2144

> <Gold.Chemscore.DEInternal>
2.1228

> <Gold.Chemscore.Rot>
1.0000

> <Gold.Chemscore.Internal.Correction>
   9.000000E+99

> <Gold.Chemscore.Hbonds>
donor molecule, donor type, donor heavy atom, donor atom, acceptor molecule, acceptor atom, score
      P1  H  7989  7998       L1    12  0.16
      P1  H  7997  8009       L1     9  0.99
      P1  H  8011  8017       L1    13  0.56

> <Gold.Chemscore.Hbond.Weighted>
-7.2777

> <Gold.Chemscore.Metal.Weighted>
-0.0000

> <Gold.Chemscore.Lipo.Weighted>
-9.8201

> <Gold.Chemscore.Internal_Hbond.Weighted>
0.0000

> <Gold.Chemscore.DEClash.Weighted>
0.2144

> <Gold.Chemscore.DEInternal.Weighted>
2.1228

> <Gold.Chemscore.Rot.Weighted>
2.5600

> <Gold.Chemscore.Internal.Correction.Weighted>
   9.000000E+99

> <Gold.Protein.RotatedTorsions>
[ 6907 6896 6895 6894 ] final -175.98 input  -60.11 | X-H torsion
[ 7974 7965 7964 7962 ] final -100.26 input  175.53 | X-H torsion
[ 8008 7997 7996 7995 ] final  155.41 input   59.86 | X-H torsion
[ 10167 10162 10161 10158 ] final  125.56 input  -65.29 | X-H torsion
[ 10718 10713 10712 10709 ] final -167.25 input   66.30 | X-H torsion
[ 10763 10752 10751 10750 ] final -148.07 input  -60.55 | X-H torsion
[ 11005 11000 10999 10996 ] final   99.36 input  -57.11 | X-H torsion

> <Gold.Protein.ActiveResidues>
 VAL166  LYS551  ARG553  GLY616  TRP617  ASP618  TYR619  PRO620  LYS621  CYS622 
 ASP623  PHE694  ASN695  SER759  ASP760  ASP761  ALA762  ILE779  LEU786  VAL792 
 PHE793  MET794  SER795  GLU796  ALA797  LYS798  CYS799  TRP800  GLU811  SER814 

> <Gold.Protein.RotatedAtoms>
  151.5974  133.3360  159.3040 H   0  0  0  0  0  0  0  0  0  0  0  0  # atno 6907 bound_to 6896
  150.8226  134.7445  159.6797 H   0  0  0  0  0  0  0  0  0  0  0  0  # atno 6908 bound_to 6896
  152.4319  134.5768  159.9988 H   0  0  0  0  0  0  0  0  0  0  0  0  # atno 6909 bound_to 6896
  145.2968  140.9367  143.2846 H   0  0  0  0  0  0  0  0  0  0  0  0  # atno 7974 bound_to 7965
  156.2479  140.1940  156.6797 H   0  0  0  0  0  0  0  0  0  0  0  0  # atno 8008 bound_to 7997
  154.6331  140.0593  156.9782 H   0  0  0  0  0  0  0  0  0  0  0  0  # atno 8009 bound_to 7997
  155.1679  140.3265  155.4401 H   0  0  0  0  0  0  0  0  0  0  0  0  # atno 8010 bound_to 7997
  139.5679  144.6922  151.3859 H   0  0  0  0  0  0  0  0  0  0  0  0  # atno 10167 bound_to 10162
  156.6796  130.9116  151.3055 H   0  0  0  0  0  0  0  0  0  0  0  0  # atno 10718 bound_to 10713
  154.8252  135.3344  154.6917 H   0  0  0  0  0  0  0  0  0  0  0  0  # atno 10763 bound_to 10752
  153.7544  135.6937  153.4943 H   0  0  0  0  0  0  0  0  0  0  0  0  # atno 10764 bound_to 10752
  153.2154  135.4467  155.0378 H   0  0  0  0  0  0  0  0  0  0  0  0  # atno 10765 bound_to 10752
  139.8771  134.9092  156.4595 H   0  0  0  0  0  0  0  0  0  0  0  0  # atno 11005 bound_to 11000
  144.9127  139.4509  143.6579 LP  0  0  0  0  0  0  0  0  0  0  0  0  # atno 17320 bound_to 7965
  146.3166  139.7943  142.8979 LP  0  0  0  0  0  0  0  0  0  0  0  0  # atno 17321 bound_to 7965
  140.6963  143.7741  150.7332 LP  0  0  0  0  0  0  0  0  0  0  0  0  # atno 17342 bound_to 10162
  140.1238  143.4587  152.2296 LP  0  0  0  0  0  0  0  0  0  0  0  0  # atno 17343 bound_to 10162
  157.7048  130.9373  150.0897 LP  0  0  0  0  0  0  0  0  0  0  0  0  # atno 17370 bound_to 10713
  156.1877  130.3653  149.8950 LP  0  0  0  0  0  0  0  0  0  0  0  0  # atno 17371 bound_to 10713
  140.8874  133.7873  155.9534 LP  0  0  0  0  0  0  0  0  0  0  0  0  # atno 17394 bound_to 11000
  140.8789  134.2635  157.5154 LP  0  0  0  0  0  0  0  0  0  0  0  0  # atno 17395 bound_to 11000

$$$$
