AV-unprocessed.smi:2439|AV-procd|sdf|9614|dock7
  -GOLD-   2272013243D 1   1.00000     0.00000
 Structure written by MMmdl.
 40 42  0  0  0  0  0  0  0  0  1 V2000
  153.3645  136.2843  159.9028 N   0  0  0  0  0  0  0  0  0  0  0  0
  153.7878  136.5662  160.9420 C   0  0  0  0  0  0  0  0  0  0  0  0
  154.3213  136.9210  162.2515 C   0  0  0  0  0  0  0  0  0  0  0  0
  154.3272  135.9478  163.2729 C   0  0  0  0  0  0  0  0  0  0  0  0
  154.8406  136.2846  164.5386 C   0  0  0  0  0  0  0  0  0  0  0  0
  155.3327  137.5879  164.7319 C   0  0  0  0  0  0  0  0  0  0  0  0
  155.3348  138.5273  163.7636 N   0  0  0  0  0  0  0  0  0  0  0  0
  154.8376  138.2128  162.5419 C   0  0  0  0  0  0  0  0  0  0  0  0
  154.8536  139.2121  161.5506 N   0  0  0  0  0  0  0  0  0  0  0  0
  154.6169  140.6159  161.8674 C   0  0  0  0  0  0  0  0  0  0  0  0
  153.4377  141.2056  161.0764 C   0  0  1  0  0  0  0  0  0  0  0  0
  153.2145  142.6909  161.4142 C   0  0  0  0  0  0  0  0  0  0  0  0
  152.1464  143.2754  160.6135 N   0  0  0  0  0  0  0  0  0  0  0  0
  151.9483  144.6867  160.9397 C   0  0  0  0  0  0  0  0  0  0  0  0
  150.8026  145.3187  160.1333 C   0  0  0  0  0  0  0  0  0  0  0  0
  151.0540  145.1504  158.6280 C   0  0  0  0  0  0  0  0  0  0  0  0
  151.3156  143.6724  158.2992 C   0  0  0  0  0  0  0  0  0  0  0  0
  152.4391  143.0996  159.1878 C   0  0  2  0  0  0  0  0  0  0  0  0
  152.6922  141.6145  158.8568 C   0  0  0  0  0  0  0  0  0  0  0  0
  153.7315  141.1034  159.6854 O   0  0  0  0  0  0  0  0  0  0  0  0
  153.9439  134.9533  163.0936 H   0  0  0  0  0  0  0  0  0  0  0  0
  154.8578  135.5615  165.3405 H   0  0  0  0  0  0  0  0  0  0  0  0
  155.7365  137.8844  165.6888 H   0  0  0  0  0  0  0  0  0  0  0  0
  154.8330  138.9363  160.5792 H   0  0  0  0  0  0  0  0  0  0  0  0
  154.4479  140.7231  162.9393 H   0  0  0  0  0  0  0  0  0  0  0  0
  155.5257  141.1768  161.6486 H   0  0  0  0  0  0  0  0  0  0  0  0
  152.5254  140.6484  161.2965 H   0  0  0  0  0  0  0  0  0  0  0  0
  152.9739  142.7891  162.4734 H   0  0  0  0  0  0  0  0  0  0  0  0
  154.1417  143.2432  161.2525 H   0  0  0  0  0  0  0  0  0  0  0  0
  151.7330  144.7898  162.0039 H   0  0  0  0  0  0  0  0  0  0  0  0
  152.8695  145.2420  160.7563 H   0  0  0  0  0  0  0  0  0  0  0  0
  149.8587  144.8443  160.4052 H   0  0  0  0  0  0  0  0  0  0  0  0
  150.7045  146.3755  160.3827 H   0  0  0  0  0  0  0  0  0  0  0  0
  150.2029  145.5221  158.0569 H   0  0  0  0  0  0  0  0  0  0  0  0
  151.9164  145.7489  158.3320 H   0  0  0  0  0  0  0  0  0  0  0  0
  150.3992  143.0995  158.4490 H   0  0  0  0  0  0  0  0  0  0  0  0
  151.5775  143.5701  157.2455 H   0  0  0  0  0  0  0  0  0  0  0  0
  153.3553  143.6452  158.9548 H   0  0  0  0  0  0  0  0  0  0  0  0
  151.7864  141.0225  158.9967 H   0  0  0  0  0  0  0  0  0  0  0  0
  152.9895  141.5020  157.8138 H   0  0  0  0  0  0  0  0  0  0  0  0
  1  2  3  0  0  0  0
  2  3  1  0  0  0  0
  3  8  1  0  0  0  0
  3  4  2  0  0  0  0
  4  5  1  0  0  0  0
  4 21  1  0  0  0  0
  5  6  2  0  0  0  0
  5 22  1  0  0  0  0
  6  7  1  0  0  0  0
  6 23  1  0  0  0  0
  7  8  2  0  0  0  0
  8  9  1  0  0  0  0
  9 10  1  0  0  0  0
  9 24  1  0  0  0  0
 10 11  1  0  0  0  0
 10 25  1  0  0  0  0
 10 26  1  0  0  0  0
 11 20  1  0  0  0  0
 11 12  1  0  0  0  0
 11 27  1  0  0  0  0
 12 13  1  0  0  0  0
 12 28  1  0  0  0  0
 12 29  1  0  0  0  0
 13 18  1  0  0  0  0
 13 14  1  0  0  0  0
 14 15  1  0  0  0  0
 14 30  1  0  0  0  0
 14 31  1  0  0  0  0
 15 16  1  0  0  0  0
 15 32  1  0  0  0  0
 15 33  1  0  0  0  0
 16 17  1  0  0  0  0
 16 34  1  0  0  0  0
 16 35  1  0  0  0  0
 17 18  1  0  0  0  0
 17 36  1  0  0  0  0
 17 37  1  0  0  0  0
 18 19  1  0  0  0  0
 18 38  1  0  0  0  0
 19 20  1  0  0  0  0
 19 39  1  0  0  0  0
 19 40  1  0  0  0  0
M  END
> <s_m_source_file>
AV-unprocessed.smi

> <i_m_source_file_index>
2439

> <i_lp_mmshare_version>
43012

> <i_f3d_flags>
0

> <s_epik_input>
TiNDYzFbY0hdW2NIXVtjSF1uYzFbTkhdW0NIMl1bQ0BIXShbQ0gyXTIpT1tDSDJdW0NAQEhdKE4yMylbQ0gyXVtDSDJdW0NIMl1bQ0gyXTM=

> <s_epik_cmdline>
J2VwaWtfcHl0aG9uJywgJy1waCcsICc3LjAnLCAnLXRuJywgJzgnLCAnLW1hJywgJzIwMCcsICctbWV0YWxfYmluZGluZycsICctaW1hZScsICc8aW5maWxlLm1hZT4nLCAnLW9tYWUnLCAnPG91dGZpbGUubWFlPic=

> <r_epik_Ionization_Penalty>
1.22355

> <r_epik_Ionization_Penalty_Charging>
0

> <r_epik_Ionization_Penalty_Neutral>
1.22355

> <r_epik_State_Penalty>
1.29103

> <r_epik_Charging_Adjusted_Penalty>
1.29103

> <i_epik_Tot_Q>
0

> <i_epik_Tot_abs_Q>
0

> <r_epik_Metal_State_Penalty>
1.29103

> <b_epik_Metal_Only>
0

> <s_lp_Force_Field>
OPLS_2005

> <r_lp_Energy>
37.4095

> <b_lp_Chiralities_Consistent>
1

> <s_lp_Variant>
AV-unprocessed.smi:2439-12

> <Gold.Version>
5.8.1

> <Gold.Id.Protein>
6NUR|6NUR_protein|mol2

> <Gold.PLP.Fitness>
46.8653

> <Gold.PLP.PLP>
-44.3891

> <Gold.PLP.part.hbond>
-1.0000

> <Gold.PLP.part.metal>
0.0000

> <Gold.PLP.part.buried>
-6.0479

> <Gold.PLP.part.nonpolar>
-37.7929

> <Gold.PLP.part.repulsive>
0.0632

> <Gold.PLP.ligand.clash>
0.0000

> <Gold.PLP.ligand.torsion>
0.2633

> <Gold.PLP.Chemscore.Hbond>
1.0000

> <Gold.PLP.Chemscore.CHOScore>
0.0000

> <Gold.PLP.Chemscore.Metal>
0.0000

> <Gold.Chemscore.Hbonds>
donor molecule, donor type, donor heavy atom, donor atom, acceptor molecule, acceptor atom, score
      P1  H  6896  6909       L1     1  1.00

> <Gold.PLP.Chemscore.Internal.Correction>
0.0028

> <Gold.Rescore>
     Score         DG    S(hbond)    S(metal)    S(lipo)     H(rot)  DE(clash)    DE(int)     intcor
     20.16     -20.49       0.92        0.00     129.36       1.25       0.11       0.23       ----

> <Gold.Chemscore.Fitness>
20.1574

> <Gold.Chemscore.DG>
-20.4941

> <Gold.Chemscore.ZeroCoef>
-5.4800

> <Gold.Chemscore.Hbond>
0.9207

> <Gold.Chemscore.Metal>
0.0000

> <Gold.Chemscore.Lipo>
129.3600

> <Gold.Chemscore.Internal_Hbond>
0.0000

> <Gold.Chemscore.DEClash>
0.1082

> <Gold.Chemscore.DEInternal>
0.2285

> <Gold.Chemscore.Rot>
1.2485

> <Gold.Chemscore.Internal.Correction>
   9.000000E+99

> <Gold.Chemscore.Hbonds>
donor molecule, donor type, donor heavy atom, donor atom, acceptor molecule, acceptor atom, score
      P1  H  6896  6909       L1     1  0.74

> <Gold.Chemscore.Hbond.Weighted>
-3.0751

> <Gold.Chemscore.Metal.Weighted>
-0.0000

> <Gold.Chemscore.Lipo.Weighted>
-15.1351

> <Gold.Chemscore.Internal_Hbond.Weighted>
0.0000

> <Gold.Chemscore.DEClash.Weighted>
0.1082

> <Gold.Chemscore.DEInternal.Weighted>
0.2285

> <Gold.Chemscore.Rot.Weighted>
3.1961

> <Gold.Chemscore.Internal.Correction.Weighted>
   9.000000E+99

> <Gold.Protein.RotatedTorsions>
[ 6907 6896 6895 6894 ] final  154.31 input  -60.11 | X-H torsion
[ 7974 7965 7964 7962 ] final   23.40 input  175.53 | X-H torsion
[ 8008 7997 7996 7995 ] final  -94.18 input   59.86 | X-H torsion
[ 10167 10162 10161 10158 ] final   62.06 input  -65.29 | X-H torsion
[ 10718 10713 10712 10709 ] final  -15.40 input   66.30 | X-H torsion
[ 10763 10752 10751 10750 ] final  112.70 input  -60.55 | X-H torsion
[ 11005 11000 10999 10996 ] final  154.50 input  -57.11 | X-H torsion

> <Gold.Protein.ActiveResidues>
 VAL166  LYS551  ARG553  GLY616  TRP617  ASP618  TYR619  PRO620  LYS621  CYS622 
 ASP623  PHE694  ASN695  SER759  ASP760  ASP761  ALA762  ILE779  LEU786  VAL792 
 PHE793  MET794  SER795  GLU796  ALA797  LYS798  CYS799  TRP800  GLU811  SER814 

> <Gold.Protein.RotatedAtoms>
  152.0603  133.4059  159.4414 H   0  0  0  0  0  0  0  0  0  0  0  0  # atno 6907 bound_to 6896
  150.6866  134.3208  159.4795 H   0  0  0  0  0  0  0  0  0  0  0  0  # atno 6908 bound_to 6896
  152.1028  134.9329  160.0619 H   0  0  0  0  0  0  0  0  0  0  0  0  # atno 6909 bound_to 6896
  146.1986  139.7750  142.8778 H   0  0  0  0  0  0  0  0  0  0  0  0  # atno 7974 bound_to 7965
  154.7452  140.0491  157.0846 H   0  0  0  0  0  0  0  0  0  0  0  0  # atno 8008 bound_to 7997
  155.0127  140.3138  155.4804 H   0  0  0  0  0  0  0  0  0  0  0  0  # atno 8009 bound_to 7997
  156.2873  140.2181  156.5242 H   0  0  0  0  0  0  0  0  0  0  0  0  # atno 8010 bound_to 7997
  140.1481  144.4489  150.6774 H   0  0  0  0  0  0  0  0  0  0  0  0  # atno 10167 bound_to 10162
  156.6022  130.4827  149.6235 H   0  0  0  0  0  0  0  0  0  0  0  0  # atno 10718 bound_to 10713
  153.4816  135.3678  155.2445 H   0  0  0  0  0  0  0  0  0  0  0  0  # atno 10763 bound_to 10752
  154.8755  135.3955  154.3693 H   0  0  0  0  0  0  0  0  0  0  0  0  # atno 10764 bound_to 10752
  153.4298  135.7082  153.6303 H   0  0  0  0  0  0  0  0  0  0  0  0  # atno 10765 bound_to 10752
  140.1494  134.8685  157.2435 H   0  0  0  0  0  0  0  0  0  0  0  0  # atno 11005 bound_to 11000
  145.3560  141.0317  143.3311 LP  0  0  0  0  0  0  0  0  0  0  0  0  # atno 17320 bound_to 7965
  144.8634  139.5144  143.6802 LP  0  0  0  0  0  0  0  0  0  0  0  0  # atno 17321 bound_to 7965
  140.6720  143.2289  151.5603 LP  0  0  0  0  0  0  0  0  0  0  0  0  # atno 17342 bound_to 10162
  139.5439  144.2573  152.1405 LP  0  0  0  0  0  0  0  0  0  0  0  0  # atno 17343 bound_to 10162
  156.2459  130.6879  151.1600 LP  0  0  0  0  0  0  0  0  0  0  0  0  # atno 17370 bound_to 10713
  157.7276  131.0638  150.5856 LP  0  0  0  0  0  0  0  0  0  0  0  0  # atno 17371 bound_to 10713
  140.2623  134.3557  155.7402 LP  0  0  0  0  0  0  0  0  0  0  0  0  # atno 17394 bound_to 11000
  141.2197  133.7376  156.9098 LP  0  0  0  0  0  0  0  0  0  0  0  0  # atno 17395 bound_to 11000

$$$$
