#       Name:                AV-unprocessed.smi:1423
#       Creating user name   scv26
#       Creation time:       Fri Mar 27 05:44:23 2020


#       File generated by GOLD software.
#

@<TRIPOS>MOLECULE
AV-unprocessed.smi:1423
    51    52     1
SMALL
NO_CHARGES


@<TRIPOS>ATOM
      1 ****        -8.1375   2.7517   0.6270 C.3            1 S1                 0.0000
      2 ****        -7.6006   1.4334   0.6067 O.3            1 S1                 0.0000
      3 ****        -6.2334   1.2848   0.4943 C.ar           1 S1                 0.0000
      4 ****        -5.6938  -0.0165   0.4873 C.ar           1 S1                 0.0000
      5 ****        -4.2993  -0.1773   0.3723 C.ar           1 S1                 0.0000
      6 ****        -3.4836   0.9755   0.2642 C.ar           1 S1                 0.0000
      7 ****        -2.0663   0.9681   0.1378 N.am           1 S1                 0.0000
      8 ****        -1.2191  -0.0701   0.0287 C.2            1 S1                 0.0000
      9 ****        -1.5309  -1.2596   0.0670 O.2            1 S1                 0.0000
     10 ****         0.0420   0.3560  -0.1308 N.am           1 S1                 0.0000
     11 ****         1.2076  -0.5059  -0.3014 C.3            1 S1                 0.0000
     12 ****         1.7546  -0.9702   1.0576 C.3            1 S1                 0.0000
     13 ****         3.0562  -1.7719   0.8825 C.3            1 S1                 0.0000
     14 ****         4.0723  -0.9734   0.1882 N.3            1 S1                 0.0000
     15 ****         5.3412  -1.7363   0.1457 C.3            1 S1                 0.0000
     16 ****         6.5271  -0.9741  -0.4592 C.2            1 S1                 0.0000
     17 ****         7.1491  -1.5388  -1.4970 N.am           1 S1                 0.0000
     18 ****         6.8737   0.1110   0.0026 O.2            1 S1                 0.0000
     19 ****         3.5963  -0.5940  -1.1504 C.3            1 S1                 0.0000
     20 ****         2.3138   0.2508  -1.0489 C.3            1 S1                 0.0000
     21 ****        -4.1243   2.2319   0.2843 C.ar           1 S1                 0.0000
     22 ****        -5.4593   2.3931   0.3954 N.ar           1 S1                 0.0000
     23 ****        -9.2221   2.6986   0.7188 H              1 S1                 0.0000
     24 ****        -7.9102   3.2905  -0.2940 H              1 S1                 0.0000
     25 ****        -7.7609   3.3217   1.4776 H              1 S1                 0.0000
     26 ****        -6.3391  -0.8786   0.5698 H              1 S1                 0.0000
     27 ****        -3.8989  -1.1779   0.3713 H              1 S1                 0.0000
     28 ****        -1.6405   1.8824   0.0936 H              1 S1                 0.0000
     29 ****         0.2089   1.3514  -0.1468 H              1 S1                 0.0000
     30 ****         0.9292  -1.3800  -0.8935 H              1 S1                 0.0000
     31 ****         1.9423  -0.1085   1.7002 H              1 S1                 0.0000
     32 ****         1.0135  -1.5834   1.5717 H              1 S1                 0.0000
     33 ****         3.4245  -2.0620   1.8673 H              1 S1                 0.0000
     34 ****         2.8582  -2.6947   0.3339 H              1 S1                 0.0000
     35 ****         5.6291  -2.0144   1.1606 H              1 S1                 0.0000
     36 ****         5.1884  -2.6706  -0.3985 H              1 S1                 0.0000
     37 ****         7.9340  -1.0741  -1.9294 H              1 S1                 0.0000
     38 ****         6.8296  -2.4306  -1.8469 H              1 S1                 0.0000
     39 ****         4.3456  -0.0041  -1.6781 H              1 S1                 0.0000
     40 ****         3.4156  -1.4864  -1.7523 H              1 S1                 0.0000
     41 ****         1.9708   0.5202  -2.0486 H              1 S1                 0.0000
     42 ****         2.5389   1.1878  -0.5365 H              1 S1                 0.0000
     43 ****        -3.5470   3.1418   0.2062 H              1 S1                 0.0000
     44 ****        -8.0148   0.9571  -0.1690 LP             1 S1                 0.0000
     45 ****        -7.8777   0.9879   1.4580 LP             1 S1                 0.0000
     46 ****        -2.4882  -1.5219   0.1885 LP             1 S1                 0.0000
     47 ****        -0.8271  -1.9642  -0.0235 LP             1 S1                 0.0000
     48 ****         4.2420  -0.1214   0.6833 LP             1 S1                 0.0000
     49 ****         6.3813   0.5041   0.7791 LP             1 S1                 0.0000
     50 ****         7.6480   0.6006  -0.3983 LP             1 S1                 0.0000
     51 ****        -5.8670   3.3062   0.4045 LP             1 S1                 0.0000
@<TRIPOS>BOND
    1    1    2 1     
    2    1   23 1     
    3    1   24 1     
    4    1   25 1     
    5    2    3 1     
    6    3   22 ar    
    7    3    4 ar    
    8    4    5 ar    
    9    4   26 1     
   10    5    6 ar    
   11    5   27 1     
   12    6    7 1     
   13    6   21 ar    
   14    7    8 am    
   15    7   28 1     
   16    8    9 2     
   17    8   10 am    
   18   10   11 1     
   19   10   29 1     
   20   11   20 1     
   21   11   12 1     
   22   11   30 1     
   23   12   13 1     
   24   12   31 1     
   25   12   32 1     
   26   13   14 1     
   27   13   33 1     
   28   13   34 1     
   29   14   15 1     
   30   14   19 1     
   31   15   16 1     
   32   15   35 1     
   33   15   36 1     
   34   16   17 am    
   35   16   18 2     
   36   17   37 1     
   37   17   38 1     
   38   19   20 1     
   39   19   39 1     
   40   19   40 1     
   41   20   41 1     
   42   20   42 1     
   43   21   22 ar    
   44   21   43 1     
   45    2   44 1     
   46    2   45 1     
   47    9   46 1     
   48    9   47 1     
   49   14   48 1     
   50   18   49 1     
   51   18   50 1     
   52   22   51 1     
@<TRIPOS>SUBSTRUCTURE
      1 S1             1
@<TRIPOS>SET
LONE_PAIRS      STATIC     ATOMS    <user>   **** ""
8 44 45 46 47 48 49 50 51
DONOR_HYDROGENS      STATIC     ATOMS    <user>   **** ""
4 28 29 37 38
ATOM$BLUE        STATIC     ATOMS    COLORGROUP SYSTEM
8 44 45 46 47 48 49 50 51
ATOM$RED        STATIC     ATOMS    COLORGROUP SYSTEM
4 28 29 37 38
