AV-unprocessed.smi:1592|AV-procd|sdf|6407|dock3
  -GOLD-   22720 7 43D 1   1.00000     0.00000
 Structure written by MMmdl.
 26 27  0  0  0  0  0  0  0  0  2 V2000
  149.5205  142.2270  157.3216 O   0  0  0  0  0  0  0  0  0  0  0  0
  150.3376  141.5255  156.7231 C   0  0  0  0  0  0  0  0  0  0  0  0
  151.5369  141.1586  157.2103 N   0  0  0  0  0  0  0  0  0  0  0  0
  152.1306  141.4894  158.4599 C   0  0  0  0  0  0  0  0  0  0  0  0
  151.7269  142.5451  159.2111 N   0  0  0  0  0  0  0  0  0  0  0  0
  152.3401  142.7938  160.3864 C   0  0  0  0  0  0  0  0  0  0  0  0
  153.3936  142.0093  160.8875 C   0  0  0  0  0  0  0  0  0  0  0  0
  153.8237  140.9125  160.1210 C   0  0  0  0  0  0  0  0  0  0  0  0
  153.1881  140.6453  158.8917 C   0  0  0  0  0  0  0  0  0  0  0  0
  153.6092  139.5776  158.1456 O   0  5  0  0  0  0  0  0  0  0  0  0
  150.0023  140.9968  155.3240 C   0  0  2  0  0  0  0  0  0  0  0  0
  148.7563  140.0918  155.2822 C   0  0  0  0  0  0  0  0  0  0  0  0
  149.3127  138.7219  154.9439 C   0  0  0  0  0  0  0  0  0  0  0  0
  150.5686  139.0761  154.1614 C   0  0  0  0  0  0  0  0  0  0  0  0
  151.0866  140.1822  154.8822 O   0  0  0  0  0  0  0  0  0  0  0  0
  152.1056  140.5732  156.6154 H   0  0  0  0  0  0  0  0  0  0  0  0
  151.9791  143.6455  160.9437 H   0  0  0  0  0  0  0  0  0  0  0  0
  153.8591  142.2421  161.8334 H   0  0  0  0  0  0  0  0  0  0  0  0
  154.6309  140.2863  160.4726 H   0  0  0  0  0  0  0  0  0  0  0  0
  149.8761  141.8250  154.6242 H   0  0  0  0  0  0  0  0  0  0  0  0
  148.1825  140.0797  156.2101 H   0  0  0  0  0  0  0  0  0  0  0  0
  148.0857  140.4295  154.4910 H   0  0  0  0  0  0  0  0  0  0  0  0
  149.5816  138.1904  155.8580 H   0  0  0  0  0  0  0  0  0  0  0  0
  148.6156  138.1034  154.3781 H   0  0  0  0  0  0  0  0  0  0  0  0
  151.2843  138.2552  154.1144 H   0  0  0  0  0  0  0  0  0  0  0  0
  150.3228  139.3829  153.1436 H   0  0  0  0  0  0  0  0  0  0  0  0
  1  2  2  0  0  0  0
  2  3  1  0  0  0  0
  2 11  1  0  0  0  0
  3 16  1  0  0  0  0
  3  4  1  0  0  0  0
  4  9  2  0  0  0  0
  4  5  1  0  0  0  0
  5  6  2  0  0  0  0
  6 17  1  0  0  0  0
  6  7  1  0  0  0  0
  7 18  1  0  0  0  0
  7  8  2  0  0  0  0
  8  9  1  0  0  0  0
  8 19  1  0  0  0  0
  9 10  1  0  0  0  0
 11 15  1  0  0  0  0
 11 12  1  0  0  0  0
 11 20  1  0  0  0  0
 12 13  1  0  0  0  0
 12 21  1  0  0  0  0
 12 22  1  0  0  0  0
 13 14  1  0  0  0  0
 13 23  1  0  0  0  0
 13 24  1  0  0  0  0
 14 15  1  0  0  0  0
 14 25  1  0  0  0  0
 14 26  1  0  0  0  0
M  CHG  1  10  -1
M  END
> <s_m_source_file>
AV-unprocessed.smi

> <i_m_source_file_index>
1592

> <i_lp_mmshare_version>
43012

> <i_f3d_flags>
0

> <s_epik_input>
TzFbQ0gyXVtDSDJdW0NIMl1bQ0BIXTFDKD1PKVtOSF1jMm5bY0hdW2NIXVtjSF1jMltPSF0=

> <s_epik_cmdline>
J2VwaWtfcHl0aG9uJywgJy1waCcsICc3LjAnLCAnLXRuJywgJzgnLCAnLW1hJywgJzIwMCcsICctbWV0YWxfYmluZGluZycsICctaW1hZScsICc8aW5maWxlLm1hZT4nLCAnLW9tYWUnLCAnPG91dGZpbGUubWFlPic=

> <r_epik_Ionization_Penalty>
4.05601

> <r_epik_Ionization_Penalty_Charging>
2.06015

> <r_epik_Ionization_Penalty_Neutral>
1.99585

> <r_epik_State_Penalty>
2.62166

> <r_epik_Charging_Adjusted_Penalty>
4.68182

> <i_epik_Tot_Q>
-1

> <i_epik_Tot_abs_Q>
1

> <r_epik_Metal_State_Penalty>
0.603772

> <b_epik_Metal_Only>
0

> <s_lp_Force_Field>
OPLS_2005

> <r_lp_Energy>
18.4071

> <b_lp_Chiralities_Consistent>
1

> <s_lp_Variant>
AV-unprocessed.smi:1592-7

> <Gold.Version>
5.8.1

> <Gold.Id.Protein>
6NUR|6NUR_protein|mol2

> <Gold.PLP.Fitness>
35.5573

> <Gold.PLP.PLP>
-27.1733

> <Gold.PLP.part.hbond>
-2.0000

> <Gold.PLP.part.metal>
0.0000

> <Gold.PLP.part.buried>
-4.6779

> <Gold.PLP.part.nonpolar>
-21.7238

> <Gold.PLP.part.repulsive>
1.3144

> <Gold.PLP.ligand.clash>
0.0000

> <Gold.PLP.ligand.torsion>
0.0871

> <Gold.PLP.Chemscore.Hbond>
2.8500

> <Gold.PLP.Chemscore.CHOScore>
0.0000

> <Gold.PLP.Chemscore.Metal>
0.0000

> <Gold.Chemscore.Hbonds>
donor molecule, donor type, donor heavy atom, donor atom, acceptor molecule, acceptor atom, score
      P1  H  7989  7998       L1    15  0.55
      P1  H  7997  8009       L1    10  2.00

> <Gold.PLP.Chemscore.Internal.Correction>
0.0082

> <Gold.Rescore>
     Score         DG    S(hbond)    S(metal)    S(lipo)     H(rot)  DE(clash)    DE(int)     intcor
     12.40     -13.78       0.98        0.00      64.75       1.00       0.07       1.31       ----

> <Gold.Chemscore.Fitness>
12.3967

> <Gold.Chemscore.DG>
-13.7794

> <Gold.Chemscore.ZeroCoef>
-5.4800

> <Gold.Chemscore.Hbond>
0.9833

> <Gold.Chemscore.Metal>
0.0000

> <Gold.Chemscore.Lipo>
64.7451

> <Gold.Chemscore.Internal_Hbond>
0.0000

> <Gold.Chemscore.DEClash>
0.0741

> <Gold.Chemscore.DEInternal>
1.3086

> <Gold.Chemscore.Rot>
1.0000

> <Gold.Chemscore.Internal.Correction>
   9.000000E+99

> <Gold.Chemscore.Hbonds>
donor molecule, donor type, donor heavy atom, donor atom, acceptor molecule, acceptor atom, score
      P1  H  7989  7998       L1    15  0.02
      P1  H  7997  8009       L1    10  0.67

> <Gold.Chemscore.Hbond.Weighted>
-3.2842

> <Gold.Chemscore.Metal.Weighted>
-0.0000

> <Gold.Chemscore.Lipo.Weighted>
-7.5752

> <Gold.Chemscore.Internal_Hbond.Weighted>
0.0000

> <Gold.Chemscore.DEClash.Weighted>
0.0741

> <Gold.Chemscore.DEInternal.Weighted>
1.3086

> <Gold.Chemscore.Rot.Weighted>
2.5600

> <Gold.Chemscore.Internal.Correction.Weighted>
   9.000000E+99

> <Gold.Protein.RotatedTorsions>
[ 6907 6896 6895 6894 ] final   16.14 input  -60.11 | X-H torsion
[ 7974 7965 7964 7962 ] final -109.16 input  175.53 | X-H torsion
[ 8008 7997 7996 7995 ] final  133.38 input   59.86 | X-H torsion
[ 10167 10162 10161 10158 ] final   99.98 input  -65.29 | X-H torsion
[ 10718 10713 10712 10709 ] final -169.00 input   66.30 | X-H torsion
[ 10763 10752 10751 10750 ] final -168.47 input  -60.55 | X-H torsion
[ 11005 11000 10999 10996 ] final   37.56 input  -57.11 | X-H torsion

> <Gold.Protein.ActiveResidues>
 VAL166  LYS551  ARG553  GLY616  TRP617  ASP618  TYR619  PRO620  LYS621  CYS622 
 ASP623  PHE694  ASN695  SER759  ASP760  ASP761  ALA762  ILE779  LEU786  VAL792 
 PHE793  MET794  SER795  GLU796  ALA797  LYS798  CYS799  TRP800  GLU811  SER814 

> <Gold.Protein.RotatedAtoms>
  151.8292  135.0627  160.0434 H   0  0  0  0  0  0  0  0  0  0  0  0  # atno 6907 bound_to 6896
  152.2893  133.5541  159.5556 H   0  0  0  0  0  0  0  0  0  0  0  0  # atno 6908 bound_to 6896
  150.7223  134.0367  159.3794 H   0  0  0  0  0  0  0  0  0  0  0  0  # atno 6909 bound_to 6896
  145.1839  140.8984  143.3464 H   0  0  0  0  0  0  0  0  0  0  0  0  # atno 7974 bound_to 7965
  156.2992  140.2522  156.3244 H   0  0  0  0  0  0  0  0  0  0  0  0  # atno 8008 bound_to 7997
  154.9204  140.0401  157.2014 H   0  0  0  0  0  0  0  0  0  0  0  0  # atno 8009 bound_to 7997
  154.8317  140.2876  155.5722 H   0  0  0  0  0  0  0  0  0  0  0  0  # atno 8010 bound_to 7997
  139.7568  144.6967  151.0351 H   0  0  0  0  0  0  0  0  0  0  0  0  # atno 10167 bound_to 10162
  156.7052  130.9212  151.3084 H   0  0  0  0  0  0  0  0  0  0  0  0  # atno 10718 bound_to 10713
  154.6625  135.2927  154.9847 H   0  0  0  0  0  0  0  0  0  0  0  0  # atno 10763 bound_to 10752
  154.0902  135.6592  153.4855 H   0  0  0  0  0  0  0  0  0  0  0  0  # atno 10764 bound_to 10752
  153.0438  135.5218  154.7583 H   0  0  0  0  0  0  0  0  0  0  0  0  # atno 10765 bound_to 10752
  140.2213  134.3637  155.8004 H   0  0  0  0  0  0  0  0  0  0  0  0  # atno 11005 bound_to 11000
  145.0109  139.3511  143.6121 LP  0  0  0  0  0  0  0  0  0  0  0  0  # atno 17320 bound_to 7965
  146.3448  139.9370  142.8746 LP  0  0  0  0  0  0  0  0  0  0  0  0  # atno 17321 bound_to 7965
  140.7803  143.4744  151.0103 LP  0  0  0  0  0  0  0  0  0  0  0  0  # atno 17342 bound_to 10162
  139.8431  143.7538  152.3180 LP  0  0  0  0  0  0  0  0  0  0  0  0  # atno 17343 bound_to 10162
  157.6958  130.9280  150.0639 LP  0  0  0  0  0  0  0  0  0  0  0  0  # atno 17370 bound_to 10713
  156.1700  130.3646  149.9178 LP  0  0  0  0  0  0  0  0  0  0  0  0  # atno 17371 bound_to 10713
  141.2223  133.7195  156.8580 LP  0  0  0  0  0  0  0  0  0  0  0  0  # atno 17394 bound_to 11000
  140.1847  134.9008  157.2990 LP  0  0  0  0  0  0  0  0  0  0  0  0  # atno 17395 bound_to 11000

$$$$
