AV-unprocessed.smi:3060|AV-procd|sdf|11678|dock2
  -GOLD-   2272017 83D 1   1.00000     0.00000
 Structure written by MMmdl.
 42 43  0  0  0  0  0  0  0  0  1 V2000
  150.1193  133.9674  154.9688 C   0  0  0  0  0  0  0  0  0  0  0  0
  150.2027  135.4967  154.9256 C   0  0  0  0  0  0  0  0  0  0  0  0
  150.5065  136.0948  156.2631 C   0  0  0  0  0  0  0  0  0  0  0  0
  150.6410  135.4104  157.3916 N   0  0  0  0  0  0  0  0  0  0  0  0
  150.8954  136.3836  158.3394 N   0  0  0  0  0  0  0  0  0  0  0  0
  150.9018  137.5722  157.8082 N   0  0  0  0  0  0  0  0  0  0  0  0
  150.6513  137.4098  156.4853 N   0  0  0  0  0  0  0  0  0  0  0  0
  150.5878  138.5578  155.5919 C   0  0  0  0  0  0  0  0  0  0  0  0
  151.5613  139.6720  155.9945 C   0  0  0  0  0  0  0  0  0  0  0  0
  152.5032  139.9513  155.2537 O   0  0  0  0  0  0  0  0  0  0  0  0
  151.3426  140.2828  157.1716 N   0  0  0  0  0  0  0  0  0  0  0  0
  152.1441  141.3604  157.7461 C   0  0  0  0  0  0  0  0  0  0  0  0
  152.6367  140.9112  159.1438 C   0  0  0  0  0  0  0  0  0  0  0  0
  153.6757  141.8383  159.8060 C   0  0  0  0  0  0  0  0  0  0  0  0
  153.1304  142.7667  160.9087 C   0  0  0  0  0  0  0  0  0  0  0  0
  151.7963  143.4790  160.6226 C   0  0  0  0  0  0  0  0  0  0  0  0
  151.7966  144.4998  159.4706 C   0  0  0  0  0  0  0  0  0  0  0  0
  152.0445  143.9503  158.0524 C   0  0  0  0  0  0  0  0  0  0  0  0
  151.2918  142.6509  157.7014 C   0  0  0  0  0  0  0  0  0  0  0  0
  149.9008  133.5626  153.9805 H   0  0  0  0  0  0  0  0  0  0  0  0
  149.3324  133.6354  155.6467 H   0  0  0  0  0  0  0  0  0  0  0  0
  151.0600  133.5316  155.3071 H   0  0  0  0  0  0  0  0  0  0  0  0
  150.9813  135.8012  154.2255 H   0  0  0  0  0  0  0  0  0  0  0  0
  149.2706  135.9123  154.5427 H   0  0  0  0  0  0  0  0  0  0  0  0
  150.8048  138.2356  154.5735 H   0  0  0  0  0  0  0  0  0  0  0  0
  149.5669  138.9431  155.5890 H   0  0  0  0  0  0  0  0  0  0  0  0
  150.5456  139.9822  157.7133 H   0  0  0  0  0  0  0  0  0  0  0  0
  153.0167  141.5232  157.1109 H   0  0  0  0  0  0  0  0  0  0  0  0
  151.7970  140.7221  159.8131 H   0  0  0  0  0  0  0  0  0  0  0  0
  153.1173  139.9392  159.0214 H   0  0  0  0  0  0  0  0  0  0  0  0
  154.4411  141.2137  160.2683 H   0  0  0  0  0  0  0  0  0  0  0  0
  154.2192  142.4061  159.0529 H   0  0  0  0  0  0  0  0  0  0  0  0
  152.9933  142.1693  161.8109 H   0  0  0  0  0  0  0  0  0  0  0  0
  153.8916  143.5054  161.1612 H   0  0  0  0  0  0  0  0  0  0  0  0
  150.9986  142.7507  160.4847 H   0  0  0  0  0  0  0  0  0  0  0  0
  151.5162  144.0159  161.5295 H   0  0  0  0  0  0  0  0  0  0  0  0
  150.8238  144.9931  159.4727 H   0  0  0  0  0  0  0  0  0  0  0  0
  152.5224  145.2864  159.6800 H   0  0  0  0  0  0  0  0  0  0  0  0
  151.7279  144.7249  157.3530 H   0  0  0  0  0  0  0  0  0  0  0  0
  153.1099  143.8408  157.8589 H   0  0  0  0  0  0  0  0  0  0  0  0
  150.9321  142.7630  156.6771 H   0  0  0  0  0  0  0  0  0  0  0  0
  150.3877  142.5460  158.3018 H   0  0  0  0  0  0  0  0  0  0  0  0
  1  2  1  0  0  0  0
  1 20  1  0  0  0  0
  1 21  1  0  0  0  0
  1 22  1  0  0  0  0
  2  3  1  0  0  0  0
  2 23  1  0  0  0  0
  2 24  1  0  0  0  0
  3  7  1  0  0  0  0
  3  4  2  0  0  0  0
  4  5  1  0  0  0  0
  5  6  2  0  0  0  0
  6  7  1  0  0  0  0
  7  8  1  0  0  0  0
  8  9  1  0  0  0  0
  8 25  1  0  0  0  0
  8 26  1  0  0  0  0
  9 10  2  0  0  0  0
  9 11  1  0  0  0  0
 11 12  1  0  0  0  0
 11 27  1  0  0  0  0
 12 19  1  0  0  0  0
 12 13  1  0  0  0  0
 12 28  1  0  0  0  0
 13 14  1  0  0  0  0
 13 29  1  0  0  0  0
 13 30  1  0  0  0  0
 14 15  1  0  0  0  0
 14 31  1  0  0  0  0
 14 32  1  0  0  0  0
 15 16  1  0  0  0  0
 15 33  1  0  0  0  0
 15 34  1  0  0  0  0
 16 17  1  0  0  0  0
 16 35  1  0  0  0  0
 16 36  1  0  0  0  0
 17 18  1  0  0  0  0
 17 37  1  0  0  0  0
 17 38  1  0  0  0  0
 18 19  1  0  0  0  0
 18 39  1  0  0  0  0
 18 40  1  0  0  0  0
 19 41  1  0  0  0  0
 19 42  1  0  0  0  0
M  END
> <s_m_source_file>
AV-unprocessed.smi

> <i_m_source_file_index>
3060

> <i_lp_mmshare_version>
43012

> <i_f3d_flags>
0

> <s_epik_input>
W0NIM11bQ0gyXWMxbm5ubjFbQ0gyXUMoPU8pW05IXVtDSF0yW0NIMl1bQ0gyXVtDSDJdW0NIMl1bQ0gyXVtDSDJdW0NIMl0y

> <s_epik_cmdline>
J2VwaWtfcHl0aG9uJywgJy1waCcsICc3LjAnLCAnLXRuJywgJzgnLCAnLW1hJywgJzIwMCcsICctbWV0YWxfYmluZGluZycsICctaW1hZScsICc8aW5maWxlLm1hZT4nLCAnLW9tYWUnLCAnPG91dGZpbGUubWFlPic=

> <r_lp_tautomer_probability>
1

> <r_epik_Ionization_Penalty>
4.54698e-07

> <r_epik_Ionization_Penalty_Charging>
0

> <r_epik_Ionization_Penalty_Neutral>
4.54698e-07

> <r_epik_State_Penalty>
-0

> <r_epik_Charging_Adjusted_Penalty>
0

> <i_epik_Tot_Q>
0

> <i_epik_Tot_abs_Q>
0

> <r_epik_Metal_State_Penalty>
-0

> <b_epik_Metal_Only>
0

> <s_lp_Force_Field>
OPLS_2005

> <r_lp_Energy>
19.51

> <b_lp_Chiralities_Consistent>
1

> <s_lp_Variant>
AV-unprocessed.smi:3060-1

> <Gold.Version>
5.8.1

> <Gold.Id.Protein>
6NUR|6NUR_protein|mol2

> <Gold.PLP.Fitness>
42.6439

> <Gold.PLP.PLP>
-37.6307

> <Gold.PLP.part.hbond>
-3.9937

> <Gold.PLP.part.metal>
0.0000

> <Gold.PLP.part.buried>
-5.0706

> <Gold.PLP.part.nonpolar>
-28.1808

> <Gold.PLP.part.repulsive>
0.0784

> <Gold.PLP.ligand.clash>
0.0000

> <Gold.PLP.ligand.torsion>
0.4423

> <Gold.PLP.Chemscore.Hbond>
1.9566

> <Gold.PLP.Chemscore.CHOScore>
0.0000

> <Gold.PLP.Chemscore.Metal>
0.0000

> <Gold.Chemscore.Hbonds>
donor molecule, donor type, donor heavy atom, donor atom, acceptor molecule, acceptor atom, score
      P1  H  6896  6909       L1     5  0.56
      P1  H  7989  7998       L1    10  0.44
      P1  H  7997  8009       L1    10  0.96

> <Gold.PLP.Chemscore.Internal.Correction>
0.0280

> <Gold.Rescore>
     Score         DG    S(hbond)    S(metal)    S(lipo)     H(rot)  DE(clash)    DE(int)     intcor
     17.32     -17.82       1.52        0.00      98.51       1.66       0.05       0.45       ----

> <Gold.Chemscore.Fitness>
17.3179

> <Gold.Chemscore.DG>
-17.8247

> <Gold.Chemscore.ZeroCoef>
-5.4800

> <Gold.Chemscore.Hbond>
1.5183

> <Gold.Chemscore.Metal>
0.0000

> <Gold.Chemscore.Lipo>
98.5065

> <Gold.Chemscore.Internal_Hbond>
0.0000

> <Gold.Chemscore.DEClash>
0.0536

> <Gold.Chemscore.DEInternal>
0.4531

> <Gold.Chemscore.Rot>
1.6609

> <Gold.Chemscore.Internal.Correction>
   9.000000E+99

> <Gold.Chemscore.Hbonds>
donor molecule, donor type, donor heavy atom, donor atom, acceptor molecule, acceptor atom, score
      P1  H  6896  6909       L1     5  0.09
      P1  H  7989  7998       L1    10  0.26
      P1  H  7997  8009       L1    10  0.89

> <Gold.Chemscore.Hbond.Weighted>
-5.0712

> <Gold.Chemscore.Metal.Weighted>
-0.0000

> <Gold.Chemscore.Lipo.Weighted>
-11.5253

> <Gold.Chemscore.Internal_Hbond.Weighted>
0.0000

> <Gold.Chemscore.DEClash.Weighted>
0.0536

> <Gold.Chemscore.DEInternal.Weighted>
0.4531

> <Gold.Chemscore.Rot.Weighted>
4.2518

> <Gold.Chemscore.Internal.Correction.Weighted>
   9.000000E+99

> <Gold.Protein.RotatedTorsions>
[ 6907 6896 6895 6894 ] final  102.41 input  -60.11 | X-H torsion
[ 7974 7965 7964 7962 ] final  -10.24 input  175.53 | X-H torsion
[ 8008 7997 7996 7995 ] final -145.08 input   59.86 | X-H torsion
[ 10167 10162 10161 10158 ] final -151.20 input  -65.29 | X-H torsion
[ 10718 10713 10712 10709 ] final  -85.42 input   66.30 | X-H torsion
[ 10763 10752 10751 10750 ] final   40.54 input  -60.55 | X-H torsion
[ 11005 11000 10999 10996 ] final -118.17 input  -57.11 | X-H torsion

> <Gold.Protein.ActiveResidues>
 VAL166  LYS551  ARG553  GLY616  TRP617  ASP618  TYR619  PRO620  LYS621  CYS622 
 ASP623  PHE694  ASN695  SER759  ASP760  ASP761  ALA762  ILE779  LEU786  VAL792 
 PHE793  MET794  SER795  GLU796  ALA797  LYS798  CYS799  TRP800  GLU811  SER814 

> <Gold.Protein.RotatedAtoms>
  152.5324  133.9979  159.7880 H   0  0  0  0  0  0  0  0  0  0  0  0  # atno 6907 bound_to 6896
  151.0203  133.5875  159.2679 H   0  0  0  0  0  0  0  0  0  0  0  0  # atno 6908 bound_to 6896
  151.2917  135.0750  159.9260 H   0  0  0  0  0  0  0  0  0  0  0  0  # atno 6909 bound_to 6896
  146.2227  140.2735  142.8358 H   0  0  0  0  0  0  0  0  0  0  0  0  # atno 7974 bound_to 7965
  155.5374  140.0605  157.2877 H   0  0  0  0  0  0  0  0  0  0  0  0  # atno 8008 bound_to 7997
  154.4464  140.1925  156.0600 H   0  0  0  0  0  0  0  0  0  0  0  0  # atno 8009 bound_to 7997
  156.0609  140.3272  155.7465 H   0  0  0  0  0  0  0  0  0  0  0  0  # atno 8010 bound_to 7997
  139.7288  143.8840  152.2528 H   0  0  0  0  0  0  0  0  0  0  0  0  # atno 10167 bound_to 10162
  155.9997  130.4730  150.4559 H   0  0  0  0  0  0  0  0  0  0  0  0  # atno 10718 bound_to 10713
  152.9933  135.6188  154.2643 H   0  0  0  0  0  0  0  0  0  0  0  0  # atno 10763 bound_to 10752
  154.2378  135.2789  155.2867 H   0  0  0  0  0  0  0  0  0  0  0  0  # atno 10764 bound_to 10752
  154.5395  135.5765  153.6885 H   0  0  0  0  0  0  0  0  0  0  0  0  # atno 10765 bound_to 10752
  141.0304  133.9989  157.3151 H   0  0  0  0  0  0  0  0  0  0  0  0  # atno 11005 bound_to 11000
  144.9250  140.7911  143.5725 LP  0  0  0  0  0  0  0  0  0  0  0  0  # atno 17320 bound_to 7965
  145.2675  139.1968  143.4859 LP  0  0  0  0  0  0  0  0  0  0  0  0  # atno 17321 bound_to 7965
  139.8758  144.7044  150.8935 LP  0  0  0  0  0  0  0  0  0  0  0  0  # atno 17342 bound_to 10162
  140.7767  143.3701  151.1665 LP  0  0  0  0  0  0  0  0  0  0  0  0  # atno 17343 bound_to 10162
  157.2588  131.0562  151.2333 LP  0  0  0  0  0  0  0  0  0  0  0  0  # atno 17370 bound_to 10713
  157.3455  130.7055  149.6408 LP  0  0  0  0  0  0  0  0  0  0  0  0  # atno 17371 bound_to 10713
  139.9204  135.0200  156.8043 LP  0  0  0  0  0  0  0  0  0  0  0  0  # atno 17394 bound_to 11000
  140.6416  133.9813  155.7710 LP  0  0  0  0  0  0  0  0  0  0  0  0  # atno 17395 bound_to 11000

$$$$
