AV-unprocessed.smi:229|AV-procd|sdf|1760|dock6
  -GOLD-   2262020293D 1   1.00000     0.00000
 Structure written by MMmdl.
 58 62  0  0  0  0  0  0  0  0  1 V2000
  147.6273  135.0799  159.8814 C   0  0  0  0  0  0  0  0  0  0  0  0
  148.0435  133.9792  158.8977 C   0  0  0  0  0  0  0  0  0  0  0  0
  148.1733  134.4855  157.4534 C   0  0  1  0  0  0  0  0  0  0  0  0
  149.1097  135.7014  157.3553 C   0  0  0  0  0  0  0  0  0  0  0  0
  149.2846  136.0791  155.9574 N   0  0  0  0  0  0  0  0  0  0  0  0
  149.8060  137.3001  155.6773 C   0  0  0  0  0  0  0  0  0  0  0  0
  149.9549  137.6959  154.3845 N   0  0  0  0  0  0  0  0  0  0  0  0
  150.4682  138.8966  154.0999 C   0  0  0  0  0  0  0  0  0  0  0  0
  150.8955  139.8420  154.9391 N   0  0  0  0  0  0  0  0  0  0  0  0
  150.7553  139.4484  156.2370 C   0  0  0  0  0  0  0  0  0  0  0  0
  150.2241  138.2081  156.6911 C   0  0  0  0  0  0  0  0  0  0  0  0
  150.2533  138.1632  158.0805 N   0  0  0  0  0  0  0  0  0  0  0  0
  150.7627  139.3136  158.4274 C   0  0  0  0  0  0  0  0  0  0  0  0
  151.0976  140.1441  157.3823 N   0  0  0  0  0  0  0  0  0  0  0  0
  151.6908  141.4665  157.4753 C   0  0  0  0  0  0  0  0  0  0  0  0
  150.7226  142.5046  158.0763 C   0  0  2  0  0  0  0  0  0  0  0  0
  149.7898  142.8982  157.0867 O   0  0  0  0  0  0  0  0  0  0  0  0
  151.4684  143.7328  158.6377 C   0  0  1  0  0  0  0  0  0  0  0  0
  150.6189  144.9368  159.0595 C   0  0  0  0  0  0  0  0  0  0  0  0
  151.5279  145.5993  160.0700 C   0  0  0  0  0  0  0  0  0  0  0  0
  152.1449  144.3910  160.7695 C   0  0  0  0  0  0  0  0  0  0  0  0
  152.2593  143.3815  159.7703 O   0  0  0  0  0  0  0  0  0  0  0  0
  149.7798  134.9834  155.1331 C   0  0  0  0  0  0  0  0  0  0  0  0
  148.8669  133.7428  155.2656 C   0  0  2  0  0  0  0  0  0  0  0  0
  149.4907  132.5281  154.5849 C   0  0  0  0  0  0  0  0  0  0  0  0
  148.8359  132.5202  153.2121 C   0  0  0  0  0  0  0  0  0  0  0  0
  147.4998  132.8734  153.5154 O   0  0  0  0  0  0  0  0  0  0  0  0
  147.5267  133.8932  154.5071 C   0  0  0  0  0  0  0  0  0  0  0  0
  148.6929  133.4240  156.6497 O   0  0  0  0  0  0  0  0  0  0  0  0
  147.5570  134.6873  160.8958 H   0  0  0  0  0  0  0  0  0  0  0  0
  146.6555  135.4987  159.6194 H   0  0  0  0  0  0  0  0  0  0  0  0
  148.3520  135.8944  159.8896 H   0  0  0  0  0  0  0  0  0  0  0  0
  148.9982  133.5641  159.2226 H   0  0  0  0  0  0  0  0  0  0  0  0
  147.3235  133.1612  158.9383 H   0  0  0  0  0  0  0  0  0  0  0  0
  147.1837  134.7748  157.0985 H   0  0  0  0  0  0  0  0  0  0  0  0
  148.6885  136.5336  157.9212 H   0  0  0  0  0  0  0  0  0  0  0  0
  150.0818  135.4671  157.7921 H   0  0  0  0  0  0  0  0  0  0  0  0
  150.5488  139.1333  153.0492 H   0  0  0  0  0  0  0  0  0  0  0  0
  150.9185  139.5860  159.4613 H   0  0  0  0  0  0  0  0  0  0  0  0
  152.5920  141.3933  158.0852 H   0  0  0  0  0  0  0  0  0  0  0  0
  152.0132  141.7734  156.4796 H   0  0  0  0  0  0  0  0  0  0  0  0
  150.1692  142.0334  158.8898 H   0  0  0  0  0  0  0  0  0  0  0  0
  149.9948  143.7804  156.8171 H   0  0  0  0  0  0  0  0  0  0  0  0
  152.1845  144.0730  157.8878 H   0  0  0  0  0  0  0  0  0  0  0  0
  150.3614  145.5886  158.2244 H   0  0  0  0  0  0  0  0  0  0  0  0
  149.6946  144.6305  159.5497 H   0  0  0  0  0  0  0  0  0  0  0  0
  152.3014  146.1748  159.5594 H   0  0  0  0  0  0  0  0  0  0  0  0
  150.9993  146.2649  160.7531 H   0  0  0  0  0  0  0  0  0  0  0  0
  153.1103  144.6170  161.2227 H   0  0  0  0  0  0  0  0  0  0  0  0
  151.4794  144.0269  161.5535 H   0  0  0  0  0  0  0  0  0  0  0  0
  149.8679  135.2695  154.0857 H   0  0  0  0  0  0  0  0  0  0  0  0
  150.7878  134.7396  155.4720 H   0  0  0  0  0  0  0  0  0  0  0  0
  150.5795  132.5605  154.5376 H   0  0  0  0  0  0  0  0  0  0  0  0
  149.2114  131.6160  155.1144 H   0  0  0  0  0  0  0  0  0  0  0  0
  149.2799  133.2716  152.5573 H   0  0  0  0  0  0  0  0  0  0  0  0
  148.8951  131.5494  152.7200 H   0  0  0  0  0  0  0  0  0  0  0  0
  146.6556  133.7778  155.1513 H   0  0  0  0  0  0  0  0  0  0  0  0
  147.4512  134.8667  154.0207 H   0  0  0  0  0  0  0  0  0  0  0  0
  1  2  1  0  0  0  0
  1 30  1  0  0  0  0
  1 31  1  0  0  0  0
  1 32  1  0  0  0  0
  2  3  1  0  0  0  0
  2 33  1  0  0  0  0
  2 34  1  0  0  0  0
  3 29  1  0  0  0  0
  3  4  1  0  0  0  0
  3 35  1  0  0  0  0
  4  5  1  0  0  0  0
  4 36  1  0  0  0  0
  4 37  1  0  0  0  0
  5  6  1  0  0  0  0
  5 23  1  0  0  0  0
  6 11  1  0  0  0  0
  6  7  2  0  0  0  0
  7  8  1  0  0  0  0
  8  9  2  0  0  0  0
  8 38  1  0  0  0  0
  9 10  1  0  0  0  0
 10 14  1  0  0  0  0
 10 11  2  0  0  0  0
 11 12  1  0  0  0  0
 12 13  2  0  0  0  0
 13 14  1  0  0  0  0
 13 39  1  0  0  0  0
 14 15  1  0  0  0  0
 15 16  1  0  0  0  0
 15 40  1  0  0  0  0
 15 41  1  0  0  0  0
 16 17  1  0  0  0  0
 16 18  1  0  0  0  0
 16 42  1  0  0  0  0
 17 43  1  0  0  0  0
 18 22  1  0  0  0  0
 18 19  1  0  0  0  0
 18 44  1  0  0  0  0
 19 20  1  0  0  0  0
 19 45  1  0  0  0  0
 19 46  1  0  0  0  0
 20 21  1  0  0  0  0
 20 47  1  0  0  0  0
 20 48  1  0  0  0  0
 21 22  1  0  0  0  0
 21 49  1  0  0  0  0
 21 50  1  0  0  0  0
 23 24  1  0  0  0  0
 23 51  1  0  0  0  0
 23 52  1  0  0  0  0
 24 28  1  0  0  0  0
 24 25  1  0  0  0  0
 24 29  1  0  0  0  0
 25 26  1  0  0  0  0
 25 53  1  0  0  0  0
 25 54  1  0  0  0  0
 26 27  1  0  0  0  0
 26 55  1  0  0  0  0
 26 56  1  0  0  0  0
 27 28  1  0  0  0  0
 28 57  1  0  0  0  0
 28 58  1  0  0  0  0
M  END
> <s_m_source_file>
AV-unprocessed.smi

> <i_m_source_file_index>
229

> <i_lp_mmshare_version>
43012

> <i_f3d_flags>
0

> <s_epik_input>
W0NIMl0xT1tDSDJdW0NIMl1bQ0BdMTJbQ0gyXU4oW0NIMl1bQ0BIXShPMilbQ0gyXVtDSDNdKWMobltjSF1uMyljKGMzNCluW2NIXW40W0NIMl1bQ0BIXShbT0hdKVtDQEBIXTVbQ0gyXVtDSDJdW0NIMl1PNQ==

> <s_epik_cmdline>
J2VwaWtfcHl0aG9uJywgJy1waCcsICc3LjAnLCAnLXRuJywgJzgnLCAnLW1hJywgJzIwMCcsICctbWV0YWxfYmluZGluZycsICctaW1hZScsICc8aW5maWxlLm1hZT4nLCAnLW9tYWUnLCAnPG91dGZpbGUubWFlPic=

> <r_lp_tautomer_probability>
1

> <r_epik_Ionization_Penalty>
0.00318402

> <r_epik_Ionization_Penalty_Charging>
0

> <r_epik_Ionization_Penalty_Neutral>
0.00318402

> <r_epik_State_Penalty>
0.00215642

> <r_epik_Charging_Adjusted_Penalty>
0.00215642

> <i_epik_Tot_Q>
0

> <i_epik_Tot_abs_Q>
0

> <r_epik_Metal_State_Penalty>
-0

> <b_epik_Metal_Only>
0

> <s_lp_Force_Field>
OPLS_2005

> <r_lp_Energy>
56.4449

> <b_lp_Chiralities_Consistent>
1

> <s_lp_Variant>
AV-unprocessed.smi:229-14

> <Gold.Version>
5.8.1

> <Gold.Id.Protein>
6NUR|6NUR_protein|mol2

> <Gold.PLP.Fitness>
46.7695

> <Gold.PLP.PLP>
-41.0760

> <Gold.PLP.part.hbond>
-1.9417

> <Gold.PLP.part.metal>
0.0000

> <Gold.PLP.part.buried>
-8.9596

> <Gold.PLP.part.nonpolar>
-31.1654

> <Gold.PLP.part.repulsive>
0.8659

> <Gold.PLP.ligand.clash>
0.0000

> <Gold.PLP.ligand.torsion>
0.5687

> <Gold.PLP.Chemscore.Hbond>
1.1460

> <Gold.PLP.Chemscore.CHOScore>
1.0000

> <Gold.PLP.Chemscore.Metal>
0.0000

> <Gold.Chemscore.Hbonds>
donor molecule, donor type, donor heavy atom, donor atom, acceptor molecule, acceptor atom, score
      L1  H    17    43       P1  8028  0.45
      P1  H  7989  7998       L1     9  0.60
      L1  C     8    38       P1  7957  1.00

> <Gold.PLP.Chemscore.Internal.Correction>
0.3929

> <Gold.Rescore>
     Score         DG    S(hbond)    S(metal)    S(lipo)     H(rot)  DE(clash)    DE(int)     intcor
     12.21     -14.40       1.15        0.00      97.32       2.46       0.32       1.87       ----

> <Gold.Chemscore.Fitness>
12.2051

> <Gold.Chemscore.DG>
-14.3978

> <Gold.Chemscore.ZeroCoef>
-5.4800

> <Gold.Chemscore.Hbond>
1.1456

> <Gold.Chemscore.Metal>
0.0000

> <Gold.Chemscore.Lipo>
97.3243

> <Gold.Chemscore.Internal_Hbond>
0.0000

> <Gold.Chemscore.DEClash>
0.3218

> <Gold.Chemscore.DEInternal>
1.8708

> <Gold.Chemscore.Rot>
2.4591

> <Gold.Chemscore.Internal.Correction>
   9.000000E+99

> <Gold.Chemscore.Hbonds>
donor molecule, donor type, donor heavy atom, donor atom, acceptor molecule, acceptor atom, score
      L1  H    17    43       P1  8028  0.44
      P1  H  7989  7998       L1     9  0.04

> <Gold.Chemscore.Hbond.Weighted>
-3.8262

> <Gold.Chemscore.Metal.Weighted>
-0.0000

> <Gold.Chemscore.Lipo.Weighted>
-11.3869

> <Gold.Chemscore.Internal_Hbond.Weighted>
0.0000

> <Gold.Chemscore.DEClash.Weighted>
0.3218

> <Gold.Chemscore.DEInternal.Weighted>
1.8708

> <Gold.Chemscore.Rot.Weighted>
6.2953

> <Gold.Chemscore.Internal.Correction.Weighted>
   9.000000E+99

> <Gold.Protein.RotatedTorsions>
[ 6907 6896 6895 6894 ] final  144.35 input  -60.11 | X-H torsion
[ 7974 7965 7964 7962 ] final  112.92 input  175.53 | X-H torsion
[ 8008 7997 7996 7995 ] final  -80.33 input   59.86 | X-H torsion
[ 10167 10162 10161 10158 ] final -135.49 input  -65.29 | X-H torsion
[ 10718 10713 10712 10709 ] final -158.22 input   66.30 | X-H torsion
[ 10763 10752 10751 10750 ] final  156.49 input  -60.55 | X-H torsion
[ 11005 11000 10999 10996 ] final -168.39 input  -57.11 | X-H torsion

> <Gold.Protein.ActiveResidues>
 VAL166  LYS551  ARG553  GLY616  TRP617  ASP618  TYR619  PRO620  LYS621  CYS622 
 ASP623  PHE694  ASN695  SER759  ASP760  ASP761  ALA762  ILE779  LEU786  VAL792 
 PHE793  MET794  SER795  GLU796  ALA797  LYS798  CYS799  TRP800  GLU811  SER814 

> <Gold.Protein.RotatedAtoms>
  152.1948  133.4799  159.5026 H   0  0  0  0  0  0  0  0  0  0  0  0  # atno 6907 bound_to 6896
  150.6958  134.1666  159.4205 H   0  0  0  0  0  0  0  0  0  0  0  0  # atno 6908 bound_to 6896
  151.9582  135.0136  160.0597 H   0  0  0  0  0  0  0  0  0  0  0  0  # atno 6909 bound_to 6896
  145.2234  139.2851  143.4206 H   0  0  0  0  0  0  0  0  0  0  0  0  # atno 7974 bound_to 7965
  154.5872  140.0664  156.9188 H   0  0  0  0  0  0  0  0  0  0  0  0  # atno 8008 bound_to 7997
  155.2358  140.3341  155.4279 H   0  0  0  0  0  0  0  0  0  0  0  0  # atno 8009 bound_to 7997
  156.2231  140.1807  156.7414 H   0  0  0  0  0  0  0  0  0  0  0  0  # atno 8010 bound_to 7997
  139.8773  143.6883  152.2632 H   0  0  0  0  0  0  0  0  0  0  0  0  # atno 10167 bound_to 10162
  156.5511  130.8605  151.2780 H   0  0  0  0  0  0  0  0  0  0  0  0  # atno 10718 bound_to 10713
  154.1852  135.2797  155.3039 H   0  0  0  0  0  0  0  0  0  0  0  0  # atno 10763 bound_to 10752
  154.5972  135.5541  153.7341 H   0  0  0  0  0  0  0  0  0  0  0  0  # atno 10764 bound_to 10752
  153.0127  135.6383  154.1990 H   0  0  0  0  0  0  0  0  0  0  0  0  # atno 10765 bound_to 10752
  140.5426  134.5508  157.5103 H   0  0  0  0  0  0  0  0  0  0  0  0  # atno 11005 bound_to 11000
  146.3370  140.2547  142.8600 LP  0  0  0  0  0  0  0  0  0  0  0  0  # atno 17320 bound_to 7965
  144.9744  140.8399  143.5436 LP  0  0  0  0  0  0  0  0  0  0  0  0  # atno 17321 bound_to 7965
  139.7228  144.7599  151.0927 LP  0  0  0  0  0  0  0  0  0  0  0  0  # atno 17342 bound_to 10162
  140.7750  143.5186  150.9565 LP  0  0  0  0  0  0  0  0  0  0  0  0  # atno 17343 bound_to 10162
  157.7387  130.9818  150.2270 LP  0  0  0  0  0  0  0  0  0  0  0  0  # atno 17370 bound_to 10713
  156.2884  130.3742  149.7866 LP  0  0  0  0  0  0  0  0  0  0  0  0  # atno 17371 bound_to 10713
  139.9496  134.7640  156.0479 LP  0  0  0  0  0  0  0  0  0  0  0  0  # atno 17394 bound_to 11000
  141.1218  133.6610  156.3235 LP  0  0  0  0  0  0  0  0  0  0  0  0  # atno 17395 bound_to 11000

$$$$
