AV-unprocessed.smi:2853|AV-procd|sdf|10974|dock3
  -GOLD-   2272015423D 1   1.00000     0.00000
 Structure written by MMmdl.
 43 44  0  0  0  0  0  0  0  0  1 V2000
  148.2089  128.9680  154.0024 C   0  0  0  0  0  0  0  0  0  0  0  0
  148.1504  130.4427  153.7983 C   0  0  0  0  0  0  0  0  0  0  0  0
  147.2041  131.0554  153.0887 N   0  0  0  0  0  0  0  0  0  0  0  0
  147.3696  132.4429  153.0490 C   0  0  0  0  0  0  0  0  0  0  0  0
  146.3778  133.2684  152.2765 C   0  0  0  0  0  0  0  0  0  0  0  0
  145.2272  132.4377  151.6708 C   0  0  0  0  0  0  0  0  0  0  0  0
  145.7050  131.4975  150.5505 C   0  0  0  0  0  0  0  0  0  0  0  0
  144.1002  133.3514  151.1678 C   0  0  0  0  0  0  0  0  0  0  0  0
  148.4726  132.9004  153.7374 C   0  0  0  0  0  0  0  0  0  0  0  0
  148.8328  134.2078  153.8338 N   0  0  0  0  0  0  0  0  0  0  0  0
  149.3645  134.8677  154.8768 C   0  0  0  0  0  0  0  0  0  0  0  0
  149.6316  134.3754  155.9726 O   0  0  0  0  0  0  0  0  0  0  0  0
  149.5858  136.1546  154.5599 N   0  0  0  0  0  0  0  0  0  0  0  0
  150.1720  137.2153  155.3906 C   0  0  2  0  0  0  0  0  0  0  0  0
  149.2422  137.4183  156.6011 C   0  0  0  0  0  0  0  0  0  0  0  0
  150.3595  138.5394  154.6293 C   0  0  0  0  0  0  0  0  0  0  0  0
  151.8693  138.7707  154.6399 C   0  0  0  0  0  0  0  0  0  0  0  0
  152.2964  138.1062  155.8162 O   0  0  0  0  0  0  0  0  0  0  0  0
  151.6012  136.8705  155.8628 C   0  0  0  0  0  0  0  0  0  0  0  0
  149.3277  131.5538  154.4736 S   0  0  0  0  0  0  0  0  0  0  0  0
  147.4536  128.4655  153.3971 H   0  0  0  0  0  0  0  0  0  0  0  0
  148.0324  128.7307  155.0516 H   0  0  0  0  0  0  0  0  0  0  0  0
  149.1914  128.5915  153.7179 H   0  0  0  0  0  0  0  0  0  0  0  0
  145.9573  134.0280  152.9371 H   0  0  0  0  0  0  0  0  0  0  0  0
  146.8802  133.8253  151.4848 H   0  0  0  0  0  0  0  0  0  0  0  0
  144.8064  131.8190  152.4646 H   0  0  0  0  0  0  0  0  0  0  0  0
  146.1756  132.0543  149.7396 H   0  0  0  0  0  0  0  0  0  0  0  0
  144.8715  130.9362  150.1277 H   0  0  0  0  0  0  0  0  0  0  0  0
  146.4283  130.7698  150.9188 H   0  0  0  0  0  0  0  0  0  0  0  0
  144.4491  134.0075  150.3700 H   0  0  0  0  0  0  0  0  0  0  0  0
  143.7137  133.9795  151.9710 H   0  0  0  0  0  0  0  0  0  0  0  0
  143.2649  132.7688  150.7782 H   0  0  0  0  0  0  0  0  0  0  0  0
  148.7098  134.7473  152.9898 H   0  0  0  0  0  0  0  0  0  0  0  0
  149.3247  136.4373  153.6269 H   0  0  0  0  0  0  0  0  0  0  0  0
  149.6315  138.1801  157.2778 H   0  0  0  0  0  0  0  0  0  0  0  0
  149.1318  136.4976  157.1752 H   0  0  0  0  0  0  0  0  0  0  0  0
  148.2458  137.7327  156.2879 H   0  0  0  0  0  0  0  0  0  0  0  0
  149.9581  138.5333  153.6152 H   0  0  0  0  0  0  0  0  0  0  0  0
  149.8686  139.3601  155.1539 H   0  0  0  0  0  0  0  0  0  0  0  0
  152.3426  138.3143  153.7692 H   0  0  0  0  0  0  0  0  0  0  0  0
  152.1326  139.8284  154.6570 H   0  0  0  0  0  0  0  0  0  0  0  0
  151.6297  136.4442  156.8661 H   0  0  0  0  0  0  0  0  0  0  0  0
  152.1074  136.1678  155.2003 H   0  0  0  0  0  0  0  0  0  0  0  0
  1  2  1  0  0  0  0
  1 21  1  0  0  0  0
  1 22  1  0  0  0  0
  1 23  1  0  0  0  0
  2 20  1  0  0  0  0
  2  3  2  0  0  0  0
  3  4  1  0  0  0  0
  4  5  1  0  0  0  0
  4  9  2  0  0  0  0
  5  6  1  0  0  0  0
  5 24  1  0  0  0  0
  5 25  1  0  0  0  0
  6  7  1  0  0  0  0
  6  8  1  0  0  0  0
  6 26  1  0  0  0  0
  7 27  1  0  0  0  0
  7 28  1  0  0  0  0
  7 29  1  0  0  0  0
  8 30  1  0  0  0  0
  8 31  1  0  0  0  0
  8 32  1  0  0  0  0
  9 10  1  0  0  0  0
  9 20  1  0  0  0  0
 10 11  1  0  0  0  0
 10 33  1  0  0  0  0
 11 12  2  0  0  0  0
 11 13  1  0  0  0  0
 13 14  1  0  0  0  0
 13 34  1  0  0  0  0
 14 19  1  0  0  0  0
 14 15  1  0  0  0  0
 14 16  1  0  0  0  0
 15 35  1  0  0  0  0
 15 36  1  0  0  0  0
 15 37  1  0  0  0  0
 16 17  1  0  0  0  0
 16 38  1  0  0  0  0
 16 39  1  0  0  0  0
 17 18  1  0  0  0  0
 17 40  1  0  0  0  0
 17 41  1  0  0  0  0
 18 19  1  0  0  0  0
 19 42  1  0  0  0  0
 19 43  1  0  0  0  0
M  END
> <s_m_source_file>
AV-unprocessed.smi

> <i_m_source_file_index>
2853

> <i_lp_mmshare_version>
43012

> <i_f3d_flags>
0

> <s_epik_input>
W0NIM11jMW5jKFtDSDJdW0NIXShbQ0gzXSlbQ0gzXSljKHMxKVtOSF1DKD1PKVtOSF1bQ0BAXTIoW0NIM10pW0NIMl1bQ0gyXU9bQ0gyXTI=

> <s_epik_cmdline>
J2VwaWtfcHl0aG9uJywgJy1waCcsICc3LjAnLCAnLXRuJywgJzgnLCAnLW1hJywgJzIwMCcsICctbWV0YWxfYmluZGluZycsICctaW1hZScsICc8aW5maWxlLm1hZT4nLCAnLW9tYWUnLCAnPG91dGZpbGUubWFlPic=

> <r_epik_Ionization_Penalty>
0.000723394

> <r_epik_Ionization_Penalty_Charging>
0

> <r_epik_Ionization_Penalty_Neutral>
0.000723394

> <r_epik_State_Penalty>
0.000446791

> <r_epik_Charging_Adjusted_Penalty>
0.000446791

> <i_epik_Tot_Q>
0

> <i_epik_Tot_abs_Q>
0

> <r_epik_Metal_State_Penalty>
-0

> <b_epik_Metal_Only>
0

> <s_lp_Force_Field>
OPLS_2005

> <r_lp_Energy>
15.0202

> <b_lp_Chiralities_Consistent>
1

> <s_lp_Variant>
AV-unprocessed.smi:2853-2

> <Gold.Version>
5.8.1

> <Gold.Id.Protein>
6NUR|6NUR_protein|mol2

> <Gold.PLP.Fitness>
37.2895

> <Gold.PLP.PLP>
-32.2529

> <Gold.PLP.part.hbond>
-2.0000

> <Gold.PLP.part.metal>
0.0000

> <Gold.PLP.part.buried>
-3.2386

> <Gold.PLP.part.nonpolar>
-27.4404

> <Gold.PLP.part.repulsive>
0.4172

> <Gold.PLP.ligand.clash>
0.0000

> <Gold.PLP.ligand.torsion>
0.3458

> <Gold.PLP.Chemscore.Hbond>
1.9000

> <Gold.PLP.Chemscore.CHOScore>
0.0000

> <Gold.PLP.Chemscore.Metal>
0.0000

> <Gold.Chemscore.Hbonds>
donor molecule, donor type, donor heavy atom, donor atom, acceptor molecule, acceptor atom, score
      L1  H    10    33       P1  7948  0.95
      L1  H    13    34       P1  7948  1.00

> <Gold.PLP.Chemscore.Internal.Correction>
0.0282

> <Gold.Rescore>
     Score         DG    S(hbond)    S(metal)    S(lipo)     H(rot)  DE(clash)    DE(int)     intcor
     14.02     -15.71       1.16        0.00      82.24       1.28       0.13       1.55       ----

> <Gold.Chemscore.Fitness>
14.0217

> <Gold.Chemscore.DG>
-15.7074

> <Gold.Chemscore.ZeroCoef>
-5.4800

> <Gold.Chemscore.Hbond>
1.1588

> <Gold.Chemscore.Metal>
0.0000

> <Gold.Chemscore.Lipo>
82.2356

> <Gold.Chemscore.Internal_Hbond>
0.0000

> <Gold.Chemscore.DEClash>
0.1310

> <Gold.Chemscore.DEInternal>
1.5547

> <Gold.Chemscore.Rot>
1.2753

> <Gold.Chemscore.Internal.Correction>
   9.000000E+99

> <Gold.Chemscore.Hbonds>
donor molecule, donor type, donor heavy atom, donor atom, acceptor molecule, acceptor atom, score
      L1  H    10    33       P1  7948  0.21
      L1  H    13    34       P1  7948  0.87

> <Gold.Chemscore.Hbond.Weighted>
-3.8705

> <Gold.Chemscore.Metal.Weighted>
-0.0000

> <Gold.Chemscore.Lipo.Weighted>
-9.6216

> <Gold.Chemscore.Internal_Hbond.Weighted>
0.0000

> <Gold.Chemscore.DEClash.Weighted>
0.1310

> <Gold.Chemscore.DEInternal.Weighted>
1.5547

> <Gold.Chemscore.Rot.Weighted>
3.2646

> <Gold.Chemscore.Internal.Correction.Weighted>
   9.000000E+99

> <Gold.Protein.RotatedTorsions>
[ 6907 6896 6895 6894 ] final  110.51 input  -60.11 | X-H torsion
[ 7974 7965 7964 7962 ] final -123.28 input  175.53 | X-H torsion
[ 8008 7997 7996 7995 ] final  -22.44 input   59.86 | X-H torsion
[ 10167 10162 10161 10158 ] final -166.50 input  -65.29 | X-H torsion
[ 10718 10713 10712 10709 ] final  164.25 input   66.30 | X-H torsion
[ 10763 10752 10751 10750 ] final -104.60 input  -60.55 | X-H torsion
[ 11005 11000 10999 10996 ] final   93.16 input  -57.11 | X-H torsion

> <Gold.Protein.ActiveResidues>
 VAL166  LYS551  ARG553  GLY616  TRP617  ASP618  TYR619  PRO620  LYS621  CYS622 
 ASP623  PHE694  ASN695  SER759  ASP760  ASP761  ALA762  ILE779  LEU786  VAL792 
 PHE793  MET794  SER795  GLU796  ALA797  LYS798  CYS799  TRP800  GLU811  SER814 

> <Gold.Protein.RotatedAtoms>
  152.5016  133.8790  159.7336 H   0  0  0  0  0  0  0  0  0  0  0  0  # atno 6907 bound_to 6896
  150.9257  133.6817  159.2828 H   0  0  0  0  0  0  0  0  0  0  0  0  # atno 6908 bound_to 6896
  151.4179  135.0998  159.9657 H   0  0  0  0  0  0  0  0  0  0  0  0  # atno 6909 bound_to 6896
  145.0204  140.7983  143.4384 H   0  0  0  0  0  0  0  0  0  0  0  0  # atno 7974 bound_to 7965
  154.4644  140.2007  156.0158 H   0  0  0  0  0  0  0  0  0  0  0  0  # atno 8008 bound_to 7997
  156.0899  140.3259  155.7774 H   0  0  0  0  0  0  0  0  0  0  0  0  # atno 8009 bound_to 7997
  155.4973  140.0551  157.2935 H   0  0  0  0  0  0  0  0  0  0  0  0  # atno 8010 bound_to 7997
  139.6111  144.0814  152.1842 H   0  0  0  0  0  0  0  0  0  0  0  0  # atno 10167 bound_to 10162
  157.0970  131.0433  151.2514 H   0  0  0  0  0  0  0  0  0  0  0  0  # atno 10718 bound_to 10713
  154.7889  135.4780  154.0008 H   0  0  0  0  0  0  0  0  0  0  0  0  # atno 10763 bound_to 10752
  153.1601  135.6807  153.8762 H   0  0  0  0  0  0  0  0  0  0  0  0  # atno 10764 bound_to 10752
  153.8378  135.3183  155.3402 H   0  0  0  0  0  0  0  0  0  0  0  0  # atno 10765 bound_to 10752
  139.8813  134.8774  156.3677 H   0  0  0  0  0  0  0  0  0  0  0  0  # atno 11005 bound_to 11000
  145.1903  139.2305  143.5246 LP  0  0  0  0  0  0  0  0  0  0  0  0  # atno 17320 bound_to 7965
  146.3484  140.1697  142.8590 LP  0  0  0  0  0  0  0  0  0  0  0  0  # atno 17321 bound_to 7965
  140.0432  144.5991  150.7394 LP  0  0  0  0  0  0  0  0  0  0  0  0  # atno 17342 bound_to 10162
  140.7319  143.2700  151.3920 LP  0  0  0  0  0  0  0  0  0  0  0  0  # atno 17343 bound_to 10162
  157.4673  130.7688  149.7291 LP  0  0  0  0  0  0  0  0  0  0  0  0  # atno 17370 bound_to 10713
  155.9883  130.3960  150.3123 LP  0  0  0  0  0  0  0  0  0  0  0  0  # atno 17371 bound_to 10713
  140.9486  133.7466  156.0241 LP  0  0  0  0  0  0  0  0  0  0  0  0  # atno 17394 bound_to 11000
  140.8133  134.3374  157.5405 LP  0  0  0  0  0  0  0  0  0  0  0  0  # atno 17395 bound_to 11000

$$$$
