AV-unprocessed.smi:112|AV-procd|sdf|1088|dock4
  -GOLD-   2262018183D 1   1.00000     0.00000
 Structure written by MMmdl.
 54 57  0  0  0  0  0  0  0  0  3 V2000
  141.1148  135.0009  153.1534 C   0  0  0  0  0  0  0  0  0  0  0  0
  142.6290  134.8881  153.2381 C   0  0  0  0  0  0  0  0  0  0  0  0
  143.3811  134.4874  152.1873 C   0  0  0  0  0  0  0  0  0  0  0  0
  144.7619  134.3734  152.2254 N   0  0  0  0  0  0  0  0  0  0  0  0
  145.5967  133.9953  151.0078 C   0  0  1  0  0  0  0  0  0  0  0  0
  146.1845  132.5768  151.0384 C   0  0  0  0  0  0  0  0  0  0  0  0
  145.2650  131.7911  150.1032 C   0  0  1  0  0  0  0  0  0  0  0  0
  144.7361  130.6550  150.7572 O   0  0  0  0  0  0  0  0  0  0  0  0
  144.1589  132.7880  149.7118 C   0  0  2  0  0  0  0  0  0  0  0  0
  143.6567  132.6595  148.2655 C   0  0  0  0  0  0  0  0  0  0  0  0
  143.4828  133.9348  147.6850 O   0  0  0  0  0  0  0  0  0  0  0  0
  144.7800  134.0555  149.8830 O   0  0  0  0  0  0  0  0  0  0  0  0
  145.4493  134.7809  153.3896 C   0  0  0  0  0  0  0  0  0  0  0  0
  146.6817  134.7625  153.4347 O   0  0  0  0  0  0  0  0  0  0  0  0
  144.6935  135.2034  154.5065 N   0  0  0  0  0  0  0  0  0  0  0  0
  145.4084  135.5941  155.7434 C   0  0  0  0  0  0  0  0  0  0  0  0
  146.5494  136.6089  155.5108 C   0  0  0  0  0  0  0  0  0  0  0  0
  146.2630  137.7869  155.2936 O   0  0  0  0  0  0  0  0  0  0  0  0
  147.8251  136.1501  155.5606 N   0  0  0  0  0  0  0  0  0  0  0  0
  148.1730  134.7440  155.8301 C   0  0  0  0  0  0  0  0  0  0  0  0
  149.7148  134.6635  155.7950 C   0  0  0  0  0  0  0  0  0  0  0  0
  150.1215  136.0766  155.4991 C   0  0  0  0  0  0  0  0  0  0  0  0
  151.4335  136.5598  155.3581 C   0  0  0  0  0  0  0  0  0  0  0  0
  151.6300  137.9346  155.0758 C   0  0  0  0  0  0  0  0  0  0  0  0
  152.9942  138.4780  154.9221 N   0  3  0  0  0  0  0  0  0  0  0  0
  153.9422  137.7053  155.0173 O   0  0  0  0  0  0  0  0  0  0  0  0
  153.1201  139.6791  154.7055 O   0  5  0  0  0  0  0  0  0  0  0  0
  150.4969  138.7809  154.9434 C   0  0  0  0  0  0  0  0  0  0  0  0
  149.1853  138.2781  155.0884 C   0  0  0  0  0  0  0  0  0  0  0  0
  149.0129  136.9054  155.3700 C   0  0  0  0  0  0  0  0  0  0  0  0
  143.2789  135.2535  154.4974 C   0  0  0  0  0  0  0  0  0  0  0  0
  142.6552  135.5922  155.5052 O   0  0  0  0  0  0  0  0  0  0  0  0
  140.7367  134.6871  152.1800 H   0  0  0  0  0  0  0  0  0  0  0  0
  140.8011  136.0328  153.3157 H   0  0  0  0  0  0  0  0  0  0  0  0
  140.6415  134.3752  153.9110 H   0  0  0  0  0  0  0  0  0  0  0  0
  142.8551  134.2628  151.2743 H   0  0  0  0  0  0  0  0  0  0  0  0
  146.3920  134.7405  150.9568 H   0  0  0  0  0  0  0  0  0  0  0  0
  147.1882  132.6146  150.6131 H   0  0  0  0  0  0  0  0  0  0  0  0
  146.2809  132.1850  152.0512 H   0  0  0  0  0  0  0  0  0  0  0  0
  145.8272  131.4731  149.2242 H   0  0  0  0  0  0  0  0  0  0  0  0
  143.8269  130.8174  150.9565 H   0  0  0  0  0  0  0  0  0  0  0  0
  143.3174  132.7288  150.4046 H   0  0  0  0  0  0  0  0  0  0  0  0
  144.3830  132.1085  147.6674 H   0  0  0  0  0  0  0  0  0  0  0  0
  142.7185  132.1057  148.2223 H   0  0  0  0  0  0  0  0  0  0  0  0
  144.3341  134.3162  147.5347 H   0  0  0  0  0  0  0  0  0  0  0  0
  144.7123  136.0096  156.4732 H   0  0  0  0  0  0  0  0  0  0  0  0
  145.8133  134.7099  156.2372 H   0  0  0  0  0  0  0  0  0  0  0  0
  147.7996  134.4339  156.8069 H   0  0  0  0  0  0  0  0  0  0  0  0
  147.7438  134.0858  155.0737 H   0  0  0  0  0  0  0  0  0  0  0  0
  150.1271  134.3389  156.7510 H   0  0  0  0  0  0  0  0  0  0  0  0
  150.0688  133.9931  155.0112 H   0  0  0  0  0  0  0  0  0  0  0  0
  152.2681  135.8825  155.4655 H   0  0  0  0  0  0  0  0  0  0  0  0
  150.6232  139.8317  154.7278 H   0  0  0  0  0  0  0  0  0  0  0  0
  148.3528  138.9551  154.9798 H   0  0  0  0  0  0  0  0  0  0  0  0
  1  2  1  0  0  0  0
  1 33  1  0  0  0  0
  1 34  1  0  0  0  0
  1 35  1  0  0  0  0
  2 31  1  0  0  0  0
  2  3  2  0  0  0  0
  3  4  1  0  0  0  0
  3 36  1  0  0  0  0
  4  5  1  0  0  0  0
  4 13  1  0  0  0  0
  5 12  1  0  0  0  0
  5  6  1  0  0  0  0
  5 37  1  0  0  0  0
  6  7  1  0  0  0  0
  6 38  1  0  0  0  0
  6 39  1  0  0  0  0
  7  8  1  0  0  0  0
  7  9  1  0  0  0  0
  7 40  1  0  0  0  0
  8 41  1  0  0  0  0
  9 10  1  0  0  0  0
  9 12  1  0  0  0  0
  9 42  1  0  0  0  0
 10 11  1  0  0  0  0
 10 43  1  0  0  0  0
 10 44  1  0  0  0  0
 11 45  1  0  0  0  0
 13 14  2  0  0  0  0
 13 15  1  0  0  0  0
 15 16  1  0  0  0  0
 15 31  1  0  0  0  0
 16 17  1  0  0  0  0
 16 46  1  0  0  0  0
 16 47  1  0  0  0  0
 17 18  2  0  0  0  0
 17 19  1  0  0  0  0
 19 30  1  0  0  0  0
 19 20  1  0  0  0  0
 20 21  1  0  0  0  0
 20 48  1  0  0  0  0
 20 49  1  0  0  0  0
 21 22  1  0  0  0  0
 21 50  1  0  0  0  0
 21 51  1  0  0  0  0
 22 30  2  0  0  0  0
 22 23  1  0  0  0  0
 23 24  2  0  0  0  0
 23 52  1  0  0  0  0
 24 25  1  0  0  0  0
 24 28  1  0  0  0  0
 25 26  2  0  0  0  0
 25 27  1  0  0  0  0
 28 29  2  0  0  0  0
 28 53  1  0  0  0  0
 29 30  1  0  0  0  0
 29 54  1  0  0  0  0
 31 32  2  0  0  0  0
M  CHG  1  25   1
M  CHG  1  27  -1
M  END
> <s_m_source_file>
AV-unprocessed.smi

> <i_m_source_file_index>
112

> <i_lp_mmshare_version>
43012

> <i_f3d_flags>
0

> <s_epik_input>
W09IXVtDSDJdW0NAQEhdKE8xKVtDQEhdKFtPSF0pW0NIMl1bQ0BIXTFuKFtjSF1jMltDSDNdKWMoPU8pbihjMj1PKVtDSDJdQyg9TylOKFtDSDJdW0NIMl0zKWMoYzM0KVtjSF1bY0hdYyhbY0hdNClbTitdKD1PKVtPLV0=

> <s_epik_cmdline>
J2VwaWtfcHl0aG9uJywgJy1waCcsICc3LjAnLCAnLXRuJywgJzgnLCAnLW1hJywgJzIwMCcsICctbWV0YWxfYmluZGluZycsICctaW1hZScsICc8aW5maWxlLm1hZT4nLCAnLW9tYWUnLCAnPG91dGZpbGUubWFlPic=

> <r_lp_tautomer_probability>
1

> <r_epik_Ionization_Penalty>
2.5696e-07

> <r_epik_Ionization_Penalty_Charging>
1.04886e-08

> <r_epik_Ionization_Penalty_Neutral>
2.46472e-07

> <r_epik_State_Penalty>
-0

> <r_epik_Charging_Adjusted_Penalty>
1.04886e-08

> <i_epik_Tot_Q>
0

> <i_epik_Tot_abs_Q>
2

> <r_epik_Metal_State_Penalty>
-0

> <b_epik_Metal_Only>
0

> <s_epik_Chemistry_Notes>
This compound contains an acetal/aminal-like group ( X-CH(R)-Y where X, Y are N, S, or O) that may be acid/base labile, releasing an aldehyde.

> <s_lp_Force_Field>
OPLS_2005

> <r_lp_Energy>
55.094

> <b_lp_Chiralities_Consistent>
1

> <s_lp_Variant>
AV-unprocessed.smi:112-6

> <Gold.Version>
5.8.1

> <Gold.Id.Protein>
6NUR|6NUR_protein|mol2

> <Gold.PLP.Fitness>
55.1969

> <Gold.PLP.PLP>
-44.9614

> <Gold.PLP.part.hbond>
-9.0879

> <Gold.PLP.part.metal>
0.0000

> <Gold.PLP.part.buried>
-3.9002

> <Gold.PLP.part.nonpolar>
-34.9692

> <Gold.PLP.part.repulsive>
2.7535

> <Gold.PLP.ligand.clash>
0.0000

> <Gold.PLP.ligand.torsion>
1.2533

> <Gold.PLP.Chemscore.Hbond>
3.3112

> <Gold.PLP.Chemscore.CHOScore>
0.9092

> <Gold.PLP.Chemscore.Metal>
0.0000

> <Gold.Chemscore.Hbonds>
donor molecule, donor type, donor heavy atom, donor atom, acceptor molecule, acceptor atom, score
      L1  H    11    45       P1  7921  1.00
      P1  H  7989  7998       L1    27  0.18
      P1  H  7997  8008       L1    27  1.00
      P1  H 10192 10197       L1    11  1.00
      L1  C     3    36       P1 10186  0.94

> <Gold.PLP.Chemscore.Internal.Correction>
0.0808

> <Gold.Rescore>
     Score         DG    S(hbond)    S(metal)    S(lipo)     H(rot)  DE(clash)    DE(int)     intcor
     12.72     -18.10       3.23        0.00      87.71       3.29       0.46       4.92       ----

> <Gold.Chemscore.Fitness>
12.7238

> <Gold.Chemscore.DG>
-18.1024

> <Gold.Chemscore.ZeroCoef>
-5.4800

> <Gold.Chemscore.Hbond>
3.2297

> <Gold.Chemscore.Metal>
0.0000

> <Gold.Chemscore.Lipo>
87.7072

> <Gold.Chemscore.Internal_Hbond>
0.0000

> <Gold.Chemscore.DEClash>
0.4570

> <Gold.Chemscore.DEInternal>
4.9215

> <Gold.Chemscore.Rot>
3.2916

> <Gold.Chemscore.Internal.Correction>
   9.000000E+99

> <Gold.Chemscore.Hbonds>
donor molecule, donor type, donor heavy atom, donor atom, acceptor molecule, acceptor atom, score
      L1  H    11    45       P1  7921  1.00
      P1  H  7989  7998       L1    27  0.17
      P1  H  7997  8008       L1    27  0.50
      P1  H 10192 10197       L1    11  0.80

> <Gold.Chemscore.Hbond.Weighted>
-10.7872

> <Gold.Chemscore.Metal.Weighted>
-0.0000

> <Gold.Chemscore.Lipo.Weighted>
-10.2617

> <Gold.Chemscore.Internal_Hbond.Weighted>
0.0000

> <Gold.Chemscore.DEClash.Weighted>
0.4570

> <Gold.Chemscore.DEInternal.Weighted>
4.9215

> <Gold.Chemscore.Rot.Weighted>
8.4265

> <Gold.Chemscore.Internal.Correction.Weighted>
   9.000000E+99

> <Gold.Protein.RotatedTorsions>
[ 6907 6896 6895 6894 ] final  -46.35 input  -60.11 | X-H torsion
[ 7974 7965 7964 7962 ] final -140.28 input  175.53 | X-H torsion
[ 8008 7997 7996 7995 ] final  -11.93 input   59.86 | X-H torsion
[ 10167 10162 10161 10158 ] final    2.12 input  -65.29 | X-H torsion
[ 10718 10713 10712 10709 ] final   95.22 input   66.30 | X-H torsion
[ 10763 10752 10751 10750 ] final   18.36 input  -60.55 | X-H torsion
[ 11005 11000 10999 10996 ] final -114.29 input  -57.11 | X-H torsion

> <Gold.Protein.ActiveResidues>
 VAL166  LYS551  ARG553  GLY616  TRP617  ASP618  TYR619  PRO620  LYS621  CYS622 
 ASP623  PHE694  ASN695  SER759  ASP760  ASP761  ALA762  ILE779  LEU786  VAL792 
 PHE793  MET794  SER795  GLU796  ALA797  LYS798  CYS799  TRP800  GLU811  SER814 

> <Gold.Protein.RotatedAtoms>
  150.9122  134.8539  159.7432 H   0  0  0  0  0  0  0  0  0  0  0  0  # atno 6907 bound_to 6896
  152.4950  134.4342  159.9532 H   0  0  0  0  0  0  0  0  0  0  0  0  # atno 6908 bound_to 6896
  151.4383  133.3611  159.2813 H   0  0  0  0  0  0  0  0  0  0  0  0  # atno 6909 bound_to 6896
  144.8610  140.6219  143.5328 H   0  0  0  0  0  0  0  0  0  0  0  0  # atno 7974 bound_to 7965
  154.5421  140.2289  155.8623 H   0  0  0  0  0  0  0  0  0  0  0  0  # atno 8008 bound_to 7997
  156.1868  140.3087  155.9217 H   0  0  0  0  0  0  0  0  0  0  0  0  # atno 8009 bound_to 7997
  155.3237  140.0442  157.3031 H   0  0  0  0  0  0  0  0  0  0  0  0  # atno 8010 bound_to 7997
  140.6650  143.7203  150.7810 H   0  0  0  0  0  0  0  0  0  0  0  0  # atno 10167 bound_to 10162
  157.6941  131.0538  150.4305 H   0  0  0  0  0  0  0  0  0  0  0  0  # atno 10718 bound_to 10713
  153.1256  135.6729  153.9263 H   0  0  0  0  0  0  0  0  0  0  0  0  # atno 10763 bound_to 10752
  153.8765  135.3063  155.3445 H   0  0  0  0  0  0  0  0  0  0  0  0  # atno 10764 bound_to 10752
  154.7661  135.4963  153.9638 H   0  0  0  0  0  0  0  0  0  0  0  0  # atno 10765 bound_to 10752
  141.0561  133.9610  157.2751 H   0  0  0  0  0  0  0  0  0  0  0  0  # atno 11005 bound_to 11000
  145.4313  139.1549  143.4021 LP  0  0  0  0  0  0  0  0  0  0  0  0  # atno 17320 bound_to 7965
  146.2860  140.4429  142.8758 LP  0  0  0  0  0  0  0  0  0  0  0  0  # atno 17321 bound_to 7965
  140.0878  143.4906  152.2495 LP  0  0  0  0  0  0  0  0  0  0  0  0  # atno 17342 bound_to 10162
  139.5896  144.7545  151.3434 LP  0  0  0  0  0  0  0  0  0  0  0  0  # atno 17343 bound_to 10162
  156.4672  130.4045  149.6540 LP  0  0  0  0  0  0  0  0  0  0  0  0  # atno 17370 bound_to 10713
  156.3633  130.7493  151.2467 LP  0  0  0  0  0  0  0  0  0  0  0  0  # atno 17371 bound_to 10713
  139.9391  135.0193  156.8652 LP  0  0  0  0  0  0  0  0  0  0  0  0  # atno 17394 bound_to 11000
  140.5961  134.0216  155.7518 LP  0  0  0  0  0  0  0  0  0  0  0  0  # atno 17395 bound_to 11000

$$$$
