#       Name:                AV-unprocessed.smi:2587
#       Creating user name   scv26
#       Creation time:       Fri Mar 27 14:16:00 2020


#       File generated by GOLD software.
#

@<TRIPOS>MOLECULE
AV-unprocessed.smi:2587
    46    47     1
SMALL
NO_CHARGES


@<TRIPOS>ATOM
      1 ****        -1.0293   3.3577  -1.2683 C.2            1 S1                 0.0000
      2 ****         0.1551   2.9271  -1.7272 C.2            1 S1                 0.0000
      3 ****         1.2857   2.4314  -0.8485 C.3            1 S1                 0.0000
      4 ****         1.8043   1.1326  -1.2713 N.pl3          1 S1                 0.0000
      5 ****         3.0849   1.0955  -1.9783 C.3            1 S1                 0.0000
      6 ****         4.2848   1.1392  -1.0199 C.3            1 S1                 0.0000
      7 ****         5.4809   1.1240  -1.7666 O.3            1 S1                 0.0000
      8 ****         1.2159  -0.0639  -0.7922 C.ar           1 S1                 0.0000
      9 ****        -0.0413  -0.0791  -0.1480 C.ar           1 S1                 0.0000
     10 ****        -0.5521  -1.3208   0.3002 C.ar           1 S1                 0.0000
     11 ****        -1.8025  -1.4650   0.9425 N.3            1 S1                 0.0000
     12 ****        -2.6511  -0.2840   1.0799 C.3            1 S1                 0.0000
     13 ****        -4.0746  -0.6856   1.5012 C.3            1 S1                 0.0000
     14 ****        -4.0202  -1.4770   2.6821 O.3            1 S1                 0.0000
     15 ****        -3.3042  -2.6882   2.4707 C.3            1 S1                 0.0000
     16 ****        -1.8485  -2.3709   2.0897 C.3            1 S1                 0.0000
     17 ****         0.1872  -2.4420   0.0948 N.pl3          1 S1                 1.0000
     18 ****         1.3723  -2.3705  -0.5241 C.ar           1 S1                 0.0000
     19 ****         1.8904  -1.2222  -0.9650 N.ar           1 S1                 0.0000
     20 ****        -1.2505   3.3720  -0.2112 H              1 S1                 0.0000
     21 ****        -1.7946   3.7034  -1.9479 H              1 S1                 0.0000
     22 ****         0.3420   2.9322  -2.7913 H              1 S1                 0.0000
     23 ****         2.0882   3.1681  -0.8990 H              1 S1                 0.0000
     24 ****         0.9758   2.4028   0.1967 H              1 S1                 0.0000
     25 ****         3.1425   0.2199  -2.6260 H              1 S1                 0.0000
     26 ****         3.1284   1.9547  -2.6489 H              1 S1                 0.0000
     27 ****         4.2619   2.0406  -0.4067 H              1 S1                 0.0000
     28 ****         4.2788   0.2832  -0.3447 H              1 S1                 0.0000
     29 ****         6.2108   1.1521  -1.1671 H              1 S1                 0.0000
     30 ****        -0.5960   0.8330  -0.0023 H              1 S1                 0.0000
     31 ****        -2.2153   0.3883   1.8200 H              1 S1                 0.0000
     32 ****        -2.7073   0.2562   0.1344 H              1 S1                 0.0000
     33 ****        -4.6731   0.2042   1.6969 H              1 S1                 0.0000
     34 ****        -4.5762  -1.2371   0.7042 H              1 S1                 0.0000
     35 ****        -3.3316  -3.2810   3.3850 H              1 S1                 0.0000
     36 ****        -3.7899  -3.2808   1.6936 H              1 S1                 0.0000
     37 ****        -1.3299  -3.3071   1.8838 H              1 S1                 0.0000
     38 ****        -1.3366  -1.8996   2.9296 H              1 S1                 0.0000
     39 ****         1.9078  -3.2985  -0.6604 H              1 S1                 0.0000
     40 ****        -0.1728  -3.3432   0.4096 H              1 S1                 0.0000
     41 ****         5.5107   1.9199  -2.3713 LP             1 S1                 0.0000
     42 ****         5.5261   0.2880  -2.3135 LP             1 S1                 0.0000
     43 ****        -2.2707  -1.9652   0.2141 LP             1 S1                 0.0000
     44 ****        -4.9528  -1.6974   2.9679 LP             1 S1                 0.0000
     45 ****        -3.5657  -0.9533   3.4027 LP             1 S1                 0.0000
     46 ****         2.7789  -1.2190  -1.4238 LP             1 S1                 0.0000
@<TRIPOS>BOND
    1    1    2 2     
    2    1   20 1     
    3    1   21 1     
    4    2    3 1     
    5    2   22 1     
    6    3    4 1     
    7    3   23 1     
    8    3   24 1     
    9    4    5 1     
   10    4    8 1     
   11    5    6 1     
   12    5   25 1     
   13    5   26 1     
   14    6    7 1     
   15    6   27 1     
   16    6   28 1     
   17    7   29 1     
   18    8   19 ar    
   19    8    9 ar    
   20    9   10 ar    
   21    9   30 1     
   22   10   11 1     
   23   10   17 ar    
   24   11   16 1     
   25   11   12 1     
   26   12   13 1     
   27   12   31 1     
   28   12   32 1     
   29   13   14 1     
   30   13   33 1     
   31   13   34 1     
   32   14   15 1     
   33   15   16 1     
   34   15   35 1     
   35   15   36 1     
   36   16   37 1     
   37   16   38 1     
   38   17   18 ar    
   39   17   40 1     
   40   18   19 ar    
   41   18   39 1     
   42    7   41 1     
   43    7   42 1     
   44   11   43 1     
   45   14   44 1     
   46   14   45 1     
   47   19   46 1     
@<TRIPOS>SUBSTRUCTURE
      1 S1             1
@<TRIPOS>SET
LONE_PAIRS      STATIC     ATOMS    <user>   **** ""
6 41 42 43 44 45 46
DONOR_HYDROGENS      STATIC     ATOMS    <user>   **** ""
2 29 40
ATOM$BLUE        STATIC     ATOMS    COLORGROUP SYSTEM
6 41 42 43 44 45 46
ATOM$RED        STATIC     ATOMS    COLORGROUP SYSTEM
2 29 40
