AV-unprocessed.smi:1560|AV-procd|sdf|6277|dock6
  -GOLD-   22720 6473D 1   1.00000     0.00000
 Structure written by MMmdl.
 48 49  0  0  0  0  0  0  0  0  2 V2000
  146.2892  142.4029  153.7483 C   0  0  0  0  0  0  0  0  0  0  0  0
  147.6499  141.7173  153.9663 C   0  0  0  0  0  0  0  0  0  0  0  0
  147.5978  140.1810  154.2351 C   0  0  1  0  0  0  0  0  0  0  0  0
  146.5807  139.9512  155.3845 C   0  0  0  0  0  0  0  0  0  0  0  0
  147.0937  139.4329  152.9604 C   0  0  0  0  0  0  0  0  0  0  0  0
  146.9717  137.9874  153.1436 N   0  0  0  0  0  0  0  0  0  0  0  0
  145.8242  137.2923  153.1502 C   0  0  0  0  0  0  0  0  0  0  0  0
  144.7218  137.8043  152.9516 O   0  0  0  0  0  0  0  0  0  0  0  0
  145.9433  135.7875  153.4240 C   0  0  0  0  0  0  0  0  0  0  0  0
  145.4366  134.9765  152.3078 N   0  0  0  0  0  0  0  0  0  0  0  0
  146.2935  134.1540  151.5901 C   0  0  0  0  0  0  0  0  0  0  0  0
  145.8924  133.3882  150.5478 C   0  0  0  0  0  0  0  0  0  0  0  0
  144.4976  133.3949  150.1193 C   0  0  0  0  0  0  0  0  0  0  0  0
  144.0385  132.7362  149.1888 O   0  0  0  0  0  0  0  0  0  0  0  0
  143.6672  134.2364  150.8644 N   0  0  0  0  0  0  0  0  0  0  0  0
  144.0739  135.0287  151.9390 C   0  0  0  0  0  0  0  0  0  0  0  0
  143.2591  135.7399  152.5268 O   0  0  0  0  0  0  0  0  0  0  0  0
  148.9646  139.6847  154.6375 N   0  3  0  0  0  0  0  0  0  0  0  0
  149.7634  139.0214  153.5681 C   0  0  0  0  0  0  0  0  0  0  0  0
  151.0381  138.3939  154.1578 C   0  0  0  0  0  0  0  0  0  0  0  0
  151.8042  139.3891  154.8218 O   0  0  0  0  0  0  0  0  0  0  0  0
  151.0874  139.9706  155.9015 C   0  0  0  0  0  0  0  0  0  0  0  0
  149.8240  140.6619  155.3645 C   0  0  0  0  0  0  0  0  0  0  0  0
  142.6928  134.2749  150.6027 H   0  0  0  0  0  0  0  0  0  0  0  0
  146.4275  143.4687  153.5651 H   0  0  0  0  0  0  0  0  0  0  0  0
  145.6391  142.3066  154.6177 H   0  0  0  0  0  0  0  0  0  0  0  0
  145.7628  141.9943  152.8862 H   0  0  0  0  0  0  0  0  0  0  0  0
  148.2527  141.9138  153.0797 H   0  0  0  0  0  0  0  0  0  0  0  0
  148.1791  142.2280  154.7704 H   0  0  0  0  0  0  0  0  0  0  0  0
  145.6530  140.5001  155.2183 H   0  0  0  0  0  0  0  0  0  0  0  0
  146.9761  140.2751  156.3475 H   0  0  0  0  0  0  0  0  0  0  0  0
  146.3003  138.9018  155.4801 H   0  0  0  0  0  0  0  0  0  0  0  0
  146.1402  139.8360  152.6181 H   0  0  0  0  0  0  0  0  0  0  0  0
  147.7895  139.5781  152.1348 H   0  0  0  0  0  0  0  0  0  0  0  0
  147.8282  137.4780  153.3085 H   0  0  0  0  0  0  0  0  0  0  0  0
  146.9925  135.5615  153.6200 H   0  0  0  0  0  0  0  0  0  0  0  0
  145.4140  135.5230  154.3420 H   0  0  0  0  0  0  0  0  0  0  0  0
  147.3373  134.1192  151.8688 H   0  0  0  0  0  0  0  0  0  0  0  0
  146.6078  132.7680  150.0275 H   0  0  0  0  0  0  0  0  0  0  0  0
  149.2030  138.2261  153.0802 H   0  0  0  0  0  0  0  0  0  0  0  0
  150.0361  139.7436  152.7983 H   0  0  0  0  0  0  0  0  0  0  0  0
  150.7905  137.5868  154.8492 H   0  0  0  0  0  0  0  0  0  0  0  0
  151.6428  137.9565  153.3631 H   0  0  0  0  0  0  0  0  0  0  0  0
  150.8332  139.2104  156.6419 H   0  0  0  0  0  0  0  0  0  0  0  0
  151.7302  140.6971  156.3988 H   0  0  0  0  0  0  0  0  0  0  0  0
  150.1202  141.4745  154.7011 H   0  0  0  0  0  0  0  0  0  0  0  0
  149.3004  141.1098  156.2067 H   0  0  0  0  0  0  0  0  0  0  0  0
  148.7737  138.9539  155.3084 H   0  0  0  0  0  0  0  0  0  0  0  0
  1  2  1  0  0  0  0
  1 25  1  0  0  0  0
  1 26  1  0  0  0  0
  1 27  1  0  0  0  0
  2  3  1  0  0  0  0
  2 28  1  0  0  0  0
  2 29  1  0  0  0  0
  3  4  1  0  0  0  0
  3  5  1  0  0  0  0
  3 18  1  0  0  0  0
  4 30  1  0  0  0  0
  4 31  1  0  0  0  0
  4 32  1  0  0  0  0
  5  6  1  0  0  0  0
  5 33  1  0  0  0  0
  5 34  1  0  0  0  0
  6  7  1  0  0  0  0
  6 35  1  0  0  0  0
  7  8  2  0  0  0  0
  7  9  1  0  0  0  0
  9 10  1  0  0  0  0
  9 36  1  0  0  0  0
  9 37  1  0  0  0  0
 10 16  1  0  0  0  0
 10 11  1  0  0  0  0
 11 12  2  0  0  0  0
 11 38  1  0  0  0  0
 12 13  1  0  0  0  0
 12 39  1  0  0  0  0
 13 14  2  0  0  0  0
 13 15  1  0  0  0  0
 15 24  1  0  0  0  0
 15 16  1  0  0  0  0
 16 17  2  0  0  0  0
 18 23  1  0  0  0  0
 18 19  1  0  0  0  0
 18 48  1  0  0  0  0
 19 20  1  0  0  0  0
 19 40  1  0  0  0  0
 19 41  1  0  0  0  0
 20 21  1  0  0  0  0
 20 42  1  0  0  0  0
 20 43  1  0  0  0  0
 21 22  1  0  0  0  0
 22 23  1  0  0  0  0
 22 44  1  0  0  0  0
 22 45  1  0  0  0  0
 23 46  1  0  0  0  0
 23 47  1  0  0  0  0
M  CHG  1  18   1
M  END
> <s_m_source_file>
AV-unprocessed.smi

> <i_m_source_file_index>
1560

> <i_lp_mmshare_version>
43012

> <i_f3d_flags>
0

> <s_epik_input>
W0NIMl0xW0NIMl1PW0NIMl1bQ0gyXU4xW0NAQF0oW0NIM10pKFtDSDJdW0NIM10pW0NIMl1bTkhdQyg9TylbQ0gyXW4yW2NIXVtjSF1jKD1PKVtuSF1jMj1P

> <s_epik_cmdline>
J2VwaWtfcHl0aG9uJywgJy1waCcsICc3LjAnLCAnLXRuJywgJzgnLCAnLW1hJywgJzIwMCcsICctbWV0YWxfYmluZGluZycsICctaW1hZScsICc8aW5maWxlLm1hZT4nLCAnLW9tYWUnLCAnPG91dGZpbGUubWFlPic=

> <r_lp_tautomer_probability>
0.999537

> <r_epik_Ionization_Penalty>
0.523885

> <r_epik_Ionization_Penalty_Charging>
0.523885

> <r_epik_Ionization_Penalty_Neutral>
8.70177e-08

> <r_epik_State_Penalty>
0.572334

> <r_epik_Charging_Adjusted_Penalty>
1.09622

> <i_epik_Tot_Q>
1

> <i_epik_Tot_abs_Q>
1

> <r_epik_Metal_State_Penalty>
0.938906

> <b_epik_Metal_Only>
0

> <s_lp_Force_Field>
OPLS_2005

> <r_lp_Energy>
27.5913

> <b_lp_Chiralities_Consistent>
1

> <s_lp_Variant>
AV-unprocessed.smi:1560-3

> <Gold.Version>
5.8.1

> <Gold.Id.Protein>
6NUR|6NUR_protein|mol2

> <Gold.PLP.Fitness>
40.0359

> <Gold.PLP.PLP>
-33.3432

> <Gold.PLP.part.hbond>
-2.9539

> <Gold.PLP.part.metal>
0.0000

> <Gold.PLP.part.buried>
-2.7553

> <Gold.PLP.part.nonpolar>
-28.3652

> <Gold.PLP.part.repulsive>
1.6749

> <Gold.PLP.ligand.clash>
0.0000

> <Gold.PLP.ligand.torsion>
1.4196

> <Gold.PLP.Chemscore.Hbond>
2.3013

> <Gold.PLP.Chemscore.CHOScore>
0.8025

> <Gold.PLP.Chemscore.Metal>
0.0000

> <Gold.Chemscore.Hbonds>
donor molecule, donor type, donor heavy atom, donor atom, acceptor molecule, acceptor atom, score
      L1  H     6    35       P1  7948  0.30
      L1  H    15    24       P1 10186  1.00
      P1  H  7989  7998       L1    21  1.00
      L1  C    11    38       P1  7948  0.73

> <Gold.PLP.Chemscore.Internal.Correction>
0.2205

> <Gold.Rescore>
     Score         DG    S(hbond)    S(metal)    S(lipo)     H(rot)  DE(clash)    DE(int)     intcor
      8.15     -12.35       1.49        0.00      72.24       2.56       1.49       2.71       ----

> <Gold.Chemscore.Fitness>
8.1542

> <Gold.Chemscore.DG>
-12.3496

> <Gold.Chemscore.ZeroCoef>
-5.4800

> <Gold.Chemscore.Hbond>
1.4911

> <Gold.Chemscore.Metal>
0.0000

> <Gold.Chemscore.Lipo>
72.2363

> <Gold.Chemscore.Internal_Hbond>
0.0000

> <Gold.Chemscore.DEClash>
1.4854

> <Gold.Chemscore.DEInternal>
2.7100

> <Gold.Chemscore.Rot>
2.5634

> <Gold.Chemscore.Internal.Correction>
   9.000000E+99

> <Gold.Chemscore.Hbonds>
donor molecule, donor type, donor heavy atom, donor atom, acceptor molecule, acceptor atom, score
      L1  H     6    35       P1  7948  0.29
      L1  H    15    24       P1 10186  0.59
      P1  H  7989  7998       L1    21  0.06

> <Gold.Chemscore.Hbond.Weighted>
-4.9804

> <Gold.Chemscore.Metal.Weighted>
-0.0000

> <Gold.Chemscore.Lipo.Weighted>
-8.4516

> <Gold.Chemscore.Internal_Hbond.Weighted>
0.0000

> <Gold.Chemscore.DEClash.Weighted>
1.4854

> <Gold.Chemscore.DEInternal.Weighted>
2.7100

> <Gold.Chemscore.Rot.Weighted>
6.5624

> <Gold.Chemscore.Internal.Correction.Weighted>
   9.000000E+99

> <Gold.Protein.RotatedTorsions>
[ 6907 6896 6895 6894 ] final   -9.40 input  -60.11 | X-H torsion
[ 7974 7965 7964 7962 ] final   83.47 input  175.53 | X-H torsion
[ 8008 7997 7996 7995 ] final  124.02 input   59.86 | X-H torsion
[ 10167 10162 10161 10158 ] final  109.42 input  -65.29 | X-H torsion
[ 10718 10713 10712 10709 ] final   44.02 input   66.30 | X-H torsion
[ 10763 10752 10751 10750 ] final   95.43 input  -60.55 | X-H torsion
[ 11005 11000 10999 10996 ] final  -51.20 input  -57.11 | X-H torsion

> <Gold.Protein.ActiveResidues>
 VAL166  LYS551  ARG553  GLY616  TRP617  ASP618  TYR619  PRO620  LYS621  CYS622 
 ASP623  PHE694  ASN695  SER759  ASP760  ASP761  ALA762  ILE779  LEU786  VAL792 
 PHE793  MET794  SER795  GLU796  ALA797  LYS798  CYS799  TRP800  GLU811  SER814 

> <Gold.Protein.RotatedAtoms>
  151.4184  135.0994  159.9606 H   0  0  0  0  0  0  0  0  0  0  0  0  # atno 6907 bound_to 6896
  152.4997  133.8731  159.7319 H   0  0  0  0  0  0  0  0  0  0  0  0  # atno 6908 bound_to 6896
  150.9241  133.6787  159.2853 H   0  0  0  0  0  0  0  0  0  0  0  0  # atno 6909 bound_to 6896
  145.6115  139.2369  143.2190 H   0  0  0  0  0  0  0  0  0  0  0  0  # atno 7974 bound_to 7965
  156.2787  140.2749  156.1720 H   0  0  0  0  0  0  0  0  0  0  0  0  # atno 8008 bound_to 7997
  155.0645  140.0387  157.2605 H   0  0  0  0  0  0  0  0  0  0  0  0  # atno 8009 bound_to 7997
  154.7090  140.2665  155.6652 H   0  0  0  0  0  0  0  0  0  0  0  0  # atno 8010 bound_to 7997
  139.6768  144.7121  151.1588 H   0  0  0  0  0  0  0  0  0  0  0  0  # atno 10167 bound_to 10162
  157.4223  130.7976  149.7527 H   0  0  0  0  0  0  0  0  0  0  0  0  # atno 10718 bound_to 10713
  153.2530  135.4254  155.0817 H   0  0  0  0  0  0  0  0  0  0  0  0  # atno 10763 bound_to 10752
  154.8389  135.3430  154.6485 H   0  0  0  0  0  0  0  0  0  0  0  0  # atno 10764 bound_to 10752
  153.6906  135.7034  153.5148 H   0  0  0  0  0  0  0  0  0  0  0  0  # atno 10765 bound_to 10752
  141.0858  133.6643  156.3843 H   0  0  0  0  0  0  0  0  0  0  0  0  # atno 11005 bound_to 11000
  146.1501  140.6937  142.9326 LP  0  0  0  0  0  0  0  0  0  0  0  0  # atno 17320 bound_to 7965
  144.7268  140.4549  143.6967 LP  0  0  0  0  0  0  0  0  0  0  0  0  # atno 17321 bound_to 7965
  140.7638  143.5760  150.8945 LP  0  0  0  0  0  0  0  0  0  0  0  0  # atno 17342 bound_to 10162
  139.9429  143.6361  152.3049 LP  0  0  0  0  0  0  0  0  0  0  0  0  # atno 17343 bound_to 10162
  155.9885  130.3959  150.3117 LP  0  0  0  0  0  0  0  0  0  0  0  0  # atno 17370 bound_to 10713
  157.1266  131.0261  151.2987 LP  0  0  0  0  0  0  0  0  0  0  0  0  # atno 17371 bound_to 10713
  140.5366  134.6161  157.5367 LP  0  0  0  0  0  0  0  0  0  0  0  0  # atno 17394 bound_to 11000
  139.9676  134.7346  156.0106 LP  0  0  0  0  0  0  0  0  0  0  0  0  # atno 17395 bound_to 11000

$$$$
