AV-unprocessed.smi:1312|AV-procd|sdf|5449|dock5
  -GOLD-   22720 5 23D 1   1.00000     0.00000
 Structure written by MMmdl.
 50 51  0  0  0  0  0  0  0  0  2 V2000
  143.3787  135.3100  153.3252 C   0  0  0  0  0  0  0  0  0  0  0  0
  144.4467  136.3999  153.5093 C   0  0  0  0  0  0  0  0  0  0  0  0
  145.3407  136.6587  152.2634 C   0  0  1  0  0  0  0  0  0  0  0  0
  146.2664  137.8831  152.5247 C   0  0  0  0  0  0  0  0  0  0  0  0
  147.4718  137.5803  153.2883 N   0  0  0  0  0  0  0  0  0  0  0  0
  147.6968  137.9600  154.5569 C   0  0  0  0  0  0  0  0  0  0  0  0
  146.8934  138.6243  155.2104 O   0  0  0  0  0  0  0  0  0  0  0  0
  149.0391  137.5621  155.1784 C   0  0  0  0  0  0  0  0  0  0  0  0
  149.9675  138.7492  155.2773 C   0  0  0  0  0  0  0  0  0  0  0  0
  151.2398  138.9062  154.6518 C   0  0  0  0  0  0  0  0  0  0  0  0
  151.9632  137.9436  153.7535 C   0  0  0  0  0  0  0  0  0  0  0  0
  151.8026  140.0680  154.9376 N   0  0  0  0  0  0  0  0  0  0  0  0
  150.9201  140.6898  155.7444 N   0  0  0  0  0  0  0  0  0  0  0  0
  151.2316  142.0119  156.2521 C   0  0  0  0  0  0  0  0  0  0  0  0
  149.7971  139.9178  155.9721 C   0  0  0  0  0  0  0  0  0  0  0  0
  148.6685  140.3913  156.8313 C   0  0  0  0  0  0  0  0  0  0  0  0
  146.1411  135.4463  151.8856 N   0  3  0  0  0  0  0  0  0  0  0  0
  146.5716  134.5606  152.9915 C   0  0  0  0  0  0  0  0  0  0  0  0
  146.9576  133.2470  152.3235 C   0  0  0  0  0  0  0  0  0  0  0  0
  145.9196  133.1108  151.2179 C   0  0  0  0  0  0  0  0  0  0  0  0
  145.5302  134.5528  150.8657 C   0  0  0  0  0  0  0  0  0  0  0  0
  142.9125  135.0679  154.2806 H   0  0  0  0  0  0  0  0  0  0  0  0
  143.8146  134.3918  152.9308 H   0  0  0  0  0  0  0  0  0  0  0  0
  142.5788  135.6224  152.6552 H   0  0  0  0  0  0  0  0  0  0  0  0
  143.9688  137.3275  153.8266 H   0  0  0  0  0  0  0  0  0  0  0  0
  145.0541  136.0685  154.3502 H   0  0  0  0  0  0  0  0  0  0  0  0
  144.6692  136.8841  151.4335 H   0  0  0  0  0  0  0  0  0  0  0  0
  146.5889  138.3435  151.5919 H   0  0  0  0  0  0  0  0  0  0  0  0
  145.7130  138.6547  153.0608 H   0  0  0  0  0  0  0  0  0  0  0  0
  148.1804  137.0256  152.8297 H   0  0  0  0  0  0  0  0  0  0  0  0
  148.8457  137.1172  156.1544 H   0  0  0  0  0  0  0  0  0  0  0  0
  149.4860  136.7710  154.5749 H   0  0  0  0  0  0  0  0  0  0  0  0
  151.2658  137.2920  153.2271 H   0  0  0  0  0  0  0  0  0  0  0  0
  152.6406  137.3104  154.3264 H   0  0  0  0  0  0  0  0  0  0  0  0
  152.5526  138.4670  152.9999 H   0  0  0  0  0  0  0  0  0  0  0  0
  150.3828  142.6774  156.0952 H   0  0  0  0  0  0  0  0  0  0  0  0
  152.1009  142.4262  155.7397 H   0  0  0  0  0  0  0  0  0  0  0  0
  151.4451  141.9517  157.3194 H   0  0  0  0  0  0  0  0  0  0  0  0
  147.9693  139.5856  157.0520 H   0  0  0  0  0  0  0  0  0  0  0  0
  148.1142  141.1875  156.3340 H   0  0  0  0  0  0  0  0  0  0  0  0
  149.0376  140.7780  157.7815 H   0  0  0  0  0  0  0  0  0  0  0  0
  147.4028  134.9828  153.5573 H   0  0  0  0  0  0  0  0  0  0  0  0
  145.7372  134.3892  153.6739 H   0  0  0  0  0  0  0  0  0  0  0  0
  147.9554  133.3293  151.8902 H   0  0  0  0  0  0  0  0  0  0  0  0
  146.9570  132.4024  153.0134 H   0  0  0  0  0  0  0  0  0  0  0  0
  146.2996  132.5572  150.3585 H   0  0  0  0  0  0  0  0  0  0  0  0
  145.0467  132.5766  151.5960 H   0  0  0  0  0  0  0  0  0  0  0  0
  144.4431  134.6392  150.8553 H   0  0  0  0  0  0  0  0  0  0  0  0
  145.8983  134.8246  149.8758 H   0  0  0  0  0  0  0  0  0  0  0  0
  146.9999  135.7866  151.4776 H   0  0  0  0  0  0  0  0  0  0  0  0
  1  2  1  0  0  0  0
  1 22  1  0  0  0  0
  1 23  1  0  0  0  0
  1 24  1  0  0  0  0
  2  3  1  0  0  0  0
  2 25  1  0  0  0  0
  2 26  1  0  0  0  0
  3  4  1  0  0  0  0
  3 17  1  0  0  0  0
  3 27  1  0  0  0  0
  4  5  1  0  0  0  0
  4 28  1  0  0  0  0
  4 29  1  0  0  0  0
  5  6  1  0  0  0  0
  5 30  1  0  0  0  0
  6  7  2  0  0  0  0
  6  8  1  0  0  0  0
  8  9  1  0  0  0  0
  8 31  1  0  0  0  0
  8 32  1  0  0  0  0
  9 15  2  0  0  0  0
  9 10  1  0  0  0  0
 10 11  1  0  0  0  0
 10 12  2  0  0  0  0
 11 33  1  0  0  0  0
 11 34  1  0  0  0  0
 11 35  1  0  0  0  0
 12 13  1  0  0  0  0
 13 14  1  0  0  0  0
 13 15  1  0  0  0  0
 14 36  1  0  0  0  0
 14 37  1  0  0  0  0
 14 38  1  0  0  0  0
 15 16  1  0  0  0  0
 16 39  1  0  0  0  0
 16 40  1  0  0  0  0
 16 41  1  0  0  0  0
 17 21  1  0  0  0  0
 17 18  1  0  0  0  0
 17 50  1  0  0  0  0
 18 19  1  0  0  0  0
 18 42  1  0  0  0  0
 18 43  1  0  0  0  0
 19 20  1  0  0  0  0
 19 44  1  0  0  0  0
 19 45  1  0  0  0  0
 20 21  1  0  0  0  0
 20 46  1  0  0  0  0
 20 47  1  0  0  0  0
 21 48  1  0  0  0  0
 21 49  1  0  0  0  0
M  CHG  1  17   1
M  END
> <s_m_source_file>
AV-unprocessed.smi

> <i_m_source_file_index>
1312

> <i_lp_mmshare_version>
43012

> <i_f3d_flags>
0

> <s_epik_input>
W0NIMl0xW0NIMl1bQ0gyXVtDSDJdTjFbQ0BIXShbQ0gyXVtDSDNdKVtDSDJdW05IXUMoPU8pW0NIMl1jMmMoW0NIM10pbm4oW0NIM10pYzJbQ0gzXQ==

> <s_epik_cmdline>
J2VwaWtfcHl0aG9uJywgJy1waCcsICc3LjAnLCAnLXRuJywgJzgnLCAnLW1hJywgJzIwMCcsICctbWV0YWxfYmluZGluZycsICctaW1hZScsICc8aW5maWxlLm1hZT4nLCAnLW9tYWUnLCAnPG91dGZpbGUubWFlPic=

> <r_lp_tautomer_probability>
1

> <r_epik_Ionization_Penalty>
0.00585463

> <r_epik_Ionization_Penalty_Charging>
0.00366302

> <r_epik_Ionization_Penalty_Neutral>
0.00219161

> <r_epik_State_Penalty>
-0

> <r_epik_Charging_Adjusted_Penalty>
0.00366302

> <i_epik_Tot_Q>
1

> <i_epik_Tot_abs_Q>
1

> <r_epik_Metal_State_Penalty>
-0

> <b_epik_Metal_Only>
0

> <s_lp_Force_Field>
OPLS_2005

> <r_lp_Energy>
35.2401

> <b_lp_Chiralities_Consistent>
1

> <s_lp_Variant>
AV-unprocessed.smi:1312-2

> <Gold.Version>
5.8.1

> <Gold.Id.Protein>
6NUR|6NUR_protein|mol2

> <Gold.PLP.Fitness>
41.7590

> <Gold.PLP.PLP>
-32.0968

> <Gold.PLP.part.hbond>
-2.9896

> <Gold.PLP.part.metal>
0.0000

> <Gold.PLP.part.buried>
-4.9342

> <Gold.PLP.part.nonpolar>
-24.6868

> <Gold.PLP.part.repulsive>
0.1503

> <Gold.PLP.ligand.clash>
0.0000

> <Gold.PLP.ligand.torsion>
1.2458

> <Gold.PLP.Chemscore.Hbond>
3.9920

> <Gold.PLP.Chemscore.CHOScore>
0.0000

> <Gold.PLP.Chemscore.Metal>
0.0000

> <Gold.Chemscore.Hbonds>
donor molecule, donor type, donor heavy atom, donor atom, acceptor molecule, acceptor atom, score
      L1  H     5    30       P1  7948  0.84
      L1  H    17    50       P1  7948  1.82
      P1  H  7989  7998       L1    12  0.94

> <Gold.PLP.Chemscore.Internal.Correction>
0.1778

> <Gold.Rescore>
     Score         DG    S(hbond)    S(metal)    S(lipo)     H(rot)  DE(clash)    DE(int)     intcor
     15.67     -17.42       2.20        0.00      76.91       1.72       0.36       1.39       ----

> <Gold.Chemscore.Fitness>
15.6684

> <Gold.Chemscore.DG>
-17.4248

> <Gold.Chemscore.ZeroCoef>
-5.4800

> <Gold.Chemscore.Hbond>
2.2015

> <Gold.Chemscore.Metal>
0.0000

> <Gold.Chemscore.Lipo>
76.9104

> <Gold.Chemscore.Internal_Hbond>
0.0000

> <Gold.Chemscore.DEClash>
0.3628

> <Gold.Chemscore.DEInternal>
1.3936

> <Gold.Chemscore.Rot>
1.7213

> <Gold.Chemscore.Internal.Correction>
   9.000000E+99

> <Gold.Chemscore.Hbonds>
donor molecule, donor type, donor heavy atom, donor atom, acceptor molecule, acceptor atom, score
      L1  H     5    30       P1  7948  0.82
      L1  H    17    50       P1  7948  0.86
      P1  H  7989  7998       L1    12  0.14

> <Gold.Chemscore.Hbond.Weighted>
-7.3529

> <Gold.Chemscore.Metal.Weighted>
-0.0000

> <Gold.Chemscore.Lipo.Weighted>
-8.9985

> <Gold.Chemscore.Internal_Hbond.Weighted>
0.0000

> <Gold.Chemscore.DEClash.Weighted>
0.3628

> <Gold.Chemscore.DEInternal.Weighted>
1.3936

> <Gold.Chemscore.Rot.Weighted>
4.4065

> <Gold.Chemscore.Internal.Correction.Weighted>
   9.000000E+99

> <Gold.Protein.RotatedTorsions>
[ 6907 6896 6895 6894 ] final  -37.09 input  -60.11 | X-H torsion
[ 7974 7965 7964 7962 ] final    1.63 input  175.53 | X-H torsion
[ 8008 7997 7996 7995 ] final  -17.40 input   59.86 | X-H torsion
[ 10167 10162 10161 10158 ] final    3.89 input  -65.29 | X-H torsion
[ 10718 10713 10712 10709 ] final -118.80 input   66.30 | X-H torsion
[ 10763 10752 10751 10750 ] final   47.40 input  -60.55 | X-H torsion
[ 11005 11000 10999 10996 ] final   85.92 input  -57.11 | X-H torsion

> <Gold.Protein.ActiveResidues>
 VAL166  LYS551  ARG553  GLY616  TRP617  ASP618  TYR619  PRO620  LYS621  CYS622 
 ASP623  PHE694  ASN695  SER759  ASP760  ASP761  ALA762  ILE779  LEU786  VAL792 
 PHE793  MET794  SER795  GLU796  ALA797  LYS798  CYS799  TRP800  GLU811  SER814 

> <Gold.Protein.RotatedAtoms>
  151.0190  134.9455  159.8048 H   0  0  0  0  0  0  0  0  0  0  0  0  # atno 6907 bound_to 6896
  152.5320  134.2928  159.9059 H   0  0  0  0  0  0  0  0  0  0  0  0  # atno 6908 bound_to 6896
  151.2935  133.4112  159.2669 H   0  0  0  0  0  0  0  0  0  0  0  0  # atno 6909 bound_to 6896
  146.2441  140.0958  142.8350 H   0  0  0  0  0  0  0  0  0  0  0  0  # atno 7974 bound_to 7965
  154.4981  140.2143  155.9404 H   0  0  0  0  0  0  0  0  0  0  0  0  # atno 8008 bound_to 7997
  156.1397  140.3182  155.8444 H   0  0  0  0  0  0  0  0  0  0  0  0  # atno 8009 bound_to 7997
  155.4143  140.0492  157.3020 H   0  0  0  0  0  0  0  0  0  0  0  0  # atno 8010 bound_to 7997
  140.6563  143.7419  150.7659 H   0  0  0  0  0  0  0  0  0  0  0  0  # atno 10167 bound_to 10162
  156.1133  130.6266  150.9337 H   0  0  0  0  0  0  0  0  0  0  0  0  # atno 10718 bound_to 10713
  152.9800  135.5977  154.3756 H   0  0  0  0  0  0  0  0  0  0  0  0  # atno 10763 bound_to 10752
  154.3425  135.2767  155.2417 H   0  0  0  0  0  0  0  0  0  0  0  0  # atno 10764 bound_to 10752
  154.4492  135.5994  153.6235 H   0  0  0  0  0  0  0  0  0  0  0  0  # atno 10765 bound_to 10752
  139.8958  134.8320  156.2649 H   0  0  0  0  0  0  0  0  0  0  0  0  # atno 11005 bound_to 11000
  145.0611  140.9088  143.4938 LP  0  0  0  0  0  0  0  0  0  0  0  0  # atno 17320 bound_to 7965
  145.1073  139.2781  143.5655 LP  0  0  0  0  0  0  0  0  0  0  0  0  # atno 17321 bound_to 7965
  140.1079  143.4726  152.2387 LP  0  0  0  0  0  0  0  0  0  0  0  0  # atno 17342 bound_to 10162
  139.5786  144.7500  151.3698 LP  0  0  0  0  0  0  0  0  0  0  0  0  # atno 17343 bound_to 10162
  157.6316  131.0920  150.8431 LP  0  0  0  0  0  0  0  0  0  0  0  0  # atno 17370 bound_to 10713
  156.8538  130.5089  149.5309 LP  0  0  0  0  0  0  0  0  0  0  0  0  # atno 17371 bound_to 10713
  141.0139  133.7080  156.1156 LP  0  0  0  0  0  0  0  0  0  0  0  0  # atno 17394 bound_to 11000
  140.7329  134.4234  157.5564 LP  0  0  0  0  0  0  0  0  0  0  0  0  # atno 17395 bound_to 11000

$$$$
