AV-unprocessed.smi:1|AV-procd|sdf|18|dock9
  -GOLD-   2262015123D 1   1.00000     0.00000
 Structure written by MMmdl.
 56 61  0  0  0  0  0  0  0  0  2 V2000
  152.9348  139.7606  157.7540 O   0  0  0  0  0  0  0  0  0  0  0  0
  152.2140  140.7177  157.4639 C   0  0  0  0  0  0  0  0  0  0  0  0
  151.2899  140.7948  156.4730 N   0  5  0  0  0  0  0  0  0  0  0  0
  150.7072  139.6776  156.0114 C   0  0  0  0  0  0  0  0  0  0  0  0
  150.6306  139.4450  154.6765 N   0  0  0  0  0  0  0  0  0  0  0  0
  150.0572  138.3272  154.2163 C   0  0  0  0  0  0  0  0  0  0  0  0
  149.5110  137.3174  154.9014 N   0  0  0  0  0  0  0  0  0  0  0  0
  149.5904  137.5360  156.2464 C   0  0  0  0  0  0  0  0  0  0  0  0
  150.1700  138.6795  156.8698 C   0  0  0  0  0  0  0  0  0  0  0  0
  150.0860  138.5826  158.2511 N   0  0  0  0  0  0  0  0  0  0  0  0
  149.4699  137.4120  158.4014 C   0  0  0  0  0  0  0  0  0  0  0  0
  149.1513  136.7299  157.2834 N   0  0  0  0  0  0  0  0  0  0  0  0
  148.4568  135.4140  157.1870 C   0  0  1  0  0  0  0  0  0  0  0  0
  148.7336  134.8667  155.9368 O   0  0  0  0  0  0  0  0  0  0  0  0
  148.8015  133.4572  156.0753 C   0  0  1  0  0  0  0  0  0  0  0  0
  149.4752  132.8041  154.8602 C   0  0  0  0  0  0  0  0  0  0  0  0
  148.6794  131.7512  154.3384 O   0  0  0  0  0  0  0  0  0  0  0  0
  149.1606  130.4930  154.3083 C   0  0  0  0  0  0  0  0  0  0  0  0
  150.1632  130.1303  154.9273 O   0  0  0  0  0  0  0  0  0  0  0  0
  148.3544  129.5826  153.4459 C   0  0  0  0  0  0  0  0  0  0  0  0
  148.9420  128.3951  152.9508 C   0  0  0  0  0  0  0  0  0  0  0  0
  148.2052  127.5180  152.1313 C   0  0  0  0  0  0  0  0  0  0  0  0
  146.8724  127.8192  151.7950 C   0  0  0  0  0  0  0  0  0  0  0  0
  146.2784  129.0000  152.2772 C   0  0  0  0  0  0  0  0  0  0  0  0
  147.0139  129.8780  153.0971 C   0  0  0  0  0  0  0  0  0  0  0  0
  149.4907  133.2480  157.4266 C   0  0  2  0  0  0  0  0  0  0  0  0
  149.1033  132.0305  158.0383 O   0  0  0  0  0  0  0  0  0  0  0  0
  147.8647  132.3323  159.1170 S   0  0  0  0  0  0  0  0  0  0  0  0
  146.6080  131.8545  158.5206 O   0  0  0  0  0  0  0  0  0  0  0  0
  148.3116  131.9222  160.4568 O   0  0  0  0  0  0  0  0  0  0  0  0
  147.8694  134.0009  159.0508 O   0  0  0  0  0  0  0  0  0  0  0  0
  148.9609  134.4302  158.2561 C   0  0  2  0  0  0  0  0  0  0  0  0
  152.2769  141.9571  158.3161 C   0  0  0  0  0  0  0  0  0  0  0  0
  153.0584  141.9585  159.4941 C   0  0  0  0  0  0  0  0  0  0  0  0
  153.1513  143.1161  160.2911 C   0  0  0  0  0  0  0  0  0  0  0  0
  152.4706  144.2887  159.9134 C   0  0  0  0  0  0  0  0  0  0  0  0
  151.7003  144.3037  158.7356 C   0  0  0  0  0  0  0  0  0  0  0  0
  151.6069  143.1464  157.9381 C   0  0  0  0  0  0  0  0  0  0  0  0
  150.0399  138.2267  153.1419 H   0  0  0  0  0  0  0  0  0  0  0  0
  149.2394  137.0266  159.3838 H   0  0  0  0  0  0  0  0  0  0  0  0
  147.3939  135.6428  157.2788 H   0  0  0  0  0  0  0  0  0  0  0  0
  147.7719  133.0999  156.1351 H   0  0  0  0  0  0  0  0  0  0  0  0
  149.6233  133.5493  154.0778 H   0  0  0  0  0  0  0  0  0  0  0  0
  150.4609  132.4333  155.1454 H   0  0  0  0  0  0  0  0  0  0  0  0
  149.9636  128.1426  153.1965 H   0  0  0  0  0  0  0  0  0  0  0  0
  148.6637  126.6129  151.7608 H   0  0  0  0  0  0  0  0  0  0  0  0
  146.3070  127.1463  151.1674 H   0  0  0  0  0  0  0  0  0  0  0  0
  145.2561  129.2336  152.0189 H   0  0  0  0  0  0  0  0  0  0  0  0
  146.5299  130.7780  153.4473 H   0  0  0  0  0  0  0  0  0  0  0  0
  150.5757  133.3114  157.3436 H   0  0  0  0  0  0  0  0  0  0  0  0
  149.7331  134.8693  158.8891 H   0  0  0  0  0  0  0  0  0  0  0  0
  153.5887  141.0671  159.7967 H   0  0  0  0  0  0  0  0  0  0  0  0
  153.7465  143.1038  161.1920 H   0  0  0  0  0  0  0  0  0  0  0  0
  152.5423  145.1764  160.5241 H   0  0  0  0  0  0  0  0  0  0  0  0
  151.1820  145.2040  158.4408 H   0  0  0  0  0  0  0  0  0  0  0  0
  151.0194  143.1826  157.0320 H   0  0  0  0  0  0  0  0  0  0  0  0
  1  2  2  0  0  0  0
  2  3  1  0  0  0  0
  2 33  1  0  0  0  0
  3  4  1  0  0  0  0
  4  9  1  0  0  0  0
  4  5  2  0  0  0  0
  5  6  1  0  0  0  0
  6  7  2  0  0  0  0
  6 39  1  0  0  0  0
  7  8  1  0  0  0  0
  8 12  1  0  0  0  0
  8  9  2  0  0  0  0
  9 10  1  0  0  0  0
 10 11  2  0  0  0  0
 11 12  1  0  0  0  0
 11 40  1  0  0  0  0
 12 13  1  0  0  0  0
 13 32  1  0  0  0  0
 13 14  1  0  0  0  0
 13 41  1  0  0  0  0
 14 15  1  0  0  0  0
 15 16  1  0  0  0  0
 15 26  1  0  0  0  0
 15 42  1  0  0  0  0
 16 17  1  0  0  0  0
 16 43  1  0  0  0  0
 16 44  1  0  0  0  0
 17 18  1  0  0  0  0
 18 19  2  0  0  0  0
 18 20  1  0  0  0  0
 20 25  1  0  0  0  0
 20 21  2  0  0  0  0
 21 22  1  0  0  0  0
 21 45  1  0  0  0  0
 22 23  2  0  0  0  0
 22 46  1  0  0  0  0
 23 24  1  0  0  0  0
 23 47  1  0  0  0  0
 24 25  2  0  0  0  0
 24 48  1  0  0  0  0
 25 49  1  0  0  0  0
 26 32  1  0  0  0  0
 26 27  1  0  0  0  0
 26 50  1  0  0  0  0
 27 28  1  0  0  0  0
 28 29  2  0  0  0  0
 28 30  2  0  0  0  0
 28 31  1  0  0  0  0
 31 32  1  0  0  0  0
 32 51  1  0  0  0  0
 33 38  1  0  0  0  0
 33 34  2  0  0  0  0
 34 35  1  0  0  0  0
 34 52  1  0  0  0  0
 35 36  2  0  0  0  0
 35 53  1  0  0  0  0
 36 37  1  0  0  0  0
 36 54  1  0  0  0  0
 37 38  2  0  0  0  0
 37 55  1  0  0  0  0
 38 56  1  0  0  0  0
M  CHG  1   3  -1
M  END
> <s_m_source_file>
AV-unprocessed.smi

> <i_m_source_file_index>
1

> <i_lp_mmshare_version>
43012

> <i_f3d_flags>
0

> <s_epik_input>
W2NIXTFbY0hdW2NIXVtjSF1bY0hdYzFDKD1PKVtOSF1jKG5bY0hdbjIpYyhjMjMpbltjSF1uM1tDQEBIXShbQ0BIXShbQ0BIXTQ1KU9TKE81KSg9Tyk9TylPW0NASF00W0NIMl1PQyg9TyljNltjSF1bY0hdW2NIXVtjSF1bY0hdNg==

> <s_epik_cmdline>
J2VwaWtfcHl0aG9uJywgJy1waCcsICc3LjAnLCAnLXRuJywgJzgnLCAnLW1hJywgJzIwMCcsICctbWV0YWxfYmluZGluZycsICctaW1hZScsICc8aW5maWxlLm1hZT4nLCAnLW9tYWUnLCAnPG91dGZpbGUubWFlPic=

> <r_lp_tautomer_probability>
1

> <r_epik_Ionization_Penalty>
4.39121

> <r_epik_Ionization_Penalty_Charging>
3.39398

> <r_epik_Ionization_Penalty_Neutral>
0.997232

> <r_epik_State_Penalty>
3.39839

> <r_epik_Charging_Adjusted_Penalty>
6.79237

> <i_epik_Tot_Q>
-1

> <i_epik_Tot_abs_Q>
1

> <r_epik_Metal_State_Penalty>
0.497663

> <b_epik_Metal_Only>
1

> <s_epik_Chemistry_Notes>
This compound has an ester and may undergo hydrolysis at high or low pH. This compound contains an acetal/aminal-like group ( X-CH(R)-Y where X, Y are N, S, or O) that may be acid/base labile, releasing an aldehyde.

> <s_lp_Force_Field>
OPLS_2005

> <r_lp_Energy>
46.6749

> <b_lp_Chiralities_Consistent>
1

> <s_lp_Variant>
AV-unprocessed.smi:1-18

> <Gold.Version>
5.8.1

> <Gold.Id.Protein>
6NUR|6NUR_protein|mol2

> <Gold.PLP.Fitness>
58.4549

> <Gold.PLP.PLP>
-52.7200

> <Gold.PLP.part.hbond>
-2.0000

> <Gold.PLP.part.metal>
0.0000

> <Gold.PLP.part.buried>
-8.7661

> <Gold.PLP.part.nonpolar>
-43.4642

> <Gold.PLP.part.repulsive>
0.4732

> <Gold.PLP.ligand.clash>
0.0000

> <Gold.PLP.ligand.torsion>
2.6154

> <Gold.PLP.Chemscore.Hbond>
2.0000

> <Gold.PLP.Chemscore.CHOScore>
1.5330

> <Gold.PLP.Chemscore.Metal>
0.0000

> <Gold.Chemscore.Hbonds>
donor molecule, donor type, donor heavy atom, donor atom, acceptor molecule, acceptor atom, score
      P1  H  7989  7998       L1     5  0.83
      P1  H  7997  8008       L1     1  1.00
      L1  C     6    39       P1  7948  0.85
      L1  C     6    39       P1  7957  0.58

> <Gold.PLP.Chemscore.Internal.Correction>
0.3668

> <Gold.Rescore>
     Score         DG    S(hbond)    S(metal)    S(lipo)     H(rot)  DE(clash)    DE(int)     intcor
     17.38     -21.34       1.84        0.00     129.26       2.11       0.06       3.89       ----

> <Gold.Chemscore.Fitness>
17.3847

> <Gold.Chemscore.DG>
-21.3352

> <Gold.Chemscore.ZeroCoef>
-5.4800

> <Gold.Chemscore.Hbond>
1.8392

> <Gold.Chemscore.Metal>
0.0000

> <Gold.Chemscore.Lipo>
129.2562

> <Gold.Chemscore.Internal_Hbond>
0.0000

> <Gold.Chemscore.DEClash>
0.0561

> <Gold.Chemscore.DEInternal>
3.8944

> <Gold.Chemscore.Rot>
2.1136

> <Gold.Chemscore.Internal.Correction>
   9.000000E+99

> <Gold.Chemscore.Hbonds>
donor molecule, donor type, donor heavy atom, donor atom, acceptor molecule, acceptor atom, score
      P1  H  7989  7998       L1     5  0.73
      P1  H  7997  8008       L1     1  0.25

> <Gold.Chemscore.Hbond.Weighted>
-6.1430

> <Gold.Chemscore.Metal.Weighted>
-0.0000

> <Gold.Chemscore.Lipo.Weighted>
-15.1230

> <Gold.Chemscore.Internal_Hbond.Weighted>
0.0000

> <Gold.Chemscore.DEClash.Weighted>
0.0561

> <Gold.Chemscore.DEInternal.Weighted>
3.8944

> <Gold.Chemscore.Rot.Weighted>
5.4107

> <Gold.Chemscore.Internal.Correction.Weighted>
   9.000000E+99

> <Gold.Protein.RotatedTorsions>
[ 6907 6896 6895 6894 ] final   71.62 input  -60.11 | X-H torsion
[ 7974 7965 7964 7962 ] final  150.14 input  175.53 | X-H torsion
[ 8008 7997 7996 7995 ] final  -58.77 input   59.86 | X-H torsion
[ 10167 10162 10161 10158 ] final  -19.90 input  -65.29 | X-H torsion
[ 10718 10713 10712 10709 ] final   42.83 input   66.30 | X-H torsion
[ 10763 10752 10751 10750 ] final  -43.88 input  -60.55 | X-H torsion
[ 11005 11000 10999 10996 ] final   35.38 input  -57.11 | X-H torsion

> <Gold.Protein.ActiveResidues>
 VAL166  LYS551  ARG553  GLY616  TRP617  ASP618  TYR619  PRO620  LYS621  CYS622 
 ASP623  PHE694  ASN695  SER759  ASP760  ASP761  ALA762  ILE779  LEU786  VAL792 
 PHE793  MET794  SER795  GLU796  ALA797  LYS798  CYS799  TRP800  GLU811  SER814 

> <Gold.Protein.RotatedAtoms>
  152.4821  134.4693  159.9629 H   0  0  0  0  0  0  0  0  0  0  0  0  # atno 6907 bound_to 6896
  151.4696  133.3566  159.2829 H   0  0  0  0  0  0  0  0  0  0  0  0  # atno 6908 bound_to 6896
  150.8901  134.8329  159.7348 H   0  0  0  0  0  0  0  0  0  0  0  0  # atno 6909 bound_to 6896
  144.8386  139.6370  143.6027 H   0  0  0  0  0  0  0  0  0  0  0  0  # atno 7974 bound_to 7965
  154.4323  140.1077  156.6009 H   0  0  0  0  0  0  0  0  0  0  0  0  # atno 8008 bound_to 7997
  155.5912  140.3492  155.4548 H   0  0  0  0  0  0  0  0  0  0  0  0  # atno 8009 bound_to 7997
  156.0245  140.1247  157.0312 H   0  0  0  0  0  0  0  0  0  0  0  0  # atno 8010 bound_to 7997
  140.7272  143.4774  151.0163 H   0  0  0  0  0  0  0  0  0  0  0  0  # atno 10167 bound_to 10162
  157.4092  130.7904  149.7415 H   0  0  0  0  0  0  0  0  0  0  0  0  # atno 10718 bound_to 10713
  154.0028  135.6691  153.4760 H   0  0  0  0  0  0  0  0  0  0  0  0  # atno 10763 bound_to 10752
  153.0655  135.5003  154.8185 H   0  0  0  0  0  0  0  0  0  0  0  0  # atno 10764 bound_to 10752
  154.7042  135.3084  154.9258 H   0  0  0  0  0  0  0  0  0  0  0  0  # atno 10765 bound_to 10752
  140.2433  134.3389  155.7917 H   0  0  0  0  0  0  0  0  0  0  0  0  # atno 11005 bound_to 11000
  146.2681  139.6570  142.9315 LP  0  0  0  0  0  0  0  0  0  0  0  0  # atno 17320 bound_to 7965
  145.4742  141.0437  143.2682 LP  0  0  0  0  0  0  0  0  0  0  0  0  # atno 17321 bound_to 7965
  139.8470  143.7488  152.3179 LP  0  0  0  0  0  0  0  0  0  0  0  0  # atno 17342 bound_to 10162
  139.7657  144.7493  151.0299 LP  0  0  0  0  0  0  0  0  0  0  0  0  # atno 17343 bound_to 10162
  155.9845  130.3990  150.3306 LP  0  0  0  0  0  0  0  0  0  0  0  0  # atno 17370 bound_to 10713
  157.1443  131.0304  151.2914 LP  0  0  0  0  0  0  0  0  0  0  0  0  # atno 17371 bound_to 10713
  141.2208  133.7311  156.8920 LP  0  0  0  0  0  0  0  0  0  0  0  0  # atno 17394 bound_to 11000
  140.1631  134.9151  157.2740 LP  0  0  0  0  0  0  0  0  0  0  0  0  # atno 17395 bound_to 11000

$$$$
