AV-unprocessed.smi:3303|AV-procd|sdf|12659|dock3
  -GOLD-   2272018593D 1   1.00000     0.00000
 Structure written by MMmdl.
 45 46  0  0  0  0  0  0  0  0  3 V2000
  145.8578  136.6049  152.9240 C   0  0  0  0  0  0  0  0  0  0  0  0
  145.6163  135.6151  151.7706 C   0  0  2  0  0  0  0  0  0  0  0  0
  144.1387  135.6861  151.3177 C   0  0  0  0  0  0  0  0  0  0  0  0
  143.8310  134.7352  150.2183 N   0  3  1  0  0  0  0  0  0  0  0  0
  144.3639  135.1779  148.9045 C   0  0  0  0  0  0  0  0  0  0  0  0
  144.1551  133.3318  150.6041 C   0  0  1  0  0  0  0  0  0  0  0  0
  143.7471  132.3054  149.5331 C   0  0  0  0  0  0  0  0  0  0  0  0
  145.6340  133.1939  151.0194 C   0  0  0  0  0  0  0  0  0  0  0  0
  145.9979  134.1661  152.1570 C   0  0  1  0  0  0  0  0  0  0  0  0
  147.4451  134.0597  152.4537 N   0  3  0  0  0  0  0  0  0  0  0  0
  147.7677  133.4336  153.7516 C   0  0  0  0  0  0  0  0  0  0  0  0
  149.2790  133.4636  154.0161 C   0  0  0  0  0  0  0  0  0  0  0  0
  149.8311  132.0901  154.3458 C   0  0  0  0  0  0  0  0  0  0  0  0
  149.3379  130.9390  153.6954 C   0  0  0  0  0  0  0  0  0  0  0  0
  149.8901  129.6887  154.0356 C   0  0  0  0  0  0  0  0  0  0  0  0
  150.9090  129.6391  155.0063 C   0  0  0  0  0  0  0  0  0  0  0  0
  151.3329  130.8466  155.5961 C   0  0  0  0  0  0  0  0  0  0  0  0
  150.8112  132.0509  155.2760 N   0  0  0  0  0  0  0  0  0  0  0  0
  145.2759  136.3363  153.8063 H   0  0  0  0  0  0  0  0  0  0  0  0
  145.5735  137.6176  152.6363 H   0  0  0  0  0  0  0  0  0  0  0  0
  146.9079  136.6365  153.2152 H   0  0  0  0  0  0  0  0  0  0  0  0
  146.2458  135.9274  150.9361 H   0  0  0  0  0  0  0  0  0  0  0  0
  143.4852  135.4553  152.1606 H   0  0  0  0  0  0  0  0  0  0  0  0
  143.8814  136.6998  151.0073 H   0  0  0  0  0  0  0  0  0  0  0  0
  145.4505  135.1105  148.8576 H   0  0  0  0  0  0  0  0  0  0  0  0
  144.0847  136.2140  148.7100 H   0  0  0  0  0  0  0  0  0  0  0  0
  143.9507  134.5846  148.0893 H   0  0  0  0  0  0  0  0  0  0  0  0
  143.5470  133.1126  151.4836 H   0  0  0  0  0  0  0  0  0  0  0  0
  143.8508  131.2889  149.9139 H   0  0  0  0  0  0  0  0  0  0  0  0
  144.3668  132.3773  148.6388 H   0  0  0  0  0  0  0  0  0  0  0  0
  142.7060  132.4370  149.2358 H   0  0  0  0  0  0  0  0  0  0  0  0
  145.8272  132.1702  151.3433 H   0  0  0  0  0  0  0  0  0  0  0  0
  146.2822  133.3639  150.1586 H   0  0  0  0  0  0  0  0  0  0  0  0
  145.4219  133.8810  153.0399 H   0  0  0  0  0  0  0  0  0  0  0  0
  147.8844  133.5169  151.7235 H   0  0  0  0  0  0  0  0  0  0  0  0
  147.2425  133.9626  154.5481 H   0  0  0  0  0  0  0  0  0  0  0  0
  147.4048  132.4047  153.7508 H   0  0  0  0  0  0  0  0  0  0  0  0
  149.8051  133.8545  153.1437 H   0  0  0  0  0  0  0  0  0  0  0  0
  149.5006  134.1447  154.8388 H   0  0  0  0  0  0  0  0  0  0  0  0
  148.5557  131.0080  152.9537 H   0  0  0  0  0  0  0  0  0  0  0  0
  149.5396  128.7845  153.5600 H   0  0  0  0  0  0  0  0  0  0  0  0
  151.3551  128.6980  155.2924 H   0  0  0  0  0  0  0  0  0  0  0  0
  152.1124  130.8453  156.3435 H   0  0  0  0  0  0  0  0  0  0  0  0
  147.8413  134.9889  152.4424 H   0  0  0  0  0  0  0  0  0  0  0  0
  142.8266  134.7645  150.1107 H   0  0  0  0  0  0  0  0  0  0  0  0
  1  2  1  0  0  0  0
  1 19  1  0  0  0  0
  1 20  1  0  0  0  0
  1 21  1  0  0  0  0
  2  9  1  0  0  0  0
  2  3  1  0  0  0  0
  2 22  1  0  0  0  0
  3  4  1  0  0  0  0
  3 23  1  0  0  0  0
  3 24  1  0  0  0  0
  4  5  1  0  0  0  0
  4  6  1  0  0  0  0
  4 45  1  0  0  0  0
  5 25  1  0  0  0  0
  5 26  1  0  0  0  0
  5 27  1  0  0  0  0
  6  7  1  0  0  0  0
  6  8  1  0  0  0  0
  6 28  1  0  0  0  0
  7 29  1  0  0  0  0
  7 30  1  0  0  0  0
  7 31  1  0  0  0  0
  8  9  1  0  0  0  0
  8 32  1  0  0  0  0
  8 33  1  0  0  0  0
  9 10  1  0  0  0  0
  9 34  1  0  0  0  0
 10 11  1  0  0  0  0
 10 35  1  0  0  0  0
 10 44  1  0  0  0  0
 11 12  1  0  0  0  0
 11 36  1  0  0  0  0
 11 37  1  0  0  0  0
 12 13  1  0  0  0  0
 12 38  1  0  0  0  0
 12 39  1  0  0  0  0
 13 18  1  0  0  0  0
 13 14  2  0  0  0  0
 14 15  1  0  0  0  0
 14 40  1  0  0  0  0
 15 16  2  0  0  0  0
 15 41  1  0  0  0  0
 16 17  1  0  0  0  0
 16 42  1  0  0  0  0
 17 18  2  0  0  0  0
 17 43  1  0  0  0  0
M  CHG  1   4   1
M  CHG  1  10   1
M  END
> <s_m_source_file>
AV-unprocessed.smi

> <i_m_source_file_index>
3303

> <i_lp_mmshare_version>
43012

> <i_f3d_flags>
0

> <s_epik_input>
W0NIM11bQ0BASF0xW0NIMl1OKFtDSDNdKVtDQEBIXShbQ0gzXSlbQ0gyXVtDQEhdMVtOSF1bQ0gyXVtDSDJdYzJbY0hdW2NIXVtjSF1bY0hdbjI=

> <s_epik_cmdline>
J2VwaWtfcHl0aG9uJywgJy1waCcsICc3LjAnLCAnLXRuJywgJzgnLCAnLW1hJywgJzIwMCcsICctbWV0YWxfYmluZGluZycsICctaW1hZScsICc8aW5maWxlLm1hZT4nLCAnLW9tYWUnLCAnPG91dGZpbGUubWFlPic=

> <r_epik_Ionization_Penalty>
0.0769462

> <r_epik_Ionization_Penalty_Charging>
0.0759813

> <r_epik_Ionization_Penalty_Neutral>
0.000964829

> <r_epik_State_Penalty>
0.0654373

> <r_epik_Charging_Adjusted_Penalty>
0.141419

> <i_epik_Tot_Q>
2

> <i_epik_Tot_abs_Q>
2

> <r_epik_Metal_State_Penalty>
0.0656439

> <b_epik_Metal_Only>
0

> <s_lp_Force_Field>
OPLS_2005

> <r_lp_Energy>
31.8581

> <b_lp_Chiralities_Consistent>
1

> <s_lp_Variant>
AV-unprocessed.smi:3303-3

> <Gold.Version>
5.8.1

> <Gold.Id.Protein>
6NUR|6NUR_protein|mol2

> <Gold.PLP.Fitness>
40.4414

> <Gold.PLP.PLP>
-31.2323

> <Gold.PLP.part.hbond>
-2.0000

> <Gold.PLP.part.metal>
0.0000

> <Gold.PLP.part.buried>
1.3000

> <Gold.PLP.part.nonpolar>
-30.5567

> <Gold.PLP.part.repulsive>
0.0615

> <Gold.PLP.ligand.clash>
0.0000

> <Gold.PLP.ligand.torsion>
1.4041

> <Gold.PLP.Chemscore.Hbond>
4.0000

> <Gold.PLP.Chemscore.CHOScore>
0.0000

> <Gold.PLP.Chemscore.Metal>
0.0000

> <Gold.Chemscore.Hbonds>
donor molecule, donor type, donor heavy atom, donor atom, acceptor molecule, acceptor atom, score
      L1  H     4    45       P1 10186  2.00
      L1  H    10    44       P1  7948  2.00

> <Gold.PLP.Chemscore.Internal.Correction>
0.0173

> <Gold.Rescore>
     Score         DG    S(hbond)    S(metal)    S(lipo)     H(rot)  DE(clash)    DE(int)     intcor
     15.47     -19.04       1.86        0.00      92.90       1.37       2.20       1.37       ----

> <Gold.Chemscore.Fitness>
15.4689

> <Gold.Chemscore.DG>
-19.0390

> <Gold.Chemscore.ZeroCoef>
-5.4800

> <Gold.Chemscore.Hbond>
1.8587

> <Gold.Chemscore.Metal>
0.0000

> <Gold.Chemscore.Lipo>
92.9010

> <Gold.Chemscore.Internal_Hbond>
0.0000

> <Gold.Chemscore.DEClash>
2.2024

> <Gold.Chemscore.DEInternal>
1.3678

> <Gold.Chemscore.Rot>
1.3744

> <Gold.Chemscore.Internal.Correction>
   9.000000E+99

> <Gold.Chemscore.Hbonds>
donor molecule, donor type, donor heavy atom, donor atom, acceptor molecule, acceptor atom, score
      L1  H     4    45       P1 10186  0.50
      L1  H    10    44       P1  7948  0.89

> <Gold.Chemscore.Hbond.Weighted>
-6.2081

> <Gold.Chemscore.Metal.Weighted>
-0.0000

> <Gold.Chemscore.Lipo.Weighted>
-10.8694

> <Gold.Chemscore.Internal_Hbond.Weighted>
0.0000

> <Gold.Chemscore.DEClash.Weighted>
2.2024

> <Gold.Chemscore.DEInternal.Weighted>
1.3678

> <Gold.Chemscore.Rot.Weighted>
3.5185

> <Gold.Chemscore.Internal.Correction.Weighted>
   9.000000E+99

> <Gold.Protein.RotatedTorsions>
[ 6907 6896 6895 6894 ] final  -34.08 input  -60.11 | X-H torsion
[ 7974 7965 7964 7962 ] final   38.65 input  175.53 | X-H torsion
[ 8008 7997 7996 7995 ] final -179.97 input   59.86 | X-H torsion
[ 10167 10162 10161 10158 ] final   56.14 input  -65.29 | X-H torsion
[ 10718 10713 10712 10709 ] final -126.85 input   66.30 | X-H torsion
[ 10763 10752 10751 10750 ] final  174.05 input  -60.55 | X-H torsion
[ 11005 11000 10999 10996 ] final  -21.15 input  -57.11 | X-H torsion

> <Gold.Protein.ActiveResidues>
 VAL166  LYS551  ARG553  GLY616  TRP617  ASP618  TYR619  PRO620  LYS621  CYS622 
 ASP623  PHE694  ASN695  SER759  ASP760  ASP761  ALA762  ILE779  LEU786  VAL792 
 PHE793  MET794  SER795  GLU796  ALA797  LYS798  CYS799  TRP800  GLU811  SER814 

> <Gold.Protein.RotatedAtoms>
  151.0573  134.9713  159.8242 H   0  0  0  0  0  0  0  0  0  0  0  0  # atno 6907 bound_to 6896
  152.5390  134.2462  159.8891 H   0  0  0  0  0  0  0  0  0  0  0  0  # atno 6908 bound_to 6896
  151.2480  133.4322  159.2644 H   0  0  0  0  0  0  0  0  0  0  0  0  # atno 6909 bound_to 6896
  146.1045  139.5746  142.9392 H   0  0  0  0  0  0  0  0  0  0  0  0  # atno 7974 bound_to 7965
  156.0366  140.1294  157.0201 H   0  0  0  0  0  0  0  0  0  0  0  0  # atno 8008 bound_to 7997
  154.4372  140.1038  156.6247 H   0  0  0  0  0  0  0  0  0  0  0  0  # atno 8009 bound_to 7997
  155.5728  140.3467  155.4522 H   0  0  0  0  0  0  0  0  0  0  0  0  # atno 8010 bound_to 7997
  140.2120  144.3879  150.6485 H   0  0  0  0  0  0  0  0  0  0  0  0  # atno 10167 bound_to 10162
  156.1803  130.6727  151.0296 H   0  0  0  0  0  0  0  0  0  0  0  0  # atno 10718 bound_to 10713
  154.4486  135.2764  155.1797 H   0  0  0  0  0  0  0  0  0  0  0  0  # atno 10763 bound_to 10752
  154.3634  135.6124  153.5706 H   0  0  0  0  0  0  0  0  0  0  0  0  # atno 10764 bound_to 10752
  152.9845  135.5840  154.4826 H   0  0  0  0  0  0  0  0  0  0  0  0  # atno 10765 bound_to 10752
  140.8533  133.7841  155.9991 H   0  0  0  0  0  0  0  0  0  0  0  0  # atno 11005 bound_to 11000
  145.5788  141.0385  143.2134 LP  0  0  0  0  0  0  0  0  0  0  0  0  # atno 17320 bound_to 7965
  144.7460  139.7320  143.7292 LP  0  0  0  0  0  0  0  0  0  0  0  0  # atno 17321 bound_to 7965
  140.6317  143.2188  151.6482 LP  0  0  0  0  0  0  0  0  0  0  0  0  # atno 17342 bound_to 10162
  139.5176  144.3309  152.0827 LP  0  0  0  0  0  0  0  0  0  0  0  0  # atno 17343 bound_to 10162
  157.6864  131.0823  150.7232 LP  0  0  0  0  0  0  0  0  0  0  0  0  # atno 17370 bound_to 10713
  156.7289  130.4703  149.5504 LP  0  0  0  0  0  0  0  0  0  0  0  0  # atno 17371 bound_to 10713
  140.8765  134.2663  157.5165 LP  0  0  0  0  0  0  0  0  0  0  0  0  # atno 17394 bound_to 11000
  139.8704  134.9594  156.4330 LP  0  0  0  0  0  0  0  0  0  0  0  0  # atno 17395 bound_to 11000

$$$$
