AV-unprocessed.smi:2477|AV-procd|sdf|9762|dock5
  -GOLD-   2272013403D 1   1.00000     0.00000
 Structure written by MMmdl.
 51 53  0  0  0  0  0  0  0  0  1 V2000
  154.4722  140.3359  160.7754 C   0  0  0  0  0  0  0  0  0  0  0  0
  153.5262  141.3692  160.3462 N   0  0  0  0  0  0  0  0  0  0  0  0
  153.3355  142.4704  161.1978 C   0  0  0  0  0  0  0  0  0  0  0  0
  152.4918  143.4636  160.8846 C   0  0  0  0  0  0  0  0  0  0  0  0
  151.7708  143.3840  159.6369 C   0  0  0  0  0  0  0  0  0  0  0  0
  151.9331  142.3253  158.8038 C   0  0  0  0  0  0  0  0  0  0  0  0
  151.2801  142.1690  157.5686 N   0  0  0  0  0  0  0  0  0  0  0  0
  150.0508  141.6908  157.3044 C   0  0  0  0  0  0  0  0  0  0  0  0
  149.2402  141.2841  158.1361 O   0  0  0  0  0  0  0  0  0  0  0  0
  149.8221  141.6740  155.9831 N   0  0  0  0  0  0  0  0  0  0  0  0
  148.6269  141.1388  155.3353 C   0  0  1  0  0  0  0  0  0  0  0  0
  147.9848  142.2463  154.4773 C   0  0  0  0  0  0  0  0  0  0  0  0
  146.7562  141.7314  153.7112 C   0  0  0  0  0  0  0  0  0  0  0  0
  147.1100  140.5090  152.8517 C   0  0  0  0  0  0  0  0  0  0  0  0
  147.7411  139.3999  153.7062 C   0  0  0  0  0  0  0  0  0  0  0  0
  148.9790  139.9078  154.4663 C   0  0  2  0  0  0  0  0  0  0  0  0
  149.4242  138.8427  155.2989 O   0  0  0  0  0  0  0  0  0  0  0  0
  150.3352  137.9386  154.6833 C   0  0  0  0  0  0  0  0  0  0  0  0
  150.7093  136.8134  155.6522 C   0  0  0  0  0  0  0  0  0  0  0  0
  151.7364  137.4416  156.5981 C   0  0  0  0  0  0  0  0  0  0  0  0
  152.4074  138.5747  155.8060 C   0  0  0  0  0  0  0  0  0  0  0  0
  151.6597  138.6720  154.4694 C   0  0  0  0  0  0  0  0  0  0  0  0
  152.8659  141.2373  159.1573 C   0  0  0  0  0  0  0  0  0  0  0  0
  153.0501  140.2571  158.4312 O   0  0  0  0  0  0  0  0  0  0  0  0
  154.9564  140.5743  161.7229 H   0  0  0  0  0  0  0  0  0  0  0  0
  155.2613  140.2049  160.0335 H   0  0  0  0  0  0  0  0  0  0  0  0
  153.9618  139.3801  160.9017 H   0  0  0  0  0  0  0  0  0  0  0  0
  153.9111  142.4573  162.1117 H   0  0  0  0  0  0  0  0  0  0  0  0
  152.3546  144.3033  161.5496 H   0  0  0  0  0  0  0  0  0  0  0  0
  151.1171  144.2061  159.3962 H   0  0  0  0  0  0  0  0  0  0  0  0
  151.8448  142.4102  156.7670 H   0  0  0  0  0  0  0  0  0  0  0  0
  150.5462  142.0255  155.3738 H   0  0  0  0  0  0  0  0  0  0  0  0
  147.8987  140.8390  156.0917 H   0  0  0  0  0  0  0  0  0  0  0  0
  147.6955  143.0870  155.1089 H   0  0  0  0  0  0  0  0  0  0  0  0
  148.7155  142.6333  153.7651 H   0  0  0  0  0  0  0  0  0  0  0  0
  145.9697  141.4661  154.4189 H   0  0  0  0  0  0  0  0  0  0  0  0
  146.3514  142.5241  153.0815 H   0  0  0  0  0  0  0  0  0  0  0  0
  146.2154  140.1324  152.3549 H   0  0  0  0  0  0  0  0  0  0  0  0
  147.8030  140.8027  152.0623 H   0  0  0  0  0  0  0  0  0  0  0  0
  147.0028  139.0260  154.4169 H   0  0  0  0  0  0  0  0  0  0  0  0
  148.0143  138.5551  153.0733 H   0  0  0  0  0  0  0  0  0  0  0  0
  149.7389  140.1864  153.7328 H   0  0  0  0  0  0  0  0  0  0  0  0
  149.9394  137.5646  153.7379 H   0  0  0  0  0  0  0  0  0  0  0  0
  149.8540  136.3917  156.1805 H   0  0  0  0  0  0  0  0  0  0  0  0
  151.1808  136.0025  155.0956 H   0  0  0  0  0  0  0  0  0  0  0  0
  151.2261  137.8579  157.4675 H   0  0  0  0  0  0  0  0  0  0  0  0
  152.4559  136.7076  156.9619 H   0  0  0  0  0  0  0  0  0  0  0  0
  152.3272  139.5122  156.3579 H   0  0  0  0  0  0  0  0  0  0  0  0
  153.4682  138.3803  155.6447 H   0  0  0  0  0  0  0  0  0  0  0  0
  152.2336  138.1557  153.6988 H   0  0  0  0  0  0  0  0  0  0  0  0
  151.5222  139.7013  154.1358 H   0  0  0  0  0  0  0  0  0  0  0  0
  1  2  1  0  0  0  0
  1 25  1  0  0  0  0
  1 26  1  0  0  0  0
  1 27  1  0  0  0  0
  2 23  1  0  0  0  0
  2  3  1  0  0  0  0
  3  4  2  0  0  0  0
  3 28  1  0  0  0  0
  4  5  1  0  0  0  0
  4 29  1  0  0  0  0
  5  6  2  0  0  0  0
  5 30  1  0  0  0  0
  6  7  1  0  0  0  0
  6 23  1  0  0  0  0
  7  8  1  0  0  0  0
  7 31  1  0  0  0  0
  8  9  2  0  0  0  0
  8 10  1  0  0  0  0
 10 11  1  0  0  0  0
 10 32  1  0  0  0  0
 11 16  1  0  0  0  0
 11 12  1  0  0  0  0
 11 33  1  0  0  0  0
 12 13  1  0  0  0  0
 12 34  1  0  0  0  0
 12 35  1  0  0  0  0
 13 14  1  0  0  0  0
 13 36  1  0  0  0  0
 13 37  1  0  0  0  0
 14 15  1  0  0  0  0
 14 38  1  0  0  0  0
 14 39  1  0  0  0  0
 15 16  1  0  0  0  0
 15 40  1  0  0  0  0
 15 41  1  0  0  0  0
 16 17  1  0  0  0  0
 16 42  1  0  0  0  0
 17 18  1  0  0  0  0
 18 22  1  0  0  0  0
 18 19  1  0  0  0  0
 18 43  1  0  0  0  0
 19 20  1  0  0  0  0
 19 44  1  0  0  0  0
 19 45  1  0  0  0  0
 20 21  1  0  0  0  0
 20 46  1  0  0  0  0
 20 47  1  0  0  0  0
 21 22  1  0  0  0  0
 21 48  1  0  0  0  0
 21 49  1  0  0  0  0
 22 50  1  0  0  0  0
 22 51  1  0  0  0  0
 23 24  2  0  0  0  0
M  END
> <s_m_source_file>
AV-unprocessed.smi

> <i_m_source_file_index>
2477

> <i_lp_mmshare_version>
43012

> <i_f3d_flags>
0

> <s_epik_input>
W0NIM11uMVtjSF1bY0hdW2NIXWMoYzE9TylbTkhdQyg9TylbTkhdW0NAQEhdMltDSDJdW0NIMl1bQ0gyXVtDSDJdW0NASF0yT1tDSF0zW0NIMl1bQ0gyXVtDSDJdW0NIMl0z

> <s_epik_cmdline>
J2VwaWtfcHl0aG9uJywgJy1waCcsICc3LjAnLCAnLXRuJywgJzgnLCAnLW1hJywgJzIwMCcsICctbWV0YWxfYmluZGluZycsICctaW1hZScsICc8aW5maWxlLm1hZT4nLCAnLW9tYWUnLCAnPG91dGZpbGUubWFlPic=

> <r_lp_tautomer_probability>
1

> <r_epik_Ionization_Penalty>
2.40753e-05

> <r_epik_Ionization_Penalty_Charging>
4.84018e-06

> <r_epik_Ionization_Penalty_Neutral>
1.92352e-05

> <r_epik_State_Penalty>
-0

> <r_epik_Charging_Adjusted_Penalty>
4.84018e-06

> <i_epik_Tot_Q>
0

> <i_epik_Tot_abs_Q>
0

> <r_epik_Metal_State_Penalty>
-0

> <b_epik_Metal_Only>
0

> <s_lp_Force_Field>
OPLS_2005

> <r_lp_Energy>
41.4138

> <b_lp_Chiralities_Consistent>
1

> <s_lp_Variant>
AV-unprocessed.smi:2477-4

> <Gold.Version>
5.8.1

> <Gold.Id.Protein>
6NUR|6NUR_protein|mol2

> <Gold.PLP.Fitness>
46.6428

> <Gold.PLP.PLP>
-45.8975

> <Gold.PLP.part.hbond>
-1.3029

> <Gold.PLP.part.metal>
0.0000

> <Gold.PLP.part.buried>
-2.4474

> <Gold.PLP.part.nonpolar>
-41.6719

> <Gold.PLP.part.repulsive>
0.2548

> <Gold.PLP.ligand.clash>
0.0000

> <Gold.PLP.ligand.torsion>
1.1169

> <Gold.PLP.Chemscore.Hbond>
0.9760

> <Gold.PLP.Chemscore.CHOScore>
0.0000

> <Gold.PLP.Chemscore.Metal>
0.0000

> <Gold.Chemscore.Hbonds>
donor molecule, donor type, donor heavy atom, donor atom, acceptor molecule, acceptor atom, score
      P1  H  7997  8009       L1    24  0.81

> <Gold.PLP.Chemscore.Internal.Correction>
0.0511

> <Gold.Rescore>
     Score         DG    S(hbond)    S(metal)    S(lipo)     H(rot)  DE(clash)    DE(int)     intcor
     18.37     -19.78       0.90        0.00     126.20       1.36       0.29       1.12       ----

> <Gold.Chemscore.Fitness>
18.3679

> <Gold.Chemscore.DG>
-19.7775

> <Gold.Chemscore.ZeroCoef>
-5.4800

> <Gold.Chemscore.Hbond>
0.8996

> <Gold.Chemscore.Metal>
0.0000

> <Gold.Chemscore.Lipo>
126.1979

> <Gold.Chemscore.Internal_Hbond>
0.0000

> <Gold.Chemscore.DEClash>
0.2853

> <Gold.Chemscore.DEInternal>
1.1243

> <Gold.Chemscore.Rot>
1.3564

> <Gold.Chemscore.Internal.Correction>
   9.000000E+99

> <Gold.Chemscore.Hbonds>
donor molecule, donor type, donor heavy atom, donor atom, acceptor molecule, acceptor atom, score
      P1  H  7997  8009       L1    24  0.76

> <Gold.Chemscore.Hbond.Weighted>
-3.0047

> <Gold.Chemscore.Metal.Weighted>
-0.0000

> <Gold.Chemscore.Lipo.Weighted>
-14.7652

> <Gold.Chemscore.Internal_Hbond.Weighted>
0.0000

> <Gold.Chemscore.DEClash.Weighted>
0.2853

> <Gold.Chemscore.DEInternal.Weighted>
1.1243

> <Gold.Chemscore.Rot.Weighted>
3.4724

> <Gold.Chemscore.Internal.Correction.Weighted>
   9.000000E+99

> <Gold.Protein.RotatedTorsions>
[ 6907 6896 6895 6894 ] final    2.19 input  -60.11 | X-H torsion
[ 7974 7965 7964 7962 ] final   71.39 input  175.53 | X-H torsion
[ 8008 7997 7996 7995 ] final  154.60 input   59.86 | X-H torsion
[ 10167 10162 10161 10158 ] final  163.73 input  -65.29 | X-H torsion
[ 10718 10713 10712 10709 ] final  -72.03 input   66.30 | X-H torsion
[ 10763 10752 10751 10750 ] final  -70.44 input  -60.55 | X-H torsion
[ 11005 11000 10999 10996 ] final -161.45 input  -57.11 | X-H torsion

> <Gold.Protein.ActiveResidues>
 VAL166  LYS551  ARG553  GLY616  TRP617  ASP618  TYR619  PRO620  LYS621  CYS622 
 ASP623  PHE694  ASN695  SER759  ASP760  ASP761  ALA762  ILE779  LEU786  VAL792 
 PHE793  MET794  SER795  GLU796  ALA797  LYS798  CYS799  TRP800  GLU811  SER814 

> <Gold.Protein.RotatedAtoms>
  151.6049  135.1044  160.0068 H   0  0  0  0  0  0  0  0  0  0  0  0  # atno 6907 bound_to 6896
  152.4238  133.7157  159.6515 H   0  0  0  0  0  0  0  0  0  0  0  0  # atno 6908 bound_to 6896
  150.8127  133.8321  159.3197 H   0  0  0  0  0  0  0  0  0  0  0  0  # atno 6909 bound_to 6896
  145.7664  139.2823  143.1346 H   0  0  0  0  0  0  0  0  0  0  0  0  # atno 7974 bound_to 7965
  156.2522  140.1962  156.6672 H   0  0  0  0  0  0  0  0  0  0  0  0  # atno 8008 bound_to 7997
  154.6420  140.0582  156.9882 H   0  0  0  0  0  0  0  0  0  0  0  0  # atno 8009 bound_to 7997
  155.1548  140.3254  155.4426 H   0  0  0  0  0  0  0  0  0  0  0  0  # atno 8010 bound_to 7997
  139.4878  144.4307  151.9074 H   0  0  0  0  0  0  0  0  0  0  0  0  # atno 10167 bound_to 10162
  156.0337  130.4363  150.2532 H   0  0  0  0  0  0  0  0  0  0  0  0  # atno 10718 bound_to 10713
  154.4177  135.5994  153.5991 H   0  0  0  0  0  0  0  0  0  0  0  0  # atno 10763 bound_to 10752
  152.9792  135.5945  154.3992 H   0  0  0  0  0  0  0  0  0  0  0  0  # atno 10764 bound_to 10752
  154.3814  135.2841  155.2188 H   0  0  0  0  0  0  0  0  0  0  0  0  # atno 10765 bound_to 10752
  140.6203  134.4757  157.5223 H   0  0  0  0  0  0  0  0  0  0  0  0  # atno 11005 bound_to 11000
  146.0213  140.8345  142.9922 LP  0  0  0  0  0  0  0  0  0  0  0  0  # atno 17320 bound_to 7965
  144.6820  140.2633  143.7316 LP  0  0  0  0  0  0  0  0  0  0  0  0  # atno 17321 bound_to 7965
  140.3755  144.2802  150.5914 LP  0  0  0  0  0  0  0  0  0  0  0  0  # atno 17342 bound_to 10162
  140.5281  143.2250  151.8283 LP  0  0  0  0  0  0  0  0  0  0  0  0  # atno 17343 bound_to 10162
  157.0632  131.0096  151.3215 LP  0  0  0  0  0  0  0  0  0  0  0  0  # atno 17370 bound_to 10713
  157.5055  130.7906  149.7649 LP  0  0  0  0  0  0  0  0  0  0  0  0  # atno 17371 bound_to 10713
  139.9156  134.8253  156.1378 LP  0  0  0  0  0  0  0  0  0  0  0  0  # atno 17394 bound_to 11000
  141.0747  133.6781  156.2212 LP  0  0  0  0  0  0  0  0  0  0  0  0  # atno 17395 bound_to 11000

$$$$
