AV-unprocessed.smi:2482|AV-procd|sdf|9776|dock8
  -GOLD-   2272013413D 1   1.00000     0.00000
 Structure written by MMmdl.
 35 36  0  0  0  0  0  0  0  0  2 V2000
  154.4550  141.0870  160.7934 C   0  0  0  0  0  0  0  0  0  0  0  0
  153.3212  141.8131  160.0889 C   0  0  0  0  0  0  0  0  0  0  0  0
  153.3451  143.1562  160.2346 N   0  0  0  0  0  0  0  0  0  0  0  0
  152.3737  143.8823  159.6453 C   0  0  0  0  0  0  0  0  0  0  0  0
  151.3404  143.3122  158.8790 C   0  0  0  0  0  0  0  0  0  0  0  0
  151.3188  141.9083  158.7109 C   0  0  0  0  0  0  0  0  0  0  0  0
  150.3015  141.2399  157.9786 N   0  0  0  0  0  0  0  0  0  0  0  0
  149.0979  141.7151  157.6103 C   0  0  0  0  0  0  0  0  0  0  0  0
  148.6852  142.8420  157.8861 O   0  0  0  0  0  0  0  0  0  0  0  0
  148.2278  140.7523  156.7772 C   0  0  1  0  0  0  0  0  0  0  0  0
  147.0000  141.4121  156.1052 C   0  0  0  0  0  0  0  0  0  0  0  0
  147.4129  142.3053  154.9969 N   0  3  2  0  0  0  0  0  0  0  0  0
  146.2706  143.0071  154.3738 C   0  0  0  0  0  0  0  0  0  0  0  0
  148.2397  141.5708  154.0129 C   0  0  0  0  0  0  0  0  0  0  0  0
  149.4502  140.9253  154.7068 C   0  0  0  0  0  0  0  0  0  0  0  0
  149.0072  140.0881  155.7759 O   0  0  0  0  0  0  0  0  0  0  0  0
  152.3233  141.1373  159.3417 C   0  0  0  0  0  0  0  0  0  0  0  0
  152.3226  139.4118  159.1796 Cl  0  0  0  0  0  0  0  0  0  0  0  0
  154.4360  140.0091  160.6444 H   0  0  0  0  0  0  0  0  0  0  0  0
  154.4084  141.2741  161.8665 H   0  0  0  0  0  0  0  0  0  0  0  0
  155.4150  141.4528  160.4285 H   0  0  0  0  0  0  0  0  0  0  0  0
  152.4176  144.9511  159.7947 H   0  0  0  0  0  0  0  0  0  0  0  0
  150.5827  143.9506  158.4501 H   0  0  0  0  0  0  0  0  0  0  0  0
  150.5595  140.3396  157.6004 H   0  0  0  0  0  0  0  0  0  0  0  0
  147.8699  139.9876  157.4673 H   0  0  0  0  0  0  0  0  0  0  0  0
  146.3383  140.6375  155.7143 H   0  0  0  0  0  0  0  0  0  0  0  0
  146.4161  141.9731  156.8367 H   0  0  0  0  0  0  0  0  0  0  0  0
  145.5764  142.2998  153.9184 H   0  0  0  0  0  0  0  0  0  0  0  0
  146.6165  143.6944  153.6009 H   0  0  0  0  0  0  0  0  0  0  0  0
  145.7269  143.5902  155.1179 H   0  0  0  0  0  0  0  0  0  0  0  0
  147.6352  140.8035  153.5267 H   0  0  0  0  0  0  0  0  0  0  0  0
  148.5812  142.2528  153.2335 H   0  0  0  0  0  0  0  0  0  0  0  0
  150.0057  140.3146  153.9949 H   0  0  0  0  0  0  0  0  0  0  0  0
  150.1432  141.6873  155.0658 H   0  0  0  0  0  0  0  0  0  0  0  0
  148.0035  143.0180  155.4025 H   0  0  0  0  0  0  0  0  0  0  0  0
  1  2  1  0  0  0  0
  1 19  1  0  0  0  0
  1 20  1  0  0  0  0
  1 21  1  0  0  0  0
  2 17  1  0  0  0  0
  2  3  2  0  0  0  0
  3  4  1  0  0  0  0
  4  5  2  0  0  0  0
  4 22  1  0  0  0  0
  5  6  1  0  0  0  0
  5 23  1  0  0  0  0
  6  7  1  0  0  0  0
  6 17  2  0  0  0  0
  7  8  1  0  0  0  0
  7 24  1  0  0  0  0
  8  9  2  0  0  0  0
  8 10  1  0  0  0  0
 10 16  1  0  0  0  0
 10 11  1  0  0  0  0
 10 25  1  0  0  0  0
 11 12  1  0  0  0  0
 11 26  1  0  0  0  0
 11 27  1  0  0  0  0
 12 13  1  0  0  0  0
 12 14  1  0  0  0  0
 12 35  1  0  0  0  0
 13 28  1  0  0  0  0
 13 29  1  0  0  0  0
 13 30  1  0  0  0  0
 14 15  1  0  0  0  0
 14 31  1  0  0  0  0
 14 32  1  0  0  0  0
 15 16  1  0  0  0  0
 15 33  1  0  0  0  0
 15 34  1  0  0  0  0
 17 18  1  0  0  0  0
M  CHG  1  12   1
M  END
> <s_m_source_file>
AV-unprocessed.smi

> <i_m_source_file_index>
2482

> <i_lp_mmshare_version>
43012

> <i_f3d_flags>
0

> <s_epik_input>
W0NIM11jMW5bY0hdW2NIXWMoYzFDbClbTkhdQyg9TylbQ0BASF0yW0NIMl1OKFtDSDNdKVtDSDJdW0NIMl1PMg==

> <s_epik_cmdline>
J2VwaWtfcHl0aG9uJywgJy1waCcsICc3LjAnLCAnLXRuJywgJzgnLCAnLW1hJywgJzIwMCcsICctbWV0YWxfYmluZGluZycsICctaW1hZScsICc8aW5maWxlLm1hZT4nLCAnLW9tYWUnLCAnPG91dGZpbGUubWFlPic=

> <r_epik_Ionization_Penalty>
0.314226

> <r_epik_Ionization_Penalty_Charging>
0.314023

> <r_epik_Ionization_Penalty_Neutral>
0.00020299

> <r_epik_State_Penalty>
0.308208

> <r_epik_Charging_Adjusted_Penalty>
0.62223

> <i_epik_Tot_Q>
1

> <i_epik_Tot_abs_Q>
1

> <r_epik_Metal_State_Penalty>
0.314444

> <b_epik_Metal_Only>
0

> <s_lp_Force_Field>
OPLS_2005

> <r_lp_Energy>
21.5381

> <b_lp_Chiralities_Consistent>
1

> <s_lp_Variant>
AV-unprocessed.smi:2482-2

> <Gold.Version>
5.8.1

> <Gold.Id.Protein>
6NUR|6NUR_protein|mol2

> <Gold.PLP.Fitness>
37.8551

> <Gold.PLP.PLP>
-32.6842

> <Gold.PLP.part.hbond>
-1.0000

> <Gold.PLP.part.metal>
0.0000

> <Gold.PLP.part.buried>
-3.9872

> <Gold.PLP.part.nonpolar>
-28.1705

> <Gold.PLP.part.repulsive>
1.2728

> <Gold.PLP.ligand.clash>
0.0000

> <Gold.PLP.ligand.torsion>
0.4239

> <Gold.PLP.Chemscore.Hbond>
2.0000

> <Gold.PLP.Chemscore.CHOScore>
0.0000

> <Gold.PLP.Chemscore.Metal>
0.0000

> <Gold.Chemscore.Hbonds>
donor molecule, donor type, donor heavy atom, donor atom, acceptor molecule, acceptor atom, score
      L1  H    12    35       P1  8028  2.00

> <Gold.PLP.Chemscore.Internal.Correction>
0.0186

> <Gold.Rescore>
     Score         DG    S(hbond)    S(metal)    S(lipo)     H(rot)  DE(clash)    DE(int)     intcor
     14.16     -15.98       0.90        0.00      85.91       1.00       0.05       1.77       ----

> <Gold.Chemscore.Fitness>
14.1629

> <Gold.Chemscore.DG>
-15.9817

> <Gold.Chemscore.ZeroCoef>
-5.4800

> <Gold.Chemscore.Hbond>
0.9014

> <Gold.Chemscore.Metal>
0.0000

> <Gold.Chemscore.Lipo>
85.9056

> <Gold.Chemscore.Internal_Hbond>
0.0000

> <Gold.Chemscore.DEClash>
0.0536

> <Gold.Chemscore.DEInternal>
1.7652

> <Gold.Chemscore.Rot>
1.0000

> <Gold.Chemscore.Internal.Correction>
   9.000000E+99

> <Gold.Chemscore.Hbonds>
donor molecule, donor type, donor heavy atom, donor atom, acceptor molecule, acceptor atom, score
      L1  H    12    35       P1  8028  0.85

> <Gold.Chemscore.Hbond.Weighted>
-3.0108

> <Gold.Chemscore.Metal.Weighted>
-0.0000

> <Gold.Chemscore.Lipo.Weighted>
-10.0510

> <Gold.Chemscore.Internal_Hbond.Weighted>
0.0000

> <Gold.Chemscore.DEClash.Weighted>
0.0536

> <Gold.Chemscore.DEInternal.Weighted>
1.7652

> <Gold.Chemscore.Rot.Weighted>
2.5600

> <Gold.Chemscore.Internal.Correction.Weighted>
   9.000000E+99

> <Gold.Protein.RotatedTorsions>
[ 6907 6896 6895 6894 ] final  137.75 input  -60.11 | X-H torsion
[ 7974 7965 7964 7962 ] final -145.42 input  175.53 | X-H torsion
[ 8008 7997 7996 7995 ] final  139.11 input   59.86 | X-H torsion
[ 10167 10162 10161 10158 ] final  165.17 input  -65.29 | X-H torsion
[ 10718 10713 10712 10709 ] final  -37.76 input   66.30 | X-H torsion
[ 10763 10752 10751 10750 ] final -158.94 input  -60.55 | X-H torsion
[ 11005 11000 10999 10996 ] final    8.33 input  -57.11 | X-H torsion

> <Gold.Protein.ActiveResidues>
 VAL166  LYS551  ARG553  GLY616  TRP617  ASP618  TYR619  PRO620  LYS621  CYS622 
 ASP623  PHE694  ASN695  SER759  ASP760  ASP761  ALA762  ILE779  LEU786  VAL792 
 PHE793  MET794  SER795  GLU796  ALA797  LYS798  CYS799  TRP800  GLU811  SER814 

> <Gold.Protein.RotatedAtoms>
  152.2745  133.5412  159.5458 H   0  0  0  0  0  0  0  0  0  0  0  0  # atno 6907 bound_to 6896
  150.7171  134.0652  159.3854 H   0  0  0  0  0  0  0  0  0  0  0  0  # atno 6908 bound_to 6896
  151.8565  135.0539  160.0515 H   0  0  0  0  0  0  0  0  0  0  0  0  # atno 6909 bound_to 6896
  144.8228  140.5585  143.5567 H   0  0  0  0  0  0  0  0  0  0  0  0  # atno 7974 bound_to 7965
  156.2992  140.2376  156.4184 H   0  0  0  0  0  0  0  0  0  0  0  0  # atno 8008 bound_to 7997
  154.8377  140.0430  157.1540 H   0  0  0  0  0  0  0  0  0  0  0  0  # atno 8009 bound_to 7997
  154.9137  140.2994  155.5256 H   0  0  0  0  0  0  0  0  0  0  0  0  # atno 8010 bound_to 7997
  139.4901  144.4160  151.9243 H   0  0  0  0  0  0  0  0  0  0  0  0  # atno 10167 bound_to 10162
  156.3115  130.4253  149.8045 H   0  0  0  0  0  0  0  0  0  0  0  0  # atno 10718 bound_to 10713
  154.7515  135.3093  154.8548 H   0  0  0  0  0  0  0  0  0  0  0  0  # atno 10763 bound_to 10752
  153.9334  135.6783  153.4749 H   0  0  0  0  0  0  0  0  0  0  0  0  # atno 10764 bound_to 10752
  153.1111  135.4866  154.8966 H   0  0  0  0  0  0  0  0  0  0  0  0  # atno 10765 bound_to 10752
  140.5382  134.0400  155.7895 H   0  0  0  0  0  0  0  0  0  0  0  0  # atno 11005 bound_to 11000
  145.5066  139.1481  143.3628 LP  0  0  0  0  0  0  0  0  0  0  0  0  # atno 17320 bound_to 7965
  146.2534  140.5206  142.8884 LP  0  0  0  0  0  0  0  0  0  0  0  0  # atno 17321 bound_to 7965
  140.3603  144.2981  150.5934 LP  0  0  0  0  0  0  0  0  0  0  0  0  # atno 17342 bound_to 10162
  140.5409  143.2224  151.8086 LP  0  0  0  0  0  0  0  0  0  0  0  0  # atno 17343 bound_to 10162
  156.5387  130.8290  151.3261 LP  0  0  0  0  0  0  0  0  0  0  0  0  # atno 17370 bound_to 10713
  157.7392  130.9827  150.2299 LP  0  0  0  0  0  0  0  0  0  0  0  0  # atno 17371 bound_to 10713
  141.1243  133.9410  157.2668 LP  0  0  0  0  0  0  0  0  0  0  0  0  # atno 17394 bound_to 11000
  139.9518  135.0174  156.9015 LP  0  0  0  0  0  0  0  0  0  0  0  0  # atno 17395 bound_to 11000

$$$$
