#       Name:                AV-unprocessed.smi:3132
#       Creating user name   scv26
#       Creation time:       Fri Mar 27 17:31:58 2020


#       File generated by GOLD software.
#

@<TRIPOS>MOLECULE
AV-unprocessed.smi:3132
    38    39     1
SMALL
NO_CHARGES


@<TRIPOS>ATOM
      1 ****         0.1157  -2.5965   1.9226 C.3            1 S1                 0.0000
      2 ****         0.3812  -1.8466   0.6104 C.3            1 S1                 0.0000
      3 ****         1.8740  -1.9122   0.2216 C.3            1 S1                 0.0000
      4 ****         2.1467  -1.3588  -1.1090 N.pl3          1 S1                 0.0000
      5 ****         2.7439  -0.1604  -1.4059 C.2            1 S1                 0.0000
      6 ****         2.7742  -0.0676  -2.7734 C.2            1 S1                 0.0000
      7 ****         2.2004  -1.2146  -3.2529 N.pl3          1 S1                 1.0000
      8 ****         1.8237  -2.0006  -2.2393 C.2            1 S1                 0.0000
      9 ****        -0.0637  -0.4618   0.7602 N.am           1 S1                 0.0000
     10 ****        -0.6740   0.2783  -0.1804 C.2            1 S1                 0.0000
     11 ****        -0.9040  -0.1373  -1.3165 O.2            1 S1                 0.0000
     12 ****        -1.0606   1.7145   0.2013 C.3            1 S1                 0.0000
     13 ****        -2.4838   2.1221  -0.2260 C.3            1 S1                 0.0000
     14 ****        -3.1471   2.5646   1.0678 C.3            1 S1                 0.0000
     15 ****        -1.9596   2.8879   1.9639 C.3            1 S1                 0.0000
     16 ****        -1.0325   1.8735   1.6189 O.3            1 S1                 0.0000
     17 ****         0.4039  -3.6449   1.8406 H              1 S1                 0.0000
     18 ****        -0.9424  -2.5670   2.1854 H              1 S1                 0.0000
     19 ****         0.6768  -2.1615   2.7506 H              1 S1                 0.0000
     20 ****        -0.2085  -2.3400  -0.1644 H              1 S1                 0.0000
     21 ****         2.4878  -1.3748   0.9460 H              1 S1                 0.0000
     22 ****         2.2215  -2.9464   0.2197 H              1 S1                 0.0000
     23 ****         3.0869   0.5225  -0.6422 H              1 S1                 0.0000
     24 ****         3.1504   0.7086  -3.4240 H              1 S1                 0.0000
     25 ****         1.3435  -2.9598  -2.3183 H              1 S1                 0.0000
     26 ****         0.0834  -0.0328   1.6630 H              1 S1                 0.0000
     27 ****        -0.3347   2.4012  -0.2365 H              1 S1                 0.0000
     28 ****        -2.4351   2.9510  -0.9328 H              1 S1                 0.0000
     29 ****        -3.0515   1.3201  -0.7002 H              1 S1                 0.0000
     30 ****        -3.8234   3.4094   0.9349 H              1 S1                 0.0000
     31 ****        -3.7156   1.7374   1.4946 H              1 S1                 0.0000
     32 ****        -1.5416   3.8677   1.7273 H              1 S1                 0.0000
     33 ****        -2.2106   2.8626   3.0243 H              1 S1                 0.0000
     34 ****         2.0758  -1.4372  -4.2326 H              1 S1                 0.0000
     35 ****        -0.6334  -1.0649  -1.5739 LP             1 S1                 0.0000
     36 ****        -1.3615   0.4528  -1.9817 LP             1 S1                 0.0000
     37 ****        -0.1142   2.1389   1.9126 LP             1 S1                 0.0000
     38 ****        -1.2889   1.0144   2.0620 LP             1 S1                 0.0000
@<TRIPOS>BOND
    1    1    2 1     
    2    1   17 1     
    3    1   18 1     
    4    1   19 1     
    5    2    3 1     
    6    2    9 1     
    7    2   20 1     
    8    3    4 1     
    9    3   21 1     
   10    3   22 1     
   11    4    8 1     
   12    4    5 1     
   13    5    6 2     
   14    5   23 1     
   15    6    7 1     
   16    6   24 1     
   17    7    8 2     
   18    7   34 1     
   19    8   25 1     
   20    9   10 am    
   21    9   26 1     
   22   10   11 2     
   23   10   12 1     
   24   12   16 1     
   25   12   13 1     
   26   12   27 1     
   27   13   14 1     
   28   13   28 1     
   29   13   29 1     
   30   14   15 1     
   31   14   30 1     
   32   14   31 1     
   33   15   16 1     
   34   15   32 1     
   35   15   33 1     
   36   11   35 1     
   37   11   36 1     
   38   16   37 1     
   39   16   38 1     
@<TRIPOS>SUBSTRUCTURE
      1 S1             1
@<TRIPOS>SET
LONE_PAIRS      STATIC     ATOMS    <user>   **** ""
4 35 36 37 38
DONOR_HYDROGENS      STATIC     ATOMS    <user>   **** ""
2 34 26
ATOM$BLUE        STATIC     ATOMS    COLORGROUP SYSTEM
4 35 36 37 38
ATOM$RED        STATIC     ATOMS    COLORGROUP SYSTEM
2 34 26
