AV-unprocessed.smi:808|AV-procd|sdf|3804|dock6
  -GOLD-   22720 1243D 1   1.00000     0.00000
 Structure written by MMmdl.
 34 35  0  0  0  0  0  0  0  0  2 V2000
  148.0885  141.5786  158.0649 O   0  0  0  0  0  0  0  0  0  0  0  0
  148.7977  141.9067  157.1139 C   0  0  0  0  0  0  0  0  0  0  0  0
  148.3971  141.5097  155.6899 C   0  0  0  0  0  0  0  0  0  0  0  0
  149.1982  140.4051  155.1899 N   0  0  0  0  0  0  0  0  0  0  0  0
  150.5506  140.1834  155.3710 C   0  0  0  0  0  0  0  0  0  0  0  0
  150.8209  139.0348  154.6910 C   0  0  0  0  0  0  0  0  0  0  0  0
  152.1525  138.3655  154.5640 C   0  0  0  0  0  0  0  0  0  0  0  0
  152.1908  137.1947  154.1262 O   0  0  0  0  0  0  0  0  0  0  0  0
  153.1742  139.0047  154.8993 O   0  5  0  0  0  0  0  0  0  0  0  0
  149.5947  138.6008  154.1240 C   0  0  0  0  0  0  0  0  0  0  0  0
  148.6145  139.4392  154.4325 N   0  0  0  0  0  0  0  0  0  0  0  0
  149.9408  142.5986  157.2495 N   0  0  0  0  0  0  0  0  0  0  0  0
  150.4873  143.0980  158.5063 C   0  0  0  0  0  0  0  0  0  0  0  0
  151.0726  144.5058  158.2854 C   0  0  0  0  0  0  0  0  0  0  0  0
  151.7196  145.0540  159.5674 C   0  0  0  0  0  0  0  0  0  0  0  0
  152.7909  144.0927  160.1057 C   0  0  0  0  0  0  0  0  0  0  0  0
  152.2110  142.6877  160.3329 C   0  0  0  0  0  0  0  0  0  0  0  0
  151.5623  142.1362  159.0530 C   0  0  0  0  0  0  0  0  0  0  0  0
  147.3460  141.2191  155.6759 H   0  0  0  0  0  0  0  0  0  0  0  0
  148.5040  142.3616  155.0166 H   0  0  0  0  0  0  0  0  0  0  0  0
  151.1830  140.8461  155.9433 H   0  0  0  0  0  0  0  0  0  0  0  0
  149.3875  137.7335  153.5144 H   0  0  0  0  0  0  0  0  0  0  0  0
  150.4579  142.8205  156.4110 H   0  0  0  0  0  0  0  0  0  0  0  0
  149.6808  143.1789  159.2378 H   0  0  0  0  0  0  0  0  0  0  0  0
  151.8184  144.4761  157.4896 H   0  0  0  0  0  0  0  0  0  0  0  0
  150.2903  145.1873  157.9488 H   0  0  0  0  0  0  0  0  0  0  0  0
  152.1613  146.0315  159.3715 H   0  0  0  0  0  0  0  0  0  0  0  0
  150.9520  145.2084  160.3269 H   0  0  0  0  0  0  0  0  0  0  0  0
  153.6203  144.0366  159.3997 H   0  0  0  0  0  0  0  0  0  0  0  0
  153.2034  144.4800  161.0378 H   0  0  0  0  0  0  0  0  0  0  0  0
  152.9961  142.0114  160.6721 H   0  0  0  0  0  0  0  0  0  0  0  0
  151.4685  142.7241  161.1310 H   0  0  0  0  0  0  0  0  0  0  0  0
  151.1248  141.1586  159.2585 H   0  0  0  0  0  0  0  0  0  0  0  0
  152.3334  141.9768  158.2979 H   0  0  0  0  0  0  0  0  0  0  0  0
  1  2  2  0  0  0  0
  2  3  1  0  0  0  0
  2 12  1  0  0  0  0
  3  4  1  0  0  0  0
  3 19  1  0  0  0  0
  3 20  1  0  0  0  0
  4 11  1  0  0  0  0
  4  5  1  0  0  0  0
  5  6  2  0  0  0  0
  5 21  1  0  0  0  0
  6  7  1  0  0  0  0
  6 10  1  0  0  0  0
  7  8  2  0  0  0  0
  7  9  1  0  0  0  0
 10 11  2  0  0  0  0
 10 22  1  0  0  0  0
 12 13  1  0  0  0  0
 12 23  1  0  0  0  0
 13 18  1  0  0  0  0
 13 14  1  0  0  0  0
 13 24  1  0  0  0  0
 14 15  1  0  0  0  0
 14 25  1  0  0  0  0
 14 26  1  0  0  0  0
 15 16  1  0  0  0  0
 15 27  1  0  0  0  0
 15 28  1  0  0  0  0
 16 17  1  0  0  0  0
 16 29  1  0  0  0  0
 16 30  1  0  0  0  0
 17 18  1  0  0  0  0
 17 31  1  0  0  0  0
 17 32  1  0  0  0  0
 18 33  1  0  0  0  0
 18 34  1  0  0  0  0
M  CHG  1   9  -1
M  END
> <s_m_source_file>
AV-unprocessed.smi

> <i_m_source_file_index>
808

> <i_lp_mmshare_version>
43012

> <i_f3d_flags>
0

> <s_epik_input>
Tz1DKFtPSF0pYyhbY0hdbjEpW2NIXW4xW0NIMl1DKD1PKVtOSF1bQ0hdMltDSDJdW0NIMl1bQ0gyXVtDSDJdW0NIMl0y

> <s_epik_cmdline>
J2VwaWtfcHl0aG9uJywgJy1waCcsICc3LjAnLCAnLXRuJywgJzgnLCAnLW1hJywgJzIwMCcsICctbWV0YWxfYmluZGluZycsICctaW1hZScsICc8aW5maWxlLm1hZT4nLCAnLW9tYWUnLCAnPG91dGZpbGUubWFlPic=

> <r_epik_Ionization_Penalty>
0.00097052

> <r_epik_Ionization_Penalty_Charging>
0.000938868

> <r_epik_Ionization_Penalty_Neutral>
3.16514e-05

> <r_epik_State_Penalty>
0.000609423

> <r_epik_Charging_Adjusted_Penalty>
0.00154829

> <i_epik_Tot_Q>
-1

> <i_epik_Tot_abs_Q>
1

> <r_epik_Metal_State_Penalty>
-0

> <b_epik_Metal_Only>
0

> <s_lp_Force_Field>
OPLS_2005

> <r_lp_Energy>
12.0504

> <b_lp_Chiralities_Consistent>
1

> <s_lp_Variant>
AV-unprocessed.smi:808-1

> <Gold.Version>
5.8.1

> <Gold.Id.Protein>
6NUR|6NUR_protein|mol2

> <Gold.PLP.Fitness>
48.8911

> <Gold.PLP.PLP>
-36.3441

> <Gold.PLP.part.hbond>
-3.0000

> <Gold.PLP.part.metal>
0.0000

> <Gold.PLP.part.buried>
-4.8910

> <Gold.PLP.part.nonpolar>
-29.0376

> <Gold.PLP.part.repulsive>
0.7421

> <Gold.PLP.ligand.clash>
0.0000

> <Gold.PLP.ligand.torsion>
0.8769

> <Gold.PLP.Chemscore.Hbond>
3.7600

> <Gold.PLP.Chemscore.CHOScore>
1.0000

> <Gold.PLP.Chemscore.Metal>
0.0000

> <Gold.Chemscore.Hbonds>
donor molecule, donor type, donor heavy atom, donor atom, acceptor molecule, acceptor atom, score
      P1  H  7997  8010       L1     9  2.00
      P1  H 10752 10763       L1     8  1.82
      L1  C    10    22       P1  7948  1.00

> <Gold.PLP.Chemscore.Internal.Correction>
0.0207

> <Gold.Rescore>
     Score         DG    S(hbond)    S(metal)    S(lipo)     H(rot)  DE(clash)    DE(int)     intcor
     16.89     -17.90       1.85        0.00      88.17       1.59       0.15       0.87       ----

> <Gold.Chemscore.Fitness>
16.8852

> <Gold.Chemscore.DG>
-17.9024

> <Gold.Chemscore.ZeroCoef>
-5.4800

> <Gold.Chemscore.Hbond>
1.8498

> <Gold.Chemscore.Metal>
0.0000

> <Gold.Chemscore.Lipo>
88.1666

> <Gold.Chemscore.Internal_Hbond>
0.0000

> <Gold.Chemscore.DEClash>
0.1485

> <Gold.Chemscore.DEInternal>
0.8687

> <Gold.Chemscore.Rot>
1.5904

> <Gold.Chemscore.Internal.Correction>
   9.000000E+99

> <Gold.Chemscore.Hbonds>
donor molecule, donor type, donor heavy atom, donor atom, acceptor molecule, acceptor atom, score
      P1  H  7997  8010       L1     9  0.96
      P1  H 10752 10763       L1     8  0.88

> <Gold.Chemscore.Hbond.Weighted>
-6.1783

> <Gold.Chemscore.Metal.Weighted>
-0.0000

> <Gold.Chemscore.Lipo.Weighted>
-10.3155

> <Gold.Chemscore.Internal_Hbond.Weighted>
0.0000

> <Gold.Chemscore.DEClash.Weighted>
0.1485

> <Gold.Chemscore.DEInternal.Weighted>
0.8687

> <Gold.Chemscore.Rot.Weighted>
4.0714

> <Gold.Chemscore.Internal.Correction.Weighted>
   9.000000E+99

> <Gold.Protein.RotatedTorsions>
[ 6907 6896 6895 6894 ] final   72.83 input  -60.11 | X-H torsion
[ 7974 7965 7964 7962 ] final  -20.25 input  175.53 | X-H torsion
[ 8008 7997 7996 7995 ] final  104.69 input   59.86 | X-H torsion
[ 10167 10162 10161 10158 ] final  -69.82 input  -65.29 | X-H torsion
[ 10718 10713 10712 10709 ] final -148.89 input   66.30 | X-H torsion
[ 10763 10752 10751 10750 ] final   35.12 input  -60.55 | X-H torsion
[ 11005 11000 10999 10996 ] final   -4.61 input  -57.11 | X-H torsion

> <Gold.Protein.ActiveResidues>
 VAL166  LYS551  ARG553  GLY616  TRP617  ASP618  TYR619  PRO620  LYS621  CYS622 
 ASP623  PHE694  ASN695  SER759  ASP760  ASP761  ALA762  ILE779  LEU786  VAL792 
 PHE793  MET794  SER795  GLU796  ALA797  LYS798  CYS799  TRP800  GLU811  SER814 

> <Gold.Protein.RotatedAtoms>
  152.4890  134.4512  159.9574 H   0  0  0  0  0  0  0  0  0  0  0  0  # atno 6907 bound_to 6896
  151.4503  133.3613  159.2802 H   0  0  0  0  0  0  0  0  0  0  0  0  # atno 6908 bound_to 6896
  150.9026  134.8463  159.7431 H   0  0  0  0  0  0  0  0  0  0  0  0  # atno 6909 bound_to 6896
  146.1798  140.4176  142.8499 H   0  0  0  0  0  0  0  0  0  0  0  0  # atno 7974 bound_to 7965
  156.1595  140.3143  155.8782 H   0  0  0  0  0  0  0  0  0  0  0  0  # atno 8008 bound_to 7997
  155.3812  140.0488  157.3060 H   0  0  0  0  0  0  0  0  0  0  0  0  # atno 8009 bound_to 7997
  154.5132  140.2172  155.9126 H   0  0  0  0  0  0  0  0  0  0  0  0  # atno 8010 bound_to 7997
  140.5401  143.2315  151.7105 H   0  0  0  0  0  0  0  0  0  0  0  0  # atno 10167 bound_to 10162
  156.4261  130.8052  151.2278 H   0  0  0  0  0  0  0  0  0  0  0  0  # atno 10718 bound_to 10713
  153.0133  135.6342  154.1777 H   0  0  0  0  0  0  0  0  0  0  0  0  # atno 10763 bound_to 10752
  154.1518  135.2828  155.3135 H   0  0  0  0  0  0  0  0  0  0  0  0  # atno 10764 bound_to 10752
  154.6048  135.5575  153.7472 H   0  0  0  0  0  0  0  0  0  0  0  0  # atno 10765 bound_to 10752
  140.6821  133.9144  155.8562 H   0  0  0  0  0  0  0  0  0  0  0  0  # atno 11005 bound_to 11000
  144.8296  140.6685  143.6299 LP  0  0  0  0  0  0  0  0  0  0  0  0  # atno 17320 bound_to 7965
  145.4108  139.1580  143.4126 LP  0  0  0  0  0  0  0  0  0  0  0  0  # atno 17321 bound_to 7965
  139.4985  144.3982  152.0209 LP  0  0  0  0  0  0  0  0  0  0  0  0  # atno 17342 bound_to 10162
  140.3090  144.3559  150.6039 LP  0  0  0  0  0  0  0  0  0  0  0  0  # atno 17343 bound_to 10162
  157.7508  131.0213  150.3744 LP  0  0  0  0  0  0  0  0  0  0  0  0  # atno 17370 bound_to 10713
  156.4071  130.3927  149.6918 LP  0  0  0  0  0  0  0  0  0  0  0  0  # atno 17371 bound_to 10713
  141.0309  134.0757  157.4015 LP  0  0  0  0  0  0  0  0  0  0  0  0  # atno 17394 bound_to 11000
  139.8948  135.0138  156.6972 LP  0  0  0  0  0  0  0  0  0  0  0  0  # atno 17395 bound_to 11000

$$$$
