AV-unprocessed.smi:3202|AV-procd|sdf|12247|dock6
  -GOLD-   2272018 83D 1   1.00000     0.00000
 Structure written by MMmdl.
 43 44  0  0  0  0  0  0  0  0  2 V2000
  143.9073  132.8650  150.7398 C   0  0  0  0  0  0  0  0  0  0  0  0
  144.7323  134.0449  151.1621 C   0  0  0  0  0  0  0  0  0  0  0  0
  144.2817  135.3350  151.5690 C   0  0  0  0  0  0  0  0  0  0  0  0
  145.4301  136.0241  151.8403 C   0  0  0  0  0  0  0  0  0  0  0  0
  145.6491  137.4286  152.3028 C   0  0  0  0  0  0  0  0  0  0  0  0
  145.0944  137.7209  153.7109 C   0  0  2  0  0  0  0  0  0  0  0  0
  143.5809  137.4753  153.8191 C   0  0  0  0  0  0  0  0  0  0  0  0
  145.3932  139.1212  154.0865 N   0  3  0  0  0  0  0  0  0  0  0  0
  146.7615  139.5902  153.7677 C   0  0  1  0  0  0  0  0  0  0  0  0
  146.8685  141.1146  153.6211 C   0  0  0  0  0  0  0  0  0  0  0  0
  148.3295  141.4535  153.9455 C   0  0  0  0  0  0  0  0  0  0  0  0
  148.9684  140.1578  154.4682 C   0  0  0  0  0  0  0  0  0  0  0  0
  147.8069  139.2185  154.8407 C   0  0  0  0  0  0  0  0  0  0  0  0
  147.3272  139.5234  156.2790 C   0  0  0  0  0  0  0  0  0  0  0  0
  148.2293  137.7407  154.7416 C   0  0  0  0  0  0  0  0  0  0  0  0
  146.4673  135.1525  151.5954 N   0  0  0  0  0  0  0  0  0  0  0  0
  146.0527  133.9423  151.1785 N   0  0  0  0  0  0  0  0  0  0  0  0
  147.4488  135.3655  151.7050 H   0  0  0  0  0  0  0  0  0  0  0  0
  142.8461  133.0435  150.9146 H   0  0  0  0  0  0  0  0  0  0  0  0
  144.1879  131.9690  151.2942 H   0  0  0  0  0  0  0  0  0  0  0  0
  144.0381  132.6559  149.6778 H   0  0  0  0  0  0  0  0  0  0  0  0
  143.2675  135.6977  151.6480 H   0  0  0  0  0  0  0  0  0  0  0  0
  145.2045  138.1193  151.5847 H   0  0  0  0  0  0  0  0  0  0  0  0
  146.7198  137.6352  152.2861 H   0  0  0  0  0  0  0  0  0  0  0  0
  145.5853  137.0466  154.4143 H   0  0  0  0  0  0  0  0  0  0  0  0
  143.3294  136.4326  153.6242 H   0  0  0  0  0  0  0  0  0  0  0  0
  143.0258  138.0902  153.1099 H   0  0  0  0  0  0  0  0  0  0  0  0
  143.2176  137.7115  154.8197 H   0  0  0  0  0  0  0  0  0  0  0  0
  144.7284  139.7310  153.6326 H   0  0  0  0  0  0  0  0  0  0  0  0
  147.0659  139.1345  152.8231 H   0  0  0  0  0  0  0  0  0  0  0  0
  146.5824  141.4510  152.6240 H   0  0  0  0  0  0  0  0  0  0  0  0
  146.2127  141.6160  154.3342 H   0  0  0  0  0  0  0  0  0  0  0  0
  148.8604  141.8197  153.0661 H   0  0  0  0  0  0  0  0  0  0  0  0
  148.3729  142.2378  154.7021 H   0  0  0  0  0  0  0  0  0  0  0  0
  149.5600  139.7155  153.6650 H   0  0  0  0  0  0  0  0  0  0  0  0
  149.6518  140.3386  155.2988 H   0  0  0  0  0  0  0  0  0  0  0  0
  148.1254  139.3505  157.0016 H   0  0  0  0  0  0  0  0  0  0  0  0
  146.4916  138.8859  156.5690 H   0  0  0  0  0  0  0  0  0  0  0  0
  147.0073  140.5589  156.3953 H   0  0  0  0  0  0  0  0  0  0  0  0
  149.0296  137.5121  155.4464 H   0  0  0  0  0  0  0  0  0  0  0  0
  148.5911  137.4908  153.7437 H   0  0  0  0  0  0  0  0  0  0  0  0
  147.3944  137.0753  154.9642 H   0  0  0  0  0  0  0  0  0  0  0  0
  145.2674  139.2034  155.0853 H   0  0  0  0  0  0  0  0  0  0  0  0
  1 19  1  0  0  0  0
  1 20  1  0  0  0  0
  1 21  1  0  0  0  0
  1  2  1  0  0  0  0
  2 17  2  0  0  0  0
  2  3  1  0  0  0  0
  3  4  2  0  0  0  0
  3 22  1  0  0  0  0
  4 16  1  0  0  0  0
  4  5  1  0  0  0  0
  5  6  1  0  0  0  0
  5 23  1  0  0  0  0
  5 24  1  0  0  0  0
  6  7  1  0  0  0  0
  6  8  1  0  0  0  0
  6 25  1  0  0  0  0
  7 26  1  0  0  0  0
  7 27  1  0  0  0  0
  7 28  1  0  0  0  0
  8  9  1  0  0  0  0
  8 29  1  0  0  0  0
  8 43  1  0  0  0  0
  9 13  1  0  0  0  0
  9 10  1  0  0  0  0
  9 30  1  0  0  0  0
 10 11  1  0  0  0  0
 10 31  1  0  0  0  0
 10 32  1  0  0  0  0
 11 12  1  0  0  0  0
 11 33  1  0  0  0  0
 11 34  1  0  0  0  0
 12 13  1  0  0  0  0
 12 35  1  0  0  0  0
 12 36  1  0  0  0  0
 13 14  1  0  0  0  0
 13 15  1  0  0  0  0
 14 37  1  0  0  0  0
 14 38  1  0  0  0  0
 14 39  1  0  0  0  0
 15 40  1  0  0  0  0
 15 41  1  0  0  0  0
 15 42  1  0  0  0  0
 16 17  1  0  0  0  0
 16 18  1  0  0  0  0
M  CHG  1   8   1
M  END
> <s_m_source_file>
AV-unprocessed.smi

> <i_m_source_file_index>
3202

> <i_lp_mmshare_version>
43012

> <i_f3d_flags>
0

> <s_epik_input>
W0NIM11jMVtjSF1jKG5bbkhdMSlbQ0gyXVtDQEhdKFtDSDNdKVtOSF1bQ0BASF0oQzIoW0NIM10pW0NIM10pW0NIMl1bQ0gyXVtDSDJdMg==

> <s_epik_cmdline>
J2VwaWtfcHl0aG9uJywgJy1waCcsICc3LjAnLCAnLXRuJywgJzgnLCAnLW1hJywgJzIwMCcsICctbWV0YWxfYmluZGluZycsICctaW1hZScsICc8aW5maWxlLm1hZT4nLCAnLW9tYWUnLCAnPG91dGZpbGUubWFlPic=

> <r_lp_tautomer_probability>
0.5

> <r_epik_Ionization_Penalty>
0.000449684

> <r_epik_Ionization_Penalty_Charging>
0.000404963

> <r_epik_Ionization_Penalty_Neutral>
4.47208e-05

> <r_epik_State_Penalty>
0.41068

> <r_epik_Charging_Adjusted_Penalty>
0.411085

> <i_epik_Tot_Q>
1

> <i_epik_Tot_abs_Q>
1

> <r_epik_Metal_State_Penalty>
0.410687

> <b_epik_Metal_Only>
0

> <s_lp_Force_Field>
OPLS_2005

> <r_lp_Energy>
32.0397

> <b_lp_Chiralities_Consistent>
1

> <s_lp_Variant>
AV-unprocessed.smi:3202-7

> <Gold.Version>
5.8.1

> <Gold.Id.Protein>
6NUR|6NUR_protein|mol2

> <Gold.PLP.Fitness>
33.8620

> <Gold.PLP.PLP>
-25.6051

> <Gold.PLP.part.hbond>
-2.0000

> <Gold.PLP.part.metal>
0.0000

> <Gold.PLP.part.buried>
-3.1484

> <Gold.PLP.part.nonpolar>
-21.4770

> <Gold.PLP.part.repulsive>
0.2416

> <Gold.PLP.ligand.clash>
0.0000

> <Gold.PLP.ligand.torsion>
0.3811

> <Gold.PLP.Chemscore.Hbond>
3.0000

> <Gold.PLP.Chemscore.CHOScore>
0.0000

> <Gold.PLP.Chemscore.Metal>
0.0000

> <Gold.Chemscore.Hbonds>
donor molecule, donor type, donor heavy atom, donor atom, acceptor molecule, acceptor atom, score
      L1  H     8    29       P1 10175  2.00
      L1  H    16    18       P1  7948  1.00

> <Gold.PLP.Chemscore.Internal.Correction>
0.0190

> <Gold.Rescore>
     Score         DG    S(hbond)    S(metal)    S(lipo)     H(rot)  DE(clash)    DE(int)     intcor
     15.90     -16.34       1.95        0.00      69.09       1.46       0.05       0.38       ----

> <Gold.Chemscore.Fitness>
15.9045

> <Gold.Chemscore.DG>
-16.3414

> <Gold.Chemscore.ZeroCoef>
-5.4800

> <Gold.Chemscore.Hbond>
1.9505

> <Gold.Chemscore.Metal>
0.0000

> <Gold.Chemscore.Lipo>
69.0863

> <Gold.Chemscore.Internal_Hbond>
0.0000

> <Gold.Chemscore.DEClash>
0.0525

> <Gold.Chemscore.DEInternal>
0.3845

> <Gold.Chemscore.Rot>
1.4596

> <Gold.Chemscore.Internal.Correction>
   9.000000E+99

> <Gold.Chemscore.Hbonds>
donor molecule, donor type, donor heavy atom, donor atom, acceptor molecule, acceptor atom, score
      L1  H     8    29       P1 10175  1.00
      L1  H    16    18       P1  7948  0.96

> <Gold.Chemscore.Hbond.Weighted>
-6.5148

> <Gold.Chemscore.Metal.Weighted>
-0.0000

> <Gold.Chemscore.Lipo.Weighted>
-8.0831

> <Gold.Chemscore.Internal_Hbond.Weighted>
0.0000

> <Gold.Chemscore.DEClash.Weighted>
0.0525

> <Gold.Chemscore.DEInternal.Weighted>
0.3845

> <Gold.Chemscore.Rot.Weighted>
3.7365

> <Gold.Chemscore.Internal.Correction.Weighted>
   9.000000E+99

> <Gold.Protein.RotatedTorsions>
[ 6907 6896 6895 6894 ] final  -58.16 input  -60.11 | X-H torsion
[ 7974 7965 7964 7962 ] final   71.97 input  175.53 | X-H torsion
[ 8008 7997 7996 7995 ] final -167.54 input   59.86 | X-H torsion
[ 10167 10162 10161 10158 ] final   36.36 input  -65.29 | X-H torsion
[ 10718 10713 10712 10709 ] final -169.42 input   66.30 | X-H torsion
[ 10763 10752 10751 10750 ] final -138.07 input  -60.55 | X-H torsion
[ 11005 11000 10999 10996 ] final -129.53 input  -57.11 | X-H torsion

> <Gold.Protein.ActiveResidues>
 VAL166  LYS551  ARG553  GLY616  TRP617  ASP618  TYR619  PRO620  LYS621  CYS622 
 ASP623  PHE694  ASN695  SER759  ASP760  ASP761  ALA762  ILE779  LEU786  VAL792 
 PHE793  MET794  SER795  GLU796  ALA797  LYS798  CYS799  TRP800  GLU811  SER814 

> <Gold.Protein.RotatedAtoms>
  150.8028  134.7134  159.6616 H   0  0  0  0  0  0  0  0  0  0  0  0  # atno 6907 bound_to 6896
  152.4146  134.6060  160.0023 H   0  0  0  0  0  0  0  0  0  0  0  0  # atno 6908 bound_to 6896
  151.6293  133.3296  159.3141 H   0  0  0  0  0  0  0  0  0  0  0  0  # atno 6909 bound_to 6896
  145.7592  139.2793  143.1386 H   0  0  0  0  0  0  0  0  0  0  0  0  # atno 7974 bound_to 7965
  155.8791  140.1006  157.1498 H   0  0  0  0  0  0  0  0  0  0  0  0  # atno 8008 bound_to 7997
  154.4003  140.1332  156.4237 H   0  0  0  0  0  0  0  0  0  0  0  0  # atno 8009 bound_to 7997
  155.7663  140.3462  155.5226 H   0  0  0  0  0  0  0  0  0  0  0  0  # atno 8010 bound_to 7997
  140.4135  144.1559  150.6141 H   0  0  0  0  0  0  0  0  0  0  0  0  # atno 10167 bound_to 10162
  156.7113  130.9234  151.3089 H   0  0  0  0  0  0  0  0  0  0  0  0  # atno 10718 bound_to 10713
  154.8646  135.3623  154.5326 H   0  0  0  0  0  0  0  0  0  0  0  0  # atno 10763 bound_to 10752
  153.5951  135.7014  153.5412 H   0  0  0  0  0  0  0  0  0  0  0  0  # atno 10764 bound_to 10752
  153.3340  135.4116  155.1480 H   0  0  0  0  0  0  0  0  0  0  0  0  # atno 10765 bound_to 10752
  140.9424  134.1176  157.4139 H   0  0  0  0  0  0  0  0  0  0  0  0  # atno 11005 bound_to 11000
  146.0281  140.8284  142.9889 LP  0  0  0  0  0  0  0  0  0  0  0  0  # atno 17320 bound_to 7965
  144.6834  140.2728  143.7303 LP  0  0  0  0  0  0  0  0  0  0  0  0  # atno 17321 bound_to 7965
  140.4612  143.2448  151.9217 LP  0  0  0  0  0  0  0  0  0  0  0  0  # atno 17342 bound_to 10162
  139.4782  144.5465  151.8449 LP  0  0  0  0  0  0  0  0  0  0  0  0  # atno 17343 bound_to 10162
  157.6935  130.9258  150.0579 LP  0  0  0  0  0  0  0  0  0  0  0  0  # atno 17370 bound_to 10713
  156.1659  130.3645  149.9233 LP  0  0  0  0  0  0  0  0  0  0  0  0  # atno 17371 bound_to 10713
  139.8824  135.0040  156.6225 LP  0  0  0  0  0  0  0  0  0  0  0  0  # atno 17394 bound_to 11000
  140.7716  133.8733  155.8496 LP  0  0  0  0  0  0  0  0  0  0  0  0  # atno 17395 bound_to 11000

$$$$
