AV-unprocessed.smi:798|AV-procd|sdf|3780|dock10
  -GOLD-   22720 1213D 1   1.00000     0.00000
 Structure written by MMmdl.
 33 35  0  0  0  0  0  0  0  0  2 V2000
  149.4076  135.7167  158.8993 O   0  0  0  0  0  0  0  0  0  0  0  0
  149.2977  136.7378  159.5817 C   0  0  0  0  0  0  0  0  0  0  0  0
  148.5982  136.8611  160.7323 N   0  5  0  0  0  0  0  0  0  0  0  0
  147.9662  135.7958  161.2519 C   0  0  0  0  0  0  0  0  0  0  0  0
  147.6622  134.7131  160.5182 N   0  0  0  0  0  0  0  0  0  0  0  0
  147.0048  133.7289  161.2441 N   0  0  0  0  0  0  0  0  0  0  0  0
  146.8220  134.1001  162.5112 C   0  0  0  0  0  0  0  0  0  0  0  0
  147.4340  135.6858  162.9323 S   0  0  0  0  0  0  0  0  0  0  0  0
  149.9171  137.8656  159.2055 N   0  0  0  0  0  0  0  0  0  0  0  0
  150.7475  138.0419  158.0117 C   0  0  1  0  0  0  0  0  0  0  0  0
  150.3147  139.2674  157.1691 C   0  0  1  0  0  0  0  0  0  0  0  0
  150.1890  140.5350  158.0411 C   0  0  0  0  0  0  0  0  0  0  0  0
  151.6549  140.8490  158.3890 C   0  0  0  0  0  0  0  0  0  0  0  0
  152.4315  139.7415  157.6461 C   0  0  2  0  0  0  0  0  0  0  0  0
  151.5866  139.5812  156.3877 C   0  0  0  0  0  0  0  0  0  0  0  0
  152.2441  138.3537  158.3073 C   0  0  1  0  0  0  0  0  0  0  0  0
  152.7221  138.2334  159.7722 C   0  0  0  0  0  0  0  0  0  0  0  0
  152.8498  136.8755  160.1388 O   0  0  0  0  0  0  0  0  0  0  0  0
  146.3208  133.4379  163.2011 H   0  0  0  0  0  0  0  0  0  0  0  0
  149.8005  138.6740  159.7984 H   0  0  0  0  0  0  0  0  0  0  0  0
  150.6826  137.1514  157.3834 H   0  0  0  0  0  0  0  0  0  0  0  0
  149.4356  139.0794  156.5519 H   0  0  0  0  0  0  0  0  0  0  0  0
  149.7561  141.3521  157.4628 H   0  0  0  0  0  0  0  0  0  0  0  0
  149.5656  140.4024  158.9253 H   0  0  0  0  0  0  0  0  0  0  0  0
  151.9302  141.8317  158.0038 H   0  0  0  0  0  0  0  0  0  0  0  0
  151.8393  140.8607  159.4623 H   0  0  0  0  0  0  0  0  0  0  0  0
  153.4753  139.9947  157.4585 H   0  0  0  0  0  0  0  0  0  0  0  0
  151.9133  138.7620  155.7447 H   0  0  0  0  0  0  0  0  0  0  0  0
  151.5169  140.4937  155.7924 H   0  0  0  0  0  0  0  0  0  0  0  0
  152.8362  137.6397  157.7317 H   0  0  0  0  0  0  0  0  0  0  0  0
  153.6702  138.7429  159.9407 H   0  0  0  0  0  0  0  0  0  0  0  0
  151.9950  138.6934  160.4419 H   0  0  0  0  0  0  0  0  0  0  0  0
  153.3903  136.8252  160.9123 H   0  0  0  0  0  0  0  0  0  0  0  0
  1  2  2  0  0  0  0
  2  3  1  0  0  0  0
  2  9  1  0  0  0  0
  3  4  1  0  0  0  0
  4  8  1  0  0  0  0
  4  5  2  0  0  0  0
  5  6  1  0  0  0  0
  6  7  2  0  0  0  0
  7  8  1  0  0  0  0
  7 19  1  0  0  0  0
  9 10  1  0  0  0  0
  9 20  1  0  0  0  0
 10 16  1  0  0  0  0
 10 11  1  0  0  0  0
 10 21  1  0  0  0  0
 11 15  1  0  0  0  0
 11 12  1  0  0  0  0
 11 22  1  0  0  0  0
 12 13  1  0  0  0  0
 12 23  1  0  0  0  0
 12 24  1  0  0  0  0
 13 14  1  0  0  0  0
 13 25  1  0  0  0  0
 13 26  1  0  0  0  0
 14 15  1  0  0  0  0
 14 16  1  0  0  0  0
 14 27  1  0  0  0  0
 15 28  1  0  0  0  0
 15 29  1  0  0  0  0
 16 17  1  0  0  0  0
 16 30  1  0  0  0  0
 17 18  1  0  0  0  0
 17 31  1  0  0  0  0
 17 32  1  0  0  0  0
 18 33  1  0  0  0  0
M  CHG  1   3  -1
M  END
> <s_m_source_file>
AV-unprocessed.smi

> <i_m_source_file_index>
798

> <i_lp_mmshare_version>
43012

> <i_f3d_flags>
0

> <s_epik_input>
W0NIMl0xW0NIMl1bQ0BASF0oW0NIMl0yKVtDQEBIXShbQ0gyXVtPSF0pW0NAQEhdKFtDQEhdMTIpW05IXUMoPU8pW05IXWMzbm5bY0hdczM=

> <s_epik_cmdline>
J2VwaWtfcHl0aG9uJywgJy1waCcsICc3LjAnLCAnLXRuJywgJzgnLCAnLW1hJywgJzIwMCcsICctbWV0YWxfYmluZGluZycsICctaW1hZScsICc8aW5maWxlLm1hZT4nLCAnLW9tYWUnLCAnPG91dGZpbGUubWFlPic=

> <r_lp_tautomer_probability>
1

> <r_epik_Ionization_Penalty>
4.53732

> <r_epik_Ionization_Penalty_Charging>
4.48632

> <r_epik_Ionization_Penalty_Neutral>
0.0510007

> <r_epik_State_Penalty>
4.48602

> <r_epik_Charging_Adjusted_Penalty>
8.97234

> <i_epik_Tot_Q>
-1

> <i_epik_Tot_abs_Q>
1

> <r_epik_Metal_State_Penalty>
0.812492

> <b_epik_Metal_Only>
1

> <s_lp_Force_Field>
OPLS_2005

> <r_lp_Energy>
48.4262

> <b_lp_Chiralities_Consistent>
1

> <s_lp_Variant>
AV-unprocessed.smi:798-12

> <Gold.Version>
5.8.1

> <Gold.Id.Protein>
6NUR|6NUR_protein|mol2

> <Gold.PLP.Fitness>
39.1292

> <Gold.PLP.PLP>
-27.9451

> <Gold.PLP.part.hbond>
-3.1268

> <Gold.PLP.part.metal>
0.0000

> <Gold.PLP.part.buried>
-4.8845

> <Gold.PLP.part.nonpolar>
-21.2544

> <Gold.PLP.part.repulsive>
0.4425

> <Gold.PLP.ligand.clash>
0.0000

> <Gold.PLP.ligand.torsion>
0.2463

> <Gold.PLP.Chemscore.Hbond>
3.8880

> <Gold.PLP.Chemscore.CHOScore>
0.0000

> <Gold.PLP.Chemscore.Metal>
0.0000

> <Gold.Chemscore.Hbonds>
donor molecule, donor type, donor heavy atom, donor atom, acceptor molecule, acceptor atom, score
      P1  H  6896  6907       L1     1  1.00
      P1  H  6896  6908       L1    18  1.00
      P1  H  6931  6943       L1     3  1.89

> <Gold.PLP.Chemscore.Internal.Correction>
0.0126

> <Gold.Rescore>
     Score         DG    S(hbond)    S(metal)    S(lipo)     H(rot)  DE(clash)    DE(int)     intcor
     13.96     -15.88       2.65        0.00      55.21       1.92       0.00       1.92       ----

> <Gold.Chemscore.Fitness>
13.9586

> <Gold.Chemscore.DG>
-15.8825

> <Gold.Chemscore.ZeroCoef>
-5.4800

> <Gold.Chemscore.Hbond>
2.6525

> <Gold.Chemscore.Metal>
0.0000

> <Gold.Chemscore.Lipo>
55.2139

> <Gold.Chemscore.Internal_Hbond>
0.0000

> <Gold.Chemscore.DEClash>
0.0038

> <Gold.Chemscore.DEInternal>
1.9202

> <Gold.Chemscore.Rot>
1.9207

> <Gold.Chemscore.Internal.Correction>
   9.000000E+99

> <Gold.Chemscore.Hbonds>
donor molecule, donor type, donor heavy atom, donor atom, acceptor molecule, acceptor atom, score
      P1  H  6896  6907       L1     1  0.90
      P1  H  6896  6908       L1    18  0.24
      P1  H  6931  6943       L1     3  0.83

> <Gold.Chemscore.Hbond.Weighted>
-8.8594

> <Gold.Chemscore.Metal.Weighted>
-0.0000

> <Gold.Chemscore.Lipo.Weighted>
-6.4600

> <Gold.Chemscore.Internal_Hbond.Weighted>
0.0000

> <Gold.Chemscore.DEClash.Weighted>
0.0038

> <Gold.Chemscore.DEInternal.Weighted>
1.9202

> <Gold.Chemscore.Rot.Weighted>
4.9169

> <Gold.Chemscore.Internal.Correction.Weighted>
   9.000000E+99

> <Gold.Protein.RotatedTorsions>
[ 6907 6896 6895 6894 ] final  -83.37 input  -60.11 | X-H torsion
[ 7974 7965 7964 7962 ] final -119.61 input  175.53 | X-H torsion
[ 8008 7997 7996 7995 ] final  155.90 input   59.86 | X-H torsion
[ 10167 10162 10161 10158 ] final -147.50 input  -65.29 | X-H torsion
[ 10718 10713 10712 10709 ] final  -91.78 input   66.30 | X-H torsion
[ 10763 10752 10751 10750 ] final  -36.34 input  -60.55 | X-H torsion
[ 11005 11000 10999 10996 ] final  -42.96 input  -57.11 | X-H torsion

> <Gold.Protein.ActiveResidues>
 VAL166  LYS551  ARG553  GLY616  TRP617  ASP618  TYR619  PRO620  LYS621  CYS622 
 ASP623  PHE694  ASN695  SER759  ASP760  ASP761  ALA762  ILE779  LEU786  VAL792 
 PHE793  MET794  SER795  GLU796  ALA797  LYS798  CYS799  TRP800  GLU811  SER814 

> <Gold.Protein.RotatedAtoms>
  150.6886  134.3522  159.4913 H   0  0  0  0  0  0  0  0  0  0  0  0  # atno 6907 bound_to 6896
  152.1361  134.9095  160.0565 H   0  0  0  0  0  0  0  0  0  0  0  0  # atno 6908 bound_to 6896
  152.0246  133.3878  159.4309 H   0  0  0  0  0  0  0  0  0  0  0  0  # atno 6909 bound_to 6896
  145.0606  140.8287  143.4154 H   0  0  0  0  0  0  0  0  0  0  0  0  # atno 7974 bound_to 7965
  156.2452  140.1927  156.6873 H   0  0  0  0  0  0  0  0  0  0  0  0  # atno 8008 bound_to 7997
  154.6277  140.0600  156.9720 H   0  0  0  0  0  0  0  0  0  0  0  0  # atno 8009 bound_to 7997
  155.1760  140.3272  155.4386 H   0  0  0  0  0  0  0  0  0  0  0  0  # atno 8010 bound_to 7997
  139.7617  143.8368  152.2608 H   0  0  0  0  0  0  0  0  0  0  0  0  # atno 10167 bound_to 10162
  155.9996  130.4961  150.5526 H   0  0  0  0  0  0  0  0  0  0  0  0  # atno 10718 bound_to 10713
  153.8781  135.6824  153.4769 H   0  0  0  0  0  0  0  0  0  0  0  0  # atno 10763 bound_to 10752
  153.1249  135.4723  154.9254 H   0  0  0  0  0  0  0  0  0  0  0  0  # atno 10764 bound_to 10752
  154.7682  135.3230  154.8195 H   0  0  0  0  0  0  0  0  0  0  0  0  # atno 10765 bound_to 10752
  141.0351  133.6803  156.2667 H   0  0  0  0  0  0  0  0  0  0  0  0  # atno 11005 bound_to 11000
  145.1413  139.2570  143.5489 LP  0  0  0  0  0  0  0  0  0  0  0  0  # atno 17320 bound_to 7965
  146.3524  140.1091  142.8604 LP  0  0  0  0  0  0  0  0  0  0  0  0  # atno 17321 bound_to 7965
  139.8376  144.7225  150.9372 LP  0  0  0  0  0  0  0  0  0  0  0  0  # atno 17342 bound_to 10162
  140.7807  143.4013  151.1145 LP  0  0  0  0  0  0  0  0  0  0  0  0  # atno 17343 bound_to 10162
  157.3447  131.0723  151.1760 LP  0  0  0  0  0  0  0  0  0  0  0  0  # atno 17370 bound_to 10713
  157.2597  130.6653  149.5969 LP  0  0  0  0  0  0  0  0  0  0  0  0  # atno 17371 bound_to 10713
  140.6336  134.5238  157.5562 LP  0  0  0  0  0  0  0  0  0  0  0  0  # atno 17394 bound_to 11000
  139.9235  134.8102  156.1139 LP  0  0  0  0  0  0  0  0  0  0  0  0  # atno 17395 bound_to 11000

$$$$
