#       Name:                AV-unprocessed.smi:1591
#       Creating user name   scv26
#       Creation time:       Fri Mar 27 07:03:35 2020


#       File generated by GOLD software.
#

@<TRIPOS>MOLECULE
AV-unprocessed.smi:1591
    58    61     1
SMALL
NO_CHARGES


@<TRIPOS>ATOM
      1 ****        -0.8177   0.7061  -4.2006 C.3            1 S1                 0.0000
      2 ****        -1.2712  -0.0648  -2.9513 C.3            1 S1                 0.0000
      3 ****        -0.7336   0.5235  -1.6228 C.3            1 S1                 0.0000
      4 ****         0.7305   0.5363  -1.6683 N.am           1 S1                 0.0000
      5 ****         1.5238   1.6022  -1.4784 C.2            1 S1                 0.0000
      6 ****         1.1031   2.7479  -1.3207 O.2            1 S1                 0.0000
      7 ****         3.0279   1.3184  -1.4481 C.3            1 S1                 0.0000
      8 ****         3.5301   1.3209  -0.0658 N.am           1 S1                 0.0000
      9 ****         3.4754   0.1044   0.6380 C.2            1 S1                 0.0000
     10 ****         3.8764   0.0046   1.9192 C.2            1 S1                 0.0000
     11 ****         4.3784   1.2029   2.5795 C.2            1 S1                 0.0000
     12 ****         4.7480   1.1311   3.7499 O.2            1 S1                 0.0000
     13 ****         4.4127   2.3595   1.8550 N.pl3          1 S1                -1.0000
     14 ****         3.9988   2.4467   0.5525 C.2            1 S1                 0.0000
     15 ****         4.0343   3.5028  -0.0792 O.2            1 S1                 0.0000
     16 ****        -1.2348  -0.1881  -0.3190 C.3            1 S1                 0.0000
     17 ****        -0.7438  -1.6628  -0.2284 C.3            1 S1                 0.0000
     18 ****        -1.2381  -2.3236   1.0773 C.3            1 S1                 0.0000
     19 ****        -0.6860  -1.5510   2.2926 C.3            1 S1                 0.0000
     20 ****        -1.1941  -0.0961   2.2396 C.3            1 S1                 0.0000
     21 ****        -2.7341  -0.0764   2.2813 C.3            1 S1                 0.0000
     22 ****        -3.2776  -0.8521   1.0661 C.3            1 S1                 0.0000
     23 ****        -2.7803  -2.3117   1.1152 C.3            1 S1                 0.0000
     24 ****        -2.7895  -0.1867  -0.2386 C.3            1 S1                 0.0000
     25 ****        -0.7040   0.5688   0.9377 C.3            1 S1                 0.0000
     26 ****        -1.2826   0.2947  -5.0968 H              1 S1                 0.0000
     27 ****         0.2624   0.6523  -4.3392 H              1 S1                 0.0000
     28 ****        -1.0967   1.7582  -4.1355 H              1 S1                 0.0000
     29 ****        -2.3597  -0.0591  -2.9515 H              1 S1                 0.0000
     30 ****        -0.9698  -1.1070  -3.0558 H              1 S1                 0.0000
     31 ****        -1.0969   1.5519  -1.5806 H              1 S1                 0.0000
     32 ****         1.1809  -0.3581  -1.7955 H              1 S1                 0.0000
     33 ****         3.2375   0.3581  -1.9225 H              1 S1                 0.0000
     34 ****         3.5436   2.0576  -2.0628 H              1 S1                 0.0000
     35 ****         3.0830  -0.7321   0.0783 H              1 S1                 0.0000
     36 ****         3.8243  -0.9369   2.4456 H              1 S1                 0.0000
     37 ****        -1.1041  -2.2410  -1.0793 H              1 S1                 0.0000
     38 ****         0.3451  -1.7113  -0.2655 H              1 S1                 0.0000
     39 ****        -0.8844  -3.3544   1.1149 H              1 S1                 0.0000
     40 ****        -1.0021  -2.0286   3.2208 H              1 S1                 0.0000
     41 ****         0.4047  -1.5708   2.2906 H              1 S1                 0.0000
     42 ****        -0.8026   0.4543   3.0958 H              1 S1                 0.0000
     43 ****        -3.0941  -0.5229   3.2091 H              1 S1                 0.0000
     44 ****        -3.1004   0.9508   2.2697 H              1 S1                 0.0000
     45 ****        -4.3677  -0.8415   1.0906 H              1 S1                 0.0000
     46 ****        -3.1845  -2.8782   0.2754 H              1 S1                 0.0000
     47 ****        -3.1399  -2.8031   2.0202 H              1 S1                 0.0000
     48 ****        -3.1705   0.8336  -0.3014 H              1 S1                 0.0000
     49 ****        -3.2254  -0.7302  -1.0759 H              1 S1                 0.0000
     50 ****         0.3858   0.5871   0.9550 H              1 S1                 0.0000
     51 ****        -1.0223   1.6120   0.9123 H              1 S1                 0.0000
     52 ****         0.1190   2.9249  -1.3298 LP             1 S1                 0.0000
     53 ****         1.7455   3.5020  -1.1834 LP             1 S1                 0.0000
     54 ****         4.7019   0.2585   4.2362 LP             1 S1                 0.0000
     55 ****         5.0948   1.9453   4.2156 LP             1 S1                 0.0000
     56 ****         4.7582   3.1864   2.2987 LP             1 S1                 0.0000
     57 ****         3.7233   3.5279  -1.0292 LP             1 S1                 0.0000
     58 ****         4.3742   4.3356   0.3578 LP             1 S1                 0.0000
@<TRIPOS>BOND
    1    1    2 1     
    2    1   26 1     
    3    1   27 1     
    4    1   28 1     
    5    2    3 1     
    6    2   29 1     
    7    2   30 1     
    8    3    4 1     
    9    3   16 1     
   10    3   31 1     
   11    4    5 am    
   12    4   32 1     
   13    5    6 2     
   14    5    7 1     
   15    7    8 1     
   16    7   33 1     
   17    7   34 1     
   18    8   14 am    
   19    8    9 1     
   20    9   10 2     
   21    9   35 1     
   22   10   11 1     
   23   10   36 1     
   24   11   12 2     
   25   11   13 1     
   26   13   14 1     
   27   14   15 2     
   28   16   24 1     
   29   16   25 1     
   30   16   17 1     
   31   17   18 1     
   32   17   37 1     
   33   17   38 1     
   34   18   23 1     
   35   18   19 1     
   36   18   39 1     
   37   19   20 1     
   38   19   40 1     
   39   19   41 1     
   40   20   21 1     
   41   20   25 1     
   42   20   42 1     
   43   21   22 1     
   44   21   43 1     
   45   21   44 1     
   46   22   23 1     
   47   22   24 1     
   48   22   45 1     
   49   23   46 1     
   50   23   47 1     
   51   24   48 1     
   52   24   49 1     
   53   25   50 1     
   54   25   51 1     
   55    6   52 1     
   56    6   53 1     
   57   12   54 1     
   58   12   55 1     
   59   13   56 1     
   60   15   57 1     
   61   15   58 1     
@<TRIPOS>SUBSTRUCTURE
      1 S1             1
@<TRIPOS>SET
LONE_PAIRS      STATIC     ATOMS    <user>   **** ""
7 52 53 54 55 56 57 58
DONOR_HYDROGENS      STATIC     ATOMS    <user>   **** ""
1 32
ATOM$BLUE        STATIC     ATOMS    COLORGROUP SYSTEM
7 52 53 54 55 56 57 58
ATOM$RED        STATIC     ATOMS    COLORGROUP SYSTEM
1 32
