#       Name:                AV-unprocessed.smi:1554
#       Creating user name   scv26
#       Creation time:       Fri Mar 27 06:44:58 2020


#       File generated by GOLD software.
#

@<TRIPOS>MOLECULE
AV-unprocessed.smi:1554
    53    55     1
SMALL
NO_CHARGES


@<TRIPOS>ATOM
      1 ****        -4.3827   2.9381   2.0281 C.3            1 S1                 0.0000
      2 ****        -3.6955   1.9240   1.1295 C.ar           1 S1                 0.0000
      3 ****        -3.5353   2.2350  -0.2394 C.ar           1 S1                 0.0000
      4 ****        -2.9012   1.2884  -1.0352 C.ar           1 S1                 0.0000
      5 ****        -2.5944   1.2984  -2.3973 N.pl3          1 S1                 1.0000
      6 ****        -1.9649   0.1380  -2.7301 C.2            1 S1                 0.0000
      7 ****        -1.8605  -0.6126  -1.5993 N.pl3          1 S1                 0.0000
      8 ****        -1.2734  -1.9476  -1.4156 C.3            1 S1                 0.0000
      9 ****         0.2619  -1.9165  -1.2800 C.3            1 S1                 0.0000
     10 ****         0.7076  -3.2534  -1.1763 O.3            1 S1                 0.0000
     11 ****         0.7650  -1.1266  -0.0516 C.3            1 S1                 0.0000
     12 ****         2.2470  -1.0565   0.0169 N.4            1 S1                 1.0000
     13 ****         2.7383  -0.7969   1.3908 C.3            1 S1                 0.0000
     14 ****         4.2755  -0.7928   1.4204 C.3            1 S1                 0.0000
     15 ****         4.7659   0.1762   0.5023 O.3            1 S1                 0.0000
     16 ****         4.3806  -0.1072  -0.8382 C.3            1 S1                 0.0000
     17 ****         5.0316   0.9348  -1.7546 C.3            1 S1                 0.0000
     18 ****         2.8427  -0.0865  -0.9357 C.3            1 S1                 0.0000
     19 ****        -2.4349   0.0645  -0.5157 C.ar           1 S1                 0.0000
     20 ****        -2.5858  -0.2572   0.8317 C.ar           1 S1                 0.0000
     21 ****        -3.2259   0.6939   1.6581 C.ar           1 S1                 0.0000
     22 ****        -3.4016   0.3705   3.1322 C.3            1 S1                 0.0000
     23 ****        -4.7016   3.8171   1.4672 H              1 S1                 0.0000
     24 ****        -3.7063   3.2723   2.8149 H              1 S1                 0.0000
     25 ****        -5.2672   2.5021   2.4932 H              1 S1                 0.0000
     26 ****        -3.8905   3.1697  -0.6489 H              1 S1                 0.0000
     27 ****        -1.6138  -0.1372  -3.7144 H              1 S1                 0.0000
     28 ****        -1.7375  -2.4350  -0.5583 H              1 S1                 0.0000
     29 ****        -1.5560  -2.5386  -2.2883 H              1 S1                 0.0000
     30 ****         0.6756  -1.4969  -2.1964 H              1 S1                 0.0000
     31 ****         0.2830  -3.6599  -0.4358 H              1 S1                 0.0000
     32 ****         0.3693  -0.1104  -0.0483 H              1 S1                 0.0000
     33 ****         0.3789  -1.6065   0.8493 H              1 S1                 0.0000
     34 ****         2.3553   0.1626   1.7422 H              1 S1                 0.0000
     35 ****         2.3626  -1.5621   2.0712 H              1 S1                 0.0000
     36 ****         4.6315  -0.5443   2.4203 H              1 S1                 0.0000
     37 ****         4.6736  -1.7791   1.1765 H              1 S1                 0.0000
     38 ****         4.7529  -1.0948  -1.1171 H              1 S1                 0.0000
     39 ****         4.7734   0.7560  -2.7987 H              1 S1                 0.0000
     40 ****         6.1182   0.9020  -1.6719 H              1 S1                 0.0000
     41 ****         4.7091   1.9445  -1.4981 H              1 S1                 0.0000
     42 ****         2.5452  -0.3247  -1.9562 H              1 S1                 0.0000
     43 ****         2.4662   0.9148  -0.7194 H              1 S1                 0.0000
     44 ****        -2.2304  -1.1912   1.2399 H              1 S1                 0.0000
     45 ****        -2.9915  -0.6095   3.3782 H              1 S1                 0.0000
     46 ****        -4.4584   0.3651   3.4002 H              1 S1                 0.0000
     47 ****        -2.8906   1.1095   3.7499 H              1 S1                 0.0000
     48 ****         2.5886  -1.9725  -0.2386 H              1 S1                 0.0000
     49 ****        -2.8020   2.0398  -3.0544 H              1 S1                 0.0000
     50 ****         1.6989  -3.2679  -1.0449 LP             1 S1                 0.0000
     51 ****         0.4749  -3.7510  -2.0119 LP             1 S1                 0.0000
     52 ****         5.7645   0.1916   0.5536 LP             1 S1                 0.0000
     53 ****         4.4052   1.0731   0.7580 LP             1 S1                 0.0000
@<TRIPOS>BOND
    1    1    2 1     
    2    1   23 1     
    3    1   24 1     
    4    1   25 1     
    5    2   21 ar    
    6    2    3 ar    
    7    3    4 ar    
    8    3   26 1     
    9    4   19 ar    
   10    4    5 1     
   11    5    6 2     
   12    5   49 1     
   13    6    7 1     
   14    6   27 1     
   15    7    8 1     
   16    7   19 1     
   17    8    9 1     
   18    8   28 1     
   19    8   29 1     
   20    9   10 1     
   21    9   11 1     
   22    9   30 1     
   23   10   31 1     
   24   11   12 1     
   25   11   32 1     
   26   11   33 1     
   27   12   18 1     
   28   12   13 1     
   29   12   48 1     
   30   13   14 1     
   31   13   34 1     
   32   13   35 1     
   33   14   15 1     
   34   14   36 1     
   35   14   37 1     
   36   15   16 1     
   37   16   17 1     
   38   16   18 1     
   39   16   38 1     
   40   17   39 1     
   41   17   40 1     
   42   17   41 1     
   43   18   42 1     
   44   18   43 1     
   45   19   20 ar    
   46   20   21 ar    
   47   20   44 1     
   48   21   22 1     
   49   22   45 1     
   50   22   46 1     
   51   22   47 1     
   52   10   50 1     
   53   10   51 1     
   54   15   52 1     
   55   15   53 1     
@<TRIPOS>SUBSTRUCTURE
      1 S1             1
@<TRIPOS>SET
LONE_PAIRS      STATIC     ATOMS    <user>   **** ""
4 50 51 52 53
DONOR_HYDROGENS      STATIC     ATOMS    <user>   **** ""
3 49 31 48
ATOM$BLUE        STATIC     ATOMS    COLORGROUP SYSTEM
4 50 51 52 53
ATOM$RED        STATIC     ATOMS    COLORGROUP SYSTEM
3 49 31 48
