AV-unprocessed.smi:1844|AV-procd|sdf|7510|dock3
  -GOLD-   22720 9213D 1   1.00000     0.00000
 Structure written by MMmdl.
 45 46  0  0  0  0  0  0  0  0  1 V2000
  155.6461  138.9667  161.6228 C   0  0  0  0  0  0  0  0  0  0  0  0
  154.7946  140.0766  161.2225 N   0  0  0  0  0  0  0  0  0  0  0  0
  154.3746  140.2993  159.9662 C   0  0  0  0  0  0  0  0  0  0  0  0
  154.6924  139.5550  159.0367 O   0  0  0  0  0  0  0  0  0  0  0  0
  153.5235  141.4838  159.8272 C   0  0  0  0  0  0  0  0  0  0  0  0
  153.4603  142.5405  160.8261 C   0  0  0  0  0  0  0  0  0  0  0  0
  152.6632  143.6112  160.6419 C   0  0  0  0  0  0  0  0  0  0  0  0
  151.8316  143.7579  159.4439 C   0  0  0  0  0  0  0  0  0  0  0  0
  151.1031  144.7353  159.2696 O   0  0  0  0  0  0  0  0  0  0  0  0
  151.9160  142.7406  158.5338 N   0  0  0  0  0  0  0  0  0  0  0  0
  151.1270  142.7753  157.2908 C   0  0  0  0  0  0  0  0  0  0  0  0
  150.0853  141.6514  157.1967 C   0  0  0  0  0  0  0  0  0  0  0  0
  150.1806  140.6410  157.8947 O   0  0  0  0  0  0  0  0  0  0  0  0
  149.0793  141.8628  156.3341 N   0  0  0  0  0  0  0  0  0  0  0  0
  147.9658  140.9517  156.0606 C   0  0  2  0  0  0  0  0  0  0  0  0
  148.0537  140.4413  154.6080 C   0  0  0  0  0  0  0  0  0  0  0  0
  147.7405  141.5449  153.5826 C   0  0  0  0  0  0  0  0  0  0  0  0
  146.3752  142.1909  153.8603 C   0  0  0  0  0  0  0  0  0  0  0  0
  146.2909  142.7250  155.2993 C   0  0  0  0  0  0  0  0  0  0  0  0
  146.5941  141.6206  156.3334 C   0  0  2  0  0  0  0  0  0  0  0  0
  146.4519  142.1409  157.7741 C   0  0  0  0  0  0  0  0  0  0  0  0
  152.7547  141.6256  158.7295 C   0  0  0  0  0  0  0  0  0  0  0  0
  155.8260  139.0056  162.6970 H   0  0  0  0  0  0  0  0  0  0  0  0
  156.6096  139.0139  161.1140 H   0  0  0  0  0  0  0  0  0  0  0  0
  155.1750  138.0110  161.3901 H   0  0  0  0  0  0  0  0  0  0  0  0
  154.5042  140.7193  161.9450 H   0  0  0  0  0  0  0  0  0  0  0  0
  154.0469  142.4939  161.7318 H   0  0  0  0  0  0  0  0  0  0  0  0
  152.6340  144.3832  161.3967 H   0  0  0  0  0  0  0  0  0  0  0  0
  150.6058  143.7286  157.1940 H   0  0  0  0  0  0  0  0  0  0  0  0
  151.7903  142.7258  156.4250 H   0  0  0  0  0  0  0  0  0  0  0  0
  149.0841  142.7293  155.8155 H   0  0  0  0  0  0  0  0  0  0  0  0
  148.0482  140.0792  156.7109 H   0  0  0  0  0  0  0  0  0  0  0  0
  149.0414  140.0207  154.4144 H   0  0  0  0  0  0  0  0  0  0  0  0
  147.3460  139.6221  154.4743 H   0  0  0  0  0  0  0  0  0  0  0  0
  148.5190  142.3083  153.6102 H   0  0  0  0  0  0  0  0  0  0  0  0
  147.7558  141.1287  152.5750 H   0  0  0  0  0  0  0  0  0  0  0  0
  146.1961  143.0004  153.1522 H   0  0  0  0  0  0  0  0  0  0  0  0
  145.5849  141.4574  153.6966 H   0  0  0  0  0  0  0  0  0  0  0  0
  146.9892  143.5536  155.4231 H   0  0  0  0  0  0  0  0  0  0  0  0
  145.2958  143.1356  155.4742 H   0  0  0  0  0  0  0  0  0  0  0  0
  145.8347  140.8474  156.2070 H   0  0  0  0  0  0  0  0  0  0  0  0
  147.1313  142.9700  157.9736 H   0  0  0  0  0  0  0  0  0  0  0  0
  146.6653  141.3535  158.4975 H   0  0  0  0  0  0  0  0  0  0  0  0
  145.4383  142.4953  157.9625 H   0  0  0  0  0  0  0  0  0  0  0  0
  152.7311  140.9045  157.9244 H   0  0  0  0  0  0  0  0  0  0  0  0
  1  2  1  0  0  0  0
  1 23  1  0  0  0  0
  1 24  1  0  0  0  0
  1 25  1  0  0  0  0
  2  3  1  0  0  0  0
  2 26  1  0  0  0  0
  3  4  2  0  0  0  0
  3  5  1  0  0  0  0
  5 22  2  0  0  0  0
  5  6  1  0  0  0  0
  6  7  2  0  0  0  0
  6 27  1  0  0  0  0
  7  8  1  0  0  0  0
  7 28  1  0  0  0  0
  8  9  2  0  0  0  0
  8 10  1  0  0  0  0
 10 11  1  0  0  0  0
 10 22  1  0  0  0  0
 11 12  1  0  0  0  0
 11 29  1  0  0  0  0
 11 30  1  0  0  0  0
 12 13  2  0  0  0  0
 12 14  1  0  0  0  0
 14 15  1  0  0  0  0
 14 31  1  0  0  0  0
 15 20  1  0  0  0  0
 15 16  1  0  0  0  0
 15 32  1  0  0  0  0
 16 17  1  0  0  0  0
 16 33  1  0  0  0  0
 16 34  1  0  0  0  0
 17 18  1  0  0  0  0
 17 35  1  0  0  0  0
 17 36  1  0  0  0  0
 18 19  1  0  0  0  0
 18 37  1  0  0  0  0
 18 38  1  0  0  0  0
 19 20  1  0  0  0  0
 19 39  1  0  0  0  0
 19 40  1  0  0  0  0
 20 21  1  0  0  0  0
 20 41  1  0  0  0  0
 21 42  1  0  0  0  0
 21 43  1  0  0  0  0
 21 44  1  0  0  0  0
 22 45  1  0  0  0  0
M  END
> <s_m_source_file>
AV-unprocessed.smi

> <i_m_source_file_index>
1844

> <i_lp_mmshare_version>
43012

> <i_f3d_flags>
0

> <s_epik_input>
W0NIM11bTkhdQyg9TyljMVtjSF1bY0hdYyg9TyluKFtjSF0xKVtDSDJdQyg9TylbTkhdW0NAQEhdMltDSDJdW0NIMl1bQ0gyXVtDSDJdW0NASF0yW0NIM10=

> <s_epik_cmdline>
J2VwaWtfcHl0aG9uJywgJy1waCcsICc3LjAnLCAnLXRuJywgJzgnLCAnLW1hJywgJzIwMCcsICctbWV0YWxfYmluZGluZycsICctaW1hZScsICc8aW5maWxlLm1hZT4nLCAnLW9tYWUnLCAnPG91dGZpbGUubWFlPic=

> <r_lp_tautomer_probability>
1

> <r_epik_Ionization_Penalty>
3.66612e-07

> <r_epik_Ionization_Penalty_Charging>
5.18929e-08

> <r_epik_Ionization_Penalty_Neutral>
3.14719e-07

> <r_epik_State_Penalty>
-0

> <r_epik_Charging_Adjusted_Penalty>
5.18929e-08

> <i_epik_Tot_Q>
0

> <i_epik_Tot_abs_Q>
0

> <r_epik_Metal_State_Penalty>
-0

> <b_epik_Metal_Only>
0

> <s_lp_Force_Field>
OPLS_2005

> <r_lp_Energy>
22.5965

> <b_lp_Chiralities_Consistent>
1

> <s_lp_Variant>
AV-unprocessed.smi:1844-3

> <Gold.Version>
5.8.1

> <Gold.Id.Protein>
6NUR|6NUR_protein|mol2

> <Gold.PLP.Fitness>
47.2933

> <Gold.PLP.PLP>
-42.1954

> <Gold.PLP.part.hbond>
-2.0000

> <Gold.PLP.part.metal>
0.0000

> <Gold.PLP.part.buried>
-6.3505

> <Gold.PLP.part.nonpolar>
-33.2534

> <Gold.PLP.part.repulsive>
0.1788

> <Gold.PLP.ligand.clash>
0.0000

> <Gold.PLP.ligand.torsion>
0.4566

> <Gold.PLP.Chemscore.Hbond>
2.0000

> <Gold.PLP.Chemscore.CHOScore>
0.0000

> <Gold.PLP.Chemscore.Metal>
0.0000

> <Gold.Chemscore.Hbonds>
donor molecule, donor type, donor heavy atom, donor atom, acceptor molecule, acceptor atom, score
      L1  H    14    31       P1  8028  1.00
      P1  H  7997  8010       L1     4  1.00

> <Gold.PLP.Chemscore.Internal.Correction>
0.0111

> <Gold.Rescore>
     Score         DG    S(hbond)    S(metal)    S(lipo)     H(rot)  DE(clash)    DE(int)     intcor
     17.03     -18.80       1.98        0.00      90.06       1.49       0.05       1.73       ----

> <Gold.Chemscore.Fitness>
17.0268

> <Gold.Chemscore.DG>
-18.8035

> <Gold.Chemscore.ZeroCoef>
-5.4800

> <Gold.Chemscore.Hbond>
1.9780

> <Gold.Chemscore.Metal>
0.0000

> <Gold.Chemscore.Lipo>
90.0624

> <Gold.Chemscore.Internal_Hbond>
0.0000

> <Gold.Chemscore.DEClash>
0.0503

> <Gold.Chemscore.DEInternal>
1.7263

> <Gold.Chemscore.Rot>
1.4923

> <Gold.Chemscore.Internal.Correction>
   9.000000E+99

> <Gold.Chemscore.Hbonds>
donor molecule, donor type, donor heavy atom, donor atom, acceptor molecule, acceptor atom, score
      L1  H    14    31       P1  8028  0.93
      P1  H  7997  8010       L1     4  1.00

> <Gold.Chemscore.Hbond.Weighted>
-6.6066

> <Gold.Chemscore.Metal.Weighted>
-0.0000

> <Gold.Chemscore.Lipo.Weighted>
-10.5373

> <Gold.Chemscore.Internal_Hbond.Weighted>
0.0000

> <Gold.Chemscore.DEClash.Weighted>
0.0503

> <Gold.Chemscore.DEInternal.Weighted>
1.7263

> <Gold.Chemscore.Rot.Weighted>
3.8204

> <Gold.Chemscore.Internal.Correction.Weighted>
   9.000000E+99

> <Gold.Protein.RotatedTorsions>
[ 6907 6896 6895 6894 ] final  -27.17 input  -60.11 | X-H torsion
[ 7974 7965 7964 7962 ] final -101.35 input  175.53 | X-H torsion
[ 8008 7997 7996 7995 ] final    4.24 input   59.86 | X-H torsion
[ 10167 10162 10161 10158 ] final   93.57 input  -65.29 | X-H torsion
[ 10718 10713 10712 10709 ] final  -92.79 input   66.30 | X-H torsion
[ 10763 10752 10751 10750 ] final  -11.06 input  -60.55 | X-H torsion
[ 11005 11000 10999 10996 ] final   71.45 input  -57.11 | X-H torsion

> <Gold.Protein.ActiveResidues>
 VAL166  LYS551  ARG553  GLY616  TRP617  ASP618  TYR619  PRO620  LYS621  CYS622 
 ASP623  PHE694  ASN695  SER759  ASP760  ASP761  ALA762  ILE779  LEU786  VAL792 
 PHE793  MET794  SER795  GLU796  ALA797  LYS798  CYS799  TRP800  GLU811  SER814 

> <Gold.Protein.RotatedAtoms>
  151.1506  135.0225  159.8666 H   0  0  0  0  0  0  0  0  0  0  0  0  # atno 6907 bound_to 6896
  152.5452  134.1392  159.8482 H   0  0  0  0  0  0  0  0  0  0  0  0  # atno 6908 bound_to 6896
  151.1477  133.4882  159.2628 H   0  0  0  0  0  0  0  0  0  0  0  0  # atno 6909 bound_to 6896
  145.2827  140.9331  143.2923 H   0  0  0  0  0  0  0  0  0  0  0  0  # atno 7974 bound_to 7965
  154.7135  140.2697  155.6607 H   0  0  0  0  0  0  0  0  0  0  0  0  # atno 8008 bound_to 7997
  156.2802  140.2748  156.1708 H   0  0  0  0  0  0  0  0  0  0  0  0  # atno 8009 bound_to 7997
  155.0603  140.0371  157.2564 H   0  0  0  0  0  0  0  0  0  0  0  0  # atno 8010 bound_to 7997
  139.8167  144.6750  150.9571 H   0  0  0  0  0  0  0  0  0  0  0  0  # atno 10167 bound_to 10162
  156.0006  130.5001  150.5678 H   0  0  0  0  0  0  0  0  0  0  0  0  # atno 10718 bound_to 10713
  153.4783  135.7017  153.5953 H   0  0  0  0  0  0  0  0  0  0  0  0  # atno 10763 bound_to 10752
  153.4177  135.3833  155.2091 H   0  0  0  0  0  0  0  0  0  0  0  0  # atno 10764 bound_to 10752
  154.8722  135.3920  154.4229 H   0  0  0  0  0  0  0  0  0  0  0  0  # atno 10765 bound_to 10752
  139.9543  134.7172  156.0790 H   0  0  0  0  0  0  0  0  0  0  0  0  # atno 11005 bound_to 11000
  144.9239  139.4378  143.6527 LP  0  0  0  0  0  0  0  0  0  0  0  0  # atno 17320 bound_to 7965
  146.3211  139.8115  142.8945 LP  0  0  0  0  0  0  0  0  0  0  0  0  # atno 17321 bound_to 7965
  140.7815  143.4132  151.0959 LP  0  0  0  0  0  0  0  0  0  0  0  0  # atno 17342 bound_to 10162
  139.7795  143.8376  152.3135 LP  0  0  0  0  0  0  0  0  0  0  0  0  # atno 17343 bound_to 10162
  157.3578  131.0744  151.1661 LP  0  0  0  0  0  0  0  0  0  0  0  0  # atno 17370 bound_to 10713
  157.2456  130.6590  149.5909 LP  0  0  0  0  0  0  0  0  0  0  0  0  # atno 17371 bound_to 10713
  141.1211  133.6612  156.3218 LP  0  0  0  0  0  0  0  0  0  0  0  0  # atno 17394 bound_to 11000
  140.5647  134.5900  157.5442 LP  0  0  0  0  0  0  0  0  0  0  0  0  # atno 17395 bound_to 11000

$$$$
