AV-unprocessed.smi:2089|AV-procd|sdf|8529|dock10
  -GOLD-   2272011253D 1   1.00000     0.00000
 Structure written by MMmdl.
 39 40  0  0  0  0  0  0  0  0  1 V2000
  156.4255  135.6900  161.3710 C   0  0  0  0  0  0  0  0  0  0  0  0
  155.1073  136.8022  160.7320 S   0  0  0  0  0  0  0  0  0  0  0  0
  155.6970  137.7546  159.7788 O   0  0  0  0  0  0  0  0  0  0  0  0
  153.9650  135.9701  160.3238 O   0  0  0  0  0  0  0  0  0  0  0  0
  154.6360  137.6918  162.1420 N   0  0  0  0  0  0  0  0  0  0  0  0
  154.1012  136.9443  163.2888 C   0  0  0  0  0  0  0  0  0  0  0  0
  154.9967  137.3062  164.4690 C   0  0  0  0  0  0  0  0  0  0  0  0
  155.4103  138.7360  164.1575 C   0  0  0  0  0  0  0  0  0  0  0  0
  155.5455  138.7461  162.6255 C   0  0  2  0  0  0  0  0  0  0  0  0
  155.2697  140.1227  162.0079 C   0  0  0  0  0  0  0  0  0  0  0  0
  155.6269  141.1490  162.5875 O   0  0  0  0  0  0  0  0  0  0  0  0
  154.6120  140.1324  160.8397 N   0  0  0  0  0  0  0  0  0  0  0  0
  154.2359  141.3401  160.1191 C   0  0  0  0  0  0  0  0  0  0  0  0
  153.4108  142.2739  161.0151 C   0  0  0  0  0  0  0  0  0  0  0  0
  152.6709  143.3280  160.2135 C   0  0  0  0  0  0  0  0  0  0  0  0
  152.0194  144.4000  160.8599 C   0  0  0  0  0  0  0  0  0  0  0  0
  151.3586  145.3589  160.0679 C   0  0  0  0  0  0  0  0  0  0  0  0
  151.3756  145.2105  158.6676 C   0  0  0  0  0  0  0  0  0  0  0  0
  152.0545  144.1042  158.1193 C   0  0  0  0  0  0  0  0  0  0  0  0
  152.6909  143.1789  158.8697 N   0  0  0  0  0  0  0  0  0  0  0  0
  156.7753  135.0449  160.5653 H   0  0  0  0  0  0  0  0  0  0  0  0
  156.0240  135.0763  162.1772 H   0  0  0  0  0  0  0  0  0  0  0  0
  157.2602  136.2816  161.7458 H   0  0  0  0  0  0  0  0  0  0  0  0
  153.0766  137.2707  163.4695 H   0  0  0  0  0  0  0  0  0  0  0  0
  154.0868  135.8700  163.1040 H   0  0  0  0  0  0  0  0  0  0  0  0
  154.4912  137.2095  165.4301 H   0  0  0  0  0  0  0  0  0  0  0  0
  155.8748  136.6593  164.4806 H   0  0  0  0  0  0  0  0  0  0  0  0
  154.6344  139.4218  164.5015 H   0  0  0  0  0  0  0  0  0  0  0  0
  156.3400  139.0092  164.6577 H   0  0  0  0  0  0  0  0  0  0  0  0
  156.5651  138.4406  162.3816 H   0  0  0  0  0  0  0  0  0  0  0  0
  154.3389  139.2484  160.4353 H   0  0  0  0  0  0  0  0  0  0  0  0
  155.1384  141.8501  159.7784 H   0  0  0  0  0  0  0  0  0  0  0  0
  153.6619  141.0696  159.2312 H   0  0  0  0  0  0  0  0  0  0  0  0
  152.6870  141.6966  161.5923 H   0  0  0  0  0  0  0  0  0  0  0  0
  154.0603  142.7653  161.7409 H   0  0  0  0  0  0  0  0  0  0  0  0
  152.0280  144.4891  161.9363 H   0  0  0  0  0  0  0  0  0  0  0  0
  150.8494  146.1940  160.5257 H   0  0  0  0  0  0  0  0  0  0  0  0
  150.8812  145.9273  158.0288 H   0  0  0  0  0  0  0  0  0  0  0  0
  152.0885  143.9591  157.0496 H   0  0  0  0  0  0  0  0  0  0  0  0
  1  2  1  0  0  0  0
  1 21  1  0  0  0  0
  1 22  1  0  0  0  0
  1 23  1  0  0  0  0
  2  3  2  0  0  0  0
  2  4  2  0  0  0  0
  2  5  1  0  0  0  0
  5  9  1  0  0  0  0
  5  6  1  0  0  0  0
  6  7  1  0  0  0  0
  6 24  1  0  0  0  0
  6 25  1  0  0  0  0
  7  8  1  0  0  0  0
  7 26  1  0  0  0  0
  7 27  1  0  0  0  0
  8  9  1  0  0  0  0
  8 28  1  0  0  0  0
  8 29  1  0  0  0  0
  9 10  1  0  0  0  0
  9 30  1  0  0  0  0
 10 11  2  0  0  0  0
 10 12  1  0  0  0  0
 12 13  1  0  0  0  0
 12 31  1  0  0  0  0
 13 14  1  0  0  0  0
 13 32  1  0  0  0  0
 13 33  1  0  0  0  0
 14 15  1  0  0  0  0
 14 34  1  0  0  0  0
 14 35  1  0  0  0  0
 15 20  1  0  0  0  0
 15 16  2  0  0  0  0
 16 17  1  0  0  0  0
 16 36  1  0  0  0  0
 17 18  2  0  0  0  0
 17 37  1  0  0  0  0
 18 19  1  0  0  0  0
 18 38  1  0  0  0  0
 19 20  2  0  0  0  0
 19 39  1  0  0  0  0
M  END
> <s_m_source_file>
AV-unprocessed.smi

> <i_m_source_file_index>
2089

> <i_lp_mmshare_version>
43012

> <i_f3d_flags>
0

> <s_epik_input>
W0NIM11TKD1PKSg9TylOMVtDSDJdW0NIMl1bQ0gyXVtDQEhdMUMoPU8pW05IXVtDSDJdW0NIMl1jMltjSF1bY0hdW2NIXVtjSF1uMg==

> <s_epik_cmdline>
J2VwaWtfcHl0aG9uJywgJy1waCcsICc3LjAnLCAnLXRuJywgJzgnLCAnLW1hJywgJzIwMCcsICctbWV0YWxfYmluZGluZycsICctaW1hZScsICc8aW5maWxlLm1hZT4nLCAnLW9tYWUnLCAnPG91dGZpbGUubWFlPic=

> <r_epik_Ionization_Penalty>
0.0244371

> <r_epik_Ionization_Penalty_Charging>
0

> <r_epik_Ionization_Penalty_Neutral>
0.0244371

> <r_epik_State_Penalty>
0.0198365

> <r_epik_Charging_Adjusted_Penalty>
0.0198365

> <i_epik_Tot_Q>
0

> <i_epik_Tot_abs_Q>
0

> <r_epik_Metal_State_Penalty>
0.0190441

> <b_epik_Metal_Only>
0

> <s_lp_Force_Field>
OPLS_2005

> <r_lp_Energy>
5.6995

> <b_lp_Chiralities_Consistent>
1

> <s_lp_Variant>
AV-unprocessed.smi:2089-2

> <Gold.Version>
5.8.1

> <Gold.Id.Protein>
6NUR|6NUR_protein|mol2

> <Gold.PLP.Fitness>
47.0341

> <Gold.PLP.PLP>
-45.7841

> <Gold.PLP.part.hbond>
-1.8388

> <Gold.PLP.part.metal>
0.0000

> <Gold.PLP.part.buried>
-6.7376

> <Gold.PLP.part.nonpolar>
-36.8725

> <Gold.PLP.part.repulsive>
0.0183

> <Gold.PLP.ligand.clash>
0.0000

> <Gold.PLP.ligand.torsion>
1.0900

> <Gold.PLP.Chemscore.Hbond>
1.0000

> <Gold.PLP.Chemscore.CHOScore>
0.0000

> <Gold.PLP.Chemscore.Metal>
0.0000

> <Gold.Chemscore.Hbonds>
donor molecule, donor type, donor heavy atom, donor atom, acceptor molecule, acceptor atom, score
      P1  H  6896  6909       L1     4  1.00

> <Gold.PLP.Chemscore.Internal.Correction>
0.4300

> <Gold.Rescore>
     Score         DG    S(hbond)    S(metal)    S(lipo)     H(rot)  DE(clash)    DE(int)     intcor
     15.08     -17.59       1.00        0.00     116.50       1.90       1.48       1.02       ----

> <Gold.Chemscore.Fitness>
15.0820

> <Gold.Chemscore.DG>
-17.5888

> <Gold.Chemscore.ZeroCoef>
-5.4800

> <Gold.Chemscore.Hbond>
0.9998

> <Gold.Chemscore.Metal>
0.0000

> <Gold.Chemscore.Lipo>
116.5032

> <Gold.Chemscore.Internal_Hbond>
0.0000

> <Gold.Chemscore.DEClash>
1.4843

> <Gold.Chemscore.DEInternal>
1.0225

> <Gold.Chemscore.Rot>
1.8990

> <Gold.Chemscore.Internal.Correction>
   9.000000E+99

> <Gold.Chemscore.Hbonds>
donor molecule, donor type, donor heavy atom, donor atom, acceptor molecule, acceptor atom, score
      P1  H  6896  6909       L1     4  0.94

> <Gold.Chemscore.Hbond.Weighted>
-3.3393

> <Gold.Chemscore.Metal.Weighted>
-0.0000

> <Gold.Chemscore.Lipo.Weighted>
-13.6309

> <Gold.Chemscore.Internal_Hbond.Weighted>
0.0000

> <Gold.Chemscore.DEClash.Weighted>
1.4843

> <Gold.Chemscore.DEInternal.Weighted>
1.0225

> <Gold.Chemscore.Rot.Weighted>
4.8613

> <Gold.Chemscore.Internal.Correction.Weighted>
   9.000000E+99

> <Gold.Protein.RotatedTorsions>
[ 6907 6896 6895 6894 ] final -178.73 input  -60.11 | X-H torsion
[ 7974 7965 7964 7962 ] final  176.35 input  175.53 | X-H torsion
[ 8008 7997 7996 7995 ] final  -12.38 input   59.86 | X-H torsion
[ 10167 10162 10161 10158 ] final   53.69 input  -65.29 | X-H torsion
[ 10718 10713 10712 10709 ] final   -5.27 input   66.30 | X-H torsion
[ 10763 10752 10751 10750 ] final  -70.53 input  -60.55 | X-H torsion
[ 11005 11000 10999 10996 ] final  -77.73 input  -57.11 | X-H torsion

> <Gold.Protein.ActiveResidues>
 VAL166  LYS551  ARG553  GLY616  TRP617  ASP618  TYR619  PRO620  LYS621  CYS622 
 ASP623  PHE694  ASN695  SER759  ASP760  ASP761  ALA762  ILE779  LEU786  VAL792 
 PHE793  MET794  SER795  GLU796  ALA797  LYS798  CYS799  TRP800  GLU811  SER814 

> <Gold.Protein.RotatedAtoms>
  151.6419  133.3325  159.3131 H   0  0  0  0  0  0  0  0  0  0  0  0  # atno 6907 bound_to 6896
  150.8003  134.7097  159.6606 H   0  0  0  0  0  0  0  0  0  0  0  0  # atno 6908 bound_to 6896
  152.4095  134.6153  160.0088 H   0  0  0  0  0  0  0  0  0  0  0  0  # atno 6909 bound_to 6896
  144.7186  140.0084  143.6440 H   0  0  0  0  0  0  0  0  0  0  0  0  # atno 7974 bound_to 7965
  154.5382  140.2277  155.8686 H   0  0  0  0  0  0  0  0  0  0  0  0  # atno 8008 bound_to 7997
  156.1832  140.3095  155.9151 H   0  0  0  0  0  0  0  0  0  0  0  0  # atno 8009 bound_to 7997
  155.3312  140.0445  157.3033 H   0  0  0  0  0  0  0  0  0  0  0  0  # atno 8010 bound_to 7997
  140.2381  144.3613  150.6390 H   0  0  0  0  0  0  0  0  0  0  0  0  # atno 10167 bound_to 10162
  156.7491  130.5234  149.5808 H   0  0  0  0  0  0  0  0  0  0  0  0  # atno 10718 bound_to 10713
  154.4189  135.5991  153.5998 H   0  0  0  0  0  0  0  0  0  0  0  0  # atno 10763 bound_to 10752
  152.9793  135.5947  154.3979 H   0  0  0  0  0  0  0  0  0  0  0  0  # atno 10764 bound_to 10752
  154.3801  135.2841  155.2194 H   0  0  0  0  0  0  0  0  0  0  0  0  # atno 10765 bound_to 10752
  141.1662  133.7034  156.7864 H   0  0  0  0  0  0  0  0  0  0  0  0  # atno 11005 bound_to 11000
  146.0278  139.3308  143.0773 LP  0  0  0  0  0  0  0  0  0  0  0  0  # atno 17320 bound_to 7965
  145.8489  140.9539  143.0760 LP  0  0  0  0  0  0  0  0  0  0  0  0  # atno 17321 bound_to 7965
  140.6134  143.2171  151.6840 LP  0  0  0  0  0  0  0  0  0  0  0  0  # atno 17342 bound_to 10162
  139.5086  144.3604  152.0568 LP  0  0  0  0  0  0  0  0  0  0  0  0  # atno 17343 bound_to 10162
  156.1413  130.6246  151.0471 LP  0  0  0  0  0  0  0  0  0  0  0  0  # atno 17370 bound_to 10713
  157.6785  131.0844  150.7432 LP  0  0  0  0  0  0  0  0  0  0  0  0  # atno 17371 bound_to 10713
  140.2357  134.8652  157.3522 LP  0  0  0  0  0  0  0  0  0  0  0  0  # atno 17394 bound_to 11000
  140.1846  134.4447  155.7751 LP  0  0  0  0  0  0  0  0  0  0  0  0  # atno 17395 bound_to 11000

$$$$
