AV-unprocessed.smi:1920|AV-procd|sdf|7781|dock3
  -GOLD-   22720 9523D 1   1.00000     0.00000
 Structure written by MMmdl.
 36 37  0  0  0  0  0  0  0  0  1 V2000
  156.1167  139.6353  161.9403 C   0  0  0  0  0  0  0  0  0  0  0  0
  154.6304  139.2428  161.9770 C   0  0  2  0  0  0  0  0  0  0  0  0
  154.3742  137.8018  161.4827 C   0  0  0  0  0  0  0  0  0  0  0  0
  154.3831  136.8304  162.5603 N   0  0  0  0  0  0  0  0  0  0  0  0
  153.5558  136.8128  163.6757 C   0  0  0  0  0  0  0  0  0  0  0  0
  153.9194  135.7114  164.4174 C   0  0  0  0  0  0  0  0  0  0  0  0
  154.9567  135.0371  163.7775 N   0  0  0  0  0  0  0  0  0  0  0  0
  155.1746  135.7559  162.6837 C   0  0  0  0  0  0  0  0  0  0  0  0
  153.8648  140.1972  161.1800 N   0  0  0  0  0  0  0  0  0  0  0  0
  154.0636  140.4598  159.8788 C   0  0  0  0  0  0  0  0  0  0  0  0
  154.9356  139.9125  159.2038 O   0  0  0  0  0  0  0  0  0  0  0  0
  153.1350  141.4991  159.2414 C   0  0  0  0  0  0  0  0  0  0  0  0
  153.3199  142.9238  159.8080 C   0  0  2  0  0  0  0  0  0  0  0  0
  152.8350  143.0770  161.2297 C   0  0  0  0  0  0  0  0  0  0  0  0
  151.9619  144.0715  161.3713 C   0  0  0  0  0  0  0  0  0  0  0  0
  151.6850  144.7838  160.0766 C   0  0  0  0  0  0  0  0  0  0  0  0
  152.5108  143.9967  159.0344 C   0  0  0  0  0  0  0  0  0  0  0  0
  156.7144  139.0031  162.5972 H   0  0  0  0  0  0  0  0  0  0  0  0
  156.2584  140.6655  162.2685 H   0  0  0  0  0  0  0  0  0  0  0  0
  156.5245  139.5476  160.9327 H   0  0  0  0  0  0  0  0  0  0  0  0
  154.2987  139.3201  163.0142 H   0  0  0  0  0  0  0  0  0  0  0  0
  153.4084  137.7333  160.9805 H   0  0  0  0  0  0  0  0  0  0  0  0
  155.1282  137.5144  160.7481 H   0  0  0  0  0  0  0  0  0  0  0  0
  152.8003  137.5659  163.8449 H   0  0  0  0  0  0  0  0  0  0  0  0
  153.5157  135.3541  165.3534 H   0  0  0  0  0  0  0  0  0  0  0  0
  155.9303  135.4959  161.9571 H   0  0  0  0  0  0  0  0  0  0  0  0
  153.1245  140.6944  161.6538 H   0  0  0  0  0  0  0  0  0  0  0  0
  153.3270  141.5054  158.1680 H   0  0  0  0  0  0  0  0  0  0  0  0
  152.0968  141.1864  159.3658 H   0  0  0  0  0  0  0  0  0  0  0  0
  154.3774  143.1923  159.7919 H   0  0  0  0  0  0  0  0  0  0  0  0
  153.1865  142.4444  162.0319 H   0  0  0  0  0  0  0  0  0  0  0  0
  151.4969  144.3648  162.3009 H   0  0  0  0  0  0  0  0  0  0  0  0
  150.6189  144.7638  159.8486 H   0  0  0  0  0  0  0  0  0  0  0  0
  152.0081  145.8227  160.1471 H   0  0  0  0  0  0  0  0  0  0  0  0
  153.1736  144.6599  158.4775 H   0  0  0  0  0  0  0  0  0  0  0  0
  151.8416  143.5347  158.3073 H   0  0  0  0  0  0  0  0  0  0  0  0
  1  2  1  0  0  0  0
  1 18  1  0  0  0  0
  1 19  1  0  0  0  0
  1 20  1  0  0  0  0
  2  3  1  0  0  0  0
  2  9  1  0  0  0  0
  2 21  1  0  0  0  0
  3  4  1  0  0  0  0
  3 22  1  0  0  0  0
  3 23  1  0  0  0  0
  4  8  1  0  0  0  0
  4  5  1  0  0  0  0
  5  6  2  0  0  0  0
  5 24  1  0  0  0  0
  6  7  1  0  0  0  0
  6 25  1  0  0  0  0
  7  8  2  0  0  0  0
  8 26  1  0  0  0  0
  9 10  1  0  0  0  0
  9 27  1  0  0  0  0
 10 11  2  0  0  0  0
 10 12  1  0  0  0  0
 12 13  1  0  0  0  0
 12 28  1  0  0  0  0
 12 29  1  0  0  0  0
 13 17  1  0  0  0  0
 13 14  1  0  0  0  0
 13 30  1  0  0  0  0
 14 15  2  0  0  0  0
 14 31  1  0  0  0  0
 15 16  1  0  0  0  0
 15 32  1  0  0  0  0
 16 17  1  0  0  0  0
 16 33  1  0  0  0  0
 16 34  1  0  0  0  0
 17 35  1  0  0  0  0
 17 36  1  0  0  0  0
M  END
> <s_m_source_file>
AV-unprocessed.smi

> <i_m_source_file_index>
1920

> <i_lp_mmshare_version>
43012

> <i_f3d_flags>
0

> <s_epik_input>
W2NIXTFuW2NIXVtjSF1uMVtDSDJdW0NAQEhdKFtDSDNdKVtOSF1DKD1PKVtDSDJdW0NAQEhdMltDSF09W0NIXVtDSDJdW0NIMl0y

> <s_epik_cmdline>
J2VwaWtfcHl0aG9uJywgJy1waCcsICc3LjAnLCAnLXRuJywgJzgnLCAnLW1hJywgJzIwMCcsICctbWV0YWxfYmluZGluZycsICctaW1hZScsICc8aW5maWxlLm1hZT4nLCAnLW9tYWUnLCAnPG91dGZpbGUubWFlPic=

> <r_lp_tautomer_probability>
1

> <r_epik_Ionization_Penalty>
0.635367

> <r_epik_Ionization_Penalty_Charging>
0.635367

> <r_epik_Ionization_Penalty_Neutral>
2.1249e-08

> <r_epik_State_Penalty>
0.65258

> <r_epik_Charging_Adjusted_Penalty>
1.28795

> <i_epik_Tot_Q>
0

> <i_epik_Tot_abs_Q>
0

> <r_epik_Metal_State_Penalty>
0.310403

> <b_epik_Metal_Only>
0

> <s_lp_Force_Field>
OPLS_2005

> <r_lp_Energy>
18.8766

> <b_lp_Chiralities_Consistent>
1

> <s_lp_Variant>
AV-unprocessed.smi:1920-5

> <Gold.Version>
5.8.1

> <Gold.Id.Protein>
6NUR|6NUR_protein|mol2

> <Gold.PLP.Fitness>
43.9823

> <Gold.PLP.PLP>
-42.0235

> <Gold.PLP.part.hbond>
-1.0000

> <Gold.PLP.part.metal>
0.0000

> <Gold.PLP.part.buried>
-3.6130

> <Gold.PLP.part.nonpolar>
-37.0279

> <Gold.PLP.part.repulsive>
0.0738

> <Gold.PLP.ligand.clash>
0.0000

> <Gold.PLP.ligand.torsion>
0.5356

> <Gold.PLP.Chemscore.Hbond>
0.9920

> <Gold.PLP.Chemscore.CHOScore>
0.0000

> <Gold.PLP.Chemscore.Metal>
0.0000

> <Gold.Chemscore.Hbonds>
donor molecule, donor type, donor heavy atom, donor atom, acceptor molecule, acceptor atom, score
      P1  H  7997  8008       L1    11  0.98

> <Gold.PLP.Chemscore.Internal.Correction>
0.0541

> <Gold.Rescore>
     Score         DG    S(hbond)    S(metal)    S(lipo)     H(rot)  DE(clash)    DE(int)     intcor
     15.32     -16.95       0.97        0.00     112.64       1.93       0.17       1.46       ----

> <Gold.Chemscore.Fitness>
15.3225

> <Gold.Chemscore.DG>
-16.9491

> <Gold.Chemscore.ZeroCoef>
-5.4800

> <Gold.Chemscore.Hbond>
0.9678

> <Gold.Chemscore.Metal>
0.0000

> <Gold.Chemscore.Lipo>
112.6430

> <Gold.Chemscore.Internal_Hbond>
0.0000

> <Gold.Chemscore.DEClash>
0.1666

> <Gold.Chemscore.DEInternal>
1.4601

> <Gold.Chemscore.Rot>
1.9306

> <Gold.Chemscore.Internal.Correction>
   9.000000E+99

> <Gold.Chemscore.Hbonds>
donor molecule, donor type, donor heavy atom, donor atom, acceptor molecule, acceptor atom, score
      P1  H  7997  8008       L1    11  0.92

> <Gold.Chemscore.Hbond.Weighted>
-3.2323

> <Gold.Chemscore.Metal.Weighted>
-0.0000

> <Gold.Chemscore.Lipo.Weighted>
-13.1792

> <Gold.Chemscore.Internal_Hbond.Weighted>
0.0000

> <Gold.Chemscore.DEClash.Weighted>
0.1666

> <Gold.Chemscore.DEInternal.Weighted>
1.4601

> <Gold.Chemscore.Rot.Weighted>
4.9424

> <Gold.Chemscore.Internal.Correction.Weighted>
   9.000000E+99

> <Gold.Protein.RotatedTorsions>
[ 6907 6896 6895 6894 ] final  151.99 input  -60.11 | X-H torsion
[ 7974 7965 7964 7962 ] final   95.80 input  175.53 | X-H torsion
[ 8008 7997 7996 7995 ] final -139.09 input   59.86 | X-H torsion
[ 10167 10162 10161 10158 ] final   12.25 input  -65.29 | X-H torsion
[ 10718 10713 10712 10709 ] final -161.51 input   66.30 | X-H torsion
[ 10763 10752 10751 10750 ] final   44.82 input  -60.55 | X-H torsion
[ 11005 11000 10999 10996 ] final -116.90 input  -57.11 | X-H torsion

> <Gold.Protein.ActiveResidues>
 VAL166  LYS551  ARG553  GLY616  TRP617  ASP618  TYR619  PRO620  LYS621  CYS622 
 ASP623  PHE694  ASN695  SER759  ASP760  ASP761  ALA762  ILE779  LEU786  VAL792 
 PHE793  MET794  SER795  GLU796  ALA797  LYS798  CYS799  TRP800  GLU811  SER814 

> <Gold.Protein.RotatedAtoms>
  152.0930  133.4210  159.4552 H   0  0  0  0  0  0  0  0  0  0  0  0  # atno 6907 bound_to 6896
  150.6863  134.2849  159.4652 H   0  0  0  0  0  0  0  0  0  0  0  0  # atno 6908 bound_to 6896
  152.0702  134.9538  160.0625 H   0  0  0  0  0  0  0  0  0  0  0  0  # atno 6909 bound_to 6896
  145.4474  139.2296  143.3059 H   0  0  0  0  0  0  0  0  0  0  0  0  # atno 7974 bound_to 7965
  155.4392  140.0530  157.3012 H   0  0  0  0  0  0  0  0  0  0  0  0  # atno 8008 bound_to 7997
  154.4825  140.2087  155.9687 H   0  0  0  0  0  0  0  0  0  0  0  0  # atno 8009 bound_to 7997
  156.1227  140.3185  155.8237 H   0  0  0  0  0  0  0  0  0  0  0  0  # atno 8010 bound_to 7997
  140.6080  143.8467  150.7034 H   0  0  0  0  0  0  0  0  0  0  0  0  # atno 10167 bound_to 10162
  156.5973  130.8795  151.2905 H   0  0  0  0  0  0  0  0  0  0  0  0  # atno 10718 bound_to 10713
  152.9834  135.6059  154.3336 H   0  0  0  0  0  0  0  0  0  0  0  0  # atno 10763 bound_to 10752
  154.3037  135.2772  155.2600 H   0  0  0  0  0  0  0  0  0  0  0  0  # atno 10764 bound_to 10752
  154.4841  135.5909  153.6467 H   0  0  0  0  0  0  0  0  0  0  0  0  # atno 10765 bound_to 10752
  141.0391  133.9864  157.3023 H   0  0  0  0  0  0  0  0  0  0  0  0  # atno 11005 bound_to 11000
  146.2523  140.5229  142.8888 LP  0  0  0  0  0  0  0  0  0  0  0  0  # atno 17320 bound_to 7965
  144.8083  140.6340  143.6432 LP  0  0  0  0  0  0  0  0  0  0  0  0  # atno 17321 bound_to 7965
  140.2029  143.3945  152.1778 LP  0  0  0  0  0  0  0  0  0  0  0  0  # atno 17342 bound_to 10162
  139.5339  144.7189  151.4959 LP  0  0  0  0  0  0  0  0  0  0  0  0  # atno 17343 bound_to 10162
  157.7289  130.9663  150.1761 LP  0  0  0  0  0  0  0  0  0  0  0  0  # atno 17370 bound_to 10713
  156.2499  130.3699  149.8244 LP  0  0  0  0  0  0  0  0  0  0  0  0  # atno 17371 bound_to 10713
  139.9262  135.0201  156.8243 LP  0  0  0  0  0  0  0  0  0  0  0  0  # atno 17394 bound_to 11000
  140.6268  133.9943  155.7643 LP  0  0  0  0  0  0  0  0  0  0  0  0  # atno 17395 bound_to 11000

$$$$
