AV-unprocessed.smi:1181|AV-procd|sdf|4966|dock2
  -GOLD-   22720 3563D 1   1.00000     0.00000
 Structure written by MMmdl.
 44 45  0  0  0  0  0  0  0  0  1 V2000
  145.6897  136.5680  151.6504 C   0  0  0  0  0  0  0  0  0  0  0  0
  145.9551  137.6361  152.5425 O   0  0  0  0  0  0  0  0  0  0  0  0
  146.5776  138.7370  151.9013 C   0  0  0  0  0  0  0  0  0  0  0  0
  147.2050  139.6479  152.9608 C   0  0  0  0  0  0  0  0  0  0  0  0
  148.0479  138.8635  153.7993 O   0  0  0  0  0  0  0  0  0  0  0  0
  148.8622  139.5102  154.7057 C   0  0  0  0  0  0  0  0  0  0  0  0
  148.7365  140.9065  154.8457 C   0  0  0  0  0  0  0  0  0  0  0  0
  149.5656  141.5728  155.7673 C   0  0  0  0  0  0  0  0  0  0  0  0
  150.4869  140.8258  156.5281 C   0  0  0  0  0  0  0  0  0  0  0  0
  151.3271  141.5263  157.4339 N   0  0  0  0  0  0  0  0  0  0  0  0
  152.4420  141.0947  158.0558 C   0  0  0  0  0  0  0  0  0  0  0  0
  152.8829  139.9515  157.9324 O   0  0  0  0  0  0  0  0  0  0  0  0
  153.0252  142.0213  158.8596 N   0  0  0  0  0  0  0  0  0  0  0  0
  152.4769  143.3415  159.2176 C   0  0  0  0  0  0  0  0  0  0  0  0
  152.0243  143.3050  160.6881 C   0  0  0  0  0  0  0  0  0  0  0  0
  153.1908  142.9090  161.6188 C   0  0  0  0  0  0  0  0  0  0  0  0
  152.7309  142.7690  163.0762 C   0  0  0  0  0  0  0  0  0  0  0  0
  153.8901  141.6277  161.1143 C   0  0  0  0  0  0  0  0  0  0  0  0
  154.2489  141.7366  159.6207 C   0  0  0  0  0  0  0  0  0  0  0  0
  150.5469  139.4285  156.3061 C   0  0  0  0  0  0  0  0  0  0  0  0
  149.7559  138.7840  155.4220 N   0  0  0  0  0  0  0  0  0  0  0  0
  145.2134  135.7498  152.1902 H   0  0  0  0  0  0  0  0  0  0  0  0
  146.6099  136.1875  151.2055 H   0  0  0  0  0  0  0  0  0  0  0  0
  145.0168  136.8803  150.8506 H   0  0  0  0  0  0  0  0  0  0  0  0
  147.3566  138.3677  151.2326 H   0  0  0  0  0  0  0  0  0  0  0  0
  145.8616  139.2943  151.2951 H   0  0  0  0  0  0  0  0  0  0  0  0
  147.7607  140.4565  152.4826 H   0  0  0  0  0  0  0  0  0  0  0  0
  146.4110  140.0946  153.5615 H   0  0  0  0  0  0  0  0  0  0  0  0
  148.0183  141.4562  154.2555 H   0  0  0  0  0  0  0  0  0  0  0  0
  149.4897  142.6436  155.8893 H   0  0  0  0  0  0  0  0  0  0  0  0
  151.0120  142.4504  157.6912 H   0  0  0  0  0  0  0  0  0  0  0  0
  153.2527  144.0975  159.0877 H   0  0  0  0  0  0  0  0  0  0  0  0
  151.6534  143.6693  158.5835 H   0  0  0  0  0  0  0  0  0  0  0  0
  151.6290  144.2790  160.9785 H   0  0  0  0  0  0  0  0  0  0  0  0
  151.2046  142.5930  160.7964 H   0  0  0  0  0  0  0  0  0  0  0  0
  153.9243  143.7158  161.5835 H   0  0  0  0  0  0  0  0  0  0  0  0
  151.9882  141.9777  163.1833 H   0  0  0  0  0  0  0  0  0  0  0  0
  152.2845  143.6959  163.4375 H   0  0  0  0  0  0  0  0  0  0  0  0
  153.5694  142.5298  163.7309 H   0  0  0  0  0  0  0  0  0  0  0  0
  154.7913  141.4392  161.6985 H   0  0  0  0  0  0  0  0  0  0  0  0
  153.2383  140.7661  161.2662 H   0  0  0  0  0  0  0  0  0  0  0  0
  154.7505  140.8248  159.2940 H   0  0  0  0  0  0  0  0  0  0  0  0
  154.9699  142.5403  159.4645 H   0  0  0  0  0  0  0  0  0  0  0  0
  151.2551  138.7987  156.8217 H   0  0  0  0  0  0  0  0  0  0  0  0
  1  2  1  0  0  0  0
  1 22  1  0  0  0  0
  1 23  1  0  0  0  0
  1 24  1  0  0  0  0
  2  3  1  0  0  0  0
  3  4  1  0  0  0  0
  3 25  1  0  0  0  0
  3 26  1  0  0  0  0
  4  5  1  0  0  0  0
  4 27  1  0  0  0  0
  4 28  1  0  0  0  0
  5  6  1  0  0  0  0
  6 21  1  0  0  0  0
  6  7  2  0  0  0  0
  7  8  1  0  0  0  0
  7 29  1  0  0  0  0
  8  9  2  0  0  0  0
  8 30  1  0  0  0  0
  9 10  1  0  0  0  0
  9 20  1  0  0  0  0
 10 11  1  0  0  0  0
 10 31  1  0  0  0  0
 11 12  2  0  0  0  0
 11 13  1  0  0  0  0
 13 19  1  0  0  0  0
 13 14  1  0  0  0  0
 14 15  1  0  0  0  0
 14 32  1  0  0  0  0
 14 33  1  0  0  0  0
 15 16  1  0  0  0  0
 15 34  1  0  0  0  0
 15 35  1  0  0  0  0
 16 17  1  0  0  0  0
 16 18  1  0  0  0  0
 16 36  1  0  0  0  0
 17 37  1  0  0  0  0
 17 38  1  0  0  0  0
 17 39  1  0  0  0  0
 18 19  1  0  0  0  0
 18 40  1  0  0  0  0
 18 41  1  0  0  0  0
 19 42  1  0  0  0  0
 19 43  1  0  0  0  0
 20 21  2  0  0  0  0
 20 44  1  0  0  0  0
M  END
> <s_m_source_file>
AV-unprocessed.smi

> <i_m_source_file_index>
1181

> <i_lp_mmshare_version>
43012

> <i_f3d_flags>
0

> <s_epik_input>
W0NIM11PW0NIMl1bQ0gyXU9jMVtjSF1bY0hdYyhbY0hdbjEpW05IXUMoPU8pTjJbQ0gyXVtDSDJdW0NIXShbQ0gzXSlbQ0gyXVtDSDJdMg==

> <s_epik_cmdline>
J2VwaWtfcHl0aG9uJywgJy1waCcsICc3LjAnLCAnLXRuJywgJzgnLCAnLW1hJywgJzIwMCcsICctbWV0YWxfYmluZGluZycsICctaW1hZScsICc8aW5maWxlLm1hZT4nLCAnLW9tYWUnLCAnPG91dGZpbGUubWFlPic=

> <r_lp_tautomer_probability>
1

> <r_epik_Ionization_Penalty>
8.49399e-05

> <r_epik_Ionization_Penalty_Charging>
0

> <r_epik_Ionization_Penalty_Neutral>
8.49399e-05

> <r_epik_State_Penalty>
-0

> <r_epik_Charging_Adjusted_Penalty>
0

> <i_epik_Tot_Q>
0

> <i_epik_Tot_abs_Q>
0

> <r_epik_Metal_State_Penalty>
-0

> <b_epik_Metal_Only>
0

> <s_lp_Force_Field>
OPLS_2005

> <r_lp_Energy>
36.0421

> <b_lp_Chiralities_Consistent>
1

> <s_lp_Variant>
AV-unprocessed.smi:1181-1

> <Gold.Version>
5.8.1

> <Gold.Id.Protein>
6NUR|6NUR_protein|mol2

> <Gold.PLP.Fitness>
40.2132

> <Gold.PLP.PLP>
-38.0263

> <Gold.PLP.part.hbond>
-1.0000

> <Gold.PLP.part.metal>
0.0000

> <Gold.PLP.part.buried>
-1.3247

> <Gold.PLP.part.nonpolar>
-36.1790

> <Gold.PLP.part.repulsive>
0.5530

> <Gold.PLP.ligand.clash>
0.5289

> <Gold.PLP.ligand.torsion>
0.1936

> <Gold.PLP.Chemscore.Hbond>
0.9913

> <Gold.PLP.Chemscore.CHOScore>
0.0000

> <Gold.PLP.Chemscore.Metal>
0.0000

> <Gold.Chemscore.Hbonds>
donor molecule, donor type, donor heavy atom, donor atom, acceptor molecule, acceptor atom, score
      P1  H  7997  8008       L1    12  1.00

> <Gold.PLP.Chemscore.Internal.Correction>
0.1291

> <Gold.Rescore>
     Score         DG    S(hbond)    S(metal)    S(lipo)     H(rot)  DE(clash)    DE(int)     intcor
     13.47     -17.65       0.66        0.00     119.23       1.55       2.68       1.51       ----

> <Gold.Chemscore.Fitness>
13.4671

> <Gold.Chemscore.DG>
-17.6505

> <Gold.Chemscore.ZeroCoef>
-5.4800

> <Gold.Chemscore.Hbond>
0.6564

> <Gold.Chemscore.Metal>
0.0000

> <Gold.Chemscore.Lipo>
119.2336

> <Gold.Chemscore.Internal_Hbond>
0.0000

> <Gold.Chemscore.DEClash>
2.6765

> <Gold.Chemscore.DEInternal>
1.5069

> <Gold.Chemscore.Rot>
1.5517

> <Gold.Chemscore.Internal.Correction>
   9.000000E+99

> <Gold.Chemscore.Hbonds>
donor molecule, donor type, donor heavy atom, donor atom, acceptor molecule, acceptor atom, score
      P1  H  7997  8008       L1    12  0.64

> <Gold.Chemscore.Hbond.Weighted>
-2.1924

> <Gold.Chemscore.Metal.Weighted>
-0.0000

> <Gold.Chemscore.Lipo.Weighted>
-13.9503

> <Gold.Chemscore.Internal_Hbond.Weighted>
0.0000

> <Gold.Chemscore.DEClash.Weighted>
2.6765

> <Gold.Chemscore.DEInternal.Weighted>
1.5069

> <Gold.Chemscore.Rot.Weighted>
3.9723

> <Gold.Chemscore.Internal.Correction.Weighted>
   9.000000E+99

> <Gold.Protein.RotatedTorsions>
[ 6907 6896 6895 6894 ] final  126.80 input  -60.11 | X-H torsion
[ 7974 7965 7964 7962 ] final  171.13 input  175.53 | X-H torsion
[ 8008 7997 7996 7995 ] final  -81.32 input   59.86 | X-H torsion
[ 10167 10162 10161 10158 ] final -156.91 input  -65.29 | X-H torsion
[ 10718 10713 10712 10709 ] final   53.61 input   66.30 | X-H torsion
[ 10763 10752 10751 10750 ] final   48.74 input  -60.55 | X-H torsion
[ 11005 11000 10999 10996 ] final -165.09 input  -57.11 | X-H torsion

> <Gold.Protein.ActiveResidues>
 VAL166  LYS551  ARG553  GLY616  TRP617  ASP618  TYR619  PRO620  LYS621  CYS622 
 ASP623  PHE694  ASN695  SER759  ASP760  ASP761  ALA762  ILE779  LEU786  VAL792 
 PHE793  MET794  SER795  GLU796  ALA797  LYS798  CYS799  TRP800  GLU811  SER814 

> <Gold.Protein.RotatedAtoms>
  152.3870  133.6625  159.6206 H   0  0  0  0  0  0  0  0  0  0  0  0  # atno 6907 bound_to 6896
  150.7787  133.9018  159.3352 H   0  0  0  0  0  0  0  0  0  0  0  0  # atno 6908 bound_to 6896
  151.6812  135.0963  160.0267 H   0  0  0  0  0  0  0  0  0  0  0  0  # atno 6909 bound_to 6896
  144.7303  139.9304  143.6424 H   0  0  0  0  0  0  0  0  0  0  0  0  # atno 7974 bound_to 7965
  154.5972  140.0649  156.9319 H   0  0  0  0  0  0  0  0  0  0  0  0  # atno 8008 bound_to 7997
  155.2194  140.3329  155.4299 H   0  0  0  0  0  0  0  0  0  0  0  0  # atno 8009 bound_to 7997
  156.2295  140.1834  156.7263 H   0  0  0  0  0  0  0  0  0  0  0  0  # atno 8010 bound_to 7997
  139.6812  143.9577  152.2338 H   0  0  0  0  0  0  0  0  0  0  0  0  # atno 10167 bound_to 10162
  157.5182  130.8547  149.8523 H   0  0  0  0  0  0  0  0  0  0  0  0  # atno 10718 bound_to 10713
  152.9790  135.5934  154.3975 H   0  0  0  0  0  0  0  0  0  0  0  0  # atno 10763 bound_to 10752
  154.3624  135.2767  155.2314 H   0  0  0  0  0  0  0  0  0  0  0  0  # atno 10764 bound_to 10752
  154.4306  135.6037  153.6121 H   0  0  0  0  0  0  0  0  0  0  0  0  # atno 10765 bound_to 10752
  140.5796  134.5155  157.5176 H   0  0  0  0  0  0  0  0  0  0  0  0  # atno 11005 bound_to 11000
  146.0862  139.3850  143.0434 LP  0  0  0  0  0  0  0  0  0  0  0  0  # atno 17320 bound_to 7965
  145.7774  140.9871  143.1117 LP  0  0  0  0  0  0  0  0  0  0  0  0  # atno 17321 bound_to 7965
  139.9368  144.6707  150.8307 LP  0  0  0  0  0  0  0  0  0  0  0  0  # atno 17342 bound_to 10162
  140.7653  143.3271  151.2491 LP  0  0  0  0  0  0  0  0  0  0  0  0  # atno 17343 bound_to 10162
  156.0335  130.3758  150.1623 LP  0  0  0  0  0  0  0  0  0  0  0  0  # atno 17370 bound_to 10713
  156.9812  130.9864  151.3437 LP  0  0  0  0  0  0  0  0  0  0  0  0  # atno 17371 bound_to 10713
  139.9323  134.7940  156.0896 LP  0  0  0  0  0  0  0  0  0  0  0  0  # atno 17394 bound_to 11000
  141.1004  133.6679  156.2742 LP  0  0  0  0  0  0  0  0  0  0  0  0  # atno 17395 bound_to 11000

$$$$
