#       Name:                AV-unprocessed.smi:948
#       Creating user name   scv26
#       Creation time:       Fri Mar 27 02:15:05 2020


#       File generated by GOLD software.
#

@<TRIPOS>MOLECULE
AV-unprocessed.smi:948
    19    19     1
SMALL
NO_CHARGES


@<TRIPOS>ATOM
      1 ****        -1.7593   2.3246  -0.1533 N.4            1 S1                 1.0000
      2 ****        -1.2742   0.9343  -0.1540 C.3            1 S1                 0.0000
      3 ****         0.2528   0.8738  -0.0114 C.3            1 S1                 0.0000
      4 ****         0.7647  -0.5340  -0.0174 C.2            1 S1                 0.0000
      5 ****         1.1950  -1.2999   1.0446 C.2            1 S1                 0.0000
      6 ****         1.5604  -2.5180   0.4983 N.pl3          1 S1                 0.0000
      7 ****         1.3447  -2.4427  -0.8178 C.2            1 S1                 0.0000
      8 ****         0.8614  -1.2674  -1.2030 N.2            1 S1                 0.0000
      9 ****         1.9245  -3.3157   1.0001 H              1 S1                 0.0000
     10 ****        -2.7647   2.3303  -0.2505 H              1 S1                 0.0000
     11 ****        -1.3447   2.8269  -0.9254 H              1 S1                 0.0000
     12 ****        -1.7525   0.3953   0.6645 H              1 S1                 0.0000
     13 ****        -1.5892   0.4562  -1.0822 H              1 S1                 0.0000
     14 ****         0.7186   1.4371  -0.8212 H              1 S1                 0.0000
     15 ****         0.5524   1.3715   0.9118 H              1 S1                 0.0000
     16 ****         1.2702  -1.0889   2.1013 H              1 S1                 0.0000
     17 ****         1.5438  -3.2559  -1.5003 H              1 S1                 0.0000
     18 ****        -1.5031   2.7718   0.7153 H              1 S1                 0.0000
     19 ****         0.6217  -0.9744  -2.1286 LP             1 S1                 0.0000
@<TRIPOS>BOND
    1    1    2 1     
    2    1   10 1     
    3    1   11 1     
    4    1   18 1     
    5    2    3 1     
    6    2   12 1     
    7    2   13 1     
    8    3    4 1     
    9    3   14 1     
   10    3   15 1     
   11    4    8 1     
   12    4    5 2     
   13    5    6 1     
   14    5   16 1     
   15    6    9 1     
   16    6    7 1     
   17    7    8 2     
   18    7   17 1     
   19    8   19 1     
@<TRIPOS>SUBSTRUCTURE
      1 S1             1
@<TRIPOS>SET
LONE_PAIRS      STATIC     ATOMS    <user>   **** ""
1 19
DONOR_HYDROGENS      STATIC     ATOMS    <user>   **** ""
4 10 11 18 9
ATOM$BLUE        STATIC     ATOMS    COLORGROUP SYSTEM
1 19
ATOM$RED        STATIC     ATOMS    COLORGROUP SYSTEM
4 10 11 18 9
