AV-unprocessed.smi:326|AV-procd|sdf|2345|dock7
  -GOLD-   2262022253D 1   1.00000     0.00000
 Structure written by MMmdl.
 44 45  0  0  0  0  0  0  0  0  1 V2000
  147.1636  136.0019  162.3423 C   0  0  0  0  0  0  0  0  0  0  0  0
  147.6011  136.7112  161.1969 O   0  0  0  0  0  0  0  0  0  0  0  0
  147.6918  135.8851  160.0472 C   0  0  0  0  0  0  0  0  0  0  0  0
  148.3018  136.6887  158.8876 C   0  0  0  0  0  0  0  0  0  0  0  0
  148.1767  135.9809  157.6087 N   0  0  0  0  0  0  0  0  0  0  0  0
  147.4488  136.6704  156.6542 N   0  0  0  0  0  0  0  0  0  0  0  0
  147.2593  136.1553  155.4824 C   0  0  0  0  0  0  0  0  0  0  0  0
  146.4830  136.8668  154.4304 C   0  0  0  0  0  0  0  0  0  0  0  0
  146.3802  138.0946  154.4139 O   0  0  0  0  0  0  0  0  0  0  0  0
  145.9011  136.0715  153.5153 N   0  0  0  0  0  0  0  0  0  0  0  0
  145.0467  136.5118  152.4151 C   0  0  2  0  0  0  0  0  0  0  0  0
  143.6187  135.9493  152.5690 C   0  0  0  0  0  0  0  0  0  0  0  0
  143.5692  134.4256  152.3546 C   0  0  0  0  0  0  0  0  0  0  0  0
  144.1691  134.0227  150.9935 C   0  0  2  0  0  0  0  0  0  0  0  0
  144.1233  132.5023  150.7863 C   0  0  0  0  0  0  0  0  0  0  0  0
  145.6042  134.5652  150.8542 C   0  0  0  0  0  0  0  0  0  0  0  0
  145.6584  136.0889  151.0661 C   0  0  0  0  0  0  0  0  0  0  0  0
  147.8065  134.8520  155.1453 C   0  0  0  0  0  0  0  0  0  0  0  0
  148.5087  134.1879  156.0893 C   0  0  0  0  0  0  0  0  0  0  0  0
  148.7306  134.7446  157.4249 C   0  0  0  0  0  0  0  0  0  0  0  0
  149.3564  134.1542  158.3050 O   0  0  0  0  0  0  0  0  0  0  0  0
  147.1113  136.6797  163.1945 H   0  0  0  0  0  0  0  0  0  0  0  0
  147.8539  135.1959  162.5944 H   0  0  0  0  0  0  0  0  0  0  0  0
  146.1704  135.5776  162.1884 H   0  0  0  0  0  0  0  0  0  0  0  0
  148.3267  135.0257  160.2670 H   0  0  0  0  0  0  0  0  0  0  0  0
  146.7083  135.4993  159.7736 H   0  0  0  0  0  0  0  0  0  0  0  0
  147.8220  137.6675  158.8282 H   0  0  0  0  0  0  0  0  0  0  0  0
  149.3524  136.8965  159.0973 H   0  0  0  0  0  0  0  0  0  0  0  0
  146.0438  135.0756  153.6045 H   0  0  0  0  0  0  0  0  0  0  0  0
  144.9961  137.6020  152.4298 H   0  0  0  0  0  0  0  0  0  0  0  0
  143.2145  136.2016  153.5502 H   0  0  0  0  0  0  0  0  0  0  0  0
  142.9651  136.4318  151.8413 H   0  0  0  0  0  0  0  0  0  0  0  0
  144.1091  133.9246  153.1594 H   0  0  0  0  0  0  0  0  0  0  0  0
  142.5358  134.0836  152.4215 H   0  0  0  0  0  0  0  0  0  0  0  0
  143.5605  134.4786  150.2110 H   0  0  0  0  0  0  0  0  0  0  0  0
  144.7159  131.9814  151.5388 H   0  0  0  0  0  0  0  0  0  0  0  0
  144.5144  132.2283  149.8061 H   0  0  0  0  0  0  0  0  0  0  0  0
  143.1012  132.1278  150.8489 H   0  0  0  0  0  0  0  0  0  0  0  0
  146.2578  134.0704  151.5740 H   0  0  0  0  0  0  0  0  0  0  0  0
  145.9990  134.3225  149.8671 H   0  0  0  0  0  0  0  0  0  0  0  0
  145.1135  136.5788  150.2582 H   0  0  0  0  0  0  0  0  0  0  0  0
  146.6885  136.4401  150.9922 H   0  0  0  0  0  0  0  0  0  0  0  0
  147.6572  134.4172  154.1675 H   0  0  0  0  0  0  0  0  0  0  0  0
  148.9193  133.2172  155.8533 H   0  0  0  0  0  0  0  0  0  0  0  0
  1  2  1  0  0  0  0
  1 22  1  0  0  0  0
  1 23  1  0  0  0  0
  1 24  1  0  0  0  0
  2  3  1  0  0  0  0
  3  4  1  0  0  0  0
  3 25  1  0  0  0  0
  3 26  1  0  0  0  0
  4  5  1  0  0  0  0
  4 27  1  0  0  0  0
  4 28  1  0  0  0  0
  5 20  1  0  0  0  0
  5  6  1  0  0  0  0
  6  7  2  0  0  0  0
  7  8  1  0  0  0  0
  7 18  1  0  0  0  0
  8  9  2  0  0  0  0
  8 10  1  0  0  0  0
 10 11  1  0  0  0  0
 10 29  1  0  0  0  0
 11 17  1  0  0  0  0
 11 12  1  0  0  0  0
 11 30  1  0  0  0  0
 12 13  1  0  0  0  0
 12 31  1  0  0  0  0
 12 32  1  0  0  0  0
 13 14  1  0  0  0  0
 13 33  1  0  0  0  0
 13 34  1  0  0  0  0
 14 15  1  0  0  0  0
 14 16  1  0  0  0  0
 14 35  1  0  0  0  0
 15 36  1  0  0  0  0
 15 37  1  0  0  0  0
 15 38  1  0  0  0  0
 16 17  1  0  0  0  0
 16 39  1  0  0  0  0
 16 40  1  0  0  0  0
 17 41  1  0  0  0  0
 17 42  1  0  0  0  0
 18 19  2  0  0  0  0
 18 43  1  0  0  0  0
 19 20  1  0  0  0  0
 19 44  1  0  0  0  0
 20 21  2  0  0  0  0
M  END
> <s_m_source_file>
AV-unprocessed.smi

> <i_m_source_file_index>
326

> <i_lp_mmshare_version>
43012

> <i_f3d_flags>
0

> <s_epik_input>
W0NIM11PW0NIMl1bQ0gyXW4xbmMoW2NIXVtjSF1jMT1PKUMoPU8pW05IXVtDQEBIXTJbQ0gyXVtDSDJdW0NAQEhdKFtDSDNdKVtDSDJdW0NIMl0y

> <s_epik_cmdline>
J2VwaWtfcHl0aG9uJywgJy1waCcsICc3LjAnLCAnLXRuJywgJzgnLCAnLW1hJywgJzIwMCcsICctbWV0YWxfYmluZGluZycsICctaW1hZScsICc8aW5maWxlLm1hZT4nLCAnLW9tYWUnLCAnPG91dGZpbGUubWFlPic=

> <r_lp_tautomer_probability>
1

> <r_epik_Ionization_Penalty>
6.47102e-07

> <r_epik_Ionization_Penalty_Charging>
6.8576e-09

> <r_epik_Ionization_Penalty_Neutral>
6.40245e-07

> <r_epik_State_Penalty>
-0

> <r_epik_Charging_Adjusted_Penalty>
6.8576e-09

> <i_epik_Tot_Q>
0

> <i_epik_Tot_abs_Q>
0

> <r_epik_Metal_State_Penalty>
-0

> <b_epik_Metal_Only>
0

> <s_lp_Force_Field>
OPLS_2005

> <r_lp_Energy>
28.5252

> <b_lp_Chiralities_Consistent>
1

> <s_lp_Variant>
AV-unprocessed.smi:326-2

> <Gold.Version>
5.8.1

> <Gold.Id.Protein>
6NUR|6NUR_protein|mol2

> <Gold.PLP.Fitness>
36.1017

> <Gold.PLP.PLP>
-28.0725

> <Gold.PLP.part.hbond>
-3.0000

> <Gold.PLP.part.metal>
0.0000

> <Gold.PLP.part.buried>
-5.6022

> <Gold.PLP.part.nonpolar>
-20.5204

> <Gold.PLP.part.repulsive>
0.1079

> <Gold.PLP.ligand.clash>
0.0000

> <Gold.PLP.ligand.torsion>
0.3341

> <Gold.PLP.Chemscore.Hbond>
2.8880

> <Gold.PLP.Chemscore.CHOScore>
0.0000

> <Gold.PLP.Chemscore.Metal>
0.0000

> <Gold.Chemscore.Hbonds>
donor molecule, donor type, donor heavy atom, donor atom, acceptor molecule, acceptor atom, score
      P1  H  6896  6908       L1    21  1.00
      P1  H  6931  6943       L1     2  0.54
      P1  H  6934  6947       L1     2  0.17

> <Gold.PLP.Chemscore.Internal.Correction>
0.0335

> <Gold.Rescore>
     Score         DG    S(hbond)    S(metal)    S(lipo)     H(rot)  DE(clash)    DE(int)     intcor
     16.21     -16.63       2.37        0.00      61.51       1.55       0.01       0.42       ----

> <Gold.Chemscore.Fitness>
16.2051

> <Gold.Chemscore.DG>
-16.6343

> <Gold.Chemscore.ZeroCoef>
-5.4800

> <Gold.Chemscore.Hbond>
2.3712

> <Gold.Chemscore.Metal>
0.0000

> <Gold.Chemscore.Lipo>
61.5107

> <Gold.Chemscore.Internal_Hbond>
0.0000

> <Gold.Chemscore.DEClash>
0.0106

> <Gold.Chemscore.DEInternal>
0.4186

> <Gold.Chemscore.Rot>
1.5478

> <Gold.Chemscore.Internal.Correction>
   9.000000E+99

> <Gold.Chemscore.Hbonds>
donor molecule, donor type, donor heavy atom, donor atom, acceptor molecule, acceptor atom, score
      P1  H  6896  6908       L1    21  1.00
      P1  H  6931  6943       L1     2  0.32
      P1  H  6934  6947       L1     2  0.17

> <Gold.Chemscore.Hbond.Weighted>
-7.9198

> <Gold.Chemscore.Metal.Weighted>
-0.0000

> <Gold.Chemscore.Lipo.Weighted>
-7.1968

> <Gold.Chemscore.Internal_Hbond.Weighted>
0.0000

> <Gold.Chemscore.DEClash.Weighted>
0.0106

> <Gold.Chemscore.DEInternal.Weighted>
0.4186

> <Gold.Chemscore.Rot.Weighted>
3.9623

> <Gold.Chemscore.Internal.Correction.Weighted>
   9.000000E+99

> <Gold.Protein.RotatedTorsions>
[ 6907 6896 6895 6894 ] final  132.51 input  -60.11 | X-H torsion
[ 7974 7965 7964 7962 ] final -159.32 input  175.53 | X-H torsion
[ 8008 7997 7996 7995 ] final   95.96 input   59.86 | X-H torsion
[ 10167 10162 10161 10158 ] final   59.22 input  -65.29 | X-H torsion
[ 10718 10713 10712 10709 ] final  -82.48 input   66.30 | X-H torsion
[ 10763 10752 10751 10750 ] final  -24.21 input  -60.55 | X-H torsion
[ 11005 11000 10999 10996 ] final  -76.09 input  -57.11 | X-H torsion

> <Gold.Protein.ActiveResidues>
 VAL166  LYS551  ARG553  GLY616  TRP617  ASP618  TYR619  PRO620  LYS621  CYS622 
 ASP623  PHE694  ASN695  SER759  ASP760  ASP761  ALA762  ILE779  LEU786  VAL792 
 PHE793  MET794  SER795  GLU796  ALA797  LYS798  CYS799  TRP800  GLU811  SER814 

> <Gold.Protein.RotatedAtoms>
  152.3317  133.5965  159.5813 H   0  0  0  0  0  0  0  0  0  0  0  0  # atno 6907 bound_to 6896
  150.7427  133.9858  159.3600 H   0  0  0  0  0  0  0  0  0  0  0  0  # atno 6908 bound_to 6896
  151.7732  135.0781  160.0414 H   0  0  0  0  0  0  0  0  0  0  0  0  # atno 6909 bound_to 6896
  144.7470  140.3702  143.6077 H   0  0  0  0  0  0  0  0  0  0  0  0  # atno 7974 bound_to 7965
  156.0745  140.3279  155.7617 H   0  0  0  0  0  0  0  0  0  0  0  0  # atno 8008 bound_to 7997
  155.5252  140.0588  157.2916 H   0  0  0  0  0  0  0  0  0  0  0  0  # atno 8009 bound_to 7997
  154.4548  140.1937  156.0429 H   0  0  0  0  0  0  0  0  0  0  0  0  # atno 8010 bound_to 7997
  140.1788  144.4203  150.6625 H   0  0  0  0  0  0  0  0  0  0  0  0  # atno 10167 bound_to 10162
  156.0032  130.4636  150.4112 H   0  0  0  0  0  0  0  0  0  0  0  0  # atno 10718 bound_to 10713
  153.6802  135.6967  153.5120 H   0  0  0  0  0  0  0  0  0  0  0  0  # atno 10763 bound_to 10752
  153.2491  135.4281  155.0778 H   0  0  0  0  0  0  0  0  0  0  0  0  # atno 10764 bound_to 10752
  154.8402  135.3527  154.6345 H   0  0  0  0  0  0  0  0  0  0  0  0  # atno 10765 bound_to 10752
  141.1651  133.6970  156.7616 H   0  0  0  0  0  0  0  0  0  0  0  0  # atno 11005 bound_to 11000
  145.7086  139.1679  143.2552 LP  0  0  0  0  0  0  0  0  0  0  0  0  # atno 17320 bound_to 7965
  146.1363  140.7118  142.9388 LP  0  0  0  0  0  0  0  0  0  0  0  0  # atno 17321 bound_to 7965
  140.6533  143.2231  151.6026 LP  0  0  0  0  0  0  0  0  0  0  0  0  # atno 17342 bound_to 10162
  139.5305  144.2930  152.1137 LP  0  0  0  0  0  0  0  0  0  0  0  0  # atno 17343 bound_to 10162
  157.2174  131.0474  151.2565 LP  0  0  0  0  0  0  0  0  0  0  0  0  # atno 17370 bound_to 10713
  157.3832  130.7242  149.6645 LP  0  0  0  0  0  0  0  0  0  0  0  0  # atno 17371 bound_to 10713
  140.2530  134.8526  157.3685 LP  0  0  0  0  0  0  0  0  0  0  0  0  # atno 17394 bound_to 11000
  140.1685  134.4639  155.7847 LP  0  0  0  0  0  0  0  0  0  0  0  0  # atno 17395 bound_to 11000

$$$$
