AV-unprocessed.smi:1353|AV-procd|sdf|5532|dock4
  -GOLD-   22720 5123D 1   1.00000     0.00000
 Structure written by MMmdl.
 39 41  0  0  0  0  0  0  0  0  1 V2000
  155.0733  138.8220  158.3078 O   0  0  0  0  0  0  0  0  0  0  0  0
  154.4412  138.5174  159.5329 C   0  0  0  0  0  0  0  0  0  0  0  0
  152.9304  138.8008  159.4652 C   0  0  0  0  0  0  0  0  0  0  0  0
  152.6012  140.2631  159.3516 C   0  0  0  0  0  0  0  0  0  0  0  0
  153.1092  141.1532  160.2061 N   0  0  0  0  0  0  0  0  0  0  0  0
  152.5653  142.3442  159.7696 C   0  0  0  0  0  0  0  0  0  0  0  0
  152.7077  143.6572  160.2728 C   0  0  0  0  0  0  0  0  0  0  0  0
  152.0429  144.7352  159.6529 C   0  0  0  0  0  0  0  0  0  0  0  0
  151.2288  144.5161  158.5229 C   0  0  0  0  0  0  0  0  0  0  0  0
  151.0761  143.2161  158.0042 C   0  0  0  0  0  0  0  0  0  0  0  0
  151.7420  142.1426  158.6266 C   0  0  0  0  0  0  0  0  0  0  0  0
  151.8070  140.7747  158.3743 N   0  0  0  0  0  0  0  0  0  0  0  0
  151.1433  140.0821  157.2768 C   0  0  0  0  0  0  0  0  0  0  0  0
  151.3033  140.8132  155.9371 C   0  0  0  0  0  0  0  0  0  0  0  0
  150.7451  140.0193  154.8980 O   0  0  0  0  0  0  0  0  0  0  0  0
  149.4643  140.3003  154.4758 C   0  0  0  0  0  0  0  0  0  0  0  0
  149.0353  141.6392  154.5856 C   0  0  0  0  0  0  0  0  0  0  0  0
  147.7412  142.0171  154.1793 C   0  0  0  0  0  0  0  0  0  0  0  0
  146.8592  141.0540  153.6555 C   0  0  0  0  0  0  0  0  0  0  0  0
  147.2749  139.7146  153.5383 C   0  0  0  0  0  0  0  0  0  0  0  0
  148.5696  139.3367  153.9449 C   0  0  0  0  0  0  0  0  0  0  0  0
  155.9132  138.3893  158.2867 H   0  0  0  0  0  0  0  0  0  0  0  0
  154.6373  137.4792  159.8028 H   0  0  0  0  0  0  0  0  0  0  0  0
  154.8964  139.1380  160.3050 H   0  0  0  0  0  0  0  0  0  0  0  0
  152.5175  138.3045  158.5864 H   0  0  0  0  0  0  0  0  0  0  0  0
  152.4334  138.3477  160.3211 H   0  0  0  0  0  0  0  0  0  0  0  0
  153.3282  143.8346  161.1387 H   0  0  0  0  0  0  0  0  0  0  0  0
  152.1573  145.7345  160.0465 H   0  0  0  0  0  0  0  0  0  0  0  0
  150.7214  145.3467  158.0544 H   0  0  0  0  0  0  0  0  0  0  0  0
  150.4510  143.0466  157.1401 H   0  0  0  0  0  0  0  0  0  0  0  0
  151.5679  139.0814  157.1948 H   0  0  0  0  0  0  0  0  0  0  0  0
  150.0911  139.9363  157.5200 H   0  0  0  0  0  0  0  0  0  0  0  0
  150.7991  141.7794  155.9852 H   0  0  0  0  0  0  0  0  0  0  0  0
  152.3596  141.0008  155.7491 H   0  0  0  0  0  0  0  0  0  0  0  0
  149.7060  142.3842  154.9881 H   0  0  0  0  0  0  0  0  0  0  0  0
  147.4255  143.0458  154.2704 H   0  0  0  0  0  0  0  0  0  0  0  0
  145.8661  141.3420  153.3437 H   0  0  0  0  0  0  0  0  0  0  0  0
  146.5994  138.9743  153.1357 H   0  0  0  0  0  0  0  0  0  0  0  0
  148.8528  138.3008  153.8380 H   0  0  0  0  0  0  0  0  0  0  0  0
  1  2  1  0  0  0  0
  1 22  1  0  0  0  0
  2  3  1  0  0  0  0
  2 23  1  0  0  0  0
  2 24  1  0  0  0  0
  3  4  1  0  0  0  0
  3 25  1  0  0  0  0
  3 26  1  0  0  0  0
  4 12  1  0  0  0  0
  4  5  2  0  0  0  0
  5  6  1  0  0  0  0
  6 11  2  0  0  0  0
  6  7  1  0  0  0  0
  7  8  2  0  0  0  0
  7 27  1  0  0  0  0
  8  9  1  0  0  0  0
  8 28  1  0  0  0  0
  9 10  2  0  0  0  0
  9 29  1  0  0  0  0
 10 11  1  0  0  0  0
 10 30  1  0  0  0  0
 11 12  1  0  0  0  0
 12 13  1  0  0  0  0
 13 14  1  0  0  0  0
 13 31  1  0  0  0  0
 13 32  1  0  0  0  0
 14 15  1  0  0  0  0
 14 33  1  0  0  0  0
 14 34  1  0  0  0  0
 15 16  1  0  0  0  0
 16 21  1  0  0  0  0
 16 17  2  0  0  0  0
 17 18  1  0  0  0  0
 17 35  1  0  0  0  0
 18 19  2  0  0  0  0
 18 36  1  0  0  0  0
 19 20  1  0  0  0  0
 19 37  1  0  0  0  0
 20 21  2  0  0  0  0
 20 38  1  0  0  0  0
 21 39  1  0  0  0  0
M  END
> <s_m_source_file>
AV-unprocessed.smi

> <i_m_source_file_index>
1353

> <i_lp_mmshare_version>
43012

> <i_f3d_flags>
0

> <s_epik_input>
W2NIXTFbY0hdW2NIXVtjSF1jKGMxMiluKGMobjIpW0NIMl1bQ0gyXVtPSF0pW0NIMl1bQ0gyXU9jM1tjSF1bY0hdW2NIXVtjSF1bY0hdMw==

> <s_epik_cmdline>
J2VwaWtfcHl0aG9uJywgJy1waCcsICc3LjAnLCAnLXRuJywgJzgnLCAnLW1hJywgJzIwMCcsICctbWV0YWxfYmluZGluZycsICctaW1hZScsICc8aW5maWxlLm1hZT4nLCAnLW9tYWUnLCAnPG91dGZpbGUubWFlPic=

> <r_lp_tautomer_probability>
1

> <r_epik_Ionization_Penalty>
0.230562

> <r_epik_Ionization_Penalty_Charging>
0

> <r_epik_Ionization_Penalty_Neutral>
0.230562

> <r_epik_State_Penalty>
0.221203

> <r_epik_Charging_Adjusted_Penalty>
0.221203

> <i_epik_Tot_Q>
0

> <i_epik_Tot_abs_Q>
0

> <r_epik_Metal_State_Penalty>
0.000268091

> <b_epik_Metal_Only>
0

> <s_lp_Force_Field>
OPLS_2005

> <r_lp_Energy>
15.7907

> <b_lp_Chiralities_Consistent>
1

> <s_lp_Variant>
AV-unprocessed.smi:1353-1

> <Gold.Version>
5.8.1

> <Gold.Id.Protein>
6NUR|6NUR_protein|mol2

> <Gold.PLP.Fitness>
51.5283

> <Gold.PLP.PLP>
-48.2236

> <Gold.PLP.part.hbond>
-2.0000

> <Gold.PLP.part.metal>
0.0000

> <Gold.PLP.part.buried>
-3.1694

> <Gold.PLP.part.nonpolar>
-42.5064

> <Gold.PLP.part.repulsive>
0.0569

> <Gold.PLP.ligand.clash>
0.0000

> <Gold.PLP.ligand.torsion>
0.8946

> <Gold.PLP.Chemscore.Hbond>
1.6800

> <Gold.PLP.Chemscore.CHOScore>
0.0000

> <Gold.PLP.Chemscore.Metal>
0.0000

> <Gold.Chemscore.Hbonds>
donor molecule, donor type, donor heavy atom, donor atom, acceptor molecule, acceptor atom, score
      P1  H  7989  7998       L1    15  0.68
      P1  H  7997  8009       L1     1  1.00

> <Gold.PLP.Chemscore.Internal.Correction>
0.0538

> <Gold.Rescore>
     Score         DG    S(hbond)    S(metal)    S(lipo)     H(rot)  DE(clash)    DE(int)     intcor
     17.13     -18.35       0.96        0.00     133.12       2.31       0.12       1.10       ----

> <Gold.Chemscore.Fitness>
17.1332

> <Gold.Chemscore.DG>
-18.3543

> <Gold.Chemscore.ZeroCoef>
-5.4800

> <Gold.Chemscore.Hbond>
0.9617

> <Gold.Chemscore.Metal>
0.0000

> <Gold.Chemscore.Lipo>
133.1216

> <Gold.Chemscore.Internal_Hbond>
0.0000

> <Gold.Chemscore.DEClash>
0.1162

> <Gold.Chemscore.DEInternal>
1.1049

> <Gold.Chemscore.Rot>
2.3098

> <Gold.Chemscore.Internal.Correction>
   9.000000E+99

> <Gold.Chemscore.Hbonds>
donor molecule, donor type, donor heavy atom, donor atom, acceptor molecule, acceptor atom, score
      P1  H  7989  7998       L1    15  0.02
      P1  H  7997  8009       L1     1  0.75

> <Gold.Chemscore.Hbond.Weighted>
-3.2122

> <Gold.Chemscore.Metal.Weighted>
-0.0000

> <Gold.Chemscore.Lipo.Weighted>
-15.5752

> <Gold.Chemscore.Internal_Hbond.Weighted>
0.0000

> <Gold.Chemscore.DEClash.Weighted>
0.1162

> <Gold.Chemscore.DEInternal.Weighted>
1.1049

> <Gold.Chemscore.Rot.Weighted>
5.9131

> <Gold.Chemscore.Internal.Correction.Weighted>
   9.000000E+99

> <Gold.Protein.RotatedTorsions>
[ 6907 6896 6895 6894 ] final   67.77 input  -60.11 | X-H torsion
[ 7974 7965 7964 7962 ] final  148.18 input  175.53 | X-H torsion
[ 8008 7997 7996 7995 ] final  128.82 input   59.86 | X-H torsion
[ 10167 10162 10161 10158 ] final  -54.61 input  -65.29 | X-H torsion
[ 10718 10713 10712 10709 ] final   -1.94 input   66.30 | X-H torsion
[ 10763 10752 10751 10750 ] final  -35.78 input  -60.55 | X-H torsion
[ 11005 11000 10999 10996 ] final  -93.22 input  -57.11 | X-H torsion

> <Gold.Protein.ActiveResidues>
 VAL166  LYS551  ARG553  GLY616  TRP617  ASP618  TYR619  PRO620  LYS621  CYS622 
 ASP623  PHE694  ASN695  SER759  ASP760  ASP761  ALA762  ILE779  LEU786  VAL792 
 PHE793  MET794  SER795  GLU796  ALA797  LYS798  CYS799  TRP800  GLU811  SER814 

> <Gold.Protein.RotatedAtoms>
  152.4575  134.5260  159.9796 H   0  0  0  0  0  0  0  0  0  0  0  0  # atno 6907 bound_to 6896
  151.5317  133.3442  159.2927 H   0  0  0  0  0  0  0  0  0  0  0  0  # atno 6908 bound_to 6896
  150.8524  134.7883  159.7082 H   0  0  0  0  0  0  0  0  0  0  0  0  # atno 6909 bound_to 6896
  144.8533  139.6122  143.5964 H   0  0  0  0  0  0  0  0  0  0  0  0  # atno 7974 bound_to 7965
  156.2923  140.2635  156.2498 H   0  0  0  0  0  0  0  0  0  0  0  0  # atno 8008 bound_to 7997
  154.9894  140.0389  157.2331 H   0  0  0  0  0  0  0  0  0  0  0  0  # atno 8009 bound_to 7997
  154.7700  140.2776  155.6150 H   0  0  0  0  0  0  0  0  0  0  0  0  # atno 8010 bound_to 7997
  140.6421  143.2514  151.4961 H   0  0  0  0  0  0  0  0  0  0  0  0  # atno 10167 bound_to 10162
  156.7982  130.5384  149.5725 H   0  0  0  0  0  0  0  0  0  0  0  0  # atno 10718 bound_to 10713
  153.8689  135.6833  153.4776 H   0  0  0  0  0  0  0  0  0  0  0  0  # atno 10763 bound_to 10752
  153.1299  135.4702  154.9329 H   0  0  0  0  0  0  0  0  0  0  0  0  # atno 10764 bound_to 10752
  154.7723  135.3242  154.8113 H   0  0  0  0  0  0  0  0  0  0  0  0  # atno 10765 bound_to 10752
  141.1502  133.7873  157.0130 H   0  0  0  0  0  0  0  0  0  0  0  0  # atno 11005 bound_to 11000
  146.2803  139.6859  142.9234 LP  0  0  0  0  0  0  0  0  0  0  0  0  # atno 17320 bound_to 7965
  145.4456  141.0425  143.2833 LP  0  0  0  0  0  0  0  0  0  0  0  0  # atno 17321 bound_to 7965
  139.5630  144.2110  152.1721 LP  0  0  0  0  0  0  0  0  0  0  0  0  # atno 17342 bound_to 10162
  140.1383  144.5225  150.6760 LP  0  0  0  0  0  0  0  0  0  0  0  0  # atno 17343 bound_to 10162
  156.1117  130.6045  151.0058 LP  0  0  0  0  0  0  0  0  0  0  0  0  # atno 17370 bound_to 10713
  157.6567  131.0888  150.7932 LP  0  0  0  0  0  0  0  0  0  0  0  0  # atno 17371 bound_to 10713
  140.0865  134.9617  157.1709 LP  0  0  0  0  0  0  0  0  0  0  0  0  # atno 17394 bound_to 11000
  140.3504  134.2605  155.7199 LP  0  0  0  0  0  0  0  0  0  0  0  0  # atno 17395 bound_to 11000

$$$$
