AV-unprocessed.smi:1643|AV-procd|sdf|6573|dock1
  -GOLD-   22720 7253D 1   1.00000     0.00000
 Structure written by MMmdl.
 54 56  0  0  0  0  0  0  0  0  2 V2000
  143.5037  145.4373  154.4931 C   0  0  0  0  0  0  0  0  0  0  0  0
  143.4467  144.0608  155.1622 C   0  0  0  0  0  0  0  0  0  0  0  0
  142.5196  143.8344  155.9400 O   0  0  0  0  0  0  0  0  0  0  0  0
  144.4056  143.1459  154.8750 N   0  0  0  0  0  0  0  0  0  0  0  0
  144.3602  141.7953  155.4565 C   0  0  0  0  0  0  0  0  0  0  0  0
  145.3002  141.6762  156.6695 C   0  0  0  0  0  0  0  0  0  0  0  0
  146.5991  142.5024  156.5557 C   0  0  0  0  0  0  0  0  0  0  0  0
  147.4066  142.2052  155.3402 N   0  3  1  0  0  0  0  0  0  0  0  0
  148.0981  140.8884  155.4194 C   0  0  0  0  0  0  0  0  0  0  0  0
  149.5881  140.9578  155.0068 C   0  0  2  0  0  0  0  0  0  0  0  0
  149.6944  141.1665  153.6133 O   0  0  0  0  0  0  0  0  0  0  0  0
  150.3836  139.6733  155.3219 C   0  0  0  0  0  0  0  0  0  0  0  0
  151.0103  139.7012  156.6313 N   0  0  0  0  0  0  0  0  0  0  0  0
  151.3947  138.6435  157.3723 C   0  0  0  0  0  0  0  0  0  0  0  0
  151.9459  138.8971  158.5552 N   0  0  0  0  0  0  0  0  0  0  0  0
  151.9333  140.2809  158.5783 C   0  0  0  0  0  0  0  0  0  0  0  0
  152.3852  141.1853  159.5637 C   0  0  0  0  0  0  0  0  0  0  0  0
  152.2744  142.5808  159.3719 C   0  0  0  0  0  0  0  0  0  0  0  0
  152.7795  143.5174  160.4553 C   0  0  0  0  0  0  0  0  0  0  0  0
  151.7016  143.0909  158.1790 C   0  0  0  0  0  0  0  0  0  0  0  0
  151.5763  144.5865  157.9496 C   0  0  0  0  0  0  0  0  0  0  0  0
  151.2421  142.2012  157.1855 C   0  0  0  0  0  0  0  0  0  0  0  0
  151.3583  140.8147  157.3880 C   0  0  0  0  0  0  0  0  0  0  0  0
  146.7343  142.4439  154.0246 C   0  0  0  0  0  0  0  0  0  0  0  0
  145.5653  143.4662  154.0151 C   0  0  0  0  0  0  0  0  0  0  0  0
  143.5863  145.3463  153.4098 H   0  0  0  0  0  0  0  0  0  0  0  0
  144.3495  146.0147  154.8663 H   0  0  0  0  0  0  0  0  0  0  0  0
  142.5962  146.0031  154.7075 H   0  0  0  0  0  0  0  0  0  0  0  0
  143.3502  141.5111  155.7566 H   0  0  0  0  0  0  0  0  0  0  0  0
  144.6123  141.0534  154.7005 H   0  0  0  0  0  0  0  0  0  0  0  0
  144.7655  142.0152  157.5575 H   0  0  0  0  0  0  0  0  0  0  0  0
  145.5323  140.6258  156.8466 H   0  0  0  0  0  0  0  0  0  0  0  0
  146.3745  143.5691  156.5808 H   0  0  0  0  0  0  0  0  0  0  0  0
  147.2084  142.3387  157.4454 H   0  0  0  0  0  0  0  0  0  0  0  0
  148.0479  140.5590  156.4565 H   0  0  0  0  0  0  0  0  0  0  0  0
  147.5610  140.1309  154.8465 H   0  0  0  0  0  0  0  0  0  0  0  0
  150.0640  141.7990  155.5124 H   0  0  0  0  0  0  0  0  0  0  0  0
  149.3241  140.4207  153.1654 H   0  0  0  0  0  0  0  0  0  0  0  0
  149.7321  138.7996  155.2671 H   0  0  0  0  0  0  0  0  0  0  0  0
  151.1686  139.5237  154.5788 H   0  0  0  0  0  0  0  0  0  0  0  0
  151.2521  137.6291  157.0290 H   0  0  0  0  0  0  0  0  0  0  0  0
  152.8230  140.7967  160.4717 H   0  0  0  0  0  0  0  0  0  0  0  0
  151.9754  144.1621  160.8108 H   0  0  0  0  0  0  0  0  0  0  0  0
  153.5836  144.1456  160.0710 H   0  0  0  0  0  0  0  0  0  0  0  0
  153.1675  142.9639  161.3112 H   0  0  0  0  0  0  0  0  0  0  0  0
  151.1180  144.8042  156.9845 H   0  0  0  0  0  0  0  0  0  0  0  0
  152.5586  145.0593  157.9677 H   0  0  0  0  0  0  0  0  0  0  0  0
  150.9578  145.0419  158.7233 H   0  0  0  0  0  0  0  0  0  0  0  0
  150.8062  142.5770  156.2717 H   0  0  0  0  0  0  0  0  0  0  0  0
  147.4998  142.8049  153.3375 H   0  0  0  0  0  0  0  0  0  0  0  0
  146.3996  141.5004  153.5940 H   0  0  0  0  0  0  0  0  0  0  0  0
  145.2079  143.5719  152.9898 H   0  0  0  0  0  0  0  0  0  0  0  0
  145.9761  144.4363  154.2979 H   0  0  0  0  0  0  0  0  0  0  0  0
  148.1480  142.8903  155.3803 H   0  0  0  0  0  0  0  0  0  0  0  0
  1  2  1  0  0  0  0
  1 26  1  0  0  0  0
  1 27  1  0  0  0  0
  1 28  1  0  0  0  0
  2  3  2  0  0  0  0
  2  4  1  0  0  0  0
  4 25  1  0  0  0  0
  4  5  1  0  0  0  0
  5  6  1  0  0  0  0
  5 29  1  0  0  0  0
  5 30  1  0  0  0  0
  6  7  1  0  0  0  0
  6 31  1  0  0  0  0
  6 32  1  0  0  0  0
  7  8  1  0  0  0  0
  7 33  1  0  0  0  0
  7 34  1  0  0  0  0
  8  9  1  0  0  0  0
  8 24  1  0  0  0  0
  8 54  1  0  0  0  0
  9 10  1  0  0  0  0
  9 35  1  0  0  0  0
  9 36  1  0  0  0  0
 10 11  1  0  0  0  0
 10 12  1  0  0  0  0
 10 37  1  0  0  0  0
 11 38  1  0  0  0  0
 12 13  1  0  0  0  0
 12 39  1  0  0  0  0
 12 40  1  0  0  0  0
 13 23  1  0  0  0  0
 13 14  1  0  0  0  0
 14 15  2  0  0  0  0
 14 41  1  0  0  0  0
 15 16  1  0  0  0  0
 16 23  2  0  0  0  0
 16 17  1  0  0  0  0
 17 18  2  0  0  0  0
 17 42  1  0  0  0  0
 18 19  1  0  0  0  0
 18 20  1  0  0  0  0
 19 43  1  0  0  0  0
 19 44  1  0  0  0  0
 19 45  1  0  0  0  0
 20 21  1  0  0  0  0
 20 22  2  0  0  0  0
 21 46  1  0  0  0  0
 21 47  1  0  0  0  0
 21 48  1  0  0  0  0
 22 23  1  0  0  0  0
 22 49  1  0  0  0  0
 24 25  1  0  0  0  0
 24 50  1  0  0  0  0
 24 51  1  0  0  0  0
 25 52  1  0  0  0  0
 25 53  1  0  0  0  0
M  CHG  1   8   1
M  END
> <s_m_source_file>
AV-unprocessed.smi

> <i_m_source_file_index>
1643

> <i_lp_mmshare_version>
43012

> <i_f3d_flags>
0

> <s_epik_input>
W0NIM11DKD1PKU4xW0NIMl1bQ0gyXVtDSDJdTihbQ0gyXVtDSDJdMSlbQ0gyXVtDQEhdKFtPSF0pW0NIMl1uKFtjSF1uMiljKGMyMylbY0hdYyhbQ0gzXSljKFtjSF0zKVtDSDNd

> <s_epik_cmdline>
J2VwaWtfcHl0aG9uJywgJy1waCcsICc3LjAnLCAnLXRuJywgJzgnLCAnLW1hJywgJzIwMCcsICctbWV0YWxfYmluZGluZycsICctaW1hZScsICc8aW5maWxlLm1hZT4nLCAnLW9tYWUnLCAnPG91dGZpbGUubWFlPic=

> <r_epik_Ionization_Penalty>
0.189467

> <r_epik_Ionization_Penalty_Charging>
0.101761

> <r_epik_Ionization_Penalty_Neutral>
0.0877056

> <r_epik_State_Penalty>
0.170758

> <r_epik_Charging_Adjusted_Penalty>
0.272519

> <i_epik_Tot_Q>
1

> <i_epik_Tot_abs_Q>
1

> <r_epik_Metal_State_Penalty>
0.0948013

> <b_epik_Metal_Only>
0

> <s_lp_Force_Field>
OPLS_2005

> <r_lp_Energy>
50.1894

> <b_lp_Chiralities_Consistent>
1

> <s_lp_Variant>
AV-unprocessed.smi:1643-2

> <Gold.Version>
5.8.1

> <Gold.Id.Protein>
6NUR|6NUR_protein|mol2

> <Gold.PLP.Fitness>
55.5724

> <Gold.PLP.PLP>
-47.3505

> <Gold.PLP.part.hbond>
-3.7581

> <Gold.PLP.part.metal>
0.0000

> <Gold.PLP.part.buried>
-5.1549

> <Gold.PLP.part.nonpolar>
-38.5001

> <Gold.PLP.part.repulsive>
0.1340

> <Gold.PLP.ligand.clash>
0.0000

> <Gold.PLP.ligand.torsion>
1.3493

> <Gold.PLP.Chemscore.Hbond>
3.6022

> <Gold.PLP.Chemscore.CHOScore>
0.0000

> <Gold.PLP.Chemscore.Metal>
0.0000

> <Gold.Chemscore.Hbonds>
donor molecule, donor type, donor heavy atom, donor atom, acceptor molecule, acceptor atom, score
      L1  H     8    54       P1  8028  2.00
      L1  H    11    38       P1  7957  0.43
      P1  H  7989  7998       L1    11  0.22
      P1  H  8011  8017       L1    11  0.94

> <Gold.PLP.Chemscore.Internal.Correction>
0.1140

> <Gold.Rescore>
     Score         DG    S(hbond)    S(metal)    S(lipo)     H(rot)  DE(clash)    DE(int)     intcor
     17.93     -20.98       1.91        0.00     124.21       2.12       0.63       2.43       ----

> <Gold.Chemscore.Fitness>
17.9270

> <Gold.Chemscore.DG>
-20.9822

> <Gold.Chemscore.ZeroCoef>
-5.4800

> <Gold.Chemscore.Hbond>
1.9136

> <Gold.Chemscore.Metal>
0.0000

> <Gold.Chemscore.Lipo>
124.2076

> <Gold.Chemscore.Internal_Hbond>
0.0000

> <Gold.Chemscore.DEClash>
0.6289

> <Gold.Chemscore.DEInternal>
2.4263

> <Gold.Chemscore.Rot>
2.1178

> <Gold.Chemscore.Internal.Correction>
   9.000000E+99

> <Gold.Chemscore.Hbonds>
donor molecule, donor type, donor heavy atom, donor atom, acceptor molecule, acceptor atom, score
      L1  H     8    54       P1  8028  0.91
      L1  H    11    38       P1  7957  0.41
      P1  H  7989  7998       L1    11  0.02
      P1  H  8011  8017       L1    11  0.41

> <Gold.Chemscore.Hbond.Weighted>
-6.3914

> <Gold.Chemscore.Metal.Weighted>
-0.0000

> <Gold.Chemscore.Lipo.Weighted>
-14.5323

> <Gold.Chemscore.Internal_Hbond.Weighted>
0.0000

> <Gold.Chemscore.DEClash.Weighted>
0.6289

> <Gold.Chemscore.DEInternal.Weighted>
2.4263

> <Gold.Chemscore.Rot.Weighted>
5.4215

> <Gold.Chemscore.Internal.Correction.Weighted>
   9.000000E+99

> <Gold.Protein.RotatedTorsions>
[ 6907 6896 6895 6894 ] final   71.53 input  -60.11 | X-H torsion
[ 7974 7965 7964 7962 ] final -110.41 input  175.53 | X-H torsion
[ 8008 7997 7996 7995 ] final  101.69 input   59.86 | X-H torsion
[ 10167 10162 10161 10158 ] final  120.89 input  -65.29 | X-H torsion
[ 10718 10713 10712 10709 ] final  104.69 input   66.30 | X-H torsion
[ 10763 10752 10751 10750 ] final -166.03 input  -60.55 | X-H torsion
[ 11005 11000 10999 10996 ] final -173.47 input  -57.11 | X-H torsion

> <Gold.Protein.ActiveResidues>
 VAL166  LYS551  ARG553  GLY616  TRP617  ASP618  TYR619  PRO620  LYS621  CYS622 
 ASP623  PHE694  ASN695  SER759  ASP760  ASP761  ALA762  ILE779  LEU786  VAL792 
 PHE793  MET794  SER795  GLU796  ALA797  LYS798  CYS799  TRP800  GLU811  SER814 

> <Gold.Protein.RotatedAtoms>
  152.4815  134.4706  159.9634 H   0  0  0  0  0  0  0  0  0  0  0  0  # atno 6907 bound_to 6896
  151.4711  133.3563  159.2831 H   0  0  0  0  0  0  0  0  0  0  0  0  # atno 6908 bound_to 6896
  150.8892  134.8319  159.7342 H   0  0  0  0  0  0  0  0  0  0  0  0  # atno 6909 bound_to 6896
  145.1686  140.8914  143.3548 H   0  0  0  0  0  0  0  0  0  0  0  0  # atno 7974 bound_to 7965
  156.1323  140.3193  155.8367 H   0  0  0  0  0  0  0  0  0  0  0  0  # atno 8008 bound_to 7997
  155.4309  140.0519  157.3035 H   0  0  0  0  0  0  0  0  0  0  0  0  # atno 8009 bound_to 7997
  154.4909  140.2092  155.9564 H   0  0  0  0  0  0  0  0  0  0  0  0  # atno 8010 bound_to 7997
  139.5953  144.7039  151.3190 H   0  0  0  0  0  0  0  0  0  0  0  0  # atno 10167 bound_to 10162
  157.6731  131.0810  150.5744 H   0  0  0  0  0  0  0  0  0  0  0  0  # atno 10718 bound_to 10713
  154.6873  135.2964  154.9529 H   0  0  0  0  0  0  0  0  0  0  0  0  # atno 10763 bound_to 10752
  154.0504  135.6645  153.4804 H   0  0  0  0  0  0  0  0  0  0  0  0  # atno 10764 bound_to 10752
  153.0588  135.5128  154.7947 H   0  0  0  0  0  0  0  0  0  0  0  0  # atno 10765 bound_to 10752
  140.4854  134.6035  157.4935 H   0  0  0  0  0  0  0  0  0  0  0  0  # atno 11005 bound_to 11000
  145.0256  139.3386  143.6050 LP  0  0  0  0  0  0  0  0  0  0  0  0  # atno 17320 bound_to 7965
  146.3472  139.9573  142.8721 LP  0  0  0  0  0  0  0  0  0  0  0  0  # atno 17321 bound_to 7965
  140.7207  143.7143  150.7745 LP  0  0  0  0  0  0  0  0  0  0  0  0  # atno 17342 bound_to 10162
  140.0708  143.5063  152.2580 LP  0  0  0  0  0  0  0  0  0  0  0  0  # atno 17343 bound_to 10162
  156.6045  130.4363  149.5884 LP  0  0  0  0  0  0  0  0  0  0  0  0  # atno 17370 bound_to 10713
  156.2480  130.6890  151.1618 LP  0  0  0  0  0  0  0  0  0  0  0  0  # atno 17371 bound_to 10713
  139.9801  134.7151  155.9876 LP  0  0  0  0  0  0  0  0  0  0  0  0  # atno 17394 bound_to 11000
  141.1510  133.6548  156.4014 LP  0  0  0  0  0  0  0  0  0  0  0  0  # atno 17395 bound_to 11000

$$$$
