AV-unprocessed.smi:739|AV-procd|sdf|3543|dock10
  -GOLD-   22720 0533D 1   1.00000     0.00000
 Structure written by MMmdl.
 32 34  0  0  0  0  0  0  0  0  1 V2000
  152.6772  139.3823  159.6209 O   0  0  0  0  0  0  0  0  0  0  0  0
  152.2899  140.0246  158.4236 C   0  0  1  0  0  0  0  0  0  0  0  0
  150.9240  139.4568  157.9896 C   0  0  0  0  0  0  0  0  0  0  0  0
  150.5945  139.8048  156.6184 N   0  0  0  0  0  0  0  0  0  0  0  0
  151.2815  139.4639  155.5113 C   0  0  0  0  0  0  0  0  0  0  0  0
  150.8126  139.8987  154.3451 N   0  0  0  0  0  0  0  0  0  0  0  0
  149.6894  140.6045  154.7407 C   0  0  0  0  0  0  0  0  0  0  0  0
  148.7417  141.3223  153.9767 C   0  0  0  0  0  0  0  0  0  0  0  0
  147.6641  141.9784  154.6073 C   0  0  0  0  0  0  0  0  0  0  0  0
  146.7661  142.6632  153.8601 F   0  0  0  0  0  0  0  0  0  0  0  0
  147.5173  141.9255  156.0095 C   0  0  0  0  0  0  0  0  0  0  0  0
  146.4813  142.5603  156.6074 F   0  0  0  0  0  0  0  0  0  0  0  0
  148.4470  141.2134  156.7908 C   0  0  0  0  0  0  0  0  0  0  0  0
  149.5223  140.5625  156.1579 C   0  0  0  0  0  0  0  0  0  0  0  0
  152.2667  141.5405  158.5646 C   0  0  0  0  0  0  0  0  0  0  0  0
  151.6413  142.3304  157.5758 C   0  0  0  0  0  0  0  0  0  0  0  0
  151.5874  143.7308  157.7145 C   0  0  0  0  0  0  0  0  0  0  0  0
  152.1599  144.3501  158.8420 C   0  0  0  0  0  0  0  0  0  0  0  0
  152.1054  145.6962  158.9767 F   0  0  0  0  0  0  0  0  0  0  0  0
  152.7870  143.5682  159.8306 C   0  0  0  0  0  0  0  0  0  0  0  0
  152.8404  142.1675  159.6929 C   0  0  0  0  0  0  0  0  0  0  0  0
  153.4269  138.8363  159.4386 H   0  0  0  0  0  0  0  0  0  0  0  0
  153.0380  139.7552  157.6766 H   0  0  0  0  0  0  0  0  0  0  0  0
  150.9306  138.3682  158.0633 H   0  0  0  0  0  0  0  0  0  0  0  0
  150.1280  139.8080  158.6476 H   0  0  0  0  0  0  0  0  0  0  0  0
  152.1792  138.8654  155.5654 H   0  0  0  0  0  0  0  0  0  0  0  0
  148.8444  141.3705  152.9028 H   0  0  0  0  0  0  0  0  0  0  0  0
  148.3371  141.1735  157.8642 H   0  0  0  0  0  0  0  0  0  0  0  0
  151.1897  141.8637  156.7127 H   0  0  0  0  0  0  0  0  0  0  0  0
  151.1035  144.3297  156.9571 H   0  0  0  0  0  0  0  0  0  0  0  0
  153.2238  144.0421  160.6973 H   0  0  0  0  0  0  0  0  0  0  0  0
  153.3145  141.5756  160.4622 H   0  0  0  0  0  0  0  0  0  0  0  0
  1  2  1  0  0  0  0
  1 22  1  0  0  0  0
  2  3  1  0  0  0  0
  2 15  1  0  0  0  0
  2 23  1  0  0  0  0
  3  4  1  0  0  0  0
  3 24  1  0  0  0  0
  3 25  1  0  0  0  0
  4 14  1  0  0  0  0
  4  5  1  0  0  0  0
  5  6  2  0  0  0  0
  5 26  1  0  0  0  0
  6  7  1  0  0  0  0
  7 14  2  0  0  0  0
  7  8  1  0  0  0  0
  8  9  2  0  0  0  0
  8 27  1  0  0  0  0
  9 10  1  0  0  0  0
  9 11  1  0  0  0  0
 11 12  1  0  0  0  0
 11 13  2  0  0  0  0
 13 14  1  0  0  0  0
 13 28  1  0  0  0  0
 15 21  1  0  0  0  0
 15 16  2  0  0  0  0
 16 17  1  0  0  0  0
 16 29  1  0  0  0  0
 17 18  2  0  0  0  0
 17 30  1  0  0  0  0
 18 19  1  0  0  0  0
 18 20  1  0  0  0  0
 20 21  2  0  0  0  0
 20 31  1  0  0  0  0
 21 32  1  0  0  0  0
M  END
> <s_m_source_file>
AV-unprocessed.smi

> <i_m_source_file_index>
739

> <i_lp_mmshare_version>
43012

> <i_f3d_flags>
0

> <s_epik_input>
W2NIXTFbY0hdYyhGKVtjSF1bY0hdYzFbQ0BIXShbT0hdKVtDSDJdbihbY0hdbjIpYyhjMjMpW2NIXWMoRiljKEYpW2NIXTM=

> <s_epik_cmdline>
J2VwaWtfcHl0aG9uJywgJy1waCcsICc3LjAnLCAnLXRuJywgJzgnLCAnLW1hJywgJzIwMCcsICctbWV0YWxfYmluZGluZycsICctaW1hZScsICc8aW5maWxlLm1hZT4nLCAnLW9tYWUnLCAnPG91dGZpbGUubWFlPic=

> <r_epik_Ionization_Penalty>
0.0156356

> <r_epik_Ionization_Penalty_Charging>
0

> <r_epik_Ionization_Penalty_Neutral>
0.0156356

> <r_epik_State_Penalty>
0.0122974

> <r_epik_Charging_Adjusted_Penalty>
0.0122974

> <i_epik_Tot_Q>
0

> <i_epik_Tot_abs_Q>
0

> <r_epik_Metal_State_Penalty>
1.24258e-05

> <b_epik_Metal_Only>
0

> <s_lp_Force_Field>
OPLS_2005

> <r_lp_Energy>
11.0695

> <b_lp_Chiralities_Consistent>
1

> <s_lp_Variant>
AV-unprocessed.smi:739-2

> <Gold.Version>
5.8.1

> <Gold.Id.Protein>
6NUR|6NUR_protein|mol2

> <Gold.PLP.Fitness>
49.4418

> <Gold.PLP.PLP>
-47.3051

> <Gold.PLP.part.hbond>
-0.9741

> <Gold.PLP.part.metal>
0.0000

> <Gold.PLP.part.buried>
-4.6635

> <Gold.PLP.part.nonpolar>
-42.1837

> <Gold.PLP.part.repulsive>
0.1055

> <Gold.PLP.ligand.clash>
0.0000

> <Gold.PLP.ligand.torsion>
0.4012

> <Gold.PLP.Chemscore.Hbond>
0.9750

> <Gold.PLP.Chemscore.CHOScore>
0.0000

> <Gold.PLP.Chemscore.Metal>
0.0000

> <Gold.Chemscore.Hbonds>
donor molecule, donor type, donor heavy atom, donor atom, acceptor molecule, acceptor atom, score
      P1  H  7989  7998       L1     6  0.99

> <Gold.PLP.Chemscore.Internal.Correction>
0.0141

> <Gold.Rescore>
     Score         DG    S(hbond)    S(metal)    S(lipo)     H(rot)  DE(clash)    DE(int)     intcor
     13.89     -15.36       0.93        0.00     103.30       2.07       0.03       1.44       ----

> <Gold.Chemscore.Fitness>
13.8909

> <Gold.Chemscore.DG>
-15.3633

> <Gold.Chemscore.ZeroCoef>
-5.4800

> <Gold.Chemscore.Hbond>
0.9270

> <Gold.Chemscore.Metal>
0.0000

> <Gold.Chemscore.Lipo>
103.3034

> <Gold.Chemscore.Internal_Hbond>
0.0000

> <Gold.Chemscore.DEClash>
0.0325

> <Gold.Chemscore.DEInternal>
1.4399

> <Gold.Chemscore.Rot>
2.0700

> <Gold.Chemscore.Internal.Correction>
   9.000000E+99

> <Gold.Chemscore.Hbonds>
donor molecule, donor type, donor heavy atom, donor atom, acceptor molecule, acceptor atom, score
      P1  H  7989  7998       L1     6  0.50

> <Gold.Chemscore.Hbond.Weighted>
-3.0960

> <Gold.Chemscore.Metal.Weighted>
-0.0000

> <Gold.Chemscore.Lipo.Weighted>
-12.0865

> <Gold.Chemscore.Internal_Hbond.Weighted>
0.0000

> <Gold.Chemscore.DEClash.Weighted>
0.0325

> <Gold.Chemscore.DEInternal.Weighted>
1.4399

> <Gold.Chemscore.Rot.Weighted>
5.2992

> <Gold.Chemscore.Internal.Correction.Weighted>
   9.000000E+99

> <Gold.Protein.RotatedTorsions>
[ 6907 6896 6895 6894 ] final   78.75 input  -60.11 | X-H torsion
[ 7974 7965 7964 7962 ] final  -30.70 input  175.53 | X-H torsion
[ 8008 7997 7996 7995 ] final   89.35 input   59.86 | X-H torsion
[ 10167 10162 10161 10158 ] final  -14.00 input  -65.29 | X-H torsion
[ 10718 10713 10712 10709 ] final    6.46 input   66.30 | X-H torsion
[ 10763 10752 10751 10750 ] final  -33.50 input  -60.55 | X-H torsion
[ 11005 11000 10999 10996 ] final  159.19 input  -57.11 | X-H torsion

> <Gold.Protein.ActiveResidues>
 VAL166  LYS551  ARG553  GLY616  TRP617  ASP618  TYR619  PRO620  LYS621  CYS622 
 ASP623  PHE694  ASN695  SER759  ASP760  ASP761  ALA762  ILE779  LEU786  VAL792 
 PHE793  MET794  SER795  GLU796  ALA797  LYS798  CYS799  TRP800  GLU811  SER814 

> <Gold.Protein.RotatedAtoms>
  152.5172  134.3616  159.9286 H   0  0  0  0  0  0  0  0  0  0  0  0  # atno 6907 bound_to 6896
  151.3569  133.3898  159.2693 H   0  0  0  0  0  0  0  0  0  0  0  0  # atno 6908 bound_to 6896
  150.9683  134.9079  159.7830 H   0  0  0  0  0  0  0  0  0  0  0  0  # atno 6909 bound_to 6896
  146.1123  140.5574  142.8772 H   0  0  0  0  0  0  0  0  0  0  0  0  # atno 7974 bound_to 7965
  155.9988  140.3361  155.6825 H   0  0  0  0  0  0  0  0  0  0  0  0  # atno 8008 bound_to 7997
  155.6319  140.0686  157.2664 H   0  0  0  0  0  0  0  0  0  0  0  0  # atno 8009 bound_to 7997
  154.4242  140.1758  156.1468 H   0  0  0  0  0  0  0  0  0  0  0  0  # atno 8010 bound_to 7997
  140.7193  143.5367  150.9456 H   0  0  0  0  0  0  0  0  0  0  0  0  # atno 10167 bound_to 10162
  156.9226  130.5796  149.5648 H   0  0  0  0  0  0  0  0  0  0  0  0  # atno 10718 bound_to 10713
  153.8313  135.6866  153.4814 H   0  0  0  0  0  0  0  0  0  0  0  0  # atno 10763 bound_to 10752
  153.1509  135.4618  154.9633 H   0  0  0  0  0  0  0  0  0  0  0  0  # atno 10764 bound_to 10752
  154.7885  135.3293  154.7776 H   0  0  0  0  0  0  0  0  0  0  0  0  # atno 10765 bound_to 10752
  140.1938  134.8388  157.2941 H   0  0  0  0  0  0  0  0  0  0  0  0  # atno 11005 bound_to 11000
  144.7522  140.5219  143.6794 LP  0  0  0  0  0  0  0  0  0  0  0  0  # atno 17320 bound_to 7965
  145.5638  139.1480  143.3326 LP  0  0  0  0  0  0  0  0  0  0  0  0  # atno 17321 bound_to 7965
  139.9089  143.6744  152.3118 LP  0  0  0  0  0  0  0  0  0  0  0  0  # atno 17342 bound_to 10162
  139.7120  144.7618  151.1096 LP  0  0  0  0  0  0  0  0  0  0  0  0  # atno 17343 bound_to 10162
  156.0484  130.5557  150.8934 LP  0  0  0  0  0  0  0  0  0  0  0  0  # atno 17370 bound_to 10713
  157.5898  131.0945  150.9137 LP  0  0  0  0  0  0  0  0  0  0  0  0  # atno 17371 bound_to 10713
  140.2130  134.4115  155.7603 LP  0  0  0  0  0  0  0  0  0  0  0  0  # atno 17394 bound_to 11000
  141.2227  133.7128  156.8369 LP  0  0  0  0  0  0  0  0  0  0  0  0  # atno 17395 bound_to 11000

$$$$
