AV-unprocessed.smi:3099|AV-procd|sdf|11802|dock9
  -GOLD-   2272017173D 1   1.00000     0.00000
 Structure written by MMmdl.
 33 34  0  0  0  0  0  0  0  0  2 V2000
  153.2677  141.8960  160.3665 C   0  0  0  0  0  0  0  0  0  0  0  0
  152.5949  143.1969  160.3736 N   0  0  0  0  0  0  0  0  0  0  0  0
  152.5050  143.9451  161.4803 C   0  0  0  0  0  0  0  0  0  0  0  0
  151.8417  145.0535  161.1445 N   0  3  0  0  0  0  0  0  0  0  0  0
  151.5057  145.0150  159.8193 C   0  0  0  0  0  0  0  0  0  0  0  0
  151.9832  143.8285  159.3146 C   0  0  0  0  0  0  0  0  0  0  0  0
  151.9204  143.2294  157.9424 C   0  0  0  0  0  0  0  0  0  0  0  0
  151.1238  141.9129  157.9007 C   0  0  0  0  0  0  0  0  0  0  0  0
  151.8767  140.8518  157.2425 N   0  0  0  0  0  0  0  0  0  0  0  0
  151.5942  140.3446  156.0329 C   0  0  0  0  0  0  0  0  0  0  0  0
  150.6515  140.7344  155.3430 O   0  0  0  0  0  0  0  0  0  0  0  0
  152.5206  139.2320  155.5333 C   0  0  0  0  0  0  0  0  0  0  0  0
  151.7703  138.0221  155.0014 C   0  0  0  0  0  0  0  0  0  0  0  0
  150.4277  138.1794  154.3220 C   0  0  0  0  0  0  0  0  0  0  0  0
  150.5129  137.5263  155.6791 C   0  0  0  0  0  0  0  0  0  0  0  0
  153.6179  141.6469  161.3691 H   0  0  0  0  0  0  0  0  0  0  0  0
  154.1185  141.9385  159.6861 H   0  0  0  0  0  0  0  0  0  0  0  0
  152.5666  141.1320  160.0293 H   0  0  0  0  0  0  0  0  0  0  0  0
  152.8911  143.7035  162.4546 H   0  0  0  0  0  0  0  0  0  0  0  0
  150.9620  145.8178  159.3427 H   0  0  0  0  0  0  0  0  0  0  0  0
  151.4708  143.9554  157.2640 H   0  0  0  0  0  0  0  0  0  0  0  0
  152.9400  143.0606  157.5936 H   0  0  0  0  0  0  0  0  0  0  0  0
  150.8461  141.5981  158.9083 H   0  0  0  0  0  0  0  0  0  0  0  0
  150.1941  142.0556  157.3495 H   0  0  0  0  0  0  0  0  0  0  0  0
  152.6715  140.4766  157.7401 H   0  0  0  0  0  0  0  0  0  0  0  0
  153.1627  139.6264  154.7453 H   0  0  0  0  0  0  0  0  0  0  0  0
  153.1741  138.9166  156.3485 H   0  0  0  0  0  0  0  0  0  0  0  0
  152.4201  137.2532  154.5866 H   0  0  0  0  0  0  0  0  0  0  0  0
  149.9992  139.1784  154.2714 H   0  0  0  0  0  0  0  0  0  0  0  0
  150.2206  137.5395  153.4667 H   0  0  0  0  0  0  0  0  0  0  0  0
  150.3623  136.4498  155.7293 H   0  0  0  0  0  0  0  0  0  0  0  0
  150.1359  138.0894  156.5307 H   0  0  0  0  0  0  0  0  0  0  0  0
  151.6203  145.8096  161.7802 H   0  0  0  0  0  0  0  0  0  0  0  0
  1  2  1  0  0  0  0
  1 16  1  0  0  0  0
  1 17  1  0  0  0  0
  1 18  1  0  0  0  0
  2  6  1  0  0  0  0
  2  3  1  0  0  0  0
  3  4  2  0  0  0  0
  3 19  1  0  0  0  0
  4  5  1  0  0  0  0
  4 33  1  0  0  0  0
  5  6  2  0  0  0  0
  5 20  1  0  0  0  0
  6  7  1  0  0  0  0
  7  8  1  0  0  0  0
  7 21  1  0  0  0  0
  7 22  1  0  0  0  0
  8  9  1  0  0  0  0
  8 23  1  0  0  0  0
  8 24  1  0  0  0  0
  9 10  1  0  0  0  0
  9 25  1  0  0  0  0
 10 11  2  0  0  0  0
 10 12  1  0  0  0  0
 12 13  1  0  0  0  0
 12 26  1  0  0  0  0
 12 27  1  0  0  0  0
 13 15  1  0  0  0  0
 13 14  1  0  0  0  0
 13 28  1  0  0  0  0
 14 15  1  0  0  0  0
 14 29  1  0  0  0  0
 14 30  1  0  0  0  0
 15 31  1  0  0  0  0
 15 32  1  0  0  0  0
M  CHG  1   4   1
M  END
> <s_m_source_file>
AV-unprocessed.smi

> <i_m_source_file_index>
3099

> <i_lp_mmshare_version>
43012

> <i_f3d_flags>
0

> <s_epik_input>
W0NIM11uMVtjSF1uW2NIXWMxW0NIMl1bQ0gyXVtOSF1DKD1PKVtDSDJdW0NIXTJbQ0gyXVtDSDJdMg==

> <s_epik_cmdline>
J2VwaWtfcHl0aG9uJywgJy1waCcsICc3LjAnLCAnLXRuJywgJzgnLCAnLW1hJywgJzIwMCcsICctbWV0YWxfYmluZGluZycsICctaW1hZScsICc8aW5maWxlLm1hZT4nLCAnLW9tYWUnLCAnPG91dGZpbGUubWFlPic=

> <r_lp_tautomer_probability>
1

> <r_epik_Ionization_Penalty>
0.156092

> <r_epik_Ionization_Penalty_Charging>
0

> <r_epik_Ionization_Penalty_Neutral>
0.156092

> <r_epik_State_Penalty>
0.145389

> <r_epik_Charging_Adjusted_Penalty>
0.145389

> <i_epik_Tot_Q>
1

> <i_epik_Tot_abs_Q>
1

> <r_epik_Metal_State_Penalty>
0.466304

> <b_epik_Metal_Only>
0

> <s_lp_Force_Field>
OPLS_2005

> <r_lp_Energy>
10.1208

> <b_lp_Chiralities_Consistent>
1

> <s_lp_Variant>
AV-unprocessed.smi:3099-1

> <Gold.Version>
5.8.1

> <Gold.Id.Protein>
6NUR|6NUR_protein|mol2

> <Gold.PLP.Fitness>
41.7344

> <Gold.PLP.PLP>
-40.4156

> <Gold.PLP.part.hbond>
-2.0000

> <Gold.PLP.part.metal>
0.0000

> <Gold.PLP.part.buried>
-3.9957

> <Gold.PLP.part.nonpolar>
-33.2089

> <Gold.PLP.part.repulsive>
0.2621

> <Gold.PLP.ligand.clash>
0.0000

> <Gold.PLP.ligand.torsion>
0.8100

> <Gold.PLP.Chemscore.Hbond>
0.8000

> <Gold.PLP.Chemscore.CHOScore>
0.0000

> <Gold.PLP.Chemscore.Metal>
0.0000

> <Gold.Chemscore.Hbonds>
donor molecule, donor type, donor heavy atom, donor atom, acceptor molecule, acceptor atom, score
      P1  H  7989  7998       L1    11  0.71

> <Gold.PLP.Chemscore.Internal.Correction>
0.5388

> <Gold.Rescore>
     Score         DG    S(hbond)    S(metal)    S(lipo)     H(rot)  DE(clash)    DE(int)     intcor
      9.40     -12.79       0.94        0.00      79.22       1.99       1.22       2.17       ----

> <Gold.Chemscore.Fitness>
9.3955

> <Gold.Chemscore.DG>
-12.7876

> <Gold.Chemscore.ZeroCoef>
-5.4800

> <Gold.Chemscore.Hbond>
0.9386

> <Gold.Chemscore.Metal>
0.0000

> <Gold.Chemscore.Lipo>
79.2180

> <Gold.Chemscore.Internal_Hbond>
0.0000

> <Gold.Chemscore.DEClash>
1.2244

> <Gold.Chemscore.DEInternal>
2.1677

> <Gold.Chemscore.Rot>
1.9905

> <Gold.Chemscore.Internal.Correction>
   9.000000E+99

> <Gold.Chemscore.Hbonds>
donor molecule, donor type, donor heavy atom, donor atom, acceptor molecule, acceptor atom, score
      P1  H  7989  7998       L1    11  0.15

> <Gold.Chemscore.Hbond.Weighted>
-3.1348

> <Gold.Chemscore.Metal.Weighted>
-0.0000

> <Gold.Chemscore.Lipo.Weighted>
-9.2685

> <Gold.Chemscore.Internal_Hbond.Weighted>
0.0000

> <Gold.Chemscore.DEClash.Weighted>
1.2244

> <Gold.Chemscore.DEInternal.Weighted>
2.1677

> <Gold.Chemscore.Rot.Weighted>
5.0957

> <Gold.Chemscore.Internal.Correction.Weighted>
   9.000000E+99

> <Gold.Protein.RotatedTorsions>
[ 6907 6896 6895 6894 ] final -129.99 input  -60.11 | X-H torsion
[ 7974 7965 7964 7962 ] final  161.08 input  175.53 | X-H torsion
[ 8008 7997 7996 7995 ] final   -8.87 input   59.86 | X-H torsion
[ 10167 10162 10161 10158 ] final  -78.67 input  -65.29 | X-H torsion
[ 10718 10713 10712 10709 ] final   65.22 input   66.30 | X-H torsion
[ 10763 10752 10751 10750 ] final   20.40 input  -60.55 | X-H torsion
[ 11005 11000 10999 10996 ] final -144.36 input  -57.11 | X-H torsion

> <Gold.Protein.ActiveResidues>
 VAL166  LYS551  ARG553  GLY616  TRP617  ASP618  TYR619  PRO620  LYS621  CYS622 
 ASP623  PHE694  ASN695  SER759  ASP760  ASP761  ALA762  ILE779  LEU786  VAL792 
 PHE793  MET794  SER795  GLU796  ALA797  LYS798  CYS799  TRP800  GLU811  SER814 

> <Gold.Protein.RotatedAtoms>
  150.9348  133.6724  159.2802 H   0  0  0  0  0  0  0  0  0  0  0  0  # atno 6907 bound_to 6896
  151.4134  135.0987  159.9601 H   0  0  0  0  0  0  0  0  0  0  0  0  # atno 6908 bound_to 6896
  152.5043  133.8816  159.7404 H   0  0  0  0  0  0  0  0  0  0  0  0  # atno 6909 bound_to 6896
  144.7704  139.7848  143.6299 H   0  0  0  0  0  0  0  0  0  0  0  0  # atno 7974 bound_to 7965
  154.5700  140.2370  155.8206 H   0  0  0  0  0  0  0  0  0  0  0  0  # atno 8008 bound_to 7997
  156.2099  140.3029  155.9667 H   0  0  0  0  0  0  0  0  0  0  0  0  # atno 8009 bound_to 7997
  155.2730  140.0419  157.2999 H   0  0  0  0  0  0  0  0  0  0  0  0  # atno 8010 bound_to 7997
  140.4662  143.2439  151.8275 H   0  0  0  0  0  0  0  0  0  0  0  0  # atno 10167 bound_to 10162
  157.6091  130.9202  149.9948 H   0  0  0  0  0  0  0  0  0  0  0  0  # atno 10718 bound_to 10713
  153.1081  135.6690  153.9550 H   0  0  0  0  0  0  0  0  0  0  0  0  # atno 10763 bound_to 10752
  153.9101  135.3026  155.3450 H   0  0  0  0  0  0  0  0  0  0  0  0  # atno 10764 bound_to 10752
  154.7501  135.5038  153.9351 H   0  0  0  0  0  0  0  0  0  0  0  0  # atno 10765 bound_to 10752
  140.8032  134.2832  157.4970 H   0  0  0  0  0  0  0  0  0  0  0  0  # atno 11005 bound_to 11000
  146.1845  139.5054  142.9845 LP  0  0  0  0  0  0  0  0  0  0  0  0  # atno 17320 bound_to 7965
  145.6342  141.0298  143.1846 LP  0  0  0  0  0  0  0  0  0  0  0  0  # atno 17321 bound_to 7965
  139.4812  144.4948  151.9138 LP  0  0  0  0  0  0  0  0  0  0  0  0  # atno 17342 bound_to 10162
  140.4034  144.2464  150.5892 LP  0  0  0  0  0  0  0  0  0  0  0  0  # atno 17343 bound_to 10162
  156.1187  130.3647  149.9924 LP  0  0  0  0  0  0  0  0  0  0  0  0  # atno 17370 bound_to 10713
  156.8008  130.9290  151.3646 LP  0  0  0  0  0  0  0  0  0  0  0  0  # atno 17371 bound_to 10713
  139.8720  134.9441  156.3873 LP  0  0  0  0  0  0  0  0  0  0  0  0  # atno 17394 bound_to 11000
  140.9273  133.7603  155.9980 LP  0  0  0  0  0  0  0  0  0  0  0  0  # atno 17395 bound_to 11000

$$$$
