AV-unprocessed.smi:2381|AV-procd|sdf|9457|dock6
  -GOLD-   2272013 83D 1   1.00000     0.00000
 Structure written by MMmdl.
 30 31  0  0  0  0  0  0  0  0  1 V2000
  153.7871  141.2305  160.6825 C   0  0  0  0  0  0  0  0  0  0  0  0
  152.8543  142.3481  160.2649 C   0  0  0  0  0  0  0  0  0  0  0  0
  152.6962  143.4960  161.0647 C   0  0  0  0  0  0  0  0  0  0  0  0
  151.8144  144.4984  160.6207 C   0  0  0  0  0  0  0  0  0  0  0  0
  151.1159  144.4112  159.4693 N   0  0  0  0  0  0  0  0  0  0  0  0
  151.2590  143.3099  158.6902 C   0  0  0  0  0  0  0  0  0  0  0  0
  150.5685  143.1162  157.4639 N   0  0  0  0  0  0  0  0  0  0  0  0
  150.3244  141.9605  156.8211 C   0  0  0  0  0  0  0  0  0  0  0  0
  150.6552  140.8417  157.2157 O   0  0  0  0  0  0  0  0  0  0  0  0
  149.6634  142.1727  155.6739 N   0  0  0  0  0  0  0  0  0  0  0  0
  149.2585  141.1302  154.7394 C   0  0  0  0  0  0  0  0  0  0  0  0
  147.7593  140.9640  154.5752 C   0  0  0  0  0  0  0  0  0  0  0  0
  147.1442  140.7341  153.2145 C   0  0  0  0  0  0  0  0  0  0  0  0
  146.9349  142.0500  153.9250 C   0  0  0  0  0  0  0  0  0  0  0  0
  152.1247  142.2564  159.0624 C   0  0  0  0  0  0  0  0  0  0  0  0
  154.2940  141.4661  161.6187 H   0  0  0  0  0  0  0  0  0  0  0  0
  154.5451  141.0648  159.9166 H   0  0  0  0  0  0  0  0  0  0  0  0
  153.2286  140.3045  160.8203 H   0  0  0  0  0  0  0  0  0  0  0  0
  153.2340  143.6106  161.9945 H   0  0  0  0  0  0  0  0  0  0  0  0
  151.6656  145.3939  161.2055 H   0  0  0  0  0  0  0  0  0  0  0  0
  150.2285  143.9564  157.0203 H   0  0  0  0  0  0  0  0  0  0  0  0
  149.4293  143.1225  155.4252 H   0  0  0  0  0  0  0  0  0  0  0  0
  149.6964  141.3300  153.7600 H   0  0  0  0  0  0  0  0  0  0  0  0
  149.6890  140.1871  155.0777 H   0  0  0  0  0  0  0  0  0  0  0  0
  147.2797  140.4576  155.4108 H   0  0  0  0  0  0  0  0  0  0  0  0
  147.8068  140.7295  152.3512 H   0  0  0  0  0  0  0  0  0  0  0  0
  146.2974  140.0534  153.1555 H   0  0  0  0  0  0  0  0  0  0  0  0
  145.9482  142.2467  154.3395 H   0  0  0  0  0  0  0  0  0  0  0  0
  147.4583  142.9199  153.5332 H   0  0  0  0  0  0  0  0  0  0  0  0
  152.2302  141.3841  158.4333 H   0  0  0  0  0  0  0  0  0  0  0  0
  1  2  1  0  0  0  0
  1 16  1  0  0  0  0
  1 17  1  0  0  0  0
  1 18  1  0  0  0  0
  2 15  1  0  0  0  0
  2  3  2  0  0  0  0
  3  4  1  0  0  0  0
  3 19  1  0  0  0  0
  4  5  2  0  0  0  0
  4 20  1  0  0  0  0
  5  6  1  0  0  0  0
  6  7  1  0  0  0  0
  6 15  2  0  0  0  0
  7  8  1  0  0  0  0
  7 21  1  0  0  0  0
  8  9  2  0  0  0  0
  8 10  1  0  0  0  0
 10 11  1  0  0  0  0
 10 22  1  0  0  0  0
 11 12  1  0  0  0  0
 11 23  1  0  0  0  0
 11 24  1  0  0  0  0
 12 14  1  0  0  0  0
 12 13  1  0  0  0  0
 12 25  1  0  0  0  0
 13 14  1  0  0  0  0
 13 26  1  0  0  0  0
 13 27  1  0  0  0  0
 14 28  1  0  0  0  0
 14 29  1  0  0  0  0
 15 30  1  0  0  0  0
M  END
> <s_m_source_file>
AV-unprocessed.smi

> <i_m_source_file_index>
2381

> <i_lp_mmshare_version>
43012

> <i_f3d_flags>
0

> <s_epik_input>
W0NIM11jMVtjSF1bY0hdbmMoW2NIXTEpW05IXUMoPU8pW05IXVtDSDJdW0NIXTJbQ0gyXVtDSDJdMg==

> <s_epik_cmdline>
J2VwaWtfcHl0aG9uJywgJy1waCcsICc3LjAnLCAnLXRuJywgJzgnLCAnLW1hJywgJzIwMCcsICctbWV0YWxfYmluZGluZycsICctaW1hZScsICc8aW5maWxlLm1hZT4nLCAnLW9tYWUnLCAnPG91dGZpbGUubWFlPic=

> <r_lp_tautomer_probability>
1

> <r_epik_Ionization_Penalty>
9.40607e-05

> <r_epik_Ionization_Penalty_Charging>
0

> <r_epik_Ionization_Penalty_Neutral>
9.40607e-05

> <r_epik_State_Penalty>
-0

> <r_epik_Charging_Adjusted_Penalty>
0

> <i_epik_Tot_Q>
0

> <i_epik_Tot_abs_Q>
0

> <r_epik_Metal_State_Penalty>
-0

> <b_epik_Metal_Only>
0

> <s_lp_Force_Field>
OPLS_2005

> <r_lp_Energy>
14.347

> <b_lp_Chiralities_Consistent>
1

> <s_lp_Variant>
AV-unprocessed.smi:2381-1

> <Gold.Version>
5.8.1

> <Gold.Id.Protein>
6NUR|6NUR_protein|mol2

> <Gold.PLP.Fitness>
42.0024

> <Gold.PLP.PLP>
-36.5611

> <Gold.PLP.part.hbond>
-2.0000

> <Gold.PLP.part.metal>
0.0000

> <Gold.PLP.part.buried>
-6.4236

> <Gold.PLP.part.nonpolar>
-28.8772

> <Gold.PLP.part.repulsive>
0.2934

> <Gold.PLP.ligand.clash>
0.0000

> <Gold.PLP.ligand.torsion>
0.4152

> <Gold.PLP.Chemscore.Hbond>
1.9120

> <Gold.PLP.Chemscore.CHOScore>
0.0000

> <Gold.PLP.Chemscore.Metal>
0.0000

> <Gold.Chemscore.Hbonds>
donor molecule, donor type, donor heavy atom, donor atom, acceptor molecule, acceptor atom, score
      L1  H     7    21       P1  8028  0.90
      L1  H    10    22       P1  8028  1.00

> <Gold.PLP.Chemscore.Internal.Correction>
0.5357

> <Gold.Rescore>
     Score         DG    S(hbond)    S(metal)    S(lipo)     H(rot)  DE(clash)    DE(int)     intcor
     16.78     -18.67       1.92        0.00      84.23       1.20       0.06       1.83       ----

> <Gold.Chemscore.Fitness>
16.7835

> <Gold.Chemscore.DG>
-18.6741

> <Gold.Chemscore.ZeroCoef>
-5.4800

> <Gold.Chemscore.Hbond>
1.9167

> <Gold.Chemscore.Metal>
0.0000

> <Gold.Chemscore.Lipo>
84.2285

> <Gold.Chemscore.Internal_Hbond>
0.0000

> <Gold.Chemscore.DEClash>
0.0589

> <Gold.Chemscore.DEInternal>
1.8318

> <Gold.Chemscore.Rot>
1.1962

> <Gold.Chemscore.Internal.Correction>
   9.000000E+99

> <Gold.Chemscore.Hbonds>
donor molecule, donor type, donor heavy atom, donor atom, acceptor molecule, acceptor atom, score
      L1  H     7    21       P1  8028  0.80
      L1  H    10    22       P1  8028  0.99

> <Gold.Chemscore.Hbond.Weighted>
-6.4016

> <Gold.Chemscore.Metal.Weighted>
-0.0000

> <Gold.Chemscore.Lipo.Weighted>
-9.8547

> <Gold.Chemscore.Internal_Hbond.Weighted>
0.0000

> <Gold.Chemscore.DEClash.Weighted>
0.0589

> <Gold.Chemscore.DEInternal.Weighted>
1.8318

> <Gold.Chemscore.Rot.Weighted>
3.0622

> <Gold.Chemscore.Internal.Correction.Weighted>
   9.000000E+99

> <Gold.Protein.RotatedTorsions>
[ 6907 6896 6895 6894 ] final  107.67 input  -60.11 | X-H torsion
[ 7974 7965 7964 7962 ] final  -27.20 input  175.53 | X-H torsion
[ 8008 7997 7996 7995 ] final  153.36 input   59.86 | X-H torsion
[ 10167 10162 10161 10158 ] final   71.68 input  -65.29 | X-H torsion
[ 10718 10713 10712 10709 ] final  -58.80 input   66.30 | X-H torsion
[ 10763 10752 10751 10750 ] final   86.85 input  -60.55 | X-H torsion
[ 11005 11000 10999 10996 ] final   23.49 input  -57.11 | X-H torsion

> <Gold.Protein.ActiveResidues>
 VAL166  LYS551  ARG553  GLY616  TRP617  ASP618  TYR619  PRO620  LYS621  CYS622 
 ASP623  PHE694  ASN695  SER759  ASP760  ASP761  ALA762  ILE779  LEU786  VAL792 
 PHE793  MET794  SER795  GLU796  ALA797  LYS798  CYS799  TRP800  GLU811  SER814 

> <Gold.Protein.RotatedAtoms>
  152.5145  133.9201  159.7529 H   0  0  0  0  0  0  0  0  0  0  0  0  # atno 6907 bound_to 6896
  150.9574  133.6473  159.2767 H   0  0  0  0  0  0  0  0  0  0  0  0  # atno 6908 bound_to 6896
  151.3730  135.0931  159.9524 H   0  0  0  0  0  0  0  0  0  0  0  0  # atno 6909 bound_to 6896
  146.1374  140.5120  142.8667 H   0  0  0  0  0  0  0  0  0  0  0  0  # atno 7974 bound_to 7965
  156.2585  140.1996  156.6477 H   0  0  0  0  0  0  0  0  0  0  0  0  # atno 8008 bound_to 7997
  154.6560  140.0566  157.0034 H   0  0  0  0  0  0  0  0  0  0  0  0  # atno 8009 bound_to 7997
  155.1346  140.3237  155.4469 H   0  0  0  0  0  0  0  0  0  0  0  0  # atno 8010 bound_to 7997
  140.0435  144.5370  150.7416 H   0  0  0  0  0  0  0  0  0  0  0  0  # atno 10167 bound_to 10162
  156.1108  130.4175  150.0627 H   0  0  0  0  0  0  0  0  0  0  0  0  # atno 10718 bound_to 10713
  153.1610  135.4565  154.9772 H   0  0  0  0  0  0  0  0  0  0  0  0  # atno 10763 bound_to 10752
  154.7897  135.3216  154.7807 H   0  0  0  0  0  0  0  0  0  0  0  0  # atno 10764 bound_to 10752
  153.8297  135.6939  153.4870 H   0  0  0  0  0  0  0  0  0  0  0  0  # atno 10765 bound_to 10752
  140.3691  134.2042  155.7668 H   0  0  0  0  0  0  0  0  0  0  0  0  # atno 11005 bound_to 11000
  144.7755  140.5730  143.6641 LP  0  0  0  0  0  0  0  0  0  0  0  0  # atno 17320 bound_to 7965
  145.5124  139.1479  143.3597 LP  0  0  0  0  0  0  0  0  0  0  0  0  # atno 17321 bound_to 7965
  140.7249  143.2626  151.4153 LP  0  0  0  0  0  0  0  0  0  0  0  0  # atno 17342 bound_to 10162
  139.5998  144.1319  152.2186 LP  0  0  0  0  0  0  0  0  0  0  0  0  # atno 17343 bound_to 10162
  156.8590  130.9485  151.3619 LP  0  0  0  0  0  0  0  0  0  0  0  0  # atno 17370 bound_to 10713
  157.6289  130.8714  149.9239 LP  0  0  0  0  0  0  0  0  0  0  0  0  # atno 17371 bound_to 10713
  141.1960  133.8092  157.0690 LP  0  0  0  0  0  0  0  0  0  0  0  0  # atno 17394 bound_to 11000
  140.0566  134.9777  157.1231 LP  0  0  0  0  0  0  0  0  0  0  0  0  # atno 17395 bound_to 11000

$$$$
