#       Name:                AV-unprocessed.smi:1620
#       Creating user name   scv26
#       Creation time:       Fri Mar 27 07:15:35 2020


#       File generated by GOLD software.
#

@<TRIPOS>MOLECULE
AV-unprocessed.smi:1620
    45    45     1
SMALL
NO_CHARGES


@<TRIPOS>ATOM
      1 ****        -1.4888  -2.3990  -1.0376 C.3            1 S1                 0.0000
      2 ****        -1.9948  -2.6894   0.3886 C.3            1 S1                 0.0000
      3 ****        -3.5342  -2.6947   0.3947 C.3            1 S1                 0.0000
      4 ****        -1.4071  -1.7118   1.4475 C.3            1 S1                 0.0000
      5 ****        -1.8484  -2.0022   2.8982 C.3            1 S1                 0.0000
      6 ****         0.0738  -1.6152   1.3630 N.am           1 S1                 0.0000
      7 ****         0.8179  -2.7736   1.8758 C.3            1 S1                 0.0000
      8 ****         0.7774  -0.5242   0.9569 C.2            1 S1                 0.0000
      9 ****         1.9940  -0.4223   1.1240 O.2            1 S1                 0.0000
     10 ****         0.0518   0.3948   0.2906 N.am           1 S1                 0.0000
     11 ****         0.4945   1.6221  -0.2638 C.2            1 S1                 0.0000
     12 ****        -0.3408   2.5488  -0.9397 C.2            1 S1                 0.0000
     13 ****         0.3472   3.6025  -1.3517 N.2            1 S1                 0.0000
     14 ****         1.6226   3.3688  -0.9513 N.pl3          1 S1                 0.0000
     15 ****         2.6604   4.3395  -1.2517 C.3            1 S1                 0.0000
     16 ****         3.4848   3.9134  -2.4681 C.2            1 S1                 0.0000
     17 ****         2.9012   4.0116  -3.6657 N.am           1 S1                 0.0000
     18 ****         4.6356   3.5049  -2.3289 O.2            1 S1                 0.0000
     19 ****         1.7473   2.1670  -0.2817 C.2            1 S1                 0.0000
     20 ****        -1.7421  -1.3852  -1.3491 H              1 S1                 0.0000
     21 ****        -1.9315  -3.0866  -1.7588 H              1 S1                 0.0000
     22 ****        -0.4076  -2.5130  -1.1158 H              1 S1                 0.0000
     23 ****        -1.6756  -3.7013   0.6391 H              1 S1                 0.0000
     24 ****        -3.9357  -1.6992   0.2025 H              1 S1                 0.0000
     25 ****        -3.9341  -3.0403   1.3475 H              1 S1                 0.0000
     26 ****        -3.9273  -3.3624  -0.3723 H              1 S1                 0.0000
     27 ****        -1.8575  -0.7420   1.2373 H              1 S1                 0.0000
     28 ****        -2.9181  -1.8410   3.0291 H              1 S1                 0.0000
     29 ****        -1.3423  -1.3382   3.5999 H              1 S1                 0.0000
     30 ****        -1.6355  -3.0285   3.1972 H              1 S1                 0.0000
     31 ****         1.6547  -3.0266   1.2225 H              1 S1                 0.0000
     32 ****         0.2029  -3.6696   1.9496 H              1 S1                 0.0000
     33 ****         1.2144  -2.5595   2.8691 H              1 S1                 0.0000
     34 ****        -0.9314   0.1932   0.1808 H              1 S1                 0.0000
     35 ****        -1.4005   2.4938  -1.1411 H              1 S1                 0.0000
     36 ****         2.2097   5.3174  -1.4291 H              1 S1                 0.0000
     37 ****         3.3077   4.4386  -0.3793 H              1 S1                 0.0000
     38 ****         3.4124   3.7511  -4.4970 H              1 S1                 0.0000
     39 ****         1.9546   4.3558  -3.7362 H              1 S1                 0.0000
     40 ****         2.6954   1.8233   0.1049 H              1 S1                 0.0000
     41 ****         2.5004  -1.1586   1.5728 LP             1 S1                 0.0000
     42 ****         2.4749   0.3966   0.8107 LP             1 S1                 0.0000
     43 ****         0.0019   4.3979  -1.8499 LP             1 S1                 0.0000
     44 ****         5.0394   3.4492  -1.4158 LP             1 S1                 0.0000
     45 ****         5.1681   3.2282  -3.1288 LP             1 S1                 0.0000
@<TRIPOS>BOND
    1    1    2 1     
    2    1   20 1     
    3    1   21 1     
    4    1   22 1     
    5    2    3 1     
    6    2    4 1     
    7    2   23 1     
    8    3   24 1     
    9    3   25 1     
   10    3   26 1     
   11    4    5 1     
   12    4    6 1     
   13    4   27 1     
   14    5   28 1     
   15    5   29 1     
   16    5   30 1     
   17    6    7 1     
   18    6    8 am    
   19    7   31 1     
   20    7   32 1     
   21    7   33 1     
   22    8    9 2     
   23    8   10 am    
   24   10   11 1     
   25   10   34 1     
   26   11   19 2     
   27   11   12 1     
   28   12   13 2     
   29   12   35 1     
   30   13   14 1     
   31   14   15 1     
   32   14   19 1     
   33   15   16 1     
   34   15   36 1     
   35   15   37 1     
   36   16   17 am    
   37   16   18 2     
   38   17   38 1     
   39   17   39 1     
   40   19   40 1     
   41    9   41 1     
   42    9   42 1     
   43   13   43 1     
   44   18   44 1     
   45   18   45 1     
@<TRIPOS>SUBSTRUCTURE
      1 S1             1
@<TRIPOS>SET
LONE_PAIRS      STATIC     ATOMS    <user>   **** ""
5 41 42 43 44 45
DONOR_HYDROGENS      STATIC     ATOMS    <user>   **** ""
3 34 38 39
ATOM$BLUE        STATIC     ATOMS    COLORGROUP SYSTEM
5 41 42 43 44 45
ATOM$RED        STATIC     ATOMS    COLORGROUP SYSTEM
3 34 38 39
