#       Name:                AV-unprocessed.smi:634
#       Creating user name   scv26
#       Creation time:       Fri Mar 27 00:06:21 2020


#       File generated by GOLD software.
#

@<TRIPOS>MOLECULE
AV-unprocessed.smi:634
    38    39     1
SMALL
NO_CHARGES


@<TRIPOS>ATOM
      1 ****        -5.6902  -3.0682  -0.8663 C.3            1 S1                 0.0000
      2 ****        -4.4706  -2.2370  -0.6612 C.2            1 S1                 0.0000
      3 ****        -3.1350  -2.5015  -0.7761 C.2            1 S1                 0.0000
      4 ****        -2.5312  -1.2626  -0.4322 C.2            1 S1                 0.0000
      5 ****        -1.1182  -1.1239  -0.4258 N.am           1 S1                 0.0000
      6 ****        -0.3782  -0.0487  -0.1008 C.2            1 S1                 0.0000
      7 ****        -0.9243   1.0121   0.2200 O.2            1 S1                 0.0000
      8 ****         0.9587  -0.3024  -0.1795 N.pl3          1 S1                -1.0000
      9 ****         2.0732   0.6125   0.1292 C.3            1 S1                 0.0000
     10 ****         3.3753  -0.1821  -0.1037 C.3            1 S1                 0.0000
     11 ****         2.0275   1.1090   1.6003 C.3            1 S1                 0.0000
     12 ****         2.9701   2.3121   1.7637 C.3            1 S1                 0.0000
     13 ****         2.9906   3.1645   0.1387 S.o2           1 S1                 0.0000
     14 ****         2.1734   4.3856   0.2135 O.2            1 S1                 0.0000
     15 ****         4.3761   3.2176  -0.3546 O.2            1 S1                 0.0000
     16 ****         2.0582   1.8693  -0.7718 C.3            1 S1                 0.0000
     17 ****        -3.4204  -0.3256  -0.1368 N.2            1 S1                 0.0000
     18 ****        -4.6672  -0.9450  -0.2825 O.3            1 S1                 0.0000
     19 ****        -5.4344  -4.1260  -0.9281 H              1 S1                 0.0000
     20 ****        -6.1971  -2.7876  -1.7896 H              1 S1                 0.0000
     21 ****        -6.3910  -2.9386  -0.0415 H              1 S1                 0.0000
     22 ****        -2.6662  -3.4326  -1.0581 H              1 S1                 0.0000
     23 ****        -0.5974  -1.9486  -0.6841 H              1 S1                 0.0000
     24 ****         4.2631   0.4215   0.0842 H              1 S1                 0.0000
     25 ****         3.4433  -0.5412  -1.1315 H              1 S1                 0.0000
     26 ****         3.4320  -1.0532   0.5504 H              1 S1                 0.0000
     27 ****         1.0247   1.4501   1.8558 H              1 S1                 0.0000
     28 ****         2.2695   0.3160   2.3088 H              1 S1                 0.0000
     29 ****         2.6391   2.9999   2.5418 H              1 S1                 0.0000
     30 ****         3.9869   1.9935   1.9964 H              1 S1                 0.0000
     31 ****         2.5067   1.7038  -1.7514 H              1 S1                 0.0000
     32 ****         1.0520   2.2565  -0.9275 H              1 S1                 0.0000
     33 ****        -1.9221   1.0750   0.2391 LP             1 S1                 0.0000
     34 ****        -0.3684   1.8079   0.4605 LP             1 S1                 0.0000
     35 ****         1.2148  -1.2200  -0.4834 LP             1 S1                 0.0000
     36 ****        -3.2396   0.6204   0.1323 LP             1 S1                 0.0000
     37 ****        -5.1589  -0.9205   0.5879 LP             1 S1                 0.0000
     38 ****        -5.2008  -0.4672  -0.9803 LP             1 S1                 0.0000
@<TRIPOS>BOND
    1    1    2 1     
    2    1   19 1     
    3    1   20 1     
    4    1   21 1     
    5    2   18 1     
    6    2    3 2     
    7    3    4 1     
    8    3   22 1     
    9    4    5 1     
   10    4   17 2     
   11    5    6 am    
   12    5   23 1     
   13    6    7 2     
   14    6    8 1     
   15    8    9 1     
   16    9   16 1     
   17    9   10 1     
   18    9   11 1     
   19   10   24 1     
   20   10   25 1     
   21   10   26 1     
   22   11   12 1     
   23   11   27 1     
   24   11   28 1     
   25   12   13 1     
   26   12   29 1     
   27   12   30 1     
   28   13   14 2     
   29   13   15 2     
   30   13   16 1     
   31   16   31 1     
   32   16   32 1     
   33   17   18 1     
   34    7   33 1     
   35    7   34 1     
   36    8   35 1     
   37   17   36 1     
   38   18   37 1     
   39   18   38 1     
@<TRIPOS>SUBSTRUCTURE
      1 S1             1
@<TRIPOS>SET
LONE_PAIRS      STATIC     ATOMS    <user>   **** ""
8 33 34 35 14 15 36 37 38
DONOR_HYDROGENS      STATIC     ATOMS    <user>   **** ""
1 23
ATOM$BLUE        STATIC     ATOMS    COLORGROUP SYSTEM
8 33 34 35 14 15 36 37 38
ATOM$RED        STATIC     ATOMS    COLORGROUP SYSTEM
1 23
