#       Name:                AV-unprocessed.smi:1639
#       Creating user name   scv26
#       Creation time:       Fri Mar 27 07:23:22 2020


#       File generated by GOLD software.
#

@<TRIPOS>MOLECULE
AV-unprocessed.smi:1639
    42    43     1
SMALL
NO_CHARGES


@<TRIPOS>ATOM
      1 ****        -4.8157   1.2646  -1.8029 C.3            1 S1                 0.0000
      2 ****        -3.4067   1.4368  -1.2319 C.3            1 S1                 0.0000
      3 ****        -2.4819   0.7975  -2.0994 O.3            1 S1                 0.0000
      4 ****        -1.1185   0.9450  -1.7227 C.3            1 S1                 0.0000
      5 ****        -0.2614   0.5912  -2.9484 C.3            1 S1                 0.0000
      6 ****         1.2294   0.6516  -2.5880 C.3            1 S1                 0.0000
      7 ****         1.5431  -0.2591  -1.3899 C.3            1 S1                 0.0000
      8 ****         0.6749   0.0480  -0.2519 N.3            1 S1                 0.0000
      9 ****         1.1036  -0.4630   0.9926 C.ar           1 S1                 0.0000
     10 ****         2.4201  -0.2308   1.4591 C.ar           1 S1                 0.0000
     11 ****         2.7597  -0.7820   2.7127 C.ar           1 S1                 0.0000
     12 ****         4.1390  -0.5960   3.3082 C.3            1 S1                 0.0000
     13 ****         1.8766  -1.5008   3.4384 N.ar           1 S1                 0.0000
     14 ****         0.6618  -1.6571   2.9118 C.ar           1 S1                 0.0000
     15 ****        -0.2389  -2.3851   3.6498 N.pl3          1 S1                 0.0000
     16 ****         0.2300  -1.1815   1.7425 N.ar           1 S1                 0.0000
     17 ****        -0.7630   0.0249  -0.5349 C.3            1 S1                 0.0000
     18 ****        -5.5558   1.7479  -1.1650 H              1 S1                 0.0000
     19 ****        -5.0797   0.2098  -1.8820 H              1 S1                 0.0000
     20 ****        -4.8915   1.7055  -2.7971 H              1 S1                 0.0000
     21 ****        -3.1727   2.4989  -1.1459 H              1 S1                 0.0000
     22 ****        -3.3629   1.0056  -0.2319 H              1 S1                 0.0000
     23 ****        -0.9201   1.9845  -1.4550 H              1 S1                 0.0000
     24 ****        -0.5127  -0.4102  -3.3006 H              1 S1                 0.0000
     25 ****        -0.4767   1.2754  -3.7696 H              1 S1                 0.0000
     26 ****         1.8338   0.3591  -3.4468 H              1 S1                 0.0000
     27 ****         1.5065   1.6791  -2.3489 H              1 S1                 0.0000
     28 ****         1.3923  -1.3029  -1.6687 H              1 S1                 0.0000
     29 ****         2.5969  -0.1538  -1.1361 H              1 S1                 0.0000
     30 ****         3.1355   0.3514   0.8980 H              1 S1                 0.0000
     31 ****         4.6379   0.2701   2.8722 H              1 S1                 0.0000
     32 ****         4.7518  -1.4774   3.1187 H              1 S1                 0.0000
     33 ****         4.0780  -0.4435   4.3863 H              1 S1                 0.0000
     34 ****         0.0280  -2.7725   4.5431 H              1 S1                 0.0000
     35 ****        -1.1881  -2.5009   3.3265 H              1 S1                 0.0000
     36 ****        -1.3129   0.3446   0.3502 H              1 S1                 0.0000
     37 ****        -1.0659  -1.0003  -0.7520 H              1 S1                 0.0000
     38 ****        -2.5960   1.1823  -3.0153 LP             1 S1                 0.0000
     39 ****        -2.6963  -0.1790  -2.1190 LP             1 S1                 0.0000
     40 ****         0.8155   1.0269  -0.1035 LP             1 S1                 0.0000
     41 ****         2.1209  -1.8952   4.3243 LP             1 S1                 0.0000
     42 ****        -0.7049  -1.3486   1.4295 LP             1 S1                 0.0000
@<TRIPOS>BOND
    1    1    2 1     
    2    1   18 1     
    3    1   19 1     
    4    1   20 1     
    5    2    3 1     
    6    2   21 1     
    7    2   22 1     
    8    3    4 1     
    9    4   17 1     
   10    4    5 1     
   11    4   23 1     
   12    5    6 1     
   13    5   24 1     
   14    5   25 1     
   15    6    7 1     
   16    6   26 1     
   17    6   27 1     
   18    7    8 1     
   19    7   28 1     
   20    7   29 1     
   21    8    9 1     
   22    8   17 1     
   23    9   16 ar    
   24    9   10 ar    
   25   10   11 ar    
   26   10   30 1     
   27   11   12 1     
   28   11   13 ar    
   29   12   31 1     
   30   12   32 1     
   31   12   33 1     
   32   13   14 ar    
   33   14   15 1     
   34   14   16 ar    
   35   15   34 1     
   36   15   35 1     
   37   17   36 1     
   38   17   37 1     
   39    3   38 1     
   40    3   39 1     
   41    8   40 1     
   42   13   41 1     
   43   16   42 1     
@<TRIPOS>SUBSTRUCTURE
      1 S1             1
@<TRIPOS>SET
LONE_PAIRS      STATIC     ATOMS    <user>   **** ""
5 38 39 40 41 42
DONOR_HYDROGENS      STATIC     ATOMS    <user>   **** ""
2 34 35
ATOM$BLUE        STATIC     ATOMS    COLORGROUP SYSTEM
5 38 39 40 41 42
ATOM$RED        STATIC     ATOMS    COLORGROUP SYSTEM
2 34 35
