#       Name:                AV-unprocessed.smi:1363
#       Creating user name   scv26
#       Creation time:       Fri Mar 27 05:15:54 2020


#       File generated by GOLD software.
#

@<TRIPOS>MOLECULE
AV-unprocessed.smi:1363
    49    50     1
SMALL
NO_CHARGES


@<TRIPOS>ATOM
      1 ****        -4.3150   5.4621  -0.8678 C.3            1 S1                 0.0000
      2 ****        -3.9856   3.9862  -0.9242 C.2            1 S1                 0.0000
      3 ****        -3.3911   3.5042   0.2301 N.pl3          1 S1                 0.0000
      4 ****        -3.0636   2.1607   0.2775 C.2            1 S1                 0.0000
      5 ****        -2.4219   1.7131   1.5793 C.3            1 S1                 0.0000
      6 ****        -3.3101   1.3400  -0.7751 C.2            1 S1                 0.0000
      7 ****        -2.9652  -0.1486  -0.7597 C.3            1 S1                 0.0000
      8 ****        -1.4999  -0.4990  -1.0304 C.2            1 S1                 0.0000
      9 ****        -0.7965   0.2450  -1.7141 O.2            1 S1                 0.0000
     10 ****        -1.0511  -1.6364  -0.4789 N.am           1 S1                 0.0000
     11 ****         0.3126  -2.1403  -0.5872 C.3            1 S1                 0.0000
     12 ****         1.2484  -1.4474   0.4233 C.3            1 S1                 0.0000
     13 ****         2.6937  -1.9353   0.4325 C.2            1 S1                 0.0000
     14 ****         3.1757  -2.9035  -0.3761 C.2            1 S1                 0.0000
     15 ****         4.6222  -3.3662  -0.3868 C.3            1 S1                 0.0000
     16 ****         5.5565  -2.3910   0.3467 C.3            1 S1                 0.0000
     17 ****         4.9350  -1.9251   1.6678 C.3            1 S1                 0.0000
     18 ****         3.5895  -1.2151   1.4339 C.3            1 S1                 0.0000
     19 ****        -3.9363   1.9166  -1.9884 C.2            1 S1                 0.0000
     20 ****        -4.1683   1.2297  -2.9823 O.2            1 S1                 0.0000
     21 ****        -4.2594   3.2833  -1.9809 N.2            1 S1                 0.0000
     22 ****        -3.1899   4.0794   1.0353 H              1 S1                 0.0000
     23 ****        -4.6727   5.8191  -1.8344 H              1 S1                 0.0000
     24 ****        -3.4312   6.0408  -0.5978 H              1 S1                 0.0000
     25 ****        -5.0920   5.6485  -0.1259 H              1 S1                 0.0000
     26 ****        -3.0344   0.9538   2.0658 H              1 S1                 0.0000
     27 ****        -2.3048   2.5443   2.2758 H              1 S1                 0.0000
     28 ****        -1.4333   1.2926   1.3930 H              1 S1                 0.0000
     29 ****        -3.5835  -0.6968  -1.4709 H              1 S1                 0.0000
     30 ****        -3.2434  -0.5506   0.2152 H              1 S1                 0.0000
     31 ****        -1.6986  -2.1874   0.0657 H              1 S1                 0.0000
     32 ****         0.2810  -3.2134  -0.3963 H              1 S1                 0.0000
     33 ****         0.6770  -2.0092  -1.6078 H              1 S1                 0.0000
     34 ****         1.2631  -0.3742   0.2286 H              1 S1                 0.0000
     35 ****         0.8450  -1.5728   1.4290 H              1 S1                 0.0000
     36 ****         2.5302  -3.4159  -1.0727 H              1 S1                 0.0000
     37 ****         4.6639  -4.3510   0.0795 H              1 S1                 0.0000
     38 ****         4.9521  -3.4891  -1.4188 H              1 S1                 0.0000
     39 ****         6.5235  -2.8622   0.5252 H              1 S1                 0.0000
     40 ****         5.7472  -1.5225  -0.2853 H              1 S1                 0.0000
     41 ****         4.7825  -2.7895   2.3156 H              1 S1                 0.0000
     42 ****         5.6193  -1.2608   2.1965 H              1 S1                 0.0000
     43 ****         3.7630  -0.2048   1.0619 H              1 S1                 0.0000
     44 ****         3.0666  -1.1131   2.3853 H              1 S1                 0.0000
     45 ****        -1.1816   1.0848  -2.0969 LP             1 S1                 0.0000
     46 ****         0.1599   0.0096  -1.8867 LP             1 S1                 0.0000
     47 ****        -3.9335   0.2577  -2.9843 LP             1 S1                 0.0000
     48 ****        -4.5917   1.6434  -3.7883 LP             1 S1                 0.0000
     49 ****        -4.6929   3.7078  -2.7758 LP             1 S1                 0.0000
@<TRIPOS>BOND
    1    1   23 1     
    2    1   24 1     
    3    1   25 1     
    4    1    2 1     
    5    2    3 1     
    6    2   21 2     
    7    3    4 1     
    8    3   22 1     
    9    4    6 2     
   10    4    5 1     
   11    5   26 1     
   12    5   27 1     
   13    5   28 1     
   14    6   19 1     
   15    6    7 1     
   16    7    8 1     
   17    7   29 1     
   18    7   30 1     
   19    8    9 2     
   20    8   10 am    
   21   10   11 1     
   22   10   31 1     
   23   11   12 1     
   24   11   32 1     
   25   11   33 1     
   26   12   13 1     
   27   12   34 1     
   28   12   35 1     
   29   13   18 1     
   30   13   14 2     
   31   14   15 1     
   32   14   36 1     
   33   15   16 1     
   34   15   37 1     
   35   15   38 1     
   36   16   17 1     
   37   16   39 1     
   38   16   40 1     
   39   17   18 1     
   40   17   41 1     
   41   17   42 1     
   42   18   43 1     
   43   18   44 1     
   44   19   20 2     
   45   19   21 1     
   46    9   45 1     
   47    9   46 1     
   48   20   47 1     
   49   20   48 1     
   50   21   49 1     
@<TRIPOS>SUBSTRUCTURE
      1 S1             1
@<TRIPOS>SET
LONE_PAIRS      STATIC     ATOMS    <user>   **** ""
5 45 46 47 48 49
DONOR_HYDROGENS      STATIC     ATOMS    <user>   **** ""
2 22 31
ATOM$BLUE        STATIC     ATOMS    COLORGROUP SYSTEM
5 45 46 47 48 49
ATOM$RED        STATIC     ATOMS    COLORGROUP SYSTEM
2 22 31
