AV-unprocessed.smi:167|AV-procd|sdf|1394|dock4
  -GOLD-   2262019133D 1   1.00000     0.00000
 Structure written by MMmdl.
 51 55  0  0  0  0  0  0  0  0  1 V2000
  152.9104  138.9150  155.8881 O   0  0  0  0  0  0  0  0  0  0  0  0
  151.7935  139.3313  156.6443 C   0  0  0  0  0  0  0  0  0  0  0  0
  150.4892  138.9528  155.9186 C   0  0  2  0  0  0  0  0  0  0  0  0
  150.4784  139.2546  154.4086 C   0  0  0  0  0  0  0  0  0  0  0  0
  149.1396  140.0094  154.2558 C   0  0  2  0  0  0  0  0  0  0  0  0
  149.3196  141.4432  154.7800 C   0  0  0  0  0  0  0  0  0  0  0  0
  149.3323  141.2047  156.2967 C   0  0  0  0  0  0  0  0  0  0  0  0
  149.1910  139.6715  156.3679 C   0  0  1  0  0  0  0  0  0  0  0  0
  148.2738  139.4148  155.2668 N   0  0  0  0  0  0  0  0  0  0  0  0
  147.7378  138.1768  155.0760 C   0  0  0  0  0  0  0  0  0  0  0  0
  147.9802  137.2112  156.0024 N   0  0  0  0  0  0  0  0  0  0  0  0
  147.4709  135.9853  155.8570 C   0  0  0  0  0  0  0  0  0  0  0  0
  146.7107  135.5104  154.8700 N   0  0  0  0  0  0  0  0  0  0  0  0
  146.4788  136.4643  153.9242 C   0  0  0  0  0  0  0  0  0  0  0  0
  146.9477  137.8099  153.9464 C   0  0  0  0  0  0  0  0  0  0  0  0
  146.5031  138.4737  152.8086 N   0  0  0  0  0  0  0  0  0  0  0  0
  145.8000  137.5831  152.1651 C   0  0  0  0  0  0  0  0  0  0  0  0
  145.7538  136.3397  152.7524 N   0  0  0  0  0  0  0  0  0  0  0  0
  145.0376  135.1874  152.2886 C   0  0  0  0  0  0  0  0  0  0  0  0
  145.5977  133.7788  152.5053 C   0  0  0  0  0  0  0  0  0  0  0  0
  144.9407  133.3272  151.1797 C   0  0  0  0  0  0  0  0  0  0  0  0
  145.7480  132.3716  150.2788 C   0  0  0  0  0  0  0  0  0  0  0  0
  147.1174  132.7149  150.2104 O   0  0  0  0  0  0  0  0  0  0  0  0
  143.5233  132.7378  151.3109 C   0  0  0  0  0  0  0  0  0  0  0  0
  142.9039  132.5900  150.0493 O   0  0  0  0  0  0  0  0  0  0  0  0
  144.9690  134.8262  150.8005 C   0  0  0  0  0  0  0  0  0  0  0  0
  153.0334  137.9871  156.0192 H   0  0  0  0  0  0  0  0  0  0  0  0
  151.8462  138.9036  157.6447 H   0  0  0  0  0  0  0  0  0  0  0  0
  151.8471  140.4132  156.7673 H   0  0  0  0  0  0  0  0  0  0  0  0
  150.3430  137.8790  156.0497 H   0  0  0  0  0  0  0  0  0  0  0  0
  151.3301  139.8519  154.0805 H   0  0  0  0  0  0  0  0  0  0  0  0
  150.4799  138.3280  153.8332 H   0  0  0  0  0  0  0  0  0  0  0  0
  148.7446  139.9888  153.2393 H   0  0  0  0  0  0  0  0  0  0  0  0
  150.2324  141.9156  154.4154 H   0  0  0  0  0  0  0  0  0  0  0  0
  148.4744  142.0724  154.4981 H   0  0  0  0  0  0  0  0  0  0  0  0
  150.2215  141.5940  156.7900 H   0  0  0  0  0  0  0  0  0  0  0  0
  148.4687  141.6855  156.7580 H   0  0  0  0  0  0  0  0  0  0  0  0
  148.8444  139.3502  157.3482 H   0  0  0  0  0  0  0  0  0  0  0  0
  147.7085  135.2837  156.6432 H   0  0  0  0  0  0  0  0  0  0  0  0
  145.3002  137.8125  151.2352 H   0  0  0  0  0  0  0  0  0  0  0  0
  144.0350  135.2698  152.7113 H   0  0  0  0  0  0  0  0  0  0  0  0
  146.6886  133.7623  152.4813 H   0  0  0  0  0  0  0  0  0  0  0  0
  145.2252  133.2823  153.4017 H   0  0  0  0  0  0  0  0  0  0  0  0
  145.6866  131.3451  150.6408 H   0  0  0  0  0  0  0  0  0  0  0  0
  145.3532  132.3704  149.2623 H   0  0  0  0  0  0  0  0  0  0  0  0
  147.6211  131.9216  150.1095 H   0  0  0  0  0  0  0  0  0  0  0  0
  143.5420  131.7582  151.7890 H   0  0  0  0  0  0  0  0  0  0  0  0
  142.8928  133.3696  151.9374 H   0  0  0  0  0  0  0  0  0  0  0  0
  142.2110  133.2292  149.9790 H   0  0  0  0  0  0  0  0  0  0  0  0
  144.0743  135.1874  150.2925 H   0  0  0  0  0  0  0  0  0  0  0  0
  145.8676  135.1245  150.2584 H   0  0  0  0  0  0  0  0  0  0  0  0
  1  2  1  0  0  0  0
  1 27  1  0  0  0  0
  2  3  1  0  0  0  0
  2 28  1  0  0  0  0
  2 29  1  0  0  0  0
  3  8  1  0  0  0  0
  3  4  1  0  0  0  0
  3 30  1  0  0  0  0
  4  5  1  0  0  0  0
  4 31  1  0  0  0  0
  4 32  1  0  0  0  0
  5  9  1  0  0  0  0
  5  6  1  0  0  0  0
  5 33  1  0  0  0  0
  6  7  1  0  0  0  0
  6 34  1  0  0  0  0
  6 35  1  0  0  0  0
  7  8  1  0  0  0  0
  7 36  1  0  0  0  0
  7 37  1  0  0  0  0
  8  9  1  0  0  0  0
  8 38  1  0  0  0  0
  9 10  1  0  0  0  0
 10 15  1  0  0  0  0
 10 11  2  0  0  0  0
 11 12  1  0  0  0  0
 12 13  2  0  0  0  0
 12 39  1  0  0  0  0
 13 14  1  0  0  0  0
 14 18  1  0  0  0  0
 14 15  2  0  0  0  0
 15 16  1  0  0  0  0
 16 17  2  0  0  0  0
 17 18  1  0  0  0  0
 17 40  1  0  0  0  0
 18 19  1  0  0  0  0
 19 26  1  0  0  0  0
 19 20  1  0  0  0  0
 19 41  1  0  0  0  0
 20 21  1  0  0  0  0
 20 42  1  0  0  0  0
 20 43  1  0  0  0  0
 21 22  1  0  0  0  0
 21 24  1  0  0  0  0
 21 26  1  0  0  0  0
 22 23  1  0  0  0  0
 22 44  1  0  0  0  0
 22 45  1  0  0  0  0
 23 46  1  0  0  0  0
 24 25  1  0  0  0  0
 24 47  1  0  0  0  0
 24 48  1  0  0  0  0
 25 49  1  0  0  0  0
 26 50  1  0  0  0  0
 26 51  1  0  0  0  0
M  END
> <s_m_source_file>
AV-unprocessed.smi

> <i_m_source_file_index>
167

> <i_lp_mmshare_version>
43012

> <i_f3d_flags>
0

> <s_epik_input>
W09IXVtDSDJdW0NASF0oW0NIMl1bQ0BASF0xMilbQ0BIXShbQ0gyXVtDSDJdMSlOMmMobltjSF1uMyljKGMzNCluW2NIXW40W0NIXShbQ0gyXTUpW0NIMl1DNShbQ0gyXVtPSF0pW0NIMl1bT0hd

> <s_epik_cmdline>
J2VwaWtfcHl0aG9uJywgJy1waCcsICc3LjAnLCAnLXRuJywgJzgnLCAnLW1hJywgJzIwMCcsICctbWV0YWxfYmluZGluZycsICctaW1hZScsICc8aW5maWxlLm1hZT4nLCAnLW9tYWUnLCAnPG91dGZpbGUubWFlPic=

> <r_lp_tautomer_probability>
1

> <r_epik_Ionization_Penalty>
0.0047903

> <r_epik_Ionization_Penalty_Charging>
0

> <r_epik_Ionization_Penalty_Neutral>
0.0047903

> <r_epik_State_Penalty>
0.00341021

> <r_epik_Charging_Adjusted_Penalty>
0.00341021

> <i_epik_Tot_Q>
0

> <i_epik_Tot_abs_Q>
0

> <r_epik_Metal_State_Penalty>
-0

> <b_epik_Metal_Only>
0

> <s_lp_Force_Field>
OPLS_2005

> <r_lp_Energy>
89.3367

> <b_lp_Chiralities_Consistent>
1

> <s_lp_Variant>
AV-unprocessed.smi:167-3

> <Gold.Version>
5.8.1

> <Gold.Id.Protein>
6NUR|6NUR_protein|mol2

> <Gold.PLP.Fitness>
45.4710

> <Gold.PLP.PLP>
-34.9620

> <Gold.PLP.part.hbond>
-4.3267

> <Gold.PLP.part.metal>
0.0000

> <Gold.PLP.part.buried>
-4.4474

> <Gold.PLP.part.nonpolar>
-27.6067

> <Gold.PLP.part.repulsive>
0.4183

> <Gold.PLP.ligand.clash>
0.0000

> <Gold.PLP.ligand.torsion>
1.0031

> <Gold.PLP.Chemscore.Hbond>
3.0000

> <Gold.PLP.Chemscore.CHOScore>
1.0000

> <Gold.PLP.Chemscore.Metal>
0.0000

> <Gold.Chemscore.Hbonds>
donor molecule, donor type, donor heavy atom, donor atom, acceptor molecule, acceptor atom, score
      L1  H    23    46       P1 10747  1.00
      L1  H    25    49       P1 10186  1.00
      P1  H  7997  8009       L1     1  1.00
      L1  C    17    40       P1 10171  1.00

> <Gold.PLP.Chemscore.Internal.Correction>
0.5151

> <Gold.Rescore>
     Score         DG    S(hbond)    S(metal)    S(lipo)     H(rot)  DE(clash)    DE(int)     intcor
     11.89     -13.84       2.94        0.00      79.46       4.20       0.03       1.91       ----

> <Gold.Chemscore.Fitness>
11.8941

> <Gold.Chemscore.DG>
-13.8409

> <Gold.Chemscore.ZeroCoef>
-5.4800

> <Gold.Chemscore.Hbond>
2.9419

> <Gold.Chemscore.Metal>
0.0000

> <Gold.Chemscore.Lipo>
79.4588

> <Gold.Chemscore.Internal_Hbond>
0.0000

> <Gold.Chemscore.DEClash>
0.0348

> <Gold.Chemscore.DEInternal>
1.9120

> <Gold.Chemscore.Rot>
4.2038

> <Gold.Chemscore.Internal.Correction>
   9.000000E+99

> <Gold.Chemscore.Hbonds>
donor molecule, donor type, donor heavy atom, donor atom, acceptor molecule, acceptor atom, score
      L1  H    23    46       P1 10747  0.99
      L1  H    25    49       P1 10186  1.00
      P1  H  7997  8009       L1     1  0.68

> <Gold.Chemscore.Hbond.Weighted>
-9.8259

> <Gold.Chemscore.Metal.Weighted>
-0.0000

> <Gold.Chemscore.Lipo.Weighted>
-9.2967

> <Gold.Chemscore.Internal_Hbond.Weighted>
0.0000

> <Gold.Chemscore.DEClash.Weighted>
0.0348

> <Gold.Chemscore.DEInternal.Weighted>
1.9120

> <Gold.Chemscore.Rot.Weighted>
10.7617

> <Gold.Chemscore.Internal.Correction.Weighted>
   9.000000E+99

> <Gold.Protein.RotatedTorsions>
[ 6907 6896 6895 6894 ] final  -93.10 input  -60.11 | X-H torsion
[ 7974 7965 7964 7962 ] final -140.04 input  175.53 | X-H torsion
[ 8008 7997 7996 7995 ] final -154.61 input   59.86 | X-H torsion
[ 10167 10162 10161 10158 ] final   65.64 input  -65.29 | X-H torsion
[ 10718 10713 10712 10709 ] final  -26.04 input   66.30 | X-H torsion
[ 10763 10752 10751 10750 ] final    2.59 input  -60.55 | X-H torsion
[ 11005 11000 10999 10996 ] final   97.34 input  -57.11 | X-H torsion

> <Gold.Protein.ActiveResidues>
 VAL166  LYS551  ARG553  GLY616  TRP617  ASP618  TYR619  PRO620  LYS621  CYS622 
 ASP623  PHE694  ASN695  SER759  ASP760  ASP761  ALA762  ILE779  LEU786  VAL792 
 PHE793  MET794  SER795  GLU796  ALA797  LYS798  CYS799  TRP800  GLU811  SER814 

> <Gold.Protein.RotatedAtoms>
  150.6917  134.2019  159.4325 H   0  0  0  0  0  0  0  0  0  0  0  0  # atno 6907 bound_to 6896
  151.9985  134.9939  160.0573 H   0  0  0  0  0  0  0  0  0  0  0  0  # atno 6908 bound_to 6896
  152.1601  133.4541  159.4893 H   0  0  0  0  0  0  0  0  0  0  0  0  # atno 6909 bound_to 6896
  144.8629  140.6247  143.5317 H   0  0  0  0  0  0  0  0  0  0  0  0  # atno 7974 bound_to 7965
  155.6891  140.0753  157.2455 H   0  0  0  0  0  0  0  0  0  0  0  0  # atno 8008 bound_to 7997
  154.4092  140.1668  156.2119 H   0  0  0  0  0  0  0  0  0  0  0  0  # atno 8009 bound_to 7997
  155.9468  140.3380  155.6376 H   0  0  0  0  0  0  0  0  0  0  0  0  # atno 8010 bound_to 7997
  140.1091  144.4835  150.6989 H   0  0  0  0  0  0  0  0  0  0  0  0  # atno 10167 bound_to 10162
  156.4564  130.4494  149.6957 H   0  0  0  0  0  0  0  0  0  0  0  0  # atno 10718 bound_to 10713
  153.2937  135.6950  153.7269 H   0  0  0  0  0  0  0  0  0  0  0  0  # atno 10763 bound_to 10752
  153.6210  135.3427  155.3011 H   0  0  0  0  0  0  0  0  0  0  0  0  # atno 10764 bound_to 10752
  154.8531  135.4386  154.2027 H   0  0  0  0  0  0  0  0  0  0  0  0  # atno 10765 bound_to 10752
  139.8776  134.8996  156.4293 H   0  0  0  0  0  0  0  0  0  0  0  0  # atno 11005 bound_to 11000
  145.4278  139.1554  143.4039 LP  0  0  0  0  0  0  0  0  0  0  0  0  # atno 17320 bound_to 7965
  146.2874  140.4392  142.8753 LP  0  0  0  0  0  0  0  0  0  0  0  0  # atno 17321 bound_to 7965
  140.6936  143.2390  151.5064 LP  0  0  0  0  0  0  0  0  0  0  0  0  # atno 17342 bound_to 10162
  139.5629  144.2112  152.1720 LP  0  0  0  0  0  0  0  0  0  0  0  0  # atno 17343 bound_to 10162
  156.3762  130.7556  151.2544 LP  0  0  0  0  0  0  0  0  0  0  0  0  # atno 17370 bound_to 10713
  157.7500  131.0309  150.4156 LP  0  0  0  0  0  0  0  0  0  0  0  0  # atno 17371 bound_to 10713
  140.9078  133.7733  155.9756 LP  0  0  0  0  0  0  0  0  0  0  0  0  # atno 17394 bound_to 11000
  140.8580  134.2875  157.5247 LP  0  0  0  0  0  0  0  0  0  0  0  0  # atno 17395 bound_to 11000

$$$$
