AV-unprocessed.smi:3292|AV-procd|sdf|12627|dock10
  -GOLD-   2272018563D 1   1.00000     0.00000
 Structure written by MMmdl.
 38 39  0  0  0  0  0  0  0  0  1 V2000
  145.9824  133.0671  154.2401 C   0  0  0  0  0  0  0  0  0  0  0  0
  146.1287  133.8629  152.9363 C   0  0  2  0  0  0  0  0  0  0  0  0
  146.6914  132.9799  151.8007 C   0  0  0  0  0  0  0  0  0  0  0  0
  145.7103  132.6998  150.7674 N   0  0  0  0  0  0  0  0  0  0  0  0
  144.3620  133.0317  150.7789 C   0  0  0  0  0  0  0  0  0  0  0  0
  143.8378  132.5861  149.5865 C   0  0  0  0  0  0  0  0  0  0  0  0
  144.8370  131.9725  148.8342 N   0  0  0  0  0  0  0  0  0  0  0  0
  145.9153  132.0734  149.6001 C   0  0  0  0  0  0  0  0  0  0  0  0
  146.9966  135.0154  153.1765 N   0  0  0  0  0  0  0  0  0  0  0  0
  146.8541  135.9008  154.1735 C   0  0  0  0  0  0  0  0  0  0  0  0
  146.0131  135.8080  155.0679 O   0  0  0  0  0  0  0  0  0  0  0  0
  147.7051  136.9276  154.0500 N   0  0  0  0  0  0  0  0  0  0  0  0
  147.6908  138.1233  154.8855 C   0  0  0  0  0  0  0  0  0  0  0  0
  148.6648  139.2002  154.3650 C   0  0  1  0  0  0  0  0  0  0  0  0
  148.4940  140.5643  155.0254 C   0  0  0  0  0  0  0  0  0  0  0  0
  149.9258  141.0554  155.2638 C   0  0  0  0  0  0  0  0  0  0  0  0
  150.7522  140.1643  154.5302 O   0  0  0  0  0  0  0  0  0  0  0  0
  150.1433  138.8870  154.5965 C   0  0  0  0  0  0  0  0  0  0  0  0
  145.3174  132.2136  154.1052 H   0  0  0  0  0  0  0  0  0  0  0  0
  145.5640  133.6867  155.0338 H   0  0  0  0  0  0  0  0  0  0  0  0
  146.9449  132.6871  154.5849 H   0  0  0  0  0  0  0  0  0  0  0  0
  145.1313  134.2046  152.6532 H   0  0  0  0  0  0  0  0  0  0  0  0
  147.5609  133.4535  151.3420 H   0  0  0  0  0  0  0  0  0  0  0  0
  147.0330  132.0253  152.2026 H   0  0  0  0  0  0  0  0  0  0  0  0
  143.9034  133.5524  151.6065 H   0  0  0  0  0  0  0  0  0  0  0  0
  142.8265  132.6596  149.2151 H   0  0  0  0  0  0  0  0  0  0  0  0
  146.8807  131.6940  149.2989 H   0  0  0  0  0  0  0  0  0  0  0  0
  147.7224  135.1841  152.4953 H   0  0  0  0  0  0  0  0  0  0  0  0
  148.3643  136.9128  153.2855 H   0  0  0  0  0  0  0  0  0  0  0  0
  146.6773  138.5237  154.9435 H   0  0  0  0  0  0  0  0  0  0  0  0
  147.9653  137.8288  155.8988 H   0  0  0  0  0  0  0  0  0  0  0  0
  148.5186  139.3328  153.2916 H   0  0  0  0  0  0  0  0  0  0  0  0
  147.9438  141.2407  154.3705 H   0  0  0  0  0  0  0  0  0  0  0  0
  147.9518  140.5034  155.9698 H   0  0  0  0  0  0  0  0  0  0  0  0
  150.0748  142.0866  154.9432 H   0  0  0  0  0  0  0  0  0  0  0  0
  150.1814  140.9887  156.3224 H   0  0  0  0  0  0  0  0  0  0  0  0
  150.3099  138.4523  155.5838 H   0  0  0  0  0  0  0  0  0  0  0  0
  150.5530  138.2092  153.8473 H   0  0  0  0  0  0  0  0  0  0  0  0
  1  2  1  0  0  0  0
  1 19  1  0  0  0  0
  1 20  1  0  0  0  0
  1 21  1  0  0  0  0
  2  3  1  0  0  0  0
  2  9  1  0  0  0  0
  2 22  1  0  0  0  0
  3  4  1  0  0  0  0
  3 23  1  0  0  0  0
  3 24  1  0  0  0  0
  4  8  1  0  0  0  0
  4  5  1  0  0  0  0
  5  6  2  0  0  0  0
  5 25  1  0  0  0  0
  6  7  1  0  0  0  0
  6 26  1  0  0  0  0
  7  8  2  0  0  0  0
  8 27  1  0  0  0  0
  9 10  1  0  0  0  0
  9 28  1  0  0  0  0
 10 11  2  0  0  0  0
 10 12  1  0  0  0  0
 12 13  1  0  0  0  0
 12 29  1  0  0  0  0
 13 14  1  0  0  0  0
 13 30  1  0  0  0  0
 13 31  1  0  0  0  0
 14 18  1  0  0  0  0
 14 15  1  0  0  0  0
 14 32  1  0  0  0  0
 15 16  1  0  0  0  0
 15 33  1  0  0  0  0
 15 34  1  0  0  0  0
 16 17  1  0  0  0  0
 16 35  1  0  0  0  0
 16 36  1  0  0  0  0
 17 18  1  0  0  0  0
 18 37  1  0  0  0  0
 18 38  1  0  0  0  0
M  END
> <s_m_source_file>
AV-unprocessed.smi

> <i_m_source_file_index>
3292

> <i_lp_mmshare_version>
43012

> <i_f3d_flags>
0

> <s_epik_input>
W2NIXTFuW2NIXVtjSF1uMVtDSDJdW0NAQEhdKFtDSDNdKVtOSF1DKD1PKVtOSF1bQ0gyXVtDQEBIXTJbQ0gyXVtDSDJdT1tDSDJdMg==

> <s_epik_cmdline>
J2VwaWtfcHl0aG9uJywgJy1waCcsICc3LjAnLCAnLXRuJywgJzgnLCAnLW1hJywgJzIwMCcsICctbWV0YWxfYmluZGluZycsICctaW1hZScsICc8aW5maWxlLm1hZT4nLCAnLW9tYWUnLCAnPG91dGZpbGUubWFlPic=

> <r_lp_tautomer_probability>
1

> <r_epik_Ionization_Penalty>
0.621291

> <r_epik_Ionization_Penalty_Charging>
0.621234

> <r_epik_Ionization_Penalty_Neutral>
5.72199e-05

> <r_epik_State_Penalty>
0.637278

> <r_epik_Charging_Adjusted_Penalty>
1.25851

> <i_epik_Tot_Q>
0

> <i_epik_Tot_abs_Q>
0

> <r_epik_Metal_State_Penalty>
0.306757

> <b_epik_Metal_Only>
0

> <s_lp_Force_Field>
OPLS_2005

> <r_lp_Energy>
18.0695

> <b_lp_Chiralities_Consistent>
1

> <s_lp_Variant>
AV-unprocessed.smi:3292-7

> <Gold.Version>
5.8.1

> <Gold.Id.Protein>
6NUR|6NUR_protein|mol2

> <Gold.PLP.Fitness>
43.9147

> <Gold.PLP.PLP>
-30.7510

> <Gold.PLP.part.hbond>
-4.1757

> <Gold.PLP.part.metal>
0.0000

> <Gold.PLP.part.buried>
-4.5487

> <Gold.PLP.part.nonpolar>
-22.9863

> <Gold.PLP.part.repulsive>
0.3329

> <Gold.PLP.ligand.clash>
0.0000

> <Gold.PLP.ligand.torsion>
0.9210

> <Gold.PLP.Chemscore.Hbond>
2.9920

> <Gold.PLP.Chemscore.CHOScore>
2.0000

> <Gold.PLP.Chemscore.Metal>
0.0000

> <Gold.Chemscore.Hbonds>
donor molecule, donor type, donor heavy atom, donor atom, acceptor molecule, acceptor atom, score
      L1  H     9    28       P1  7948  1.00
      L1  H    12    29       P1  7948  1.00
      P1  H  7989  7998       L1    17  0.99
      L1  C     6    26       P1 10186  0.96
      L1  C     8    27       P1 10747  1.00

> <Gold.PLP.Chemscore.Internal.Correction>
0.0296

> <Gold.Rescore>
     Score         DG    S(hbond)    S(metal)    S(lipo)     H(rot)  DE(clash)    DE(int)     intcor
     14.34     -16.28       2.89        0.00      56.93       2.16       0.02       1.92       ----

> <Gold.Chemscore.Fitness>
14.3404

> <Gold.Chemscore.DG>
-16.2825

> <Gold.Chemscore.ZeroCoef>
-5.4800

> <Gold.Chemscore.Hbond>
2.8938

> <Gold.Chemscore.Metal>
0.0000

> <Gold.Chemscore.Lipo>
56.9323

> <Gold.Chemscore.Internal_Hbond>
0.0000

> <Gold.Chemscore.DEClash>
0.0197

> <Gold.Chemscore.DEInternal>
1.9224

> <Gold.Chemscore.Rot>
2.1577

> <Gold.Chemscore.Internal.Correction>
   9.000000E+99

> <Gold.Chemscore.Hbonds>
donor molecule, donor type, donor heavy atom, donor atom, acceptor molecule, acceptor atom, score
      L1  H     9    28       P1  7948  0.95
      L1  H    12    29       P1  7948  0.96
      P1  H  7989  7998       L1    17  0.79

> <Gold.Chemscore.Hbond.Weighted>
-9.6651

> <Gold.Chemscore.Metal.Weighted>
-0.0000

> <Gold.Chemscore.Lipo.Weighted>
-6.6611

> <Gold.Chemscore.Internal_Hbond.Weighted>
0.0000

> <Gold.Chemscore.DEClash.Weighted>
0.0197

> <Gold.Chemscore.DEInternal.Weighted>
1.9224

> <Gold.Chemscore.Rot.Weighted>
5.5237

> <Gold.Chemscore.Internal.Correction.Weighted>
   9.000000E+99

> <Gold.Protein.RotatedTorsions>
[ 6907 6896 6895 6894 ] final   48.31 input  -60.11 | X-H torsion
[ 7974 7965 7964 7962 ] final -165.74 input  175.53 | X-H torsion
[ 8008 7997 7996 7995 ] final -147.97 input   59.86 | X-H torsion
[ 10167 10162 10161 10158 ] final   76.46 input  -65.29 | X-H torsion
[ 10718 10713 10712 10709 ] final  174.27 input   66.30 | X-H torsion
[ 10763 10752 10751 10750 ] final  114.99 input  -60.55 | X-H torsion
[ 11005 11000 10999 10996 ] final    9.23 input  -57.11 | X-H torsion

> <Gold.Protein.ActiveResidues>
 VAL166  LYS551  ARG553  GLY616  TRP617  ASP618  TYR619  PRO620  LYS621  CYS622 
 ASP623  PHE694  ASN695  SER759  ASP760  ASP761  ALA762  ILE779  LEU786  VAL792 
 PHE793  MET794  SER795  GLU796  ALA797  LYS798  CYS799  TRP800  GLU811  SER814 

> <Gold.Protein.RotatedAtoms>
  152.2781  134.7859  160.0401 H   0  0  0  0  0  0  0  0  0  0  0  0  # atno 6907 bound_to 6896
  151.8448  133.3424  159.3663 H   0  0  0  0  0  0  0  0  0  0  0  0  # atno 6908 bound_to 6896
  150.7178  134.5284  159.5732 H   0  0  0  0  0  0  0  0  0  0  0  0  # atno 6909 bound_to 6896
  144.7262  140.2769  143.6242 H   0  0  0  0  0  0  0  0  0  0  0  0  # atno 7974 bound_to 7965
  155.5841  140.0646  157.2775 H   0  0  0  0  0  0  0  0  0  0  0  0  # atno 8008 bound_to 7997
  154.4324  140.1847  156.1053 H   0  0  0  0  0  0  0  0  0  0  0  0  # atno 8009 bound_to 7997
  156.0283  140.3309  155.7115 H   0  0  0  0  0  0  0  0  0  0  0  0  # atno 8010 bound_to 7997
  139.9920  144.5750  150.7810 H   0  0  0  0  0  0  0  0  0  0  0  0  # atno 10167 bound_to 10162
  156.9520  131.0034  151.2946 H   0  0  0  0  0  0  0  0  0  0  0  0  # atno 10718 bound_to 10713
  153.5155  135.3609  155.2607 H   0  0  0  0  0  0  0  0  0  0  0  0  # atno 10763 bound_to 10752
  154.8739  135.4033  154.3320 H   0  0  0  0  0  0  0  0  0  0  0  0  # atno 10764 bound_to 10752
  153.3981  135.7074  153.6513 H   0  0  0  0  0  0  0  0  0  0  0  0  # atno 10765 bound_to 10752
  140.5281  134.0493  155.7865 H   0  0  0  0  0  0  0  0  0  0  0  0  # atno 11005 bound_to 11000
  145.7987  139.1955  143.2060 LP  0  0  0  0  0  0  0  0  0  0  0  0  # atno 17320 bound_to 7965
  146.0695  140.7885  142.9695 LP  0  0  0  0  0  0  0  0  0  0  0  0  # atno 17321 bound_to 7965
  140.7451  143.2871  151.3434 LP  0  0  0  0  0  0  0  0  0  0  0  0  # atno 17342 bound_to 10162
  139.6333  144.0678  152.2495 LP  0  0  0  0  0  0  0  0  0  0  0  0  # atno 17343 bound_to 10162
  157.5715  130.8314  149.8398 LP  0  0  0  0  0  0  0  0  0  0  0  0  # atno 17370 bound_to 10713
  156.0358  130.3751  150.1563 LP  0  0  0  0  0  0  0  0  0  0  0  0  # atno 17371 bound_to 10713
  141.1297  133.9323  157.2561 LP  0  0  0  0  0  0  0  0  0  0  0  0  # atno 17394 bound_to 11000
  139.9569  135.0163  156.9154 LP  0  0  0  0  0  0  0  0  0  0  0  0  # atno 17395 bound_to 11000

$$$$
