AV-unprocessed.smi:3300|AV-procd|sdf|12651|dock7
  -GOLD-   2272018583D 1   1.00000     0.00000
 Structure written by MMmdl.
 36 37  0  0  0  0  0  0  0  0  1 V2000
  150.1015  135.4971  155.1726 C   0  0  0  0  0  0  0  0  0  0  0  0
  150.9892  135.8257  156.3785 C   0  0  0  0  0  0  0  0  0  0  0  0
  151.5817  137.2201  156.2940 C   0  0  0  0  0  0  0  0  0  0  0  0
  152.2960  137.5100  155.1836 N   0  0  0  0  0  0  0  0  0  0  0  0
  152.8129  138.7383  155.1043 C   0  0  0  0  0  0  0  0  0  0  0  0
  152.6955  139.7141  156.0080 N   0  0  0  0  0  0  0  0  0  0  0  0
  151.9706  139.4457  157.1221 C   0  0  0  0  0  0  0  0  0  0  0  0
  151.8365  140.4402  158.1094 N   0  0  0  0  0  0  0  0  0  0  0  0
  153.0926  140.5651  158.8418 C   0  0  0  0  0  0  0  0  0  0  0  0
  152.9382  141.5306  160.0232 C   0  0  0  0  0  0  0  0  0  0  0  0
  152.4862  142.7843  159.5330 O   0  0  0  0  0  0  0  0  0  0  0  0
  151.2061  142.6779  158.9222 C   0  0  0  0  0  0  0  0  0  0  0  0
  151.2527  141.7270  157.7008 C   0  0  2  0  0  0  0  0  0  0  0  0
  149.8381  141.5560  157.0869 C   0  0  0  0  0  0  0  0  0  0  0  0
  149.8305  141.4515  155.5532 C   0  0  0  0  0  0  0  0  0  0  0  0
  148.5993  141.9220  155.0483 O   0  0  0  0  0  0  0  0  0  0  0  0
  151.3854  138.1738  157.3165 C   0  0  0  0  0  0  0  0  0  0  0  0
  150.6636  137.8867  158.4276 F   0  0  0  0  0  0  0  0  0  0  0  0
  149.6880  134.4920  155.2572 H   0  0  0  0  0  0  0  0  0  0  0  0
  150.6662  135.5472  154.2413 H   0  0  0  0  0  0  0  0  0  0  0  0
  149.2678  136.1959  155.0973 H   0  0  0  0  0  0  0  0  0  0  0  0
  150.4136  135.7277  157.2994 H   0  0  0  0  0  0  0  0  0  0  0  0
  151.7997  135.0992  156.4479 H   0  0  0  0  0  0  0  0  0  0  0  0
  153.3872  138.9658  154.2185 H   0  0  0  0  0  0  0  0  0  0  0  0
  153.4147  139.5896  159.2091 H   0  0  0  0  0  0  0  0  0  0  0  0
  153.8702  140.9268  158.1671 H   0  0  0  0  0  0  0  0  0  0  0  0
  152.2416  141.1371  160.7656 H   0  0  0  0  0  0  0  0  0  0  0  0
  153.8964  141.6686  160.5242 H   0  0  0  0  0  0  0  0  0  0  0  0
  150.4747  142.3363  159.6569 H   0  0  0  0  0  0  0  0  0  0  0  0
  150.9052  143.6802  158.6199 H   0  0  0  0  0  0  0  0  0  0  0  0
  151.9105  142.1711  156.9522 H   0  0  0  0  0  0  0  0  0  0  0  0
  149.3637  140.6542  157.4737 H   0  0  0  0  0  0  0  0  0  0  0  0
  149.2015  142.3840  157.4023 H   0  0  0  0  0  0  0  0  0  0  0  0
  150.6310  142.0412  155.1076 H   0  0  0  0  0  0  0  0  0  0  0  0
  149.9688  140.4166  155.2385 H   0  0  0  0  0  0  0  0  0  0  0  0
  148.6328  142.8654  155.0031 H   0  0  0  0  0  0  0  0  0  0  0  0
  1  2  1  0  0  0  0
  1 19  1  0  0  0  0
  1 20  1  0  0  0  0
  1 21  1  0  0  0  0
  2  3  1  0  0  0  0
  2 22  1  0  0  0  0
  2 23  1  0  0  0  0
  3 17  1  0  0  0  0
  3  4  2  0  0  0  0
  4  5  1  0  0  0  0
  5  6  2  0  0  0  0
  5 24  1  0  0  0  0
  6  7  1  0  0  0  0
  7  8  1  0  0  0  0
  7 17  2  0  0  0  0
  8 13  1  0  0  0  0
  8  9  1  0  0  0  0
  9 10  1  0  0  0  0
  9 25  1  0  0  0  0
  9 26  1  0  0  0  0
 10 11  1  0  0  0  0
 10 27  1  0  0  0  0
 10 28  1  0  0  0  0
 11 12  1  0  0  0  0
 12 13  1  0  0  0  0
 12 29  1  0  0  0  0
 12 30  1  0  0  0  0
 13 14  1  0  0  0  0
 13 31  1  0  0  0  0
 14 15  1  0  0  0  0
 14 32  1  0  0  0  0
 14 33  1  0  0  0  0
 15 16  1  0  0  0  0
 15 34  1  0  0  0  0
 15 35  1  0  0  0  0
 16 36  1  0  0  0  0
 17 18  1  0  0  0  0
M  END
> <s_m_source_file>
AV-unprocessed.smi

> <i_m_source_file_index>
3300

> <i_lp_mmshare_version>
43012

> <i_f3d_flags>
0

> <s_epik_input>
W0NIM11bQ0gyXWMxbltjSF1uYyhjMUYpTjJbQ0gyXVtDSDJdT1tDSDJdW0NASF0yW0NIMl1bQ0gyXVtPSF0=

> <s_epik_cmdline>
J2VwaWtfcHl0aG9uJywgJy1waCcsICc3LjAnLCAnLXRuJywgJzgnLCAnLW1hJywgJzIwMCcsICctbWV0YWxfYmluZGluZycsICctaW1hZScsICc8aW5maWxlLm1hZT4nLCAnLW9tYWUnLCAnPG91dGZpbGUubWFlPic=

> <r_lp_tautomer_probability>
1

> <r_epik_Ionization_Penalty>
2.51351e-05

> <r_epik_Ionization_Penalty_Charging>
0

> <r_epik_Ionization_Penalty_Neutral>
2.51351e-05

> <r_epik_State_Penalty>
-0

> <r_epik_Charging_Adjusted_Penalty>
0

> <i_epik_Tot_Q>
0

> <i_epik_Tot_abs_Q>
0

> <r_epik_Metal_State_Penalty>
-0

> <b_epik_Metal_Only>
0

> <s_lp_Force_Field>
OPLS_2005

> <r_lp_Energy>
16.3992

> <b_lp_Chiralities_Consistent>
1

> <s_lp_Variant>
AV-unprocessed.smi:3300-2

> <Gold.Version>
5.8.1

> <Gold.Id.Protein>
6NUR|6NUR_protein|mol2

> <Gold.PLP.Fitness>
35.3931

> <Gold.PLP.PLP>
-28.6818

> <Gold.PLP.part.hbond>
-3.0000

> <Gold.PLP.part.metal>
0.0000

> <Gold.PLP.part.buried>
-6.7211

> <Gold.PLP.part.nonpolar>
-19.7221

> <Gold.PLP.part.repulsive>
0.0467

> <Gold.PLP.ligand.clash>
0.0000

> <Gold.PLP.ligand.torsion>
0.8592

> <Gold.PLP.Chemscore.Hbond>
2.7613

> <Gold.PLP.Chemscore.CHOScore>
0.0000

> <Gold.PLP.Chemscore.Metal>
0.0000

> <Gold.Chemscore.Hbonds>
donor molecule, donor type, donor heavy atom, donor atom, acceptor molecule, acceptor atom, score
      L1  H    16    36       P1  8028  1.00
      P1  H  7997  8010       L1     6  1.00
      P1  H 10752 10764       L1     4  0.50

> <Gold.PLP.Chemscore.Internal.Correction>
0.1458

> <Gold.Rescore>
     Score         DG    S(hbond)    S(metal)    S(lipo)     H(rot)  DE(clash)    DE(int)     intcor
     14.70     -15.63       2.60        0.00      63.74       2.35       0.08       0.85       ----

> <Gold.Chemscore.Fitness>
14.6968

> <Gold.Chemscore.DG>
-15.6264

> <Gold.Chemscore.ZeroCoef>
-5.4800

> <Gold.Chemscore.Hbond>
2.6029

> <Gold.Chemscore.Metal>
0.0000

> <Gold.Chemscore.Lipo>
63.7406

> <Gold.Chemscore.Internal_Hbond>
0.0000

> <Gold.Chemscore.DEClash>
0.0753

> <Gold.Chemscore.DEInternal>
0.8544

> <Gold.Chemscore.Rot>
2.3458

> <Gold.Chemscore.Internal.Correction>
   9.000000E+99

> <Gold.Chemscore.Hbonds>
donor molecule, donor type, donor heavy atom, donor atom, acceptor molecule, acceptor atom, score
      L1  H    16    36       P1  8028  0.97
      P1  H  7997  8010       L1     6  0.25
      P1  H 10752 10764       L1     4  0.10

> <Gold.Chemscore.Hbond.Weighted>
-8.6938

> <Gold.Chemscore.Metal.Weighted>
-0.0000

> <Gold.Chemscore.Lipo.Weighted>
-7.4577

> <Gold.Chemscore.Internal_Hbond.Weighted>
0.0000

> <Gold.Chemscore.DEClash.Weighted>
0.0753

> <Gold.Chemscore.DEInternal.Weighted>
0.8544

> <Gold.Chemscore.Rot.Weighted>
6.0051

> <Gold.Chemscore.Internal.Correction.Weighted>
   9.000000E+99

> <Gold.Protein.RotatedTorsions>
[ 6907 6896 6895 6894 ] final  172.82 input  -60.11 | X-H torsion
[ 7974 7965 7964 7962 ] final -121.62 input  175.53 | X-H torsion
[ 8008 7997 7996 7995 ] final   87.40 input   59.86 | X-H torsion
[ 10167 10162 10161 10158 ] final   28.30 input  -65.29 | X-H torsion
[ 10718 10713 10712 10709 ] final   50.86 input   66.30 | X-H torsion
[ 10763 10752 10751 10750 ] final  -48.00 input  -60.55 | X-H torsion
[ 11005 11000 10999 10996 ] final    2.17 input  -57.11 | X-H torsion

> <Gold.Protein.ActiveResidues>
 VAL166  LYS551  ARG553  GLY616  TRP617  ASP618  TYR619  PRO620  LYS621  CYS622 
 ASP623  PHE694  ASN695  SER759  ASP760  ASP761  ALA762  ILE779  LEU786  VAL792 
 PHE793  MET794  SER795  GLU796  ALA797  LYS798  CYS799  TRP800  GLU811  SER814 

> <Gold.Protein.RotatedAtoms>
  151.7782  133.3347  159.3463 H   0  0  0  0  0  0  0  0  0  0  0  0  # atno 6907 bound_to 6896
  150.7436  134.5956  159.6019 H   0  0  0  0  0  0  0  0  0  0  0  0  # atno 6908 bound_to 6896
  152.3294  134.7280  160.0345 H   0  0  0  0  0  0  0  0  0  0  0  0  # atno 6909 bound_to 6896
  145.0384  140.8124  143.4281 H   0  0  0  0  0  0  0  0  0  0  0  0  # atno 7974 bound_to 7965
  155.9749  140.3382  155.6609 H   0  0  0  0  0  0  0  0  0  0  0  0  # atno 8008 bound_to 7997
  155.6626  140.0718  157.2567 H   0  0  0  0  0  0  0  0  0  0  0  0  # atno 8009 bound_to 7997
  154.4176  140.1706  156.1780 H   0  0  0  0  0  0  0  0  0  0  0  0  # atno 8010 bound_to 7997
  140.4865  144.0535  150.6282 H   0  0  0  0  0  0  0  0  0  0  0  0  # atno 10167 bound_to 10162
  157.4926  130.8385  149.8220 H   0  0  0  0  0  0  0  0  0  0  0  0  # atno 10718 bound_to 10713
  154.0707  135.6605  153.4824 H   0  0  0  0  0  0  0  0  0  0  0  0  # atno 10763 bound_to 10752
  153.0392  135.5156  154.7570 H   0  0  0  0  0  0  0  0  0  0  0  0  # atno 10764 bound_to 10752
  154.6634  135.3018  154.9804 H   0  0  0  0  0  0  0  0  0  0  0  0  # atno 10765 bound_to 10752
  140.6073  133.9781  155.8160 H   0  0  0  0  0  0  0  0  0  0  0  0  # atno 11005 bound_to 11000
  145.1680  139.2420  143.5357 LP  0  0  0  0  0  0  0  0  0  0  0  0  # atno 17320 bound_to 7965
  146.3506  140.1423  142.8594 LP  0  0  0  0  0  0  0  0  0  0  0  0  # atno 17321 bound_to 7965
  140.3792  143.2812  152.0190 LP  0  0  0  0  0  0  0  0  0  0  0  0  # atno 17342 bound_to 10162
  139.4843  144.6169  151.7330 LP  0  0  0  0  0  0  0  0  0  0  0  0  # atno 17343 bound_to 10162
  156.0182  130.3805  150.2045 LP  0  0  0  0  0  0  0  0  0  0  0  0  # atno 17370 bound_to 10713
  157.0233  130.9986  151.3333 LP  0  0  0  0  0  0  0  0  0  0  0  0  # atno 17371 bound_to 10713
  141.0832  134.0031  157.3354 LP  0  0  0  0  0  0  0  0  0  0  0  0  # atno 17394 bound_to 11000
  139.9207  135.0200  156.8053 LP  0  0  0  0  0  0  0  0  0  0  0  0  # atno 17395 bound_to 11000

$$$$
