#       Name:                AV-unprocessed.smi:1165
#       Creating user name   scv26
#       Creation time:       Fri Mar 27 03:51:47 2020


#       File generated by GOLD software.
#

@<TRIPOS>MOLECULE
AV-unprocessed.smi:1165
    45    46     1
SMALL
NO_CHARGES


@<TRIPOS>ATOM
      1 ****        -2.7472   2.7888  -1.2009 C.3            1 S1                 0.0000
      2 ****        -3.3110   2.1960   0.1035 C.3            1 S1                 0.0000
      3 ****        -3.1361   0.6684   0.1980 C.3            1 S1                 0.0000
      4 ****        -1.7437   0.3105   0.5070 N.3            1 S1                 0.0000
      5 ****        -1.2589  -1.3454   0.2668 S.o2           1 S1                 0.0000
      6 ****        -1.5623  -2.0242   1.5360 O.2            1 S1                 0.0000
      7 ****        -1.9567  -1.8223  -0.9398 O.2            1 S1                 0.0000
      8 ****         0.3386  -1.1102   0.0525 N.pl3          1 S1                -1.0000
      9 ****         0.8683  -0.5821  -1.2010 C.3            1 S1                 0.0000
     10 ****         2.4118  -0.6016  -1.1828 C.3            1 S1                 0.0000
     11 ****         3.0290  -1.9963  -1.1622 C.ar           1 S1                 0.0000
     12 ****         3.3901  -2.6134   0.0554 C.ar           1 S1                 0.0000
     13 ****         3.9624  -3.8995   0.0237 C.ar           1 S1                 0.0000
     14 ****         4.1551  -4.5162  -1.2281 C.ar           1 S1                 0.0000
     15 ****         3.8232  -3.9356  -2.4011 N.ar           1 S1                 0.0000
     16 ****         3.2722  -2.7031  -2.3612 C.ar           1 S1                 0.0000
     17 ****        -1.2199   1.0263   1.6830 C.3            1 S1                 0.0000
     18 ****        -1.4112   2.5440   1.5248 C.3            1 S1                 0.0000
     19 ****        -1.0013   3.3063   2.7900 C.3            1 S1                 0.0000
     20 ****        -2.7793   2.8366   1.2611 O.3            1 S1                 0.0000
     21 ****        -3.2753   2.3872  -2.0661 H              1 S1                 0.0000
     22 ****        -1.6904   2.5592  -1.3360 H              1 S1                 0.0000
     23 ****        -2.8616   3.8727  -1.2188 H              1 S1                 0.0000
     24 ****        -4.3806   2.4075   0.1077 H              1 S1                 0.0000
     25 ****        -3.7786   0.2648   0.9813 H              1 S1                 0.0000
     26 ****        -3.4475   0.2035  -0.7369 H              1 S1                 0.0000
     27 ****         0.5172  -1.1476  -2.0645 H              1 S1                 0.0000
     28 ****         0.5362   0.4438  -1.3632 H              1 S1                 0.0000
     29 ****         2.7833  -0.0814  -2.0663 H              1 S1                 0.0000
     30 ****         2.7817  -0.0335  -0.3280 H              1 S1                 0.0000
     31 ****         3.2252  -2.1118   0.9978 H              1 S1                 0.0000
     32 ****         4.2436  -4.4017   0.9373 H              1 S1                 0.0000
     33 ****         4.5903  -5.5027  -1.2891 H              1 S1                 0.0000
     34 ****         3.0165  -2.2673  -3.3159 H              1 S1                 0.0000
     35 ****        -1.7388   0.6653   2.5719 H              1 S1                 0.0000
     36 ****        -0.1627   0.8037   1.8234 H              1 S1                 0.0000
     37 ****        -0.7923   2.9032   0.7022 H              1 S1                 0.0000
     38 ****         0.0459   3.1262   3.0343 H              1 S1                 0.0000
     39 ****        -1.6021   3.0009   3.6470 H              1 S1                 0.0000
     40 ****        -1.1314   4.3804   2.6572 H              1 S1                 0.0000
     41 ****        -1.2145   0.6846  -0.2545 LP             1 S1                 0.0000
     42 ****         0.9699  -1.3323   0.7955 LP             1 S1                 0.0000
     43 ****         3.9802  -4.4029  -3.2711 LP             1 S1                 0.0000
     44 ****        -3.3182   2.5479   2.0525 LP             1 S1                 0.0000
     45 ****        -2.8690   3.8251   1.1394 LP             1 S1                 0.0000
@<TRIPOS>BOND
    1    1    2 1     
    2    1   21 1     
    3    1   22 1     
    4    1   23 1     
    5    2   20 1     
    6    2    3 1     
    7    2   24 1     
    8    3    4 1     
    9    3   25 1     
   10    3   26 1     
   11    4    5 1     
   12    4   17 1     
   13    5    6 2     
   14    5    7 2     
   15    5    8 1     
   16    8    9 1     
   17    9   10 1     
   18    9   27 1     
   19    9   28 1     
   20   10   11 1     
   21   10   29 1     
   22   10   30 1     
   23   11   16 ar    
   24   11   12 ar    
   25   12   13 ar    
   26   12   31 1     
   27   13   14 ar    
   28   13   32 1     
   29   14   15 ar    
   30   14   33 1     
   31   15   16 ar    
   32   16   34 1     
   33   17   18 1     
   34   17   35 1     
   35   17   36 1     
   36   18   19 1     
   37   18   20 1     
   38   18   37 1     
   39   19   38 1     
   40   19   39 1     
   41   19   40 1     
   42    4   41 1     
   43    8   42 1     
   44   15   43 1     
   45   20   44 1     
   46   20   45 1     
@<TRIPOS>SUBSTRUCTURE
      1 S1             1
@<TRIPOS>SET
LONE_PAIRS      STATIC     ATOMS    <user>   **** ""
7 41 6 7 42 43 44 45
ATOM$BLUE        STATIC     ATOMS    COLORGROUP SYSTEM
7 41 6 7 42 43 44 45
