#       Name:                AV-unprocessed.smi:2477
#       Creating user name   scv26
#       Creation time:       Fri Mar 27 13:40:06 2020


#       File generated by GOLD software.
#

@<TRIPOS>MOLECULE
AV-unprocessed.smi:2477
    57    59     1
SMALL
NO_CHARGES


@<TRIPOS>ATOM
      1 ****        -6.3604   1.1821  -1.4389 C.3            1 S1                 0.0000
      2 ****        -5.0305   1.7479  -1.1973 N.am           1 S1                 0.0000
      3 ****        -4.9630   3.0612  -0.7025 C.2            1 S1                 0.0000
      4 ****        -3.7898   3.6596  -0.4543 C.2            1 S1                 0.0000
      5 ****        -2.5756   2.9215  -0.7072 C.2            1 S1                 0.0000
      6 ****        -2.6176   1.6484  -1.1754 C.2            1 S1                 0.0000
      7 ****        -1.4883   0.8582  -1.4538 N.am           1 S1                 0.0000
      8 ****        -0.2036   1.0432  -1.0983 C.2            1 S1                 0.0000
      9 ****         0.2319   1.9762  -0.4245 O.2            1 S1                 0.0000
     10 ****         0.5628   0.0402  -1.5510 N.am           1 S1                 0.0000
     11 ****         1.9922  -0.1227  -1.2933 C.3            1 S1                 0.0000
     12 ****         2.6620  -0.6951  -2.5583 C.3            1 S1                 0.0000
     13 ****         4.1560  -0.9777  -2.3363 C.3            1 S1                 0.0000
     14 ****         4.3700  -1.9111  -1.1360 C.3            1 S1                 0.0000
     15 ****         3.7228  -1.3319   0.1300 C.3            1 S1                 0.0000
     16 ****         2.2235  -1.0522  -0.0777 C.3            1 S1                 0.0000
     17 ****         1.7507  -0.4159   1.1044 O.3            1 S1                 0.0000
     18 ****         0.6052  -1.0178   1.6967 C.3            1 S1                 0.0000
     19 ****         0.0384  -0.0409   2.7277 C.3            1 S1                 0.0000
     20 ****         0.8634  -0.2605   4.0029 C.3            1 S1                 0.0000
     21 ****         1.5559  -1.6230   3.8432 C.3            1 S1                 0.0000
     22 ****         1.0117  -2.2260   2.5452 C.3            1 S1                 0.0000
     23 ****        -3.9152   1.0004  -1.4511 C.2            1 S1                 0.0000
     24 ****        -4.0045  -0.1508  -1.8857 O.2            1 S1                 0.0000
     25 ****        -7.1647   1.8766  -1.1946 H              1 S1                 0.0000
     26 ****        -6.5113   0.2864  -0.8346 H              1 S1                 0.0000
     27 ****        -6.4762   0.9081  -2.4884 H              1 S1                 0.0000
     28 ****        -5.9141   3.5463  -0.5389 H              1 S1                 0.0000
     29 ****        -3.7536   4.6694  -0.0728 H              1 S1                 0.0000
     30 ****        -1.6450   3.4317  -0.5207 H              1 S1                 0.0000
     31 ****        -1.6910   0.0080  -1.9593 H              1 S1                 0.0000
     32 ****         0.1178  -0.6858  -2.0928 H              1 S1                 0.0000
     33 ****         2.4461   0.8484  -1.0862 H              1 S1                 0.0000
     34 ****         2.1637  -1.6194  -2.8546 H              1 S1                 0.0000
     35 ****         2.5417  -0.0004  -3.3904 H              1 S1                 0.0000
     36 ****         4.5882  -1.4209  -3.2339 H              1 S1                 0.0000
     37 ****         4.6851  -0.0386  -2.1694 H              1 S1                 0.0000
     38 ****         3.9424  -2.8912  -1.3509 H              1 S1                 0.0000
     39 ****         5.4363  -2.0670  -0.9707 H              1 S1                 0.0000
     40 ****         3.8605  -2.0212   0.9636 H              1 S1                 0.0000
     41 ****         4.2326  -0.4084   0.4075 H              1 S1                 0.0000
     42 ****         1.7186  -2.0054  -0.2504 H              1 S1                 0.0000
     43 ****        -0.1414  -1.2665   0.9410 H              1 S1                 0.0000
     44 ****         0.0597   0.9936   2.3832 H              1 S1                 0.0000
     45 ****        -1.0034  -0.2944   2.9269 H              1 S1                 0.0000
     46 ****         1.6110   0.5258   4.1143 H              1 S1                 0.0000
     47 ****         0.2267  -0.2327   4.8880 H              1 S1                 0.0000
     48 ****         2.6332  -1.4756   3.7552 H              1 S1                 0.0000
     49 ****         1.3843  -2.2775   4.6983 H              1 S1                 0.0000
     50 ****         0.1257  -2.8223   2.7673 H              1 S1                 0.0000
     51 ****         1.7297  -2.8824   2.0533 H              1 S1                 0.0000
     52 ****        -0.3900   2.6841  -0.0896 LP             1 S1                 0.0000
     53 ****         1.2077   2.0266  -0.2118 LP             1 S1                 0.0000
     54 ****         1.5206   0.5302   0.8762 LP             1 S1                 0.0000
     55 ****         2.4894  -0.4259   1.7784 LP             1 S1                 0.0000
     56 ****        -4.9042  -0.5517  -2.0581 LP             1 S1                 0.0000
     57 ****        -3.1772  -0.6829  -2.0655 LP             1 S1                 0.0000
@<TRIPOS>BOND
    1    1    2 1     
    2    1   25 1     
    3    1   26 1     
    4    1   27 1     
    5    2   23 am    
    6    2    3 1     
    7    3    4 2     
    8    3   28 1     
    9    4    5 1     
   10    4   29 1     
   11    5    6 2     
   12    5   30 1     
   13    6    7 1     
   14    6   23 1     
   15    7    8 am    
   16    7   31 1     
   17    8    9 2     
   18    8   10 am    
   19   10   11 1     
   20   10   32 1     
   21   11   16 1     
   22   11   12 1     
   23   11   33 1     
   24   12   13 1     
   25   12   34 1     
   26   12   35 1     
   27   13   14 1     
   28   13   36 1     
   29   13   37 1     
   30   14   15 1     
   31   14   38 1     
   32   14   39 1     
   33   15   16 1     
   34   15   40 1     
   35   15   41 1     
   36   16   17 1     
   37   16   42 1     
   38   17   18 1     
   39   18   22 1     
   40   18   19 1     
   41   18   43 1     
   42   19   20 1     
   43   19   44 1     
   44   19   45 1     
   45   20   21 1     
   46   20   46 1     
   47   20   47 1     
   48   21   22 1     
   49   21   48 1     
   50   21   49 1     
   51   22   50 1     
   52   22   51 1     
   53   23   24 2     
   54    9   52 1     
   55    9   53 1     
   56   17   54 1     
   57   17   55 1     
   58   24   56 1     
   59   24   57 1     
@<TRIPOS>SUBSTRUCTURE
      1 S1             1
@<TRIPOS>SET
LONE_PAIRS      STATIC     ATOMS    <user>   **** ""
6 52 53 54 55 56 57
DONOR_HYDROGENS      STATIC     ATOMS    <user>   **** ""
2 31 32
ATOM$BLUE        STATIC     ATOMS    COLORGROUP SYSTEM
6 52 53 54 55 56 57
ATOM$RED        STATIC     ATOMS    COLORGROUP SYSTEM
2 31 32
