AV-unprocessed.smi:102|AV-procd|sdf|965|dock5
  -GOLD-   2262017513D 1   1.00000     0.00000
 Structure written by MMmdl.
 43 44  0  0  0  0  0  0  0  0  2 V2000
  147.5298  142.3258  154.4968 C   0  0  0  0  0  0  0  0  0  0  0  0
  148.3710  141.0567  154.5516 C   0  0  0  0  0  0  0  0  0  0  0  0
  147.9057  139.9657  154.2218 O   0  0  0  0  0  0  0  0  0  0  0  0
  149.6201  141.2831  154.9858 O   0  0  0  0  0  0  0  0  0  0  0  0
  150.5290  140.2006  155.0986 C   0  0  0  0  0  0  0  0  0  0  0  0
  151.4457  140.4255  156.3108 C   0  0  2  0  0  0  0  0  0  0  0  0
  152.2264  139.2604  156.5398 O   0  0  0  0  0  0  0  0  0  0  0  0
  151.5374  138.4146  157.4033 C   0  0  1  0  0  0  0  0  0  0  0  0
  152.5279  137.5769  158.1720 N   0  0  0  0  0  0  0  0  0  0  0  0
  153.2873  138.1399  159.1829 C   0  0  0  0  0  0  0  0  0  0  0  0
  154.1573  137.3980  159.8980 C   0  0  0  0  0  0  0  0  0  0  0  0
  154.8820  137.9711  160.8741 F   0  0  0  0  0  0  0  0  0  0  0  0
  154.2996  135.9722  159.6085 C   0  0  0  0  0  0  0  0  0  0  0  0
  155.1027  135.3027  160.2561 O   0  0  0  0  0  0  0  0  0  0  0  0
  153.5214  135.4408  158.6213 N   0  5  0  0  0  0  0  0  0  0  0  0
  152.6327  136.1862  157.9006 C   0  0  0  0  0  0  0  0  0  0  0  0
  151.9071  135.7099  157.0277 O   0  0  0  0  0  0  0  0  0  0  0  0
  150.7352  139.2999  158.3567 C   0  0  2  0  0  0  0  0  0  0  0  0
  149.4503  138.7387  158.5836 O   0  0  0  0  0  0  0  0  0  0  0  0
  149.3363  137.5331  159.1648 C   0  0  0  0  0  0  0  0  0  0  0  0
  147.8847  137.1076  159.3399 C   0  0  0  0  0  0  0  0  0  0  0  0
  150.2657  136.8178  159.5396 O   0  0  0  0  0  0  0  0  0  0  0  0
  150.6468  140.6273  157.6089 C   0  0  1  0  0  0  0  0  0  0  0  0
  151.2094  141.6511  158.4199 O   0  0  0  0  0  0  0  0  0  0  0  0
  151.4649  142.8643  157.9014 C   0  0  0  0  0  0  0  0  0  0  0  0
  152.1398  143.7929  158.9021 C   0  0  0  0  0  0  0  0  0  0  0  0
  151.2096  143.2315  156.7544 O   0  0  0  0  0  0  0  0  0  0  0  0
  148.0862  143.1810  154.8811 H   0  0  0  0  0  0  0  0  0  0  0  0
  146.6269  142.2050  155.0953 H   0  0  0  0  0  0  0  0  0  0  0  0
  147.2369  142.5389  153.4687 H   0  0  0  0  0  0  0  0  0  0  0  0
  149.9606  139.2796  155.2374 H   0  0  0  0  0  0  0  0  0  0  0  0
  151.1103  140.0897  154.1823 H   0  0  0  0  0  0  0  0  0  0  0  0
  152.1004  141.2755  156.1139 H   0  0  0  0  0  0  0  0  0  0  0  0
  150.9269  137.7374  156.8028 H   0  0  0  0  0  0  0  0  0  0  0  0
  153.1826  139.1894  159.4146 H   0  0  0  0  0  0  0  0  0  0  0  0
  151.2973  139.4127  159.2859 H   0  0  0  0  0  0  0  0  0  0  0  0
  147.2899  137.4166  158.4801 H   0  0  0  0  0  0  0  0  0  0  0  0
  147.4633  137.5630  160.2360 H   0  0  0  0  0  0  0  0  0  0  0  0
  147.8143  136.0240  159.4352 H   0  0  0  0  0  0  0  0  0  0  0  0
  149.6048  140.8621  157.3848 H   0  0  0  0  0  0  0  0  0  0  0  0
  151.6988  143.6738  159.8919 H   0  0  0  0  0  0  0  0  0  0  0  0
  152.0237  144.8329  158.5966 H   0  0  0  0  0  0  0  0  0  0  0  0
  153.2042  143.5677  158.9665 H   0  0  0  0  0  0  0  0  0  0  0  0
  1  2  1  0  0  0  0
  1 28  1  0  0  0  0
  1 29  1  0  0  0  0
  1 30  1  0  0  0  0
  2  3  2  0  0  0  0
  2  4  1  0  0  0  0
  4  5  1  0  0  0  0
  5  6  1  0  0  0  0
  5 31  1  0  0  0  0
  5 32  1  0  0  0  0
  6 23  1  0  0  0  0
  6  7  1  0  0  0  0
  6 33  1  0  0  0  0
  7  8  1  0  0  0  0
  8  9  1  0  0  0  0
  8 18  1  0  0  0  0
  8 34  1  0  0  0  0
  9 16  1  0  0  0  0
  9 10  1  0  0  0  0
 10 11  2  0  0  0  0
 10 35  1  0  0  0  0
 11 12  1  0  0  0  0
 11 13  1  0  0  0  0
 13 14  2  0  0  0  0
 13 15  1  0  0  0  0
 15 16  1  0  0  0  0
 16 17  2  0  0  0  0
 18 19  1  0  0  0  0
 18 23  1  0  0  0  0
 18 36  1  0  0  0  0
 19 20  1  0  0  0  0
 20 21  1  0  0  0  0
 20 22  2  0  0  0  0
 21 37  1  0  0  0  0
 21 38  1  0  0  0  0
 21 39  1  0  0  0  0
 23 24  1  0  0  0  0
 23 40  1  0  0  0  0
 24 25  1  0  0  0  0
 25 26  1  0  0  0  0
 25 27  2  0  0  0  0
 26 41  1  0  0  0  0
 26 42  1  0  0  0  0
 26 43  1  0  0  0  0
M  CHG  1  15  -1
M  END
> <s_m_source_file>
AV-unprocessed.smi

> <i_m_source_file_index>
102

> <i_lp_mmshare_version>
43012

> <i_f3d_flags>
0

> <s_epik_input>
W0NIM11DKD1PKU9bQ0gyXVtDQEBIXTFPW0NASF0oW0NAQEhdKE9DKD1PKVtDSDNdKVtDQEhdMU9DKD1PKVtDSDNdKW4yW2NIXWMoRiljKD1PKVtuSF1jMj1P

> <s_epik_cmdline>
J2VwaWtfcHl0aG9uJywgJy1waCcsICc3LjAnLCAnLXRuJywgJzgnLCAnLW1hJywgJzIwMCcsICctbWV0YWxfYmluZGluZycsICctaW1hZScsICc8aW5maWxlLm1hZT4nLCAnLW9tYWUnLCAnPG91dGZpbGUubWFlPic=

> <r_epik_Ionization_Penalty>
1.40304

> <r_epik_Ionization_Penalty_Charging>
1.43915e-08

> <r_epik_Ionization_Penalty_Neutral>
1.40304

> <r_epik_State_Penalty>
1.48536

> <r_epik_Charging_Adjusted_Penalty>
1.48536

> <i_epik_Tot_Q>
-1

> <i_epik_Tot_abs_Q>
1

> <r_epik_Metal_State_Penalty>
0.00663881

> <b_epik_Metal_Only>
0

> <s_epik_Chemistry_Notes>
This compound has an ester and may undergo hydrolysis at high or low pH. This compound contains an acetal/aminal-like group ( X-CH(R)-Y where X, Y are N, S, or O) that may be acid/base labile, releasing an aldehyde.

> <s_lp_Force_Field>
OPLS_2005

> <r_lp_Energy>
22.1455

> <b_lp_Chiralities_Consistent>
1

> <s_lp_Variant>
AV-unprocessed.smi:102-21

> <Gold.Version>
5.8.1

> <Gold.Id.Protein>
6NUR|6NUR_protein|mol2

> <Gold.PLP.Fitness>
43.9230

> <Gold.PLP.PLP>
-31.8843

> <Gold.PLP.part.hbond>
-4.7897

> <Gold.PLP.part.metal>
0.0000

> <Gold.PLP.part.buried>
-1.8250

> <Gold.PLP.part.nonpolar>
-27.0996

> <Gold.PLP.part.repulsive>
2.0488

> <Gold.PLP.ligand.clash>
0.0000

> <Gold.PLP.ligand.torsion>
0.6228

> <Gold.PLP.Chemscore.Hbond>
4.3969

> <Gold.PLP.Chemscore.CHOScore>
0.0000

> <Gold.PLP.Chemscore.Metal>
0.0000

> <Gold.Chemscore.Hbonds>
donor molecule, donor type, donor heavy atom, donor atom, acceptor molecule, acceptor atom, score
      P1  H  6896  6907       L1    15  0.73
      P1  H  6896  6909       L1    22  1.00
      P1  H  7997  8009       L1     7  0.37
      P1  H 10752 10764       L1    17  0.12

> <Gold.PLP.Chemscore.Internal.Correction>
0.0935

> <Gold.Rescore>
     Score         DG    S(hbond)    S(metal)    S(lipo)     H(rot)  DE(clash)    DE(int)     intcor
      5.99     -11.23       2.92        0.00      53.26       4.00       1.59       3.65       ----

> <Gold.Chemscore.Fitness>
5.9853

> <Gold.Chemscore.DG>
-11.2313

> <Gold.Chemscore.ZeroCoef>
-5.4800

> <Gold.Chemscore.Hbond>
2.9185

> <Gold.Chemscore.Metal>
0.0000

> <Gold.Chemscore.Lipo>
53.2569

> <Gold.Chemscore.Internal_Hbond>
0.0000

> <Gold.Chemscore.DEClash>
1.5916

> <Gold.Chemscore.DEInternal>
3.6545

> <Gold.Chemscore.Rot>
3.9951

> <Gold.Chemscore.Internal.Correction>
   9.000000E+99

> <Gold.Chemscore.Hbonds>
donor molecule, donor type, donor heavy atom, donor atom, acceptor molecule, acceptor atom, score
      P1  H  6896  6907       L1    15  0.02
      P1  H  6896  6909       L1    22  0.98
      P1  H  7997  8009       L1     7  0.13
      P1  H 10752 10764       L1    17  0.03

> <Gold.Chemscore.Hbond.Weighted>
-9.7477

> <Gold.Chemscore.Metal.Weighted>
-0.0000

> <Gold.Chemscore.Lipo.Weighted>
-6.2311

> <Gold.Chemscore.Internal_Hbond.Weighted>
0.0000

> <Gold.Chemscore.DEClash.Weighted>
1.5916

> <Gold.Chemscore.DEInternal.Weighted>
3.6545

> <Gold.Chemscore.Rot.Weighted>
10.2274

> <Gold.Chemscore.Internal.Correction.Weighted>
   9.000000E+99

> <Gold.Protein.RotatedTorsions>
[ 6907 6896 6895 6894 ] final   81.28 input  -60.11 | X-H torsion
[ 7974 7965 7964 7962 ] final  132.91 input  175.53 | X-H torsion
[ 8008 7997 7996 7995 ] final -175.54 input   59.86 | X-H torsion
[ 10167 10162 10161 10158 ] final  -30.76 input  -65.29 | X-H torsion
[ 10718 10713 10712 10709 ] final   98.34 input   66.30 | X-H torsion
[ 10763 10752 10751 10750 ] final    0.93 input  -60.55 | X-H torsion
[ 11005 11000 10999 10996 ] final   80.17 input  -57.11 | X-H torsion

> <Gold.Protein.ActiveResidues>
 VAL166  LYS551  ARG553  GLY616  TRP617  ASP618  TYR619  PRO620  LYS621  CYS622 
 ASP623  PHE694  ASN695  SER759  ASP760  ASP761  ALA762  ILE779  LEU786  VAL792 
 PHE793  MET794  SER795  GLU796  ALA797  LYS798  CYS799  TRP800  GLU811  SER814 

> <Gold.Protein.RotatedAtoms>
  152.5263  134.3229  159.9154 H   0  0  0  0  0  0  0  0  0  0  0  0  # atno 6907 bound_to 6896
  151.3178  133.4046  159.2659 H   0  0  0  0  0  0  0  0  0  0  0  0  # atno 6908 bound_to 6896
  150.9984  134.9319  159.7997 H   0  0  0  0  0  0  0  0  0  0  0  0  # atno 6909 bound_to 6896
  144.9919  139.4398  143.5335 H   0  0  0  0  0  0  0  0  0  0  0  0  # atno 7974 bound_to 7965
  155.9838  140.1187  157.0702 H   0  0  0  0  0  0  0  0  0  0  0  0  # atno 8008 bound_to 7997
  154.4191  140.1139  156.5540 H   0  0  0  0  0  0  0  0  0  0  0  0  # atno 8009 bound_to 7997
  155.6435  140.3473  155.4725 H   0  0  0  0  0  0  0  0  0  0  0  0  # atno 8010 bound_to 7997
  140.7245  143.3823  151.1578 H   0  0  0  0  0  0  0  0  0  0  0  0  # atno 10167 bound_to 10162
  157.6897  131.0637  150.4781 H   0  0  0  0  0  0  0  0  0  0  0  0  # atno 10718 bound_to 10713
  153.3144  135.6965  153.7086 H   0  0  0  0  0  0  0  0  0  0  0  0  # atno 10763 bound_to 10752
  153.5951  135.3472  155.2925 H   0  0  0  0  0  0  0  0  0  0  0  0  # atno 10764 bound_to 10752
  154.8583  135.4327  154.2291 H   0  0  0  0  0  0  0  0  0  0  0  0  # atno 10765 bound_to 10752
  139.9145  134.7899  156.1874 H   0  0  0  0  0  0  0  0  0  0  0  0  # atno 11005 bound_to 11000
  146.3433  139.9256  142.8760 LP  0  0  0  0  0  0  0  0  0  0  0  0  # atno 17320 bound_to 7965
  145.2273  140.9959  143.4011 LP  0  0  0  0  0  0  0  0  0  0  0  0  # atno 17321 bound_to 7965
  139.7414  143.8918  152.3051 LP  0  0  0  0  0  0  0  0  0  0  0  0  # atno 17342 bound_to 10162
  139.8741  144.7053  150.8954 LP  0  0  0  0  0  0  0  0  0  0  0  0  # atno 17343 bound_to 10162
  156.5114  130.4140  149.6299 LP  0  0  0  0  0  0  0  0  0  0  0  0  # atno 17370 bound_to 10713
  156.3237  130.7294  151.2211 LP  0  0  0  0  0  0  0  0  0  0  0  0  # atno 17371 bound_to 10713
  141.0605  133.6844  156.1943 LP  0  0  0  0  0  0  0  0  0  0  0  0  # atno 17394 bound_to 11000
  140.6668  134.4909  157.5586 LP  0  0  0  0  0  0  0  0  0  0  0  0  # atno 17395 bound_to 11000

$$$$
