AV-unprocessed.smi:1033|AV-procd|sdf|4507|dock2
  -GOLD-   22720 2513D 1   1.00000     0.00000
 Structure written by MMmdl.
 57 59  0  0  0  0  0  0  0  0  3 V2000
  152.9948  143.2363  161.6628 C   0  0  0  0  0  0  0  0  0  0  0  0
  152.4808  142.7237  160.3288 C   0  0  0  0  0  0  0  0  0  0  0  0
  152.6108  141.3498  160.0247 C   0  0  0  0  0  0  0  0  0  0  0  0
  152.1495  140.8338  158.7942 C   0  0  0  0  0  0  0  0  0  0  0  0
  152.1734  139.5428  158.2953 N   0  0  0  0  0  0  0  0  0  0  0  0
  151.6024  139.7038  157.1056 C   0  0  0  0  0  0  0  0  0  0  0  0
  151.1948  140.9461  156.7807 N   0  0  0  0  0  0  0  0  0  0  0  0
  150.5394  141.3604  155.5536 C   0  0  0  0  0  0  0  0  0  0  0  0
  149.0479  140.9715  155.5184 C   0  0  1  0  0  0  0  0  0  0  0  0
  148.3158  142.0019  156.1499 O   0  0  0  0  0  0  0  0  0  0  0  0
  148.4928  140.7682  154.0913 C   0  0  0  0  0  0  0  0  0  0  0  0
  147.5570  139.6177  154.0077 N   0  3  2  0  0  0  0  0  0  0  0  0
  148.1284  138.3501  154.5310 C   0  0  0  0  0  0  0  0  0  0  0  0
  147.0872  137.2174  154.4979 C   0  0  0  0  0  0  0  0  0  0  0  0
  146.5418  137.0280  153.1310 N   0  3  1  0  0  0  0  0  0  0  0  0
  145.6055  135.8770  153.0489 C   0  0  0  0  0  0  0  0  0  0  0  0
  145.2043  135.5440  151.5985 C   0  0  2  0  0  0  0  0  0  0  0  0
  143.9823  134.6186  151.5350 C   0  0  0  0  0  0  0  0  0  0  0  0
  146.2837  134.8946  150.9580 O   0  0  0  0  0  0  0  0  0  0  0  0
  145.9717  138.2958  152.6068 C   0  0  0  0  0  0  0  0  0  0  0  0
  147.0129  139.4289  152.6406 C   0  0  0  0  0  0  0  0  0  0  0  0
  151.5477  141.7365  157.8693 C   0  0  0  0  0  0  0  0  0  0  0  0
  151.4139  143.1058  158.1596 C   0  0  0  0  0  0  0  0  0  0  0  0
  151.8800  143.6048  159.3939 C   0  0  0  0  0  0  0  0  0  0  0  0
  151.7315  145.0850  159.6985 C   0  0  0  0  0  0  0  0  0  0  0  0
  153.4522  142.4375  162.2474 H   0  0  0  0  0  0  0  0  0  0  0  0
  152.1782  143.6560  162.2507 H   0  0  0  0  0  0  0  0  0  0  0  0
  153.7472  144.0106  161.5108 H   0  0  0  0  0  0  0  0  0  0  0  0
  153.0701  140.6786  160.7357 H   0  0  0  0  0  0  0  0  0  0  0  0
  151.4627  138.8676  156.4359 H   0  0  0  0  0  0  0  0  0  0  0  0
  150.6528  142.4411  155.4558 H   0  0  0  0  0  0  0  0  0  0  0  0
  151.0689  140.9129  154.7109 H   0  0  0  0  0  0  0  0  0  0  0  0
  148.9162  140.0642  156.1061 H   0  0  0  0  0  0  0  0  0  0  0  0
  148.6832  142.8355  155.8963 H   0  0  0  0  0  0  0  0  0  0  0  0
  147.9844  141.6845  153.7865 H   0  0  0  0  0  0  0  0  0  0  0  0
  149.2973  140.6156  153.3707 H   0  0  0  0  0  0  0  0  0  0  0  0
  149.0002  138.0706  153.9369 H   0  0  0  0  0  0  0  0  0  0  0  0
  148.4763  138.4819  155.5550 H   0  0  0  0  0  0  0  0  0  0  0  0
  147.5527  136.2923  154.8403 H   0  0  0  0  0  0  0  0  0  0  0  0
  146.2709  137.4371  155.1883 H   0  0  0  0  0  0  0  0  0  0  0  0
  146.0695  134.9928  153.4897 H   0  0  0  0  0  0  0  0  0  0  0  0
  144.7215  136.0876  153.6530 H   0  0  0  0  0  0  0  0  0  0  0  0
  144.9746  136.4525  151.0430 H   0  0  0  0  0  0  0  0  0  0  0  0
  143.1114  135.0891  151.9923 H   0  0  0  0  0  0  0  0  0  0  0  0
  144.1648  133.6788  152.0575 H   0  0  0  0  0  0  0  0  0  0  0  0
  143.7218  134.3803  150.5031 H   0  0  0  0  0  0  0  0  0  0  0  0
  147.0909  135.3041  151.2319 H   0  0  0  0  0  0  0  0  0  0  0  0
  145.6259  138.1641  151.5821 H   0  0  0  0  0  0  0  0  0  0  0  0
  145.0992  138.5757  153.1994 H   0  0  0  0  0  0  0  0  0  0  0  0
  146.5471  140.3541  152.2986 H   0  0  0  0  0  0  0  0  0  0  0  0
  147.8297  139.2098  151.9507 H   0  0  0  0  0  0  0  0  0  0  0  0
  150.9601  143.7683  157.4373 H   0  0  0  0  0  0  0  0  0  0  0  0
  151.2244  145.6101  158.8885 H   0  0  0  0  0  0  0  0  0  0  0  0
  152.7101  145.5460  159.8346 H   0  0  0  0  0  0  0  0  0  0  0  0
  151.1489  145.2320  160.6082 H   0  0  0  0  0  0  0  0  0  0  0  0
  147.3278  136.7885  152.5426 H   0  0  0  0  0  0  0  0  0  0  0  0
  146.7705  139.8555  154.5963 H   0  0  0  0  0  0  0  0  0  0  0  0
  1  2  1  0  0  0  0
  1 26  1  0  0  0  0
  1 27  1  0  0  0  0
  1 28  1  0  0  0  0
  2 24  1  0  0  0  0
  2  3  2  0  0  0  0
  3  4  1  0  0  0  0
  3 29  1  0  0  0  0
  4 22  2  0  0  0  0
  4  5  1  0  0  0  0
  5  6  2  0  0  0  0
  6  7  1  0  0  0  0
  6 30  1  0  0  0  0
  7  8  1  0  0  0  0
  7 22  1  0  0  0  0
  8  9  1  0  0  0  0
  8 31  1  0  0  0  0
  8 32  1  0  0  0  0
  9 10  1  0  0  0  0
  9 11  1  0  0  0  0
  9 33  1  0  0  0  0
 10 34  1  0  0  0  0
 11 12  1  0  0  0  0
 11 35  1  0  0  0  0
 11 36  1  0  0  0  0
 12 21  1  0  0  0  0
 12 13  1  0  0  0  0
 12 57  1  0  0  0  0
 13 14  1  0  0  0  0
 13 37  1  0  0  0  0
 13 38  1  0  0  0  0
 14 15  1  0  0  0  0
 14 39  1  0  0  0  0
 14 40  1  0  0  0  0
 15 16  1  0  0  0  0
 15 20  1  0  0  0  0
 15 56  1  0  0  0  0
 16 17  1  0  0  0  0
 16 41  1  0  0  0  0
 16 42  1  0  0  0  0
 17 18  1  0  0  0  0
 17 19  1  0  0  0  0
 17 43  1  0  0  0  0
 18 44  1  0  0  0  0
 18 45  1  0  0  0  0
 18 46  1  0  0  0  0
 19 47  1  0  0  0  0
 20 21  1  0  0  0  0
 20 48  1  0  0  0  0
 20 49  1  0  0  0  0
 21 50  1  0  0  0  0
 21 51  1  0  0  0  0
 22 23  1  0  0  0  0
 23 24  2  0  0  0  0
 23 52  1  0  0  0  0
 24 25  1  0  0  0  0
 25 53  1  0  0  0  0
 25 54  1  0  0  0  0
 25 55  1  0  0  0  0
M  CHG  1  12   1
M  CHG  1  15   1
M  END
> <s_m_source_file>
AV-unprocessed.smi

> <i_m_source_file_index>
1033

> <i_lp_mmshare_version>
43012

> <i_f3d_flags>
0

> <s_epik_input>
W0NIM11jKFtjSF0xKWMoW0NIM10pW2NIXWMoYzEyKW4oW2NIXW4yKVtDSDJdW0NASF0oW09IXSlbQ0gyXU4zW0NIMl1bQ0gyXU4oW0NIMl1bQ0gyXTMpW0NIMl1bQ0BIXShbQ0gzXSlbT0hd

> <s_epik_cmdline>
J2VwaWtfcHl0aG9uJywgJy1waCcsICc3LjAnLCAnLXRuJywgJzgnLCAnLW1hJywgJzIwMCcsICctbWV0YWxfYmluZGluZycsICctaW1hZScsICc8aW5maWxlLm1hZT4nLCAnLW9tYWUnLCAnPG91dGZpbGUubWFlPic=

> <r_epik_Ionization_Penalty>
3.16016

> <r_epik_Ionization_Penalty_Charging>
3.07679

> <r_epik_Ionization_Penalty_Neutral>
0.083365

> <r_epik_State_Penalty>
2.09701

> <r_epik_Charging_Adjusted_Penalty>
5.1738

> <i_epik_Tot_Q>
2

> <i_epik_Tot_abs_Q>
2

> <r_epik_Metal_State_Penalty>
2.02534

> <b_epik_Metal_Only>
0

> <s_lp_Force_Field>
OPLS_2005

> <r_lp_Energy>
25.863

> <b_lp_Chiralities_Consistent>
1

> <s_lp_Variant>
AV-unprocessed.smi:1033-18

> <Gold.Version>
5.8.1

> <Gold.Id.Protein>
6NUR|6NUR_protein|mol2

> <Gold.PLP.Fitness>
57.2556

> <Gold.PLP.PLP>
-47.2236

> <Gold.PLP.part.hbond>
-3.0000

> <Gold.PLP.part.metal>
0.0000

> <Gold.PLP.part.buried>
-3.3809

> <Gold.PLP.part.nonpolar>
-39.7459

> <Gold.PLP.part.repulsive>
0.0101

> <Gold.PLP.ligand.clash>
0.0000

> <Gold.PLP.ligand.torsion>
1.2259

> <Gold.PLP.Chemscore.Hbond>
4.0000

> <Gold.PLP.Chemscore.CHOScore>
0.0000

> <Gold.PLP.Chemscore.Metal>
0.0000

> <Gold.Chemscore.Hbonds>
donor molecule, donor type, donor heavy atom, donor atom, acceptor molecule, acceptor atom, score
      L1  H    10    34       P1  8028  1.00
      L1  H    15    56       P1  7948  2.00
      L1  H    19    47       P1  7948  0.78

> <Gold.PLP.Chemscore.Internal.Correction>
0.4838

> <Gold.Rescore>
     Score         DG    S(hbond)    S(metal)    S(lipo)     H(rot)  DE(clash)    DE(int)     intcor
     20.55     -22.08       2.86        0.00     128.92       3.14       0.15       1.38       ----

> <Gold.Chemscore.Fitness>
20.5537

> <Gold.Chemscore.DG>
-22.0821

> <Gold.Chemscore.ZeroCoef>
-5.4800

> <Gold.Chemscore.Hbond>
2.8597

> <Gold.Chemscore.Metal>
0.0000

> <Gold.Chemscore.Lipo>
128.9241

> <Gold.Chemscore.Internal_Hbond>
0.0000

> <Gold.Chemscore.DEClash>
0.1485

> <Gold.Chemscore.DEInternal>
1.3799

> <Gold.Chemscore.Rot>
3.1380

> <Gold.Chemscore.Internal.Correction>
   9.000000E+99

> <Gold.Chemscore.Hbonds>
donor molecule, donor type, donor heavy atom, donor atom, acceptor molecule, acceptor atom, score
      L1  H    10    34       P1  8028  0.99
      L1  H    15    56       P1  7948  1.00
      L1  H    19    47       P1  7948  0.65

> <Gold.Chemscore.Hbond.Weighted>
-9.5512

> <Gold.Chemscore.Metal.Weighted>
-0.0000

> <Gold.Chemscore.Lipo.Weighted>
-15.0841

> <Gold.Chemscore.Internal_Hbond.Weighted>
0.0000

> <Gold.Chemscore.DEClash.Weighted>
0.1485

> <Gold.Chemscore.DEInternal.Weighted>
1.3799

> <Gold.Chemscore.Rot.Weighted>
8.0332

> <Gold.Chemscore.Internal.Correction.Weighted>
   9.000000E+99

> <Gold.Protein.RotatedTorsions>
[ 6907 6896 6895 6894 ] final  -76.16 input  -60.11 | X-H torsion
[ 7974 7965 7964 7962 ] final -175.63 input  175.53 | X-H torsion
[ 8008 7997 7996 7995 ] final -116.64 input   59.86 | X-H torsion
[ 10167 10162 10161 10158 ] final  -57.52 input  -65.29 | X-H torsion
[ 10718 10713 10712 10709 ] final   88.16 input   66.30 | X-H torsion
[ 10763 10752 10751 10750 ] final -168.51 input  -60.55 | X-H torsion
[ 11005 11000 10999 10996 ] final  -28.35 input  -57.11 | X-H torsion

> <Gold.Protein.ActiveResidues>
 VAL166  LYS551  ARG553  GLY616  TRP617  ASP618  TYR619  PRO620  LYS621  CYS622 
 ASP623  PHE694  ASN695  SER759  ASP760  ASP761  ALA762  ILE779  LEU786  VAL792 
 PHE793  MET794  SER795  GLU796  ALA797  LYS798  CYS799  TRP800  GLU811  SER814 

> <Gold.Protein.RotatedAtoms>
  150.7036  134.4613  159.5381 H   0  0  0  0  0  0  0  0  0  0  0  0  # atno 6907 bound_to 6896
  152.2287  134.8340  160.0485 H   0  0  0  0  0  0  0  0  0  0  0  0  # atno 6908 bound_to 6896
  151.9164  133.3539  159.3918 H   0  0  0  0  0  0  0  0  0  0  0  0  # atno 6909 bound_to 6896
  144.7128  140.1291  143.6400 H   0  0  0  0  0  0  0  0  0  0  0  0  # atno 7974 bound_to 7965
  155.0710  140.0393  157.2608 H   0  0  0  0  0  0  0  0  0  0  0  0  # atno 8008 bound_to 7997
  154.6982  140.2668  155.6720 H   0  0  0  0  0  0  0  0  0  0  0  0  # atno 8009 bound_to 7997
  156.2752  140.2746  156.1584 H   0  0  0  0  0  0  0  0  0  0  0  0  # atno 8010 bound_to 7997
  140.6253  143.2436  151.5379 H   0  0  0  0  0  0  0  0  0  0  0  0  # atno 10167 bound_to 10162
  157.6946  131.0284  150.3232 H   0  0  0  0  0  0  0  0  0  0  0  0  # atno 10718 bound_to 10713
  154.6621  135.2926  154.9853 H   0  0  0  0  0  0  0  0  0  0  0  0  # atno 10763 bound_to 10752
  154.0909  135.6591  153.4856 H   0  0  0  0  0  0  0  0  0  0  0  0  # atno 10764 bound_to 10752
  153.0436  135.5220  154.7577 H   0  0  0  0  0  0  0  0  0  0  0  0  # atno 10765 bound_to 10752
  140.9201  133.7404  156.0789 H   0  0  0  0  0  0  0  0  0  0  0  0  # atno 11005 bound_to 11000
  145.9302  139.2601  143.1329 LP  0  0  0  0  0  0  0  0  0  0  0  0  # atno 17320 bound_to 7965
  145.9530  140.8894  143.0249 LP  0  0  0  0  0  0  0  0  0  0  0  0  # atno 17321 bound_to 7965
  139.5474  144.2484  152.1468 LP  0  0  0  0  0  0  0  0  0  0  0  0  # atno 17342 bound_to 10162
  140.1714  144.4932  150.6577 LP  0  0  0  0  0  0  0  0  0  0  0  0  # atno 17343 bound_to 10162
  156.3716  130.3864  149.7171 LP  0  0  0  0  0  0  0  0  0  0  0  0  # atno 17370 bound_to 10713
  156.4583  130.7940  151.2960 LP  0  0  0  0  0  0  0  0  0  0  0  0  # atno 17371 bound_to 10713
  140.7999  134.3520  157.5442 LP  0  0  0  0  0  0  0  0  0  0  0  0  # atno 17394 bound_to 11000
  139.8774  134.9191  156.3219 LP  0  0  0  0  0  0  0  0  0  0  0  0  # atno 17395 bound_to 11000

$$$$
