AV-unprocessed.smi:1060|AV-procd|sdf|4659|dock10
  -GOLD-   22720 3173D 1   1.00000     0.00000
 Structure written by MMmdl.
 36 37  0  0  0  0  0  0  0  0  2 V2000
  151.6128  139.3738  154.6757 O   0  0  0  0  0  0  0  0  0  0  0  0
  150.4403  139.4264  155.0448 C   0  0  0  0  0  0  0  0  0  0  0  0
  149.7568  140.7868  155.1602 C   0  0  0  0  0  0  0  0  0  0  0  0
  150.0197  141.3251  156.4460 O   0  0  0  0  0  0  0  0  0  0  0  0
  150.9820  142.3658  156.4127 C   0  0  0  0  0  0  0  0  0  0  0  0
  151.2170  142.8801  157.8385 C   0  0  1  0  0  0  0  0  0  0  0  0
  152.1457  141.9952  158.6640 C   0  0  0  0  0  0  0  0  0  0  0  0
  152.6179  142.9412  159.7513 C   0  0  0  0  0  0  0  0  0  0  0  0
  152.5115  144.3231  159.0988 C   0  0  0  0  0  0  0  0  0  0  0  0
  151.9248  144.1107  157.8187 O   0  0  0  0  0  0  0  0  0  0  0  0
  149.6828  138.3698  155.4001 N   0  0  0  0  0  0  0  0  0  0  0  0
  150.0088  137.0026  155.4227 C   0  0  0  0  0  0  0  0  0  0  0  0
  149.2055  136.0036  154.9627 C   0  0  0  0  0  0  0  0  0  0  0  0
  149.5965  134.6005  155.0160 C   0  0  0  0  0  0  0  0  0  0  0  0
  148.6949  133.4587  154.5805 C   0  0  0  0  0  0  0  0  0  0  0  0
  148.3904  132.6669  155.6089 F   0  0  0  0  0  0  0  0  0  0  0  0
  147.5599  133.9206  154.0554 F   0  0  0  0  0  0  0  0  0  0  0  0
  149.3100  132.7221  153.6565 F   0  0  0  0  0  0  0  0  0  0  0  0
  150.8336  134.4231  155.6049 C   0  0  0  0  0  0  0  0  0  0  0  0
  151.6907  135.3528  156.0799 N   0  5  0  0  0  0  0  0  0  0  0  0
  151.3181  136.6626  156.0178 C   0  0  0  0  0  0  0  0  0  0  0  0
  152.0463  137.5599  156.4434 O   0  0  0  0  0  0  0  0  0  0  0  0
  150.1379  141.4480  154.3801 H   0  0  0  0  0  0  0  0  0  0  0  0
  148.6817  140.6765  155.0074 H   0  0  0  0  0  0  0  0  0  0  0  0
  151.9147  141.9703  156.0073 H   0  0  0  0  0  0  0  0  0  0  0  0
  150.6587  143.1792  155.7609 H   0  0  0  0  0  0  0  0  0  0  0  0
  150.2692  143.0097  158.3643 H   0  0  0  0  0  0  0  0  0  0  0  0
  151.6500  141.1071  159.0574 H   0  0  0  0  0  0  0  0  0  0  0  0
  152.9954  141.6721  158.0605 H   0  0  0  0  0  0  0  0  0  0  0  0
  151.9552  142.8850  160.6159 H   0  0  0  0  0  0  0  0  0  0  0  0
  153.6301  142.7118  160.0861 H   0  0  0  0  0  0  0  0  0  0  0  0
  151.8786  144.9842  159.6920 H   0  0  0  0  0  0  0  0  0  0  0  0
  153.4861  144.7982  158.9854 H   0  0  0  0  0  0  0  0  0  0  0  0
  148.7577  138.5817  155.7451 H   0  0  0  0  0  0  0  0  0  0  0  0
  148.2343  136.2204  154.5498 H   0  0  0  0  0  0  0  0  0  0  0  0
  151.1859  133.3752  155.7149 H   0  0  0  0  0  0  0  0  0  0  0  0
  1  2  2  0  0  0  0
  2  3  1  0  0  0  0
  2 11  1  0  0  0  0
  3  4  1  0  0  0  0
  3 23  1  0  0  0  0
  3 24  1  0  0  0  0
  4  5  1  0  0  0  0
  5  6  1  0  0  0  0
  5 25  1  0  0  0  0
  5 26  1  0  0  0  0
  6 10  1  0  0  0  0
  6  7  1  0  0  0  0
  6 27  1  0  0  0  0
  7  8  1  0  0  0  0
  7 28  1  0  0  0  0
  7 29  1  0  0  0  0
  8  9  1  0  0  0  0
  8 30  1  0  0  0  0
  8 31  1  0  0  0  0
  9 10  1  0  0  0  0
  9 32  1  0  0  0  0
  9 33  1  0  0  0  0
 11 12  1  0  0  0  0
 11 34  1  0  0  0  0
 12 21  1  0  0  0  0
 12 13  2  0  0  0  0
 13 14  1  0  0  0  0
 13 35  1  0  0  0  0
 14 15  1  0  0  0  0
 14 19  2  0  0  0  0
 15 16  1  0  0  0  0
 15 17  1  0  0  0  0
 15 18  1  0  0  0  0
 19 20  1  0  0  0  0
 19 36  1  0  0  0  0
 20 21  1  0  0  0  0
 21 22  2  0  0  0  0
M  CHG  1  20  -1
M  END
> <s_m_source_file>
AV-unprocessed.smi

> <i_m_source_file_index>
1060

> <i_lp_mmshare_version>
43012

> <i_f3d_flags>
0

> <s_epik_input>
Tz1jMVtuSF1bY0hdYyhDKEYpKEYpRilbY0hdYzFbTkhdQyg9TylbQ0gyXU9bQ0gyXVtDQEBIXTJbQ0gyXVtDSDJdW0NIMl1PMg==

> <s_epik_cmdline>
J2VwaWtfcHl0aG9uJywgJy1waCcsICc3LjAnLCAnLXRuJywgJzgnLCAnLW1hJywgJzIwMCcsICctbWV0YWxfYmluZGluZycsICctaW1hZScsICc8aW5maWxlLm1hZT4nLCAnLW9tYWUnLCAnPG91dGZpbGUubWFlPic=

> <r_epik_Ionization_Penalty>
2.50578

> <r_epik_Ionization_Penalty_Charging>
0.0523173

> <r_epik_Ionization_Penalty_Neutral>
2.45346

> <r_epik_State_Penalty>
2.61512

> <r_epik_Charging_Adjusted_Penalty>
2.66744

> <i_epik_Tot_Q>
-1

> <i_epik_Tot_abs_Q>
1

> <r_epik_Metal_State_Penalty>
0.513209

> <b_epik_Metal_Only>
0

> <s_lp_Force_Field>
OPLS_2005

> <r_lp_Energy>
36.6163

> <b_lp_Chiralities_Consistent>
1

> <s_lp_Variant>
AV-unprocessed.smi:1060-4

> <Gold.Version>
5.8.1

> <Gold.Id.Protein>
6NUR|6NUR_protein|mol2

> <Gold.PLP.Fitness>
42.7020

> <Gold.PLP.PLP>
-36.0246

> <Gold.PLP.part.hbond>
-2.0000

> <Gold.PLP.part.metal>
0.0000

> <Gold.PLP.part.buried>
-5.3173

> <Gold.PLP.part.nonpolar>
-29.5797

> <Gold.PLP.part.repulsive>
0.2545

> <Gold.PLP.ligand.clash>
0.0000

> <Gold.PLP.ligand.torsion>
1.2238

> <Gold.PLP.Chemscore.Hbond>
3.0000

> <Gold.PLP.Chemscore.CHOScore>
0.0000

> <Gold.PLP.Chemscore.Metal>
0.0000

> <Gold.Chemscore.Hbonds>
donor molecule, donor type, donor heavy atom, donor atom, acceptor molecule, acceptor atom, score
      P1  H  7989  7998       L1     1  1.00
      P1  H 10752 10764       L1    20  1.98

> <Gold.PLP.Chemscore.Internal.Correction>
0.1250

> <Gold.Rescore>
     Score         DG    S(hbond)    S(metal)    S(lipo)     H(rot)  DE(clash)    DE(int)     intcor
     11.74     -15.87       1.77        0.00      80.27       1.92       0.14       3.99       ----

> <Gold.Chemscore.Fitness>
11.7424

> <Gold.Chemscore.DG>
-15.8720

> <Gold.Chemscore.ZeroCoef>
-5.4800

> <Gold.Chemscore.Hbond>
1.7704

> <Gold.Chemscore.Metal>
0.0000

> <Gold.Chemscore.Lipo>
80.2691

> <Gold.Chemscore.Internal_Hbond>
0.0000

> <Gold.Chemscore.DEClash>
0.1413

> <Gold.Chemscore.DEInternal>
3.9884

> <Gold.Chemscore.Rot>
1.9190

> <Gold.Chemscore.Internal.Correction>
   9.000000E+99

> <Gold.Chemscore.Hbonds>
donor molecule, donor type, donor heavy atom, donor atom, acceptor molecule, acceptor atom, score
      P1  H  7989  7998       L1     1  0.25
      P1  H 10752 10764       L1    20  0.25

> <Gold.Chemscore.Hbond.Weighted>
-5.9131

> <Gold.Chemscore.Metal.Weighted>
-0.0000

> <Gold.Chemscore.Lipo.Weighted>
-9.3915

> <Gold.Chemscore.Internal_Hbond.Weighted>
0.0000

> <Gold.Chemscore.DEClash.Weighted>
0.1413

> <Gold.Chemscore.DEInternal.Weighted>
3.9884

> <Gold.Chemscore.Rot.Weighted>
4.9126

> <Gold.Chemscore.Internal.Correction.Weighted>
   9.000000E+99

> <Gold.Protein.RotatedTorsions>
[ 6907 6896 6895 6894 ] final  174.30 input  -60.11 | X-H torsion
[ 7974 7965 7964 7962 ] final  128.10 input  175.53 | X-H torsion
[ 8008 7997 7996 7995 ] final   75.34 input   59.86 | X-H torsion
[ 10167 10162 10161 10158 ] final   28.55 input  -65.29 | X-H torsion
[ 10718 10713 10712 10709 ] final  125.04 input   66.30 | X-H torsion
[ 10763 10752 10751 10750 ] final  -16.61 input  -60.55 | X-H torsion
[ 11005 11000 10999 10996 ] final  139.70 input  -57.11 | X-H torsion

> <Gold.Protein.ActiveResidues>
 VAL166  LYS551  ARG553  GLY616  TRP617  ASP618  TYR619  PRO620  LYS621  CYS622 
 ASP623  PHE694  ASN695  SER759  ASP760  ASP761  ALA762  ILE779  LEU786  VAL792 
 PHE793  MET794  SER795  GLU796  ALA797  LYS798  CYS799  TRP800  GLU811  SER814 

> <Gold.Protein.RotatedAtoms>
  151.7546  133.3329  159.3400 H   0  0  0  0  0  0  0  0  0  0  0  0  # atno 6907 bound_to 6896
  150.7522  134.6161  159.6121 H   0  0  0  0  0  0  0  0  0  0  0  0  # atno 6908 bound_to 6896
  152.3446  134.7091  160.0305 H   0  0  0  0  0  0  0  0  0  0  0  0  # atno 6909 bound_to 6896
  145.0432  139.3945  143.5091 H   0  0  0  0  0  0  0  0  0  0  0  0  # atno 7974 bound_to 7965
  155.8114  140.3473  155.5460 H   0  0  0  0  0  0  0  0  0  0  0  0  # atno 8008 bound_to 7997
  155.8436  140.0945  157.1739 H   0  0  0  0  0  0  0  0  0  0  0  0  # atno 8009 bound_to 7997
  154.4006  140.1389  156.3746 H   0  0  0  0  0  0  0  0  0  0  0  0  # atno 8010 bound_to 7997
  140.4843  144.0567  150.6275 H   0  0  0  0  0  0  0  0  0  0  0  0  # atno 10167 bound_to 10162
  157.5536  131.1093  150.8660 H   0  0  0  0  0  0  0  0  0  0  0  0  # atno 10718 bound_to 10713
  153.5612  135.7009  153.5546 H   0  0  0  0  0  0  0  0  0  0  0  0  # atno 10763 bound_to 10752
  153.3428  135.4016  155.1585 H   0  0  0  0  0  0  0  0  0  0  0  0  # atno 10764 bound_to 10752
  154.8647  135.3746  154.5129 H   0  0  0  0  0  0  0  0  0  0  0  0  # atno 10765 bound_to 10752
  140.0274  134.9368  157.0595 H   0  0  0  0  0  0  0  0  0  0  0  0  # atno 11005 bound_to 11000
  146.3511  140.0044  142.8673 LP  0  0  0  0  0  0  0  0  0  0  0  0  # atno 17320 bound_to 7965
  145.1621  140.9678  143.4371 LP  0  0  0  0  0  0  0  0  0  0  0  0  # atno 17321 bound_to 7965
  140.3818  143.2798  152.0161 LP  0  0  0  0  0  0  0  0  0  0  0  0  # atno 17342 bound_to 10162
  139.4839  144.6148  151.7366 LP  0  0  0  0  0  0  0  0  0  0  0  0  # atno 17343 bound_to 10162
  156.9178  130.5304  149.5279 LP  0  0  0  0  0  0  0  0  0  0  0  0  # atno 17370 bound_to 10713
  156.0598  130.5653  150.9169 LP  0  0  0  0  0  0  0  0  0  0  0  0  # atno 17371 bound_to 10713
  140.4284  134.1807  155.7167 LP  0  0  0  0  0  0  0  0  0  0  0  0  # atno 17394 bound_to 11000
  141.1811  133.8413  157.1255 LP  0  0  0  0  0  0  0  0  0  0  0  0  # atno 17395 bound_to 11000

$$$$
