AV-unprocessed.smi:625|AV-procd|sdf|3103|dock5
  -GOLD-   22720 0 23D 1   1.00000     0.00000
 Structure written by MMmdl.
 49 51  0  0  0  0  0  0  0  0  1 V2000
  146.2981  138.7180  153.0286 C   0  0  0  0  0  0  0  0  0  0  0  0
  147.6029  138.4600  153.6180 N   0  0  0  0  0  0  0  0  0  0  0  0
  148.1044  139.1145  154.6801 C   0  0  0  0  0  0  0  0  0  0  0  0
  147.4758  140.0135  155.2399 O   0  0  0  0  0  0  0  0  0  0  0  0
  149.4319  138.6548  155.0985 C   0  0  0  0  0  0  0  0  0  0  0  0
  150.4046  138.2770  154.0917 C   0  0  0  0  0  0  0  0  0  0  0  0
  151.6456  137.8869  154.4438 C   0  0  0  0  0  0  0  0  0  0  0  0
  152.0671  137.8271  155.8467 C   0  0  0  0  0  0  0  0  0  0  0  0
  153.2065  137.4936  156.1718 O   0  0  0  0  0  0  0  0  0  0  0  0
  151.1150  138.1703  156.7660 N   0  0  0  0  0  0  0  0  0  0  0  0
  151.4111  138.2042  158.2067 C   0  0  0  0  0  0  0  0  0  0  0  0
  152.4774  139.2604  158.5168 C   0  0  0  0  0  0  0  0  0  0  0  0
  153.6039  139.1661  158.0294 O   0  0  0  0  0  0  0  0  0  0  0  0
  152.0921  140.2719  159.3104 N   0  0  0  0  0  0  0  0  0  0  0  0
  152.8752  141.4674  159.6150 C   0  0  2  0  0  0  0  0  0  0  0  0
  153.9014  141.1126  160.7031 C   0  0  0  0  0  0  0  0  0  0  0  0
  151.9327  142.6210  160.0463 C   0  0  1  0  0  0  0  0  0  0  0  0
  152.6814  143.9302  160.3960 C   0  0  0  0  0  0  0  0  0  0  0  0
  151.9868  144.9843  159.5157 C   0  0  2  0  0  0  0  0  0  0  0  0
  150.5568  145.2274  160.0316 C   0  0  0  0  0  0  0  0  0  0  0  0
  149.8261  143.9374  159.6176 C   0  0  0  0  0  0  0  0  0  0  0  0
  150.9442  143.1119  158.9537 C   0  0  1  0  0  0  0  0  0  0  0  0
  151.7367  144.1979  158.2362 C   0  0  0  0  0  0  0  0  0  0  0  0
  149.8189  138.5763  156.3898 C   0  0  0  0  0  0  0  0  0  0  0  0
  146.1399  138.0580  152.1758 H   0  0  0  0  0  0  0  0  0  0  0  0
  146.2245  139.7491  152.6811 H   0  0  0  0  0  0  0  0  0  0  0  0
  145.5028  138.5350  153.7521 H   0  0  0  0  0  0  0  0  0  0  0  0
  148.1610  137.7302  153.1994 H   0  0  0  0  0  0  0  0  0  0  0  0
  150.1451  138.3048  153.0431 H   0  0  0  0  0  0  0  0  0  0  0  0
  152.3507  137.6125  153.6730 H   0  0  0  0  0  0  0  0  0  0  0  0
  150.4947  138.4186  158.7597 H   0  0  0  0  0  0  0  0  0  0  0  0
  151.7544  137.2397  158.5835 H   0  0  0  0  0  0  0  0  0  0  0  0
  151.1502  140.2483  159.6737 H   0  0  0  0  0  0  0  0  0  0  0  0
  153.4305  141.7830  158.7305 H   0  0  0  0  0  0  0  0  0  0  0  0
  154.5452  141.9594  160.9396 H   0  0  0  0  0  0  0  0  0  0  0  0
  154.5478  140.2962  160.3788 H   0  0  0  0  0  0  0  0  0  0  0  0
  153.4112  140.8011  161.6262 H   0  0  0  0  0  0  0  0  0  0  0  0
  151.3640  142.2811  160.9134 H   0  0  0  0  0  0  0  0  0  0  0  0
  152.6216  144.1710  161.4580 H   0  0  0  0  0  0  0  0  0  0  0  0
  153.7378  143.8704  160.1312 H   0  0  0  0  0  0  0  0  0  0  0  0
  152.5677  145.8980  159.3881 H   0  0  0  0  0  0  0  0  0  0  0  0
  150.5294  145.3947  161.1089 H   0  0  0  0  0  0  0  0  0  0  0  0
  150.1081  146.0946  159.5453 H   0  0  0  0  0  0  0  0  0  0  0  0
  149.3707  143.4223  160.4639 H   0  0  0  0  0  0  0  0  0  0  0  0
  149.0353  144.1611  158.9009 H   0  0  0  0  0  0  0  0  0  0  0  0
  150.5508  142.3340  158.3015 H   0  0  0  0  0  0  0  0  0  0  0  0
  151.1491  144.7472  157.4985 H   0  0  0  0  0  0  0  0  0  0  0  0
  152.6494  143.8312  157.7640 H   0  0  0  0  0  0  0  0  0  0  0  0
  149.1887  138.8353  157.2289 H   0  0  0  0  0  0  0  0  0  0  0  0
  1  2  1  0  0  0  0
  1 25  1  0  0  0  0
  1 26  1  0  0  0  0
  1 27  1  0  0  0  0
  2  3  1  0  0  0  0
  2 28  1  0  0  0  0
  3  4  2  0  0  0  0
  3  5  1  0  0  0  0
  5 24  2  0  0  0  0
  5  6  1  0  0  0  0
  6  7  2  0  0  0  0
  6 29  1  0  0  0  0
  7  8  1  0  0  0  0
  7 30  1  0  0  0  0
  8  9  2  0  0  0  0
  8 10  1  0  0  0  0
 10 11  1  0  0  0  0
 10 24  1  0  0  0  0
 11 12  1  0  0  0  0
 11 31  1  0  0  0  0
 11 32  1  0  0  0  0
 12 13  2  0  0  0  0
 12 14  1  0  0  0  0
 14 15  1  0  0  0  0
 14 33  1  0  0  0  0
 15 16  1  0  0  0  0
 15 17  1  0  0  0  0
 15 34  1  0  0  0  0
 16 35  1  0  0  0  0
 16 36  1  0  0  0  0
 16 37  1  0  0  0  0
 17 22  1  0  0  0  0
 17 18  1  0  0  0  0
 17 38  1  0  0  0  0
 18 19  1  0  0  0  0
 18 39  1  0  0  0  0
 18 40  1  0  0  0  0
 19 23  1  0  0  0  0
 19 20  1  0  0  0  0
 19 41  1  0  0  0  0
 20 21  1  0  0  0  0
 20 42  1  0  0  0  0
 20 43  1  0  0  0  0
 21 22  1  0  0  0  0
 21 44  1  0  0  0  0
 21 45  1  0  0  0  0
 22 23  1  0  0  0  0
 22 46  1  0  0  0  0
 23 47  1  0  0  0  0
 23 48  1  0  0  0  0
 24 49  1  0  0  0  0
M  END
> <s_m_source_file>
AV-unprocessed.smi

> <i_m_source_file_index>
625

> <i_lp_mmshare_version>
43012

> <i_f3d_flags>
0

> <s_epik_input>
W0NIM11bTkhdQyg9TyljMVtjSF1bY0hdYyg9TyluKFtjSF0xKVtDSDJdQyg9TylbTkhdW0NASF0oW0NIM10pW0NASF0oW0NIMl1bQ0BIXTIzKVtDQEhdKFtDSDJdMylbQ0gyXVtDSDJdMg==

> <s_epik_cmdline>
J2VwaWtfcHl0aG9uJywgJy1waCcsICc3LjAnLCAnLXRuJywgJzgnLCAnLW1hJywgJzIwMCcsICctbWV0YWxfYmluZGluZycsICctaW1hZScsICc8aW5maWxlLm1hZT4nLCAnLW9tYWUnLCAnPG91dGZpbGUubWFlPic=

> <r_lp_tautomer_probability>
1

> <r_epik_Ionization_Penalty>
3.7129e-07

> <r_epik_Ionization_Penalty_Charging>
5.04114e-08

> <r_epik_Ionization_Penalty_Neutral>
3.20879e-07

> <r_epik_State_Penalty>
-0

> <r_epik_Charging_Adjusted_Penalty>
5.04114e-08

> <i_epik_Tot_Q>
0

> <i_epik_Tot_abs_Q>
0

> <r_epik_Metal_State_Penalty>
-0

> <b_epik_Metal_Only>
0

> <s_lp_Force_Field>
OPLS_2005

> <r_lp_Energy>
63.7952

> <b_lp_Chiralities_Consistent>
1

> <s_lp_Variant>
AV-unprocessed.smi:625-3

> <Gold.Version>
5.8.1

> <Gold.Id.Protein>
6NUR|6NUR_protein|mol2

> <Gold.PLP.Fitness>
54.8312

> <Gold.PLP.PLP>
-49.3588

> <Gold.PLP.part.hbond>
-4.0000

> <Gold.PLP.part.metal>
0.0000

> <Gold.PLP.part.buried>
-6.1551

> <Gold.PLP.part.nonpolar>
-40.1662

> <Gold.PLP.part.repulsive>
0.2833

> <Gold.PLP.ligand.clash>
0.0000

> <Gold.PLP.ligand.torsion>
0.8957

> <Gold.PLP.Chemscore.Hbond>
2.3978

> <Gold.PLP.Chemscore.CHOScore>
0.0000

> <Gold.PLP.Chemscore.Metal>
0.0000

> <Gold.Chemscore.Hbonds>
donor molecule, donor type, donor heavy atom, donor atom, acceptor molecule, acceptor atom, score
      L1  H     2    28       P1  7948  0.70
      P1  H  7997  8010       L1    13  1.00
      P1  H 10752 10765       L1     9  0.24

> <Gold.PLP.Chemscore.Internal.Correction>
0.0704

> <Gold.Rescore>
     Score         DG    S(hbond)    S(metal)    S(lipo)     H(rot)  DE(clash)    DE(int)     intcor
     21.61     -25.12       2.39        0.00     136.16       1.67       0.20       3.30       ----

> <Gold.Chemscore.Fitness>
21.6145

> <Gold.Chemscore.DG>
-25.1163

> <Gold.Chemscore.ZeroCoef>
-5.4800

> <Gold.Chemscore.Hbond>
2.3903

> <Gold.Chemscore.Metal>
0.0000

> <Gold.Chemscore.Lipo>
136.1555

> <Gold.Chemscore.Internal_Hbond>
0.0000

> <Gold.Chemscore.DEClash>
0.1983

> <Gold.Chemscore.DEInternal>
3.3035

> <Gold.Chemscore.Rot>
1.6709

> <Gold.Chemscore.Internal.Correction>
   9.000000E+99

> <Gold.Chemscore.Hbonds>
donor molecule, donor type, donor heavy atom, donor atom, acceptor molecule, acceptor atom, score
      L1  H     2    28       P1  7948  0.71
      P1  H  7997  8010       L1    13  1.00
      P1  H 10752 10765       L1     9  0.07

> <Gold.Chemscore.Hbond.Weighted>
-7.9835

> <Gold.Chemscore.Metal.Weighted>
-0.0000

> <Gold.Chemscore.Lipo.Weighted>
-15.9302

> <Gold.Chemscore.Internal_Hbond.Weighted>
0.0000

> <Gold.Chemscore.DEClash.Weighted>
0.1983

> <Gold.Chemscore.DEInternal.Weighted>
3.3035

> <Gold.Chemscore.Rot.Weighted>
4.2774

> <Gold.Chemscore.Internal.Correction.Weighted>
   9.000000E+99

> <Gold.Protein.RotatedTorsions>
[ 6907 6896 6895 6894 ] final  -25.40 input  -60.11 | X-H torsion
[ 7974 7965 7964 7962 ] final -147.35 input  175.53 | X-H torsion
[ 8008 7997 7996 7995 ] final   33.28 input   59.86 | X-H torsion
[ 10167 10162 10161 10158 ] final -112.42 input  -65.29 | X-H torsion
[ 10718 10713 10712 10709 ] final -168.23 input   66.30 | X-H torsion
[ 10763 10752 10751 10750 ] final -134.95 input  -60.55 | X-H torsion
[ 11005 11000 10999 10996 ] final -174.37 input  -57.11 | X-H torsion

> <Gold.Protein.ActiveResidues>
 VAL166  LYS551  ARG553  GLY616  TRP617  ASP618  TYR619  PRO620  LYS621  CYS622 
 ASP623  PHE694  ASN695  SER759  ASP760  ASP761  ALA762  ILE779  LEU786  VAL792 
 PHE793  MET794  SER795  GLU796  ALA797  LYS798  CYS799  TRP800  GLU811  SER814 

> <Gold.Protein.RotatedAtoms>
  151.1757  135.0338  159.8770 H   0  0  0  0  0  0  0  0  0  0  0  0  # atno 6907 bound_to 6896
  152.5447  134.1120  159.8373 H   0  0  0  0  0  0  0  0  0  0  0  0  # atno 6908 bound_to 6896
  151.1231  133.5043  159.2634 H   0  0  0  0  0  0  0  0  0  0  0  0  # atno 6909 bound_to 6896
  144.8099  140.5338  143.5649 H   0  0  0  0  0  0  0  0  0  0  0  0  # atno 7974 bound_to 7965
  155.1361  140.3262  155.4463 H   0  0  0  0  0  0  0  0  0  0  0  0  # atno 8008 bound_to 7997
  156.2619  140.2002  156.6427 H   0  0  0  0  0  0  0  0  0  0  0  0  # atno 8009 bound_to 7997
  154.6577  140.0551  157.0013 H   0  0  0  0  0  0  0  0  0  0  0  0  # atno 8010 bound_to 7997
  140.1229  143.4428  152.1679 H   0  0  0  0  0  0  0  0  0  0  0  0  # atno 10167 bound_to 10162
  156.6939  130.9170  151.3072 H   0  0  0  0  0  0  0  0  0  0  0  0  # atno 10718 bound_to 10713
  154.8711  135.3718  154.4819 H   0  0  0  0  0  0  0  0  0  0  0  0  # atno 10763 bound_to 10752
  153.5471  135.7025  153.5613 H   0  0  0  0  0  0  0  0  0  0  0  0  # atno 10764 bound_to 10752
  153.3749  135.4012  155.1779 H   0  0  0  0  0  0  0  0  0  0  0  0  # atno 10765 bound_to 10752
  140.4753  134.6127  157.4898 H   0  0  0  0  0  0  0  0  0  0  0  0  # atno 11005 bound_to 11000
  145.5349  139.1475  143.3479 LP  0  0  0  0  0  0  0  0  0  0  0  0  # atno 17320 bound_to 7965
  146.2396  140.5489  142.8940 LP  0  0  0  0  0  0  0  0  0  0  0  0  # atno 17321 bound_to 7965
  139.5559  144.7372  151.4295 LP  0  0  0  0  0  0  0  0  0  0  0  0  # atno 17342 bound_to 10162
  140.6862  143.7969  150.7189 LP  0  0  0  0  0  0  0  0  0  0  0  0  # atno 17343 bound_to 10162
  157.6999  130.9321  150.0753 LP  0  0  0  0  0  0  0  0  0  0  0  0  # atno 17370 bound_to 10713
  156.1778  130.3649  149.9077 LP  0  0  0  0  0  0  0  0  0  0  0  0  # atno 17371 bound_to 10713
  139.9860  134.7061  155.9774 LP  0  0  0  0  0  0  0  0  0  0  0  0  # atno 17394 bound_to 11000
  141.1557  133.6543  156.4155 LP  0  0  0  0  0  0  0  0  0  0  0  0  # atno 17395 bound_to 11000

$$$$
