AV-unprocessed.smi:3148|AV-procd|sdf|11992|dock8
  -GOLD-   2272017393D 1   1.00000     0.00000
 Structure written by MMmdl.
 34 36  0  0  0  0  0  0  0  0  1 V2000
  152.6913  138.1165  154.4342 C   0  0  0  0  0  0  0  0  0  0  0  0
  152.5975  139.1935  155.3600 O   0  0  0  0  0  0  0  0  0  0  0  0
  151.4226  139.9152  155.3998 C   0  0  0  0  0  0  0  0  0  0  0  0
  150.3648  139.5674  154.5353 C   0  0  0  0  0  0  0  0  0  0  0  0
  149.1933  140.3469  154.6321 C   0  0  0  0  0  0  0  0  0  0  0  0
  147.9842  140.0699  153.7642 C   0  0  0  0  0  0  0  0  0  0  0  0
  149.0895  141.3722  155.5061 N   0  0  0  0  0  0  0  0  0  0  0  0
  150.1485  141.6174  156.2805 C   0  0  0  0  0  0  0  0  0  0  0  0
  150.0058  142.6674  157.1685 N   0  0  0  0  0  0  0  0  0  0  0  0
  150.3427  142.5950  158.5857 C   0  0  1  0  0  0  0  0  0  0  0  0
  151.7542  142.0633  158.8432 C   0  0  0  0  0  0  0  0  0  0  0  0
  152.3484  143.1668  159.7303 C   0  0  1  0  0  0  0  0  0  0  0  0
  152.6940  144.4197  158.9150 C   0  0  0  0  0  0  0  0  0  0  0  0
  151.3079  144.9877  158.6165 C   0  0  0  0  0  0  0  0  0  0  0  0
  150.3890  143.9605  159.2999 C   0  0  2  0  0  0  0  0  0  0  0  0
  151.1917  143.6163  160.4165 O   0  0  0  0  0  0  0  0  0  0  0  0
  151.3057  140.9463  156.2728 N   0  0  0  0  0  0  0  0  0  0  0  0
  153.6745  137.6536  154.5182 H   0  0  0  0  0  0  0  0  0  0  0  0
  152.5748  138.4628  153.4062 H   0  0  0  0  0  0  0  0  0  0  0  0
  151.9450  137.3475  154.6391 H   0  0  0  0  0  0  0  0  0  0  0  0
  150.4509  138.7461  153.8393 H   0  0  0  0  0  0  0  0  0  0  0  0
  148.2129  139.3307  152.9960 H   0  0  0  0  0  0  0  0  0  0  0  0
  147.6513  140.9828  153.2696 H   0  0  0  0  0  0  0  0  0  0  0  0
  147.1635  139.6886  154.3720 H   0  0  0  0  0  0  0  0  0  0  0  0
  149.4704  143.4624  156.8515 H   0  0  0  0  0  0  0  0  0  0  0  0
  149.6256  141.9454  159.0899 H   0  0  0  0  0  0  0  0  0  0  0  0
  151.7075  141.1150  159.3793 H   0  0  0  0  0  0  0  0  0  0  0  0
  152.3405  141.9099  157.9360 H   0  0  0  0  0  0  0  0  0  0  0  0
  153.1545  142.8264  160.3805 H   0  0  0  0  0  0  0  0  0  0  0  0
  153.2753  145.1240  159.5111 H   0  0  0  0  0  0  0  0  0  0  0  0
  153.2601  144.1861  158.0127 H   0  0  0  0  0  0  0  0  0  0  0  0
  151.1940  145.9688  159.0784 H   0  0  0  0  0  0  0  0  0  0  0  0
  151.1119  145.0957  157.5494 H   0  0  0  0  0  0  0  0  0  0  0  0
  149.4075  144.3552  159.5643 H   0  0  0  0  0  0  0  0  0  0  0  0
  1  2  1  0  0  0  0
  1 18  1  0  0  0  0
  1 19  1  0  0  0  0
  1 20  1  0  0  0  0
  2  3  1  0  0  0  0
  3 17  1  0  0  0  0
  3  4  2  0  0  0  0
  4  5  1  0  0  0  0
  4 21  1  0  0  0  0
  5  6  1  0  0  0  0
  5  7  2  0  0  0  0
  6 22  1  0  0  0  0
  6 23  1  0  0  0  0
  6 24  1  0  0  0  0
  7  8  1  0  0  0  0
  8  9  1  0  0  0  0
  8 17  2  0  0  0  0
  9 10  1  0  0  0  0
  9 25  1  0  0  0  0
 10 15  1  0  0  0  0
 10 11  1  0  0  0  0
 10 26  1  0  0  0  0
 11 12  1  0  0  0  0
 11 27  1  0  0  0  0
 11 28  1  0  0  0  0
 12 16  1  0  0  0  0
 12 13  1  0  0  0  0
 12 29  1  0  0  0  0
 13 14  1  0  0  0  0
 13 30  1  0  0  0  0
 13 31  1  0  0  0  0
 14 15  1  0  0  0  0
 14 32  1  0  0  0  0
 14 33  1  0  0  0  0
 15 16  1  0  0  0  0
 15 34  1  0  0  0  0
M  END
> <s_m_source_file>
AV-unprocessed.smi

> <i_m_source_file_index>
3148

> <i_lp_mmshare_version>
43012

> <i_f3d_flags>
0

> <s_epik_input>
W0NIM11PYzFbY0hdYyhbQ0gzXSluYyhuMSlbTkhdW0NASF0oW0NIMl1bQ0BASF0yMylbQ0BASF0oTzMpW0NIMl1bQ0gyXTI=

> <s_epik_cmdline>
J2VwaWtfcHl0aG9uJywgJy1waCcsICc3LjAnLCAnLXRuJywgJzgnLCAnLW1hJywgJzIwMCcsICctbWV0YWxfYmluZGluZycsICctaW1hZScsICc8aW5maWxlLm1hZT4nLCAnLW9tYWUnLCAnPG91dGZpbGUubWFlPic=

> <r_lp_tautomer_probability>
1

> <r_epik_Ionization_Penalty>
0.101645

> <r_epik_Ionization_Penalty_Charging>
0

> <r_epik_Ionization_Penalty_Neutral>
0.101645

> <r_epik_State_Penalty>
0.0916212

> <r_epik_Charging_Adjusted_Penalty>
0.0916212

> <i_epik_Tot_Q>
0

> <i_epik_Tot_abs_Q>
0

> <r_epik_Metal_State_Penalty>
0.0781

> <b_epik_Metal_Only>
0

> <s_lp_Force_Field>
OPLS_2005

> <r_lp_Energy>
31.5885

> <b_lp_Chiralities_Consistent>
1

> <s_lp_Variant>
AV-unprocessed.smi:3148-2

> <Gold.Version>
5.8.1

> <Gold.Id.Protein>
6NUR|6NUR_protein|mol2

> <Gold.PLP.Fitness>
40.7874

> <Gold.PLP.PLP>
-36.0547

> <Gold.PLP.part.hbond>
-2.4374

> <Gold.PLP.part.metal>
0.0000

> <Gold.PLP.part.buried>
-1.9216

> <Gold.PLP.part.nonpolar>
-31.2853

> <Gold.PLP.part.repulsive>
0.2497

> <Gold.PLP.ligand.clash>
0.2290

> <Gold.PLP.ligand.torsion>
0.5242

> <Gold.PLP.Chemscore.Hbond>
2.0000

> <Gold.PLP.Chemscore.CHOScore>
0.0000

> <Gold.PLP.Chemscore.Metal>
0.0000

> <Gold.Chemscore.Hbonds>
donor molecule, donor type, donor heavy atom, donor atom, acceptor molecule, acceptor atom, score
      L1  H     9    25       P1  8028  1.00
      P1  H  7997  8010       L1     2  0.65

> <Gold.PLP.Chemscore.Internal.Correction>
0.0100

> <Gold.Rescore>
     Score         DG    S(hbond)    S(metal)    S(lipo)     H(rot)  DE(clash)    DE(int)     intcor
     17.47     -19.63       1.94        0.00      92.48       1.22       0.06       2.10       ----

> <Gold.Chemscore.Fitness>
17.4696

> <Gold.Chemscore.DG>
-19.6347

> <Gold.Chemscore.ZeroCoef>
-5.4800

> <Gold.Chemscore.Hbond>
1.9359

> <Gold.Chemscore.Metal>
0.0000

> <Gold.Chemscore.Lipo>
92.4802

> <Gold.Chemscore.Internal_Hbond>
0.0000

> <Gold.Chemscore.DEClash>
0.0624

> <Gold.Chemscore.DEInternal>
2.1027

> <Gold.Chemscore.Rot>
1.2232

> <Gold.Chemscore.Internal.Correction>
   9.000000E+99

> <Gold.Chemscore.Hbonds>
donor molecule, donor type, donor heavy atom, donor atom, acceptor molecule, acceptor atom, score
      L1  H     9    25       P1  8028  0.97
      P1  H  7997  8010       L1     2  0.60

> <Gold.Chemscore.Hbond.Weighted>
-6.4659

> <Gold.Chemscore.Metal.Weighted>
-0.0000

> <Gold.Chemscore.Lipo.Weighted>
-10.8202

> <Gold.Chemscore.Internal_Hbond.Weighted>
0.0000

> <Gold.Chemscore.DEClash.Weighted>
0.0624

> <Gold.Chemscore.DEInternal.Weighted>
2.1027

> <Gold.Chemscore.Rot.Weighted>
3.1314

> <Gold.Chemscore.Internal.Correction.Weighted>
   9.000000E+99

> <Gold.Protein.RotatedTorsions>
[ 6907 6896 6895 6894 ] final    3.16 input  -60.11 | X-H torsion
[ 7974 7965 7964 7962 ] final   -6.04 input  175.53 | X-H torsion
[ 8008 7997 7996 7995 ] final   82.15 input   59.86 | X-H torsion
[ 10167 10162 10161 10158 ] final   86.12 input  -65.29 | X-H torsion
[ 10718 10713 10712 10709 ] final -132.87 input   66.30 | X-H torsion
[ 10763 10752 10751 10750 ] final   35.12 input  -60.55 | X-H torsion
[ 11005 11000 10999 10996 ] final  -67.52 input  -57.11 | X-H torsion

> <Gold.Protein.ActiveResidues>
 VAL166  LYS551  ARG553  GLY616  TRP617  ASP618  TYR619  PRO620  LYS621  CYS622 
 ASP623  PHE694  ASN695  SER759  ASP760  ASP761  ALA762  ILE779  LEU786  VAL792 
 PHE793  MET794  SER795  GLU796  ALA797  LYS798  CYS799  TRP800  GLU811  SER814 

> <Gold.Protein.RotatedAtoms>
  151.6206  135.1032  160.0100 H   0  0  0  0  0  0  0  0  0  0  0  0  # atno 6907 bound_to 6896
  152.4160  133.7034  159.6448 H   0  0  0  0  0  0  0  0  0  0  0  0  # atno 6908 bound_to 6896
  150.8048  133.8456  159.3232 H   0  0  0  0  0  0  0  0  0  0  0  0  # atno 6909 bound_to 6896
  146.2340  140.2111  142.8335 H   0  0  0  0  0  0  0  0  0  0  0  0  # atno 7974 bound_to 7965
  155.9067  140.3430  155.6067 H   0  0  0  0  0  0  0  0  0  0  0  0  # atno 8008 bound_to 7997
  155.7436  140.0811  157.2253 H   0  0  0  0  0  0  0  0  0  0  0  0  # atno 8009 bound_to 7997
  154.4050  140.1566  156.2631 H   0  0  0  0  0  0  0  0  0  0  0  0  # atno 8010 bound_to 7997
  139.8907  144.6387  150.8741 H   0  0  0  0  0  0  0  0  0  0  0  0  # atno 10167 bound_to 10162
  156.2391  130.7084  151.0938 H   0  0  0  0  0  0  0  0  0  0  0  0  # atno 10718 bound_to 10713
  153.0133  135.6342  154.1776 H   0  0  0  0  0  0  0  0  0  0  0  0  # atno 10763 bound_to 10752
  154.1516  135.2828  155.3135 H   0  0  0  0  0  0  0  0  0  0  0  0  # atno 10764 bound_to 10752
  154.6049  135.5575  153.7473 H   0  0  0  0  0  0  0  0  0  0  0  0  # atno 10765 bound_to 10752
  141.1510  133.6721  156.6305 H   0  0  0  0  0  0  0  0  0  0  0  0  # atno 11005 bound_to 11000
  144.9706  140.8365  143.5457 LP  0  0  0  0  0  0  0  0  0  0  0  0  # atno 17320 bound_to 7965
  145.2092  139.2213  143.5152 LP  0  0  0  0  0  0  0  0  0  0  0  0  # atno 17321 bound_to 7965
  140.7727  143.3512  151.2011 LP  0  0  0  0  0  0  0  0  0  0  0  0  # atno 17342 bound_to 10162
  139.7112  143.9374  152.2948 LP  0  0  0  0  0  0  0  0  0  0  0  0  # atno 17343 bound_to 10162
  157.7167  131.0705  150.6298 LP  0  0  0  0  0  0  0  0  0  0  0  0  # atno 17370 bound_to 10713
  156.6370  130.4448  149.5766 LP  0  0  0  0  0  0  0  0  0  0  0  0  # atno 17371 bound_to 10713
  140.3470  134.7800  157.4440 LP  0  0  0  0  0  0  0  0  0  0  0  0  # atno 17394 bound_to 11000
  140.0891  134.5626  155.8462 LP  0  0  0  0  0  0  0  0  0  0  0  0  # atno 17395 bound_to 11000

$$$$
