AV-unprocessed.smi:249|AV-procd|sdf|1908|dock10
  -GOLD-   2262020593D 1   1.00000     0.00000
 Structure written by MMmdl.
 64 67  0  0  0  0  0  0  0  0  2 V2000
  146.7423  128.4809  151.6530 C   0  0  0  0  0  0  0  0  0  0  0  0
  145.8623  129.7335  151.5105 C   0  0  0  0  0  0  0  0  0  0  0  0
  146.6214  131.0133  151.6183 N   0  3  2  0  0  0  0  0  0  0  0  0
  147.0115  131.3078  153.0272 C   0  0  0  0  0  0  0  0  0  0  0  0
  147.8584  132.5847  153.1425 C   0  0  0  0  0  0  0  0  0  0  0  0
  147.1178  133.8105  152.5686 C   0  0  2  0  0  0  0  0  0  0  0  0
  145.9250  134.2019  153.3385 N   0  0  0  0  0  0  0  0  0  0  0  0
  144.7315  134.5762  152.5871 C   0  0  0  0  0  0  0  0  0  0  0  0
  146.1316  135.0651  154.3579 C   0  0  0  0  0  0  0  0  0  0  0  0
  146.4106  134.5333  155.5732 N   0  0  0  0  0  0  0  0  0  0  0  0
  146.6467  135.3378  156.6139 C   0  0  0  0  0  0  0  0  0  0  0  0
  146.6586  136.6721  156.6517 N   0  0  0  0  0  0  0  0  0  0  0  0
  146.3690  137.2071  155.4309 C   0  0  0  0  0  0  0  0  0  0  0  0
  146.0828  136.4823  154.2410 C   0  0  0  0  0  0  0  0  0  0  0  0
  145.8201  137.3626  153.1986 N   0  0  0  0  0  0  0  0  0  0  0  0
  145.9573  138.5429  153.7384 C   0  0  0  0  0  0  0  0  0  0  0  0
  146.3155  138.5412  155.0682 N   0  0  0  0  0  0  0  0  0  0  0  0
  146.5486  139.7038  155.9055 C   0  0  0  0  0  0  0  0  0  0  0  0
  147.7618  140.5798  155.4825 C   0  0  2  0  0  0  0  0  0  0  0  0
  147.4982  141.1598  154.0712 C   0  0  0  0  0  0  0  0  0  0  0  0
  146.2150  141.7450  153.9849 O   0  0  0  0  0  0  0  0  0  0  0  0
  149.1229  139.8206  155.5474 C   0  0  1  0  0  0  0  0  0  0  0  0
  149.3785  138.8507  154.4027 C   0  0  0  0  0  0  0  0  0  0  0  0
  150.8838  138.6427  154.4795 C   0  0  0  0  0  0  0  0  0  0  0  0
  151.3990  139.9213  154.8128 O   0  0  0  0  0  0  0  0  0  0  0  0
  150.3850  140.6969  155.4451 C   0  0  0  0  0  0  0  0  0  0  0  0
  146.7797  133.4663  151.1067 C   0  0  0  0  0  0  0  0  0  0  0  0
  145.9310  132.1796  150.9749 C   0  0  1  0  0  0  0  0  0  0  0  0
  145.6193  131.9486  149.4816 C   0  0  0  0  0  0  0  0  0  0  0  0
  146.1724  127.5863  151.4015 H   0  0  0  0  0  0  0  0  0  0  0  0
  147.1072  128.3436  152.6704 H   0  0  0  0  0  0  0  0  0  0  0  0
  147.6015  128.5212  150.9827 H   0  0  0  0  0  0  0  0  0  0  0  0
  145.3922  129.6545  150.5330 H   0  0  0  0  0  0  0  0  0  0  0  0
  145.0564  129.7164  152.2453 H   0  0  0  0  0  0  0  0  0  0  0  0
  146.1154  131.3893  153.6437 H   0  0  0  0  0  0  0  0  0  0  0  0
  147.6000  130.4896  153.4386 H   0  0  0  0  0  0  0  0  0  0  0  0
  148.1592  132.7434  154.1783 H   0  0  0  0  0  0  0  0  0  0  0  0
  148.7907  132.4416  152.5942 H   0  0  0  0  0  0  0  0  0  0  0  0
  147.8015  134.6598  152.5649 H   0  0  0  0  0  0  0  0  0  0  0  0
  144.0014  135.0974  153.2090 H   0  0  0  0  0  0  0  0  0  0  0  0
  144.2416  133.6872  152.1903 H   0  0  0  0  0  0  0  0  0  0  0  0
  144.9910  135.2274  151.7517 H   0  0  0  0  0  0  0  0  0  0  0  0
  146.8628  134.8423  157.5490 H   0  0  0  0  0  0  0  0  0  0  0  0
  145.8194  139.4527  153.1722 H   0  0  0  0  0  0  0  0  0  0  0  0
  145.6416  140.3095  155.9136 H   0  0  0  0  0  0  0  0  0  0  0  0
  146.6773  139.3370  156.9240 H   0  0  0  0  0  0  0  0  0  0  0  0
  147.8289  141.4291  156.1639 H   0  0  0  0  0  0  0  0  0  0  0  0
  148.2094  141.9459  153.8220 H   0  0  0  0  0  0  0  0  0  0  0  0
  147.5945  140.3858  153.3091 H   0  0  0  0  0  0  0  0  0  0  0  0
  145.6914  141.2362  153.3847 H   0  0  0  0  0  0  0  0  0  0  0  0
  149.1691  139.2522  156.4778 H   0  0  0  0  0  0  0  0  0  0  0  0
  148.8314  137.9127  154.5019 H   0  0  0  0  0  0  0  0  0  0  0  0
  149.1138  139.3063  153.4472 H   0  0  0  0  0  0  0  0  0  0  0  0
  151.1334  137.9402  155.2757 H   0  0  0  0  0  0  0  0  0  0  0  0
  151.3069  138.2692  153.5468 H   0  0  0  0  0  0  0  0  0  0  0  0
  150.2071  141.5784  154.8285 H   0  0  0  0  0  0  0  0  0  0  0  0
  150.7360  141.0316  156.4201 H   0  0  0  0  0  0  0  0  0  0  0  0
  146.2765  134.3056  150.6263 H   0  0  0  0  0  0  0  0  0  0  0  0
  147.7100  133.3364  150.5514 H   0  0  0  0  0  0  0  0  0  0  0  0
  144.9838  132.3370  151.4935 H   0  0  0  0  0  0  0  0  0  0  0  0
  145.2667  132.8670  149.0111 H   0  0  0  0  0  0  0  0  0  0  0  0
  144.8296  131.2138  149.3297 H   0  0  0  0  0  0  0  0  0  0  0  0
  146.5043  131.6204  148.9355 H   0  0  0  0  0  0  0  0  0  0  0  0
  147.4810  130.8794  151.1051 H   0  0  0  0  0  0  0  0  0  0  0  0
  1  2  1  0  0  0  0
  1 30  1  0  0  0  0
  1 31  1  0  0  0  0
  1 32  1  0  0  0  0
  2  3  1  0  0  0  0
  2 33  1  0  0  0  0
  2 34  1  0  0  0  0
  3 28  1  0  0  0  0
  3  4  1  0  0  0  0
  3 64  1  0  0  0  0
  4  5  1  0  0  0  0
  4 35  1  0  0  0  0
  4 36  1  0  0  0  0
  5  6  1  0  0  0  0
  5 37  1  0  0  0  0
  5 38  1  0  0  0  0
  6  7  1  0  0  0  0
  6 27  1  0  0  0  0
  6 39  1  0  0  0  0
  7  8  1  0  0  0  0
  7  9  1  0  0  0  0
  8 40  1  0  0  0  0
  8 41  1  0  0  0  0
  8 42  1  0  0  0  0
  9 14  1  0  0  0  0
  9 10  2  0  0  0  0
 10 11  1  0  0  0  0
 11 12  2  0  0  0  0
 11 43  1  0  0  0  0
 12 13  1  0  0  0  0
 13 17  1  0  0  0  0
 13 14  2  0  0  0  0
 14 15  1  0  0  0  0
 15 16  2  0  0  0  0
 16 17  1  0  0  0  0
 16 44  1  0  0  0  0
 17 18  1  0  0  0  0
 18 19  1  0  0  0  0
 18 45  1  0  0  0  0
 18 46  1  0  0  0  0
 19 20  1  0  0  0  0
 19 22  1  0  0  0  0
 19 47  1  0  0  0  0
 20 21  1  0  0  0  0
 20 48  1  0  0  0  0
 20 49  1  0  0  0  0
 21 50  1  0  0  0  0
 22 26  1  0  0  0  0
 22 23  1  0  0  0  0
 22 51  1  0  0  0  0
 23 24  1  0  0  0  0
 23 52  1  0  0  0  0
 23 53  1  0  0  0  0
 24 25  1  0  0  0  0
 24 54  1  0  0  0  0
 24 55  1  0  0  0  0
 25 26  1  0  0  0  0
 26 56  1  0  0  0  0
 26 57  1  0  0  0  0
 27 28  1  0  0  0  0
 27 58  1  0  0  0  0
 27 59  1  0  0  0  0
 28 29  1  0  0  0  0
 28 60  1  0  0  0  0
 29 61  1  0  0  0  0
 29 62  1  0  0  0  0
 29 63  1  0  0  0  0
M  CHG  1   3   1
M  END
> <s_m_source_file>
AV-unprocessed.smi

> <i_m_source_file_index>
249

> <i_lp_mmshare_version>
43012

> <i_f3d_flags>
0

> <s_epik_input>
W0NIM11bQ0gyXU4xW0NIMl1bQ0gyXVtDQEhdKFtDSDJdW0NASF0xW0NIM10pTihbQ0gzXSljKG5bY0hdbjIpYyhjMjMpbltjSF1uM1tDSDJdW0NASF0oW0NIMl1bT0hdKVtDQEBIXTRbQ0gyXVtDSDJdT1tDSDJdNA==

> <s_epik_cmdline>
J2VwaWtfcHl0aG9uJywgJy1waCcsICc3LjAnLCAnLXRuJywgJzgnLCAnLW1hJywgJzIwMCcsICctbWV0YWxfYmluZGluZycsICctaW1hZScsICc8aW5maWxlLm1hZT4nLCAnLW9tYWUnLCAnPG91dGZpbGUubWFlPic=

> <r_lp_tautomer_probability>
1

> <r_epik_Ionization_Penalty>
0.00294688

> <r_epik_Ionization_Penalty_Charging>
0.00169971

> <r_epik_Ionization_Penalty_Neutral>
0.00124717

> <r_epik_State_Penalty>
-0

> <r_epik_Charging_Adjusted_Penalty>
0.00169971

> <i_epik_Tot_Q>
1

> <i_epik_Tot_abs_Q>
1

> <r_epik_Metal_State_Penalty>
-0

> <b_epik_Metal_Only>
0

> <s_lp_Force_Field>
OPLS_2005

> <r_lp_Energy>
57.0978

> <b_lp_Chiralities_Consistent>
1

> <s_lp_Variant>
AV-unprocessed.smi:249-11

> <Gold.Version>
5.8.1

> <Gold.Id.Protein>
6NUR|6NUR_protein|mol2

> <Gold.PLP.Fitness>
46.3862

> <Gold.PLP.PLP>
-37.6191

> <Gold.PLP.part.hbond>
-2.9767

> <Gold.PLP.part.metal>
0.0000

> <Gold.PLP.part.buried>
-5.8047

> <Gold.PLP.part.nonpolar>
-30.6627

> <Gold.PLP.part.repulsive>
0.3624

> <Gold.PLP.ligand.clash>
0.0000

> <Gold.PLP.ligand.torsion>
1.8780

> <Gold.PLP.Chemscore.Hbond>
3.0000

> <Gold.PLP.Chemscore.CHOScore>
1.0000

> <Gold.PLP.Chemscore.Metal>
0.0000

> <Gold.Chemscore.Hbonds>
donor molecule, donor type, donor heavy atom, donor atom, acceptor molecule, acceptor atom, score
      L1  H     3    64       P1 10747  1.00
      L1  H    21    50       P1 10175  0.28
      P1  H  7989  7998       L1    25  0.95
      L1  C    16    44       P1 10175  0.95

> <Gold.PLP.Chemscore.Internal.Correction>
0.5231

> <Gold.Rescore>
     Score         DG    S(hbond)    S(metal)    S(lipo)     H(rot)  DE(clash)    DE(int)     intcor
     16.03     -17.60       2.62        0.00      92.31       2.90       0.01       1.57       ----

> <Gold.Chemscore.Fitness>
16.0270

> <Gold.Chemscore.DG>
-17.6046

> <Gold.Chemscore.ZeroCoef>
-5.4800

> <Gold.Chemscore.Hbond>
2.6199

> <Gold.Chemscore.Metal>
0.0000

> <Gold.Chemscore.Lipo>
92.3055

> <Gold.Chemscore.Internal_Hbond>
0.0000

> <Gold.Chemscore.DEClash>
0.0121

> <Gold.Chemscore.DEInternal>
1.5654

> <Gold.Chemscore.Rot>
2.9006

> <Gold.Chemscore.Internal.Correction>
   9.000000E+99

> <Gold.Chemscore.Hbonds>
donor molecule, donor type, donor heavy atom, donor atom, acceptor molecule, acceptor atom, score
      L1  H     3    64       P1 10747  1.00
      L1  H    21    50       P1 10175  0.08
      P1  H  7989  7998       L1    25  0.18

> <Gold.Chemscore.Hbond.Weighted>
-8.7505

> <Gold.Chemscore.Metal.Weighted>
-0.0000

> <Gold.Chemscore.Lipo.Weighted>
-10.7997

> <Gold.Chemscore.Internal_Hbond.Weighted>
0.0000

> <Gold.Chemscore.DEClash.Weighted>
0.0121

> <Gold.Chemscore.DEInternal.Weighted>
1.5654

> <Gold.Chemscore.Rot.Weighted>
7.4256

> <Gold.Chemscore.Internal.Correction.Weighted>
   9.000000E+99

> <Gold.Protein.RotatedTorsions>
[ 6907 6896 6895 6894 ] final   56.56 input  -60.11 | X-H torsion
[ 7974 7965 7964 7962 ] final  101.16 input  175.53 | X-H torsion
[ 8008 7997 7996 7995 ] final  163.08 input   59.86 | X-H torsion
[ 10167 10162 10161 10158 ] final  136.33 input  -65.29 | X-H torsion
[ 10718 10713 10712 10709 ] final  116.41 input   66.30 | X-H torsion
[ 10763 10752 10751 10750 ] final  128.68 input  -60.55 | X-H torsion
[ 11005 11000 10999 10996 ] final  -32.08 input  -57.11 | X-H torsion

> <Gold.Protein.ActiveResidues>
 VAL166  LYS551  ARG553  GLY616  TRP617  ASP618  TYR619  PRO620  LYS621  CYS622 
 ASP623  PHE694  ASN695  SER759  ASP760  ASP761  ALA762  ILE779  LEU786  VAL792 
 PHE793  MET794  SER795  GLU796  ALA797  LYS798  CYS799  TRP800  GLU811  SER814 

> <Gold.Protein.RotatedAtoms>
  152.3647  134.6821  160.0195 H   0  0  0  0  0  0  0  0  0  0  0  0  # atno 6907 bound_to 6896
  151.7133  133.3307  159.3304 H   0  0  0  0  0  0  0  0  0  0  0  0  # atno 6908 bound_to 6896
  150.7630  134.6448  159.6301 H   0  0  0  0  0  0  0  0  0  0  0  0  # atno 6909 bound_to 6896
  145.3759  139.2389  143.3429 H   0  0  0  0  0  0  0  0  0  0  0  0  # atno 7974 bound_to 7965
  156.1984  140.1733  156.7950 H   0  0  0  0  0  0  0  0  0  0  0  0  # atno 8008 bound_to 7997
  154.5559  140.0708  156.8774 H   0  0  0  0  0  0  0  0  0  0  0  0  # atno 8009 bound_to 7997
  155.2939  140.3357  155.4253 H   0  0  0  0  0  0  0  0  0  0  0  0  # atno 8010 bound_to 7997
  139.5184  144.6470  151.5410 H   0  0  0  0  0  0  0  0  0  0  0  0  # atno 10167 bound_to 10162
  157.6162  131.1025  150.7469 H   0  0  0  0  0  0  0  0  0  0  0  0  # atno 10718 bound_to 10713
  153.7295  135.3241  155.3283 H   0  0  0  0  0  0  0  0  0  0  0  0  # atno 10763 bound_to 10752
  154.8330  135.4518  154.1136 H   0  0  0  0  0  0  0  0  0  0  0  0  # atno 10764 bound_to 10752
  153.2279  135.6956  153.8004 H   0  0  0  0  0  0  0  0  0  0  0  0  # atno 10765 bound_to 10752
  140.9522  133.7214  156.1238 H   0  0  0  0  0  0  0  0  0  0  0  0  # atno 11005 bound_to 11000
  146.2864  140.4419  142.8756 LP  0  0  0  0  0  0  0  0  0  0  0  0  # atno 17320 bound_to 7965
  144.8542  140.7046  143.6148 LP  0  0  0  0  0  0  0  0  0  0  0  0  # atno 17321 bound_to 7965
  140.6259  143.9169  150.6564 LP  0  0  0  0  0  0  0  0  0  0  0  0  # atno 17342 bound_to 10162
  140.2457  143.3630  152.1448 LP  0  0  0  0  0  0  0  0  0  0  0  0  # atno 17343 bound_to 10162
  156.7836  130.4867  149.5397 LP  0  0  0  0  0  0  0  0  0  0  0  0  # atno 17370 bound_to 10713
  156.1285  130.6161  151.0299 LP  0  0  0  0  0  0  0  0  0  0  0  0  # atno 17371 bound_to 10713
  140.7586  134.3964  157.5529 LP  0  0  0  0  0  0  0  0  0  0  0  0  # atno 17394 bound_to 11000
  139.8851  134.8947  156.2664 LP  0  0  0  0  0  0  0  0  0  0  0  0  # atno 17395 bound_to 11000

$$$$
