AV-unprocessed.smi:1801|AV-procd|sdf|7269|dock2
  -GOLD-   22720 8523D 1   1.00000     0.00000
 Structure written by MMmdl.
 37 38  0  0  0  0  0  0  0  0  3 V2000
  148.8821  140.5459  157.4424 C   0  0  0  0  0  0  0  0  0  0  0  0
  150.1952  139.7529  157.5491 C   0  0  2  0  0  0  0  0  0  0  0  0
  149.8964  138.2583  157.8045 C   0  0  0  0  0  0  0  0  0  0  0  0
  149.1878  138.0303  159.0611 N   0  0  0  0  0  0  0  0  0  0  0  0
  148.7465  136.8488  159.5157 C   0  0  0  0  0  0  0  0  0  0  0  0
  148.8893  135.8331  158.8315 O   0  0  0  0  0  0  0  0  0  0  0  0
  148.1810  136.9167  160.7415 N   0  5  0  0  0  0  0  0  0  0  0  0
  147.9285  135.7896  161.4275 C   0  0  0  0  0  0  0  0  0  0  0  0
  148.1969  135.6712  162.7377 N   0  0  0  0  0  0  0  0  0  0  0  0
  147.8649  134.4254  163.2524 N   0  0  0  0  0  0  0  0  0  0  0  0
  147.3599  133.6293  162.3103 C   0  0  0  0  0  0  0  0  0  0  0  0
  147.2463  134.3280  160.7086 S   0  0  0  0  0  0  0  0  0  0  0  0
  151.1285  140.3545  158.6263 C   0  0  0  0  0  0  0  0  0  0  0  0
  151.8040  141.5888  158.1618 N   0  3  0  0  0  0  0  0  0  0  0  0
  150.8908  142.7280  157.9385 C   0  0  0  0  0  0  0  0  0  0  0  0
  151.7658  143.9697  158.0725 C   0  0  0  0  0  0  0  0  0  0  0  0
  152.7307  143.5817  159.1876 C   0  0  0  0  0  0  0  0  0  0  0  0
  152.9086  142.0659  159.0310 C   0  0  0  0  0  0  0  0  0  0  0  0
  148.3247  140.5187  158.3790 H   0  0  0  0  0  0  0  0  0  0  0  0
  148.2398  140.1352  156.6628 H   0  0  0  0  0  0  0  0  0  0  0  0
  149.0655  141.5913  157.1935 H   0  0  0  0  0  0  0  0  0  0  0  0
  150.6902  139.8229  156.5805 H   0  0  0  0  0  0  0  0  0  0  0  0
  149.2834  137.8576  156.9968 H   0  0  0  0  0  0  0  0  0  0  0  0
  150.8211  137.6788  157.8048 H   0  0  0  0  0  0  0  0  0  0  0  0
  149.0331  138.8361  159.6496 H   0  0  0  0  0  0  0  0  0  0  0  0
  147.0554  132.6237  162.5591 H   0  0  0  0  0  0  0  0  0  0  0  0
  150.5458  140.5761  159.5217 H   0  0  0  0  0  0  0  0  0  0  0  0
  151.8977  139.6445  158.9327 H   0  0  0  0  0  0  0  0  0  0  0  0
  150.3975  142.6635  156.9682 H   0  0  0  0  0  0  0  0  0  0  0  0
  150.1192  142.7401  158.7105 H   0  0  0  0  0  0  0  0  0  0  0  0
  152.3157  144.1404  157.1458 H   0  0  0  0  0  0  0  0  0  0  0  0
  151.1944  144.8705  158.2985 H   0  0  0  0  0  0  0  0  0  0  0  0
  153.6748  144.1248  159.1357 H   0  0  0  0  0  0  0  0  0  0  0  0
  152.2757  143.7979  160.1554 H   0  0  0  0  0  0  0  0  0  0  0  0
  152.9087  141.5787  160.0078 H   0  0  0  0  0  0  0  0  0  0  0  0
  153.8573  141.8315  158.5473 H   0  0  0  0  0  0  0  0  0  0  0  0
  152.2176  141.3837  157.2636 H   0  0  0  0  0  0  0  0  0  0  0  0
  1  2  1  0  0  0  0
  1 19  1  0  0  0  0
  1 20  1  0  0  0  0
  1 21  1  0  0  0  0
  2  3  1  0  0  0  0
  2 13  1  0  0  0  0
  2 22  1  0  0  0  0
  3  4  1  0  0  0  0
  3 23  1  0  0  0  0
  3 24  1  0  0  0  0
  4  5  1  0  0  0  0
  4 25  1  0  0  0  0
  5  6  2  0  0  0  0
  5  7  1  0  0  0  0
  7  8  1  0  0  0  0
  8 12  1  0  0  0  0
  8  9  2  0  0  0  0
  9 10  1  0  0  0  0
 10 11  2  0  0  0  0
 11 12  1  0  0  0  0
 11 26  1  0  0  0  0
 13 14  1  0  0  0  0
 13 27  1  0  0  0  0
 13 28  1  0  0  0  0
 14 18  1  0  0  0  0
 14 15  1  0  0  0  0
 14 37  1  0  0  0  0
 15 16  1  0  0  0  0
 15 29  1  0  0  0  0
 15 30  1  0  0  0  0
 16 17  1  0  0  0  0
 16 31  1  0  0  0  0
 16 32  1  0  0  0  0
 17 18  1  0  0  0  0
 17 33  1  0  0  0  0
 17 34  1  0  0  0  0
 18 35  1  0  0  0  0
 18 36  1  0  0  0  0
M  CHG  1   7  -1
M  CHG  1  14   1
M  END
> <s_m_source_file>
AV-unprocessed.smi

> <i_m_source_file_index>
1801

> <i_lp_mmshare_version>
43012

> <i_f3d_flags>
0

> <s_epik_input>
W0NIMl0xW0NIMl1bQ0gyXVtDSDJdTjFbQ0gyXVtDQEhdKFtDSDNdKVtDSDJdW05IXUMoPU8pW05IXWMybm5bY0hdczI=

> <s_epik_cmdline>
J2VwaWtfcHl0aG9uJywgJy1waCcsICc3LjAnLCAnLXRuJywgJzgnLCAnLW1hJywgJzIwMCcsICctbWV0YWxfYmluZGluZycsICctaW1hZScsICc8aW5maWxlLm1hZT4nLCAnLW9tYWUnLCAnPG91dGZpbGUubWFlPic=

> <r_lp_tautomer_probability>
1

> <r_epik_Ionization_Penalty>
3.29721

> <r_epik_Ionization_Penalty_Charging>
3.25987

> <r_epik_Ionization_Penalty_Neutral>
0.0373399

> <r_epik_State_Penalty>
3.2571

> <r_epik_Charging_Adjusted_Penalty>
6.51697

> <i_epik_Tot_Q>
0

> <i_epik_Tot_abs_Q>
2

> <r_epik_Metal_State_Penalty>
0.477553

> <b_epik_Metal_Only>
1

> <s_lp_Force_Field>
OPLS_2005

> <r_lp_Energy>
22.4794

> <b_lp_Chiralities_Consistent>
1

> <s_lp_Variant>
AV-unprocessed.smi:1801-3

> <Gold.Version>
5.8.1

> <Gold.Id.Protein>
6NUR|6NUR_protein|mol2

> <Gold.PLP.Fitness>
45.9173

> <Gold.PLP.PLP>
-34.6707

> <Gold.PLP.part.hbond>
-3.6810

> <Gold.PLP.part.metal>
0.0000

> <Gold.PLP.part.buried>
-5.8868

> <Gold.PLP.part.nonpolar>
-27.2837

> <Gold.PLP.part.repulsive>
0.4522

> <Gold.PLP.ligand.clash>
0.0000

> <Gold.PLP.ligand.torsion>
0.6030

> <Gold.PLP.Chemscore.Hbond>
4.0984

> <Gold.PLP.Chemscore.CHOScore>
0.0000

> <Gold.PLP.Chemscore.Metal>
0.0000

> <Gold.Chemscore.Hbonds>
donor molecule, donor type, donor heavy atom, donor atom, acceptor molecule, acceptor atom, score
      P1  H  6896  6908       L1     6  0.34
      P1  H  6931  6943       L1     7  1.92
      P1  H  6934  6947       L1     7  0.36

> <Gold.PLP.Chemscore.Internal.Correction>
0.1575

> <Gold.Rescore>
     Score         DG    S(hbond)    S(metal)    S(lipo)     H(rot)  DE(clash)    DE(int)     intcor
     13.24     -15.41       1.76        0.00      76.72       1.93       0.08       2.09       ----

> <Gold.Chemscore.Fitness>
13.2392

> <Gold.Chemscore.DG>
-15.4092

> <Gold.Chemscore.ZeroCoef>
-5.4800

> <Gold.Chemscore.Hbond>
1.7621

> <Gold.Chemscore.Metal>
0.0000

> <Gold.Chemscore.Lipo>
76.7167

> <Gold.Chemscore.Internal_Hbond>
0.0000

> <Gold.Chemscore.DEClash>
0.0811

> <Gold.Chemscore.DEInternal>
2.0889

> <Gold.Chemscore.Rot>
1.9266

> <Gold.Chemscore.Internal.Correction>
   9.000000E+99

> <Gold.Chemscore.Hbonds>
donor molecule, donor type, donor heavy atom, donor atom, acceptor molecule, acceptor atom, score
      P1  H  6896  6908       L1     6  0.20
      P1  H  6931  6943       L1     7  0.59
      P1  H  6934  6947       L1     7  0.11

> <Gold.Chemscore.Hbond.Weighted>
-5.8854

> <Gold.Chemscore.Metal.Weighted>
-0.0000

> <Gold.Chemscore.Lipo.Weighted>
-8.9759

> <Gold.Chemscore.Internal_Hbond.Weighted>
0.0000

> <Gold.Chemscore.DEClash.Weighted>
0.0811

> <Gold.Chemscore.DEInternal.Weighted>
2.0889

> <Gold.Chemscore.Rot.Weighted>
4.9321

> <Gold.Chemscore.Internal.Correction.Weighted>
   9.000000E+99

> <Gold.Protein.RotatedTorsions>
[ 6907 6896 6895 6894 ] final -179.01 input  -60.11 | X-H torsion
[ 7974 7965 7964 7962 ] final   95.28 input  175.53 | X-H torsion
[ 8008 7997 7996 7995 ] final  100.59 input   59.86 | X-H torsion
[ 10167 10162 10161 10158 ] final -178.60 input  -65.29 | X-H torsion
[ 10718 10713 10712 10709 ] final  122.53 input   66.30 | X-H torsion
[ 10763 10752 10751 10750 ] final   33.85 input  -60.55 | X-H torsion
[ 11005 11000 10999 10996 ] final  173.28 input  -57.11 | X-H torsion

> <Gold.Protein.ActiveResidues>
 VAL166  LYS551  ARG553  GLY616  TRP617  ASP618  TYR619  PRO620  LYS621  CYS622 
 ASP623  PHE694  ASN695  SER759  ASP760  ASP761  ALA762  ILE779  LEU786  VAL792 
 PHE793  MET794  SER795  GLU796  ALA797  LYS798  CYS799  TRP800  GLU811  SER814 

> <Gold.Protein.RotatedAtoms>
  151.6465  133.3323  159.3141 H   0  0  0  0  0  0  0  0  0  0  0  0  # atno 6907 bound_to 6896
  150.7981  134.7060  159.6586 H   0  0  0  0  0  0  0  0  0  0  0  0  # atno 6908 bound_to 6896
  152.4071  134.6193  160.0098 H   0  0  0  0  0  0  0  0  0  0  0  0  # atno 6909 bound_to 6896
  145.4543  139.2291  143.3022 H   0  0  0  0  0  0  0  0  0  0  0  0  # atno 7974 bound_to 7965
  156.1218  140.3211  155.8220 H   0  0  0  0  0  0  0  0  0  0  0  0  # atno 8008 bound_to 7997
  155.4490  140.0531  157.3020 H   0  0  0  0  0  0  0  0  0  0  0  0  # atno 8009 bound_to 7997
  154.4833  140.2062  155.9726 H   0  0  0  0  0  0  0  0  0  0  0  0  # atno 8010 bound_to 7997
  139.5425  144.2325  152.0923 H   0  0  0  0  0  0  0  0  0  0  0  0  # atno 10167 bound_to 10162
  157.5735  131.1081  150.8323 H   0  0  0  0  0  0  0  0  0  0  0  0  # atno 10718 bound_to 10713
  153.0192  135.6376  154.1576 H   0  0  0  0  0  0  0  0  0  0  0  0  # atno 10763 bound_to 10752
  154.1312  135.2840  155.3186 H   0  0  0  0  0  0  0  0  0  0  0  0  # atno 10764 bound_to 10752
  154.6193  135.5530  153.7619 H   0  0  0  0  0  0  0  0  0  0  0  0  # atno 10765 bound_to 10752
  140.3387  134.7295  157.4187 H   0  0  0  0  0  0  0  0  0  0  0  0  # atno 11005 bound_to 11000
  146.2487  140.5306  142.8903 LP  0  0  0  0  0  0  0  0  0  0  0  0  # atno 17320 bound_to 7965
  144.8042  140.6269  143.6458 LP  0  0  0  0  0  0  0  0  0  0  0  0  # atno 17321 bound_to 7965
  140.1806  144.4848  150.6530 LP  0  0  0  0  0  0  0  0  0  0  0  0  # atno 17342 bound_to 10162
  140.6660  143.2268  151.5741 LP  0  0  0  0  0  0  0  0  0  0  0  0  # atno 17343 bound_to 10162
  156.8788  130.5172  149.5292 LP  0  0  0  0  0  0  0  0  0  0  0  0  # atno 17370 bound_to 10713
  156.0780  130.5797  150.9510 LP  0  0  0  0  0  0  0  0  0  0  0  0  # atno 17371 bound_to 10713
  140.0799  134.5745  155.8551 LP  0  0  0  0  0  0  0  0  0  0  0  0  # atno 17394 bound_to 11000
  141.2044  133.6639  156.6120 LP  0  0  0  0  0  0  0  0  0  0  0  0  # atno 17395 bound_to 11000

$$$$
