AV-unprocessed.smi:668|AV-procd|sdf|3260|dock1
  -GOLD-   22720 0213D 1   1.00000     0.00000
 Structure written by MMmdl.
 38 39  0  0  0  0  0  0  0  0  1 V2000
  151.6996  130.6779  158.0485 C   0  0  0  0  0  0  0  0  0  0  0  0
  151.8580  132.0650  157.7717 O   0  0  0  0  0  0  0  0  0  0  0  0
  151.0413  132.6408  156.8202 C   0  0  0  0  0  0  0  0  0  0  0  0
  151.1686  134.0213  156.5689 C   0  0  0  0  0  0  0  0  0  0  0  0
  150.3372  134.6182  155.6021 C   0  0  0  0  0  0  0  0  0  0  0  0
  149.4049  133.8098  154.9078 C   0  0  0  0  0  0  0  0  0  0  0  0
  148.4972  134.2846  153.9216 N   0  0  0  0  0  0  0  0  0  0  0  0
  147.2285  133.9092  153.6855 C   0  0  0  0  0  0  0  0  0  0  0  0
  146.5974  133.0712  154.3287 O   0  0  0  0  0  0  0  0  0  0  0  0
  146.7151  134.5757  152.6421 N   0  0  0  0  0  0  0  0  0  0  0  0
  145.3637  134.3905  152.1102 C   0  0  1  0  0  0  0  0  0  0  0  0
  145.2051  135.0740  150.7392 C   0  0  0  0  0  0  0  0  0  0  0  0
  144.3787  134.1245  149.8618 C   0  0  0  0  0  0  0  0  0  0  0  0
  143.8972  133.0042  150.7885 C   0  0  0  0  0  0  0  0  0  0  0  0
  144.9398  132.9108  151.9124 C   0  0  1  0  0  0  0  0  0  0  0  0
  146.0843  131.9478  151.5273 C   0  0  0  0  0  0  0  0  0  0  0  0
  146.7338  132.2056  150.3894 N   0  0  0  0  0  0  0  0  0  0  0  0
  146.3737  130.9850  152.2361 O   0  0  0  0  0  0  0  0  0  0  0  0
  149.3517  132.4404  155.2404 C   0  0  0  0  0  0  0  0  0  0  0  0
  150.1448  131.8620  156.1664 N   0  0  0  0  0  0  0  0  0  0  0  0
  152.4137  130.3800  158.8161 H   0  0  0  0  0  0  0  0  0  0  0  0
  151.8920  130.0689  157.1640 H   0  0  0  0  0  0  0  0  0  0  0  0
  150.6994  130.4582  158.4244 H   0  0  0  0  0  0  0  0  0  0  0  0
  151.8892  134.6144  157.1124 H   0  0  0  0  0  0  0  0  0  0  0  0
  150.4278  135.6784  155.4278 H   0  0  0  0  0  0  0  0  0  0  0  0
  148.8507  135.0283  153.3374 H   0  0  0  0  0  0  0  0  0  0  0  0
  147.3019  135.2466  152.1679 H   0  0  0  0  0  0  0  0  0  0  0  0
  144.6521  134.8559  152.7956 H   0  0  0  0  0  0  0  0  0  0  0  0
  144.7124  136.0409  150.8488 H   0  0  0  0  0  0  0  0  0  0  0  0
  146.1708  135.2584  150.2660 H   0  0  0  0  0  0  0  0  0  0  0  0
  143.5468  134.6338  149.3742 H   0  0  0  0  0  0  0  0  0  0  0  0
  145.0103  133.7101  149.0752 H   0  0  0  0  0  0  0  0  0  0  0  0
  142.9320  133.2767  151.2175 H   0  0  0  0  0  0  0  0  0  0  0  0
  143.7533  132.0646  150.2528 H   0  0  0  0  0  0  0  0  0  0  0  0
  144.4706  132.5367  152.8241 H   0  0  0  0  0  0  0  0  0  0  0  0
  147.4937  131.6091  150.0957 H   0  0  0  0  0  0  0  0  0  0  0  0
  146.4652  133.0011  149.8287 H   0  0  0  0  0  0  0  0  0  0  0  0
  148.6500  131.7840  154.7463 H   0  0  0  0  0  0  0  0  0  0  0  0
  1  2  1  0  0  0  0
  1 21  1  0  0  0  0
  1 22  1  0  0  0  0
  1 23  1  0  0  0  0
  2  3  1  0  0  0  0
  3 20  1  0  0  0  0
  3  4  2  0  0  0  0
  4  5  1  0  0  0  0
  4 24  1  0  0  0  0
  5  6  2  0  0  0  0
  5 25  1  0  0  0  0
  6  7  1  0  0  0  0
  6 19  1  0  0  0  0
  7  8  1  0  0  0  0
  7 26  1  0  0  0  0
  8  9  2  0  0  0  0
  8 10  1  0  0  0  0
 10 11  1  0  0  0  0
 10 27  1  0  0  0  0
 11 15  1  0  0  0  0
 11 12  1  0  0  0  0
 11 28  1  0  0  0  0
 12 13  1  0  0  0  0
 12 29  1  0  0  0  0
 12 30  1  0  0  0  0
 13 14  1  0  0  0  0
 13 31  1  0  0  0  0
 13 32  1  0  0  0  0
 14 15  1  0  0  0  0
 14 33  1  0  0  0  0
 14 34  1  0  0  0  0
 15 16  1  0  0  0  0
 15 35  1  0  0  0  0
 16 17  1  0  0  0  0
 16 18  2  0  0  0  0
 17 36  1  0  0  0  0
 17 37  1  0  0  0  0
 19 20  2  0  0  0  0
 19 38  1  0  0  0  0
M  END
> <s_m_source_file>
AV-unprocessed.smi

> <i_m_source_file_index>
668

> <i_lp_mmshare_version>
43012

> <i_f3d_flags>
0

> <s_epik_input>
W0NIM11PYzFbY0hdW2NIXWMoW2NIXW4xKVtOSF1DKD1PKVtOSF1bQ0BASF0yW0NIMl1bQ0gyXVtDSDJdW0NASF0yQyg9TylbTkgyXQ==

> <s_epik_cmdline>
J2VwaWtfcHl0aG9uJywgJy1waCcsICc3LjAnLCAnLXRuJywgJzgnLCAnLW1hJywgJzIwMCcsICctbWV0YWxfYmluZGluZycsICctaW1hZScsICc8aW5maWxlLm1hZT4nLCAnLW9tYWUnLCAnPG91dGZpbGUubWFlPic=

> <r_lp_tautomer_probability>
1

> <r_epik_Ionization_Penalty>
9.0916e-05

> <r_epik_Ionization_Penalty_Charging>
0

> <r_epik_Ionization_Penalty_Neutral>
9.0916e-05

> <r_epik_State_Penalty>
-0

> <r_epik_Charging_Adjusted_Penalty>
0

> <i_epik_Tot_Q>
0

> <i_epik_Tot_abs_Q>
0

> <r_epik_Metal_State_Penalty>
-0

> <b_epik_Metal_Only>
0

> <s_lp_Force_Field>
OPLS_2005

> <r_lp_Energy>
16.947

> <b_lp_Chiralities_Consistent>
1

> <s_lp_Variant>
AV-unprocessed.smi:668-2

> <Gold.Version>
5.8.1

> <Gold.Id.Protein>
6NUR|6NUR_protein|mol2

> <Gold.PLP.Fitness>
40.7943

> <Gold.PLP.PLP>
-29.6251

> <Gold.PLP.part.hbond>
-4.0000

> <Gold.PLP.part.metal>
0.0000

> <Gold.PLP.part.buried>
-4.0181

> <Gold.PLP.part.nonpolar>
-22.0374

> <Gold.PLP.part.repulsive>
0.3169

> <Gold.PLP.ligand.clash>
0.0000

> <Gold.PLP.ligand.torsion>
0.4303

> <Gold.PLP.Chemscore.Hbond>
4.0000

> <Gold.PLP.Chemscore.CHOScore>
0.0000

> <Gold.PLP.Chemscore.Metal>
0.0000

> <Gold.Chemscore.Hbonds>
donor molecule, donor type, donor heavy atom, donor atom, acceptor molecule, acceptor atom, score
      L1  H     7    26       P1  7948  1.00
      L1  H    10    27       P1  7948  1.00
      L1  H    17    36       P1 10747  1.00
      P1  H  6896  6909       L1     2  1.00

> <Gold.PLP.Chemscore.Internal.Correction>
0.0297

> <Gold.Rescore>
     Score         DG    S(hbond)    S(metal)    S(lipo)     H(rot)  DE(clash)    DE(int)     intcor
     14.82     -18.35       3.34        0.00      55.61       1.86       0.76       2.77       ----

> <Gold.Chemscore.Fitness>
14.8193

> <Gold.Chemscore.DG>
-18.3521

> <Gold.Chemscore.ZeroCoef>
-5.4800

> <Gold.Chemscore.Hbond>
3.3351

> <Gold.Chemscore.Metal>
0.0000

> <Gold.Chemscore.Lipo>
55.6124

> <Gold.Chemscore.Internal_Hbond>
0.0000

> <Gold.Chemscore.DEClash>
0.7618

> <Gold.Chemscore.DEInternal>
2.7711

> <Gold.Chemscore.Rot>
1.8648

> <Gold.Chemscore.Internal.Correction>
   9.000000E+99

> <Gold.Chemscore.Hbonds>
donor molecule, donor type, donor heavy atom, donor atom, acceptor molecule, acceptor atom, score
      L1  H     7    26       P1  7948  0.44
      L1  H    10    27       P1  7948  0.97
      L1  H    17    36       P1 10747  0.98
      P1  H  6896  6909       L1     2  0.37

> <Gold.Chemscore.Hbond.Weighted>
-11.1394

> <Gold.Chemscore.Metal.Weighted>
-0.0000

> <Gold.Chemscore.Lipo.Weighted>
-6.5067

> <Gold.Chemscore.Internal_Hbond.Weighted>
0.0000

> <Gold.Chemscore.DEClash.Weighted>
0.7618

> <Gold.Chemscore.DEInternal.Weighted>
2.7711

> <Gold.Chemscore.Rot.Weighted>
4.7739

> <Gold.Chemscore.Internal.Correction.Weighted>
   9.000000E+99

> <Gold.Protein.RotatedTorsions>
[ 6907 6896 6895 6894 ] final  -61.83 input  -60.11 | X-H torsion
[ 7974 7965 7964 7962 ] final   62.78 input  175.53 | X-H torsion
[ 8008 7997 7996 7995 ] final  -35.26 input   59.86 | X-H torsion
[ 10167 10162 10161 10158 ] final  122.74 input  -65.29 | X-H torsion
[ 10718 10713 10712 10709 ] final   80.90 input   66.30 | X-H torsion
[ 10763 10752 10751 10750 ] final  142.79 input  -60.55 | X-H torsion
[ 11005 11000 10999 10996 ] final  -84.71 input  -57.11 | X-H torsion

> <Gold.Protein.ActiveResidues>
 VAL166  LYS551  ARG553  GLY616  TRP617  ASP618  TYR619  PRO620  LYS621  CYS622 
 ASP623  PHE694  ASN695  SER759  ASP760  ASP761  ALA762  ILE779  LEU786  VAL792 
 PHE793  MET794  SER795  GLU796  ALA797  LYS798  CYS799  TRP800  GLU811  SER814 

> <Gold.Protein.RotatedAtoms>
  150.7757  134.6652  159.6361 H   0  0  0  0  0  0  0  0  0  0  0  0  # atno 6907 bound_to 6896
  152.3826  134.6563  160.0146 H   0  0  0  0  0  0  0  0  0  0  0  0  # atno 6908 bound_to 6896
  151.6888  133.3274  159.3274 H   0  0  0  0  0  0  0  0  0  0  0  0  # atno 6909 bound_to 6896
  145.8694  139.3368  143.0771 H   0  0  0  0  0  0  0  0  0  0  0  0  # atno 7974 bound_to 7965
  154.4100  140.1662  156.2183 H   0  0  0  0  0  0  0  0  0  0  0  0  # atno 8008 bound_to 7997
  155.9385  140.3409  155.6285 H   0  0  0  0  0  0  0  0  0  0  0  0  # atno 8009 bound_to 7997
  155.7018  140.0746  157.2398 H   0  0  0  0  0  0  0  0  0  0  0  0  # atno 8010 bound_to 7997
  139.5841  144.6999  151.3454 H   0  0  0  0  0  0  0  0  0  0  0  0  # atno 10167 bound_to 10162
  157.6819  130.9980  150.2148 H   0  0  0  0  0  0  0  0  0  0  0  0  # atno 10718 bound_to 10713
  153.9616  135.2959  155.3433 H   0  0  0  0  0  0  0  0  0  0  0  0  # atno 10763 bound_to 10752
  154.7372  135.5041  153.9064 H   0  0  0  0  0  0  0  0  0  0  0  0  # atno 10764 bound_to 10752
  153.0944  135.6717  153.9902 H   0  0  0  0  0  0  0  0  0  0  0  0  # atno 10765 bound_to 10752
  141.1648  133.7361  156.8909 H   0  0  0  0  0  0  0  0  0  0  0  0  # atno 11005 bound_to 11000
  145.9155  140.9151  143.0432 LP  0  0  0  0  0  0  0  0  0  0  0  0  # atno 17320 bound_to 7965
  144.6726  140.1217  143.7449 LP  0  0  0  0  0  0  0  0  0  0  0  0  # atno 17321 bound_to 7965
  140.7115  143.7378  150.7576 LP  0  0  0  0  0  0  0  0  0  0  0  0  # atno 17342 bound_to 10162
  140.0918  143.4871  152.2474 LP  0  0  0  0  0  0  0  0  0  0  0  0  # atno 17343 bound_to 10162
  156.2811  130.3733  149.7934 LP  0  0  0  0  0  0  0  0  0  0  0  0  # atno 17370 bound_to 10713
  156.5622  130.8388  151.3332 LP  0  0  0  0  0  0  0  0  0  0  0  0  # atno 17371 bound_to 10713
  140.1649  134.9140  157.2762 LP  0  0  0  0  0  0  0  0  0  0  0  0  # atno 17394 bound_to 11000
  140.2568  134.3618  155.7421 LP  0  0  0  0  0  0  0  0  0  0  0  0  # atno 17395 bound_to 11000

$$$$
