AV-unprocessed.smi:2206|AV-procd|sdf|8942|dock4
  -GOLD-   2272012163D 1   1.00000     0.00000
 Structure written by MMmdl.
 26 27  0  0  0  0  0  0  0  0  2 V2000
  152.4685  136.8444  156.4457 O   0  0  0  0  0  0  0  0  0  0  0  0
  152.5270  137.8289  155.6762 C   0  0  0  0  0  0  0  0  0  0  0  0
  153.2777  138.8194  155.8169 O   0  5  0  0  0  0  0  0  0  0  0  0
  151.6050  137.8190  154.4554 C   0  0  0  0  0  0  0  0  0  0  0  0
  150.6644  138.9831  154.5749 C   0  0  0  0  0  0  0  0  0  0  0  0
  149.4615  139.1457  153.9306 C   0  0  0  0  0  0  0  0  0  0  0  0
  148.6866  140.6479  154.3589 S   0  0  0  0  0  0  0  0  0  0  0  0
  150.0528  141.0136  155.4011 C   0  0  0  0  0  0  0  0  0  0  0  0
  150.1144  142.2148  156.1647 N   0  0  0  0  0  0  0  0  0  0  0  0
  150.7357  142.4878  157.3323 C   0  0  0  0  0  0  0  0  0  0  0  0
  151.3737  141.6223  157.9301 O   0  0  0  0  0  0  0  0  0  0  0  0
  150.5947  143.7412  157.7932 N   0  0  0  0  0  0  0  0  0  0  0  0
  151.1459  144.2605  159.0011 C   0  0  0  0  0  0  0  0  0  0  0  0
  152.2097  145.3305  158.8798 C   0  0  0  0  0  0  0  0  0  0  0  0
  152.5940  143.9395  159.3012 C   0  0  0  0  0  0  0  0  0  0  0  0
  150.9769  140.0468  155.4272 N   0  0  0  0  0  0  0  0  0  0  0  0
  152.2005  137.8866  153.5441 H   0  0  0  0  0  0  0  0  0  0  0  0
  151.0607  136.8747  154.4100 H   0  0  0  0  0  0  0  0  0  0  0  0
  148.9905  138.4744  153.2282 H   0  0  0  0  0  0  0  0  0  0  0  0
  149.5968  142.9870  155.7713 H   0  0  0  0  0  0  0  0  0  0  0  0
  150.0487  144.3826  157.2346 H   0  0  0  0  0  0  0  0  0  0  0  0
  150.4823  144.3416  159.8608 H   0  0  0  0  0  0  0  0  0  0  0  0
  152.5018  145.6486  157.8803 H   0  0  0  0  0  0  0  0  0  0  0  0
  152.2286  146.1084  159.6402 H   0  0  0  0  0  0  0  0  0  0  0  0
  152.8690  143.7881  160.3430 H   0  0  0  0  0  0  0  0  0  0  0  0
  153.1401  143.3311  158.5823 H   0  0  0  0  0  0  0  0  0  0  0  0
  1  2  2  0  0  0  0
  2  3  1  0  0  0  0
  2  4  1  0  0  0  0
  4  5  1  0  0  0  0
  4 17  1  0  0  0  0
  4 18  1  0  0  0  0
  5 16  1  0  0  0  0
  5  6  2  0  0  0  0
  6  7  1  0  0  0  0
  6 19  1  0  0  0  0
  7  8  1  0  0  0  0
  8  9  1  0  0  0  0
  8 16  2  0  0  0  0
  9 10  1  0  0  0  0
  9 20  1  0  0  0  0
 10 11  2  0  0  0  0
 10 12  1  0  0  0  0
 12 13  1  0  0  0  0
 12 21  1  0  0  0  0
 13 15  1  0  0  0  0
 13 14  1  0  0  0  0
 13 22  1  0  0  0  0
 14 15  1  0  0  0  0
 14 23  1  0  0  0  0
 14 24  1  0  0  0  0
 15 25  1  0  0  0  0
 15 26  1  0  0  0  0
M  CHG  1   3  -1
M  END
> <s_m_source_file>
AV-unprocessed.smi

> <i_m_source_file_index>
2206

> <i_lp_mmshare_version>
43012

> <i_f3d_flags>
0

> <s_epik_input>
Tz1DKFtPSF0pW0NIMl1jMVtjSF1zYyhuMSlbTkhdQyg9TylbTkhdW0NIXTJbQ0gyXVtDSDJdMg==

> <s_epik_cmdline>
J2VwaWtfcHl0aG9uJywgJy1waCcsICc3LjAnLCAnLXRuJywgJzgnLCAnLW1hJywgJzIwMCcsICctbWV0YWxfYmluZGluZycsICctaW1hZScsICc8aW5maWxlLm1hZT4nLCAnLW9tYWUnLCAnPG91dGZpbGUubWFlPic=

> <r_lp_tautomer_probability>
0.999

> <r_epik_Ionization_Penalty>
0.000960535

> <r_epik_Ionization_Penalty_Charging>
0.000722293

> <r_epik_Ionization_Penalty_Neutral>
0.000238243

> <r_epik_State_Penalty>
0.000460635

> <r_epik_Charging_Adjusted_Penalty>
0.00118293

> <i_epik_Tot_Q>
-1

> <i_epik_Tot_abs_Q>
1

> <r_epik_Metal_State_Penalty>
0.0174946

> <b_epik_Metal_Only>
0

> <s_lp_Force_Field>
OPLS_2005

> <r_lp_Energy>
19.4031

> <b_lp_Chiralities_Consistent>
1

> <s_lp_Variant>
AV-unprocessed.smi:2206-1

> <Gold.Version>
5.8.1

> <Gold.Id.Protein>
6NUR|6NUR_protein|mol2

> <Gold.PLP.Fitness>
55.3127

> <Gold.PLP.PLP>
-35.0463

> <Gold.PLP.part.hbond>
-4.8977

> <Gold.PLP.part.metal>
0.0000

> <Gold.PLP.part.buried>
-1.8292

> <Gold.PLP.part.nonpolar>
-29.4255

> <Gold.PLP.part.repulsive>
0.1729

> <Gold.PLP.ligand.clash>
0.0000

> <Gold.PLP.ligand.torsion>
0.5406

> <Gold.PLP.Chemscore.Hbond>
5.9840

> <Gold.PLP.Chemscore.CHOScore>
1.1169

> <Gold.PLP.Chemscore.Metal>
0.0000

> <Gold.Chemscore.Hbonds>
donor molecule, donor type, donor heavy atom, donor atom, acceptor molecule, acceptor atom, score
      L1  H     9    20       P1  8028  1.00
      L1  H    12    21       P1  8028  1.00
      P1  H  7997  8009       L1     3  2.00
      P1  H 10752 10765       L1     1  1.53
      L1  C     6    19       P1  7948  0.83
      L1  C     6    19       P1  7957  0.18

> <Gold.PLP.Chemscore.Internal.Correction>
0.0448

> <Gold.Rescore>
     Score         DG    S(hbond)    S(metal)    S(lipo)     H(rot)  DE(clash)    DE(int)     intcor
     15.73     -19.48       3.21        0.00      70.65       1.95       0.58       3.17       ----

> <Gold.Chemscore.Fitness>
15.7291

> <Gold.Chemscore.DG>
-19.4824

> <Gold.Chemscore.ZeroCoef>
-5.4800

> <Gold.Chemscore.Hbond>
3.2143

> <Gold.Chemscore.Metal>
0.0000

> <Gold.Chemscore.Lipo>
70.6514

> <Gold.Chemscore.Internal_Hbond>
0.0000

> <Gold.Chemscore.DEClash>
0.5818

> <Gold.Chemscore.DEInternal>
3.1715

> <Gold.Chemscore.Rot>
1.9530

> <Gold.Chemscore.Internal.Correction>
   9.000000E+99

> <Gold.Chemscore.Hbonds>
donor molecule, donor type, donor heavy atom, donor atom, acceptor molecule, acceptor atom, score
      L1  H     9    20       P1  8028  0.99
      L1  H    12    21       P1  8028  0.52
      P1  H  7997  8009       L1     3  0.95
      P1  H 10752 10765       L1     1  0.10

> <Gold.Chemscore.Hbond.Weighted>
-10.7359

> <Gold.Chemscore.Metal.Weighted>
-0.0000

> <Gold.Chemscore.Lipo.Weighted>
-8.2662

> <Gold.Chemscore.Internal_Hbond.Weighted>
0.0000

> <Gold.Chemscore.DEClash.Weighted>
0.5818

> <Gold.Chemscore.DEInternal.Weighted>
3.1715

> <Gold.Chemscore.Rot.Weighted>
4.9996

> <Gold.Chemscore.Internal.Correction.Weighted>
   9.000000E+99

> <Gold.Protein.RotatedTorsions>
[ 6907 6896 6895 6894 ] final   34.61 input  -60.11 | X-H torsion
[ 7974 7965 7964 7962 ] final -131.24 input  175.53 | X-H torsion
[ 8008 7997 7996 7995 ] final -159.61 input   59.86 | X-H torsion
[ 10167 10162 10161 10158 ] final   -6.54 input  -65.29 | X-H torsion
[ 10718 10713 10712 10709 ] final   77.07 input   66.30 | X-H torsion
[ 10763 10752 10751 10750 ] final -146.11 input  -60.55 | X-H torsion
[ 11005 11000 10999 10996 ] final   -3.58 input  -57.11 | X-H torsion

> <Gold.Protein.ActiveResidues>
 VAL166  LYS551  ARG553  GLY616  TRP617  ASP618  TYR619  PRO620  LYS621  CYS622 
 ASP623  PHE694  ASN695  SER759  ASP760  ASP761  ALA762  ILE779  LEU786  VAL792 
 PHE793  MET794  SER795  GLU796  ALA797  LYS798  CYS799  TRP800  GLU811  SER814 

> <Gold.Protein.RotatedAtoms>
  152.1047  134.9317  160.0568 H   0  0  0  0  0  0  0  0  0  0  0  0  # atno 6907 bound_to 6896
  152.0517  133.4017  159.4388 H   0  0  0  0  0  0  0  0  0  0  0  0  # atno 6908 bound_to 6896
  150.6841  134.3220  159.4834 H   0  0  0  0  0  0  0  0  0  0  0  0  # atno 6909 bound_to 6896
  144.9398  140.7225  143.4854 H   0  0  0  0  0  0  0  0  0  0  0  0  # atno 7974 bound_to 7965
  155.7651  140.0844  157.2136 H   0  0  0  0  0  0  0  0  0  0  0  0  # atno 8008 bound_to 7997
  154.4000  140.1535  156.2934 H   0  0  0  0  0  0  0  0  0  0  0  0  # atno 8009 bound_to 7997
  155.8801  140.3421  155.5885 H   0  0  0  0  0  0  0  0  0  0  0  0  # atno 8010 bound_to 7997
  140.7000  143.6182  150.8638 H   0  0  0  0  0  0  0  0  0  0  0  0  # atno 10167 bound_to 10162
  157.6697  130.9804  150.1588 H   0  0  0  0  0  0  0  0  0  0  0  0  # atno 10718 bound_to 10713
  154.8352  135.3395  154.6610 H   0  0  0  0  0  0  0  0  0  0  0  0  # atno 10763 bound_to 10752
  153.7226  135.6957  153.5013 H   0  0  0  0  0  0  0  0  0  0  0  0  # atno 10764 bound_to 10752
  153.2370  135.4397  155.0610 H   0  0  0  0  0  0  0  0  0  0  0  0  # atno 10765 bound_to 10752
  140.6708  133.9238  155.8493 H   0  0  0  0  0  0  0  0  0  0  0  0  # atno 11005 bound_to 11000
  145.3009  139.1851  143.4690 LP  0  0  0  0  0  0  0  0  0  0  0  0  # atno 17320 bound_to 7965
  146.3281  140.3000  142.8620 LP  0  0  0  0  0  0  0  0  0  0  0  0  # atno 17321 bound_to 7965
  139.9903  143.5854  152.2912 LP  0  0  0  0  0  0  0  0  0  0  0  0  # atno 17342 bound_to 10162
  139.6507  144.7660  151.2154 LP  0  0  0  0  0  0  0  0  0  0  0  0  # atno 17343 bound_to 10162
  156.2369  130.3687  149.8381 LP  0  0  0  0  0  0  0  0  0  0  0  0  # atno 17370 bound_to 10713
  156.6192  130.8619  151.3471 LP  0  0  0  0  0  0  0  0  0  0  0  0  # atno 17371 bound_to 10713
  141.0393  134.0644  157.3921 LP  0  0  0  0  0  0  0  0  0  0  0  0  # atno 17394 bound_to 11000
  139.8982  135.0153  156.7137 LP  0  0  0  0  0  0  0  0  0  0  0  0  # atno 17395 bound_to 11000

$$$$
