AV-unprocessed.smi:1523|AV-procd|sdf|6138|dock4
  -GOLD-   22720 6283D 1   1.00000     0.00000
 Structure written by MMmdl.
 37 38  0  0  0  0  0  0  0  0  1 V2000
  152.7674  143.3905  162.1644 C   0  0  0  0  0  0  0  0  0  0  0  0
  152.1165  143.5004  160.8284 C   0  0  0  0  0  0  0  0  0  0  0  0
  151.7434  142.4440  160.1017 N   0  0  0  0  0  0  0  0  0  0  0  0
  151.1557  142.8071  158.8855 C   0  0  0  0  0  0  0  0  0  0  0  0
  150.6690  141.7474  157.9443 C   0  0  0  0  0  0  0  0  0  0  0  0
  150.9502  142.1028  156.4752 C   0  0  0  0  0  0  0  0  0  0  0  0
  149.7545  141.9642  155.6521 N   0  0  0  0  0  0  0  0  0  0  0  0
  149.5502  141.0081  154.7299 C   0  0  0  0  0  0  0  0  0  0  0  0
  150.3901  140.1383  154.4946 O   0  0  0  0  0  0  0  0  0  0  0  0
  148.3563  141.0829  154.0874 N   0  0  0  0  0  0  0  0  0  0  0  0
  147.6106  139.9587  153.4933 C   0  0  0  0  0  0  0  0  0  0  0  0
  146.3760  139.6661  154.3654 C   0  0  0  0  0  0  0  0  0  0  0  0
  145.4984  140.9262  154.5054 C   0  0  0  0  0  0  0  0  0  0  0  0
  144.4612  140.6876  155.4330 O   0  0  0  0  0  0  0  0  0  0  0  0
  146.3278  142.1477  154.9497 C   0  0  0  0  0  0  0  0  0  0  0  0
  147.5672  142.3221  154.0518 C   0  0  0  0  0  0  0  0  0  0  0  0
  151.0899  144.1658  158.7011 C   0  0  0  0  0  0  0  0  0  0  0  0
  151.7669  145.0383  160.0485 S   0  0  0  0  0  0  0  0  0  0  0  0
  152.4150  142.5008  162.6872 H   0  0  0  0  0  0  0  0  0  0  0  0
  152.5329  144.2657  162.7706 H   0  0  0  0  0  0  0  0  0  0  0  0
  153.8492  143.3245  162.0474 H   0  0  0  0  0  0  0  0  0  0  0  0
  151.1406  140.7944  158.1875 H   0  0  0  0  0  0  0  0  0  0  0  0
  149.5979  141.5937  158.0829 H   0  0  0  0  0  0  0  0  0  0  0  0
  151.2896  143.1363  156.4007 H   0  0  0  0  0  0  0  0  0  0  0  0
  151.7558  141.4825  156.0783 H   0  0  0  0  0  0  0  0  0  0  0  0
  149.0252  142.6481  155.7913 H   0  0  0  0  0  0  0  0  0  0  0  0
  147.2951  140.2339  152.4858 H   0  0  0  0  0  0  0  0  0  0  0  0
  148.2005  139.0506  153.3687 H   0  0  0  0  0  0  0  0  0  0  0  0
  145.7967  138.8501  153.9321 H   0  0  0  0  0  0  0  0  0  0  0  0
  146.7035  139.3275  155.3498 H   0  0  0  0  0  0  0  0  0  0  0  0
  145.0395  141.1458  153.5405 H   0  0  0  0  0  0  0  0  0  0  0  0
  144.0703  139.8493  155.2388 H   0  0  0  0  0  0  0  0  0  0  0  0
  145.7150  143.0494  154.9222 H   0  0  0  0  0  0  0  0  0  0  0  0
  146.6496  142.0225  155.9849 H   0  0  0  0  0  0  0  0  0  0  0  0
  148.1355  143.1967  154.3713 H   0  0  0  0  0  0  0  0  0  0  0  0
  147.2616  142.5282  153.0251 H   0  0  0  0  0  0  0  0  0  0  0  0
  150.6843  144.7044  157.8575 H   0  0  0  0  0  0  0  0  0  0  0  0
  1  2  1  0  0  0  0
  1 19  1  0  0  0  0
  1 20  1  0  0  0  0
  1 21  1  0  0  0  0
  2 18  1  0  0  0  0
  2  3  2  0  0  0  0
  3  4  1  0  0  0  0
  4  5  1  0  0  0  0
  4 17  2  0  0  0  0
  5  6  1  0  0  0  0
  5 22  1  0  0  0  0
  5 23  1  0  0  0  0
  6  7  1  0  0  0  0
  6 24  1  0  0  0  0
  6 25  1  0  0  0  0
  7  8  1  0  0  0  0
  7 26  1  0  0  0  0
  8  9  2  0  0  0  0
  8 10  1  0  0  0  0
 10 16  1  0  0  0  0
 10 11  1  0  0  0  0
 11 12  1  0  0  0  0
 11 27  1  0  0  0  0
 11 28  1  0  0  0  0
 12 13  1  0  0  0  0
 12 29  1  0  0  0  0
 12 30  1  0  0  0  0
 13 14  1  0  0  0  0
 13 15  1  0  0  0  0
 13 31  1  0  0  0  0
 14 32  1  0  0  0  0
 15 16  1  0  0  0  0
 15 33  1  0  0  0  0
 15 34  1  0  0  0  0
 16 35  1  0  0  0  0
 16 36  1  0  0  0  0
 17 18  1  0  0  0  0
 17 37  1  0  0  0  0
M  END
> <s_m_source_file>
AV-unprocessed.smi

> <i_m_source_file_index>
1523

> <i_lp_mmshare_version>
43012

> <i_f3d_flags>
0

> <s_epik_input>
W0NIM11jMW5jKFtjSF1zMSlbQ0gyXVtDSDJdW05IXUMoPU8pTjJbQ0gyXVtDSDJdW0NIXShbT0hdKVtDSDJdW0NIMl0y

> <s_epik_cmdline>
J2VwaWtfcHl0aG9uJywgJy1waCcsICc3LjAnLCAnLXRuJywgJzgnLCAnLW1hJywgJzIwMCcsICctbWV0YWxfYmluZGluZycsICctaW1hZScsICc8aW5maWxlLm1hZT4nLCAnLW9tYWUnLCAnPG91dGZpbGUubWFlPic=

> <r_epik_Ionization_Penalty>
0.00204564

> <r_epik_Ionization_Penalty_Charging>
0

> <r_epik_Ionization_Penalty_Neutral>
0.00204564

> <r_epik_State_Penalty>
0.00135655

> <r_epik_Charging_Adjusted_Penalty>
0.00135655

> <i_epik_Tot_Q>
0

> <i_epik_Tot_abs_Q>
0

> <r_epik_Metal_State_Penalty>
-0

> <b_epik_Metal_Only>
0

> <s_lp_Force_Field>
OPLS_2005

> <r_lp_Energy>
24.1717

> <b_lp_Chiralities_Consistent>
1

> <s_lp_Variant>
AV-unprocessed.smi:1523-1

> <Gold.Version>
5.8.1

> <Gold.Id.Protein>
6NUR|6NUR_protein|mol2

> <Gold.PLP.Fitness>
42.0243

> <Gold.PLP.PLP>
-36.5853

> <Gold.PLP.part.hbond>
-3.4092

> <Gold.PLP.part.metal>
0.0000

> <Gold.PLP.part.buried>
-0.4811

> <Gold.PLP.part.nonpolar>
-32.0375

> <Gold.PLP.part.repulsive>
0.2673

> <Gold.PLP.ligand.clash>
0.5916

> <Gold.PLP.ligand.torsion>
0.9508

> <Gold.PLP.Chemscore.Hbond>
1.7040

> <Gold.PLP.Chemscore.CHOScore>
0.9337

> <Gold.PLP.Chemscore.Metal>
0.0000

> <Gold.Chemscore.Hbonds>
donor molecule, donor type, donor heavy atom, donor atom, acceptor molecule, acceptor atom, score
      L1  H     7    26       P1  8028  0.63
      P1  H  7989  7998       L1     9  1.00
      L1  C    17    37       P1  8028  0.33

> <Gold.PLP.Chemscore.Internal.Correction>
0.0191

> <Gold.Rescore>
     Score         DG    S(hbond)    S(metal)    S(lipo)     H(rot)  DE(clash)    DE(int)     intcor
     14.61     -16.78       1.49        0.00      94.65       1.86       1.20       0.96       ----

> <Gold.Chemscore.Fitness>
14.6126

> <Gold.Chemscore.DG>
-16.7793

> <Gold.Chemscore.ZeroCoef>
-5.4800

> <Gold.Chemscore.Hbond>
1.4936

> <Gold.Chemscore.Metal>
0.0000

> <Gold.Chemscore.Lipo>
94.6509

> <Gold.Chemscore.Internal_Hbond>
0.0000

> <Gold.Chemscore.DEClash>
1.2030

> <Gold.Chemscore.DEInternal>
0.9637

> <Gold.Chemscore.Rot>
1.8607

> <Gold.Chemscore.Internal.Correction>
   9.000000E+99

> <Gold.Chemscore.Hbonds>
donor molecule, donor type, donor heavy atom, donor atom, acceptor molecule, acceptor atom, score
      L1  H     7    26       P1  8028  0.62
      P1  H  7989  7998       L1     9  0.60

> <Gold.Chemscore.Hbond.Weighted>
-4.9885

> <Gold.Chemscore.Metal.Weighted>
-0.0000

> <Gold.Chemscore.Lipo.Weighted>
-11.0741

> <Gold.Chemscore.Internal_Hbond.Weighted>
0.0000

> <Gold.Chemscore.DEClash.Weighted>
1.2030

> <Gold.Chemscore.DEInternal.Weighted>
0.9637

> <Gold.Chemscore.Rot.Weighted>
4.7633

> <Gold.Chemscore.Internal.Correction.Weighted>
   9.000000E+99

> <Gold.Protein.RotatedTorsions>
[ 6907 6896 6895 6894 ] final   22.74 input  -60.11 | X-H torsion
[ 7974 7965 7964 7962 ] final    8.88 input  175.53 | X-H torsion
[ 8008 7997 7996 7995 ] final  149.77 input   59.86 | X-H torsion
[ 10167 10162 10161 10158 ] final  -20.31 input  -65.29 | X-H torsion
[ 10718 10713 10712 10709 ] final  -44.55 input   66.30 | X-H torsion
[ 10763 10752 10751 10750 ] final -111.07 input  -60.55 | X-H torsion
[ 11005 11000 10999 10996 ] final -171.65 input  -57.11 | X-H torsion

> <Gold.Protein.ActiveResidues>
 VAL166  LYS551  ARG553  GLY616  TRP617  ASP618  TYR619  PRO620  LYS621  CYS622 
 ASP623  PHE694  ASN695  SER759  ASP760  ASP761  ALA762  ILE779  LEU786  VAL792 
 PHE793  MET794  SER795  GLU796  ALA797  LYS798  CYS799  TRP800  GLU811  SER814 

> <Gold.Protein.RotatedAtoms>
  151.9318  135.0253  160.0529 H   0  0  0  0  0  0  0  0  0  0  0  0  # atno 6907 bound_to 6896
  152.2112  133.4908  159.5119 H   0  0  0  0  0  0  0  0  0  0  0  0  # atno 6908 bound_to 6896
  150.6977  134.1381  159.4137 H   0  0  0  0  0  0  0  0  0  0  0  0  # atno 6909 bound_to 6896
  146.2411  139.9867  142.8430 H   0  0  0  0  0  0  0  0  0  0  0  0  # atno 7974 bound_to 7965
  156.2742  140.2093  156.5910 H   0  0  0  0  0  0  0  0  0  0  0  0  # atno 8008 bound_to 7997
  154.6982  140.0523  157.0455 H   0  0  0  0  0  0  0  0  0  0  0  0  # atno 8009 bound_to 7997
  155.0771  140.3183  155.4615 H   0  0  0  0  0  0  0  0  0  0  0  0  # atno 8010 bound_to 7997
  140.7275  143.4735  151.0214 H   0  0  0  0  0  0  0  0  0  0  0  0  # atno 10167 bound_to 10162
  156.2374  130.4177  149.8801 H   0  0  0  0  0  0  0  0  0  0  0  0  # atno 10718 bound_to 10713
  154.8281  135.4541  154.0983 H   0  0  0  0  0  0  0  0  0  0  0  0  # atno 10763 bound_to 10752
  153.2279  135.6902  153.7930 H   0  0  0  0  0  0  0  0  0  0  0  0  # atno 10764 bound_to 10752
  153.7323  135.3325  155.3264 H   0  0  0  0  0  0  0  0  0  0  0  0  # atno 10765 bound_to 10752
  140.5058  134.5849  157.5003 H   0  0  0  0  0  0  0  0  0  0  0  0  # atno 11005 bound_to 11000
  145.1542  140.9639  143.4415 LP  0  0  0  0  0  0  0  0  0  0  0  0  # atno 17320 bound_to 7965
  145.0177  139.3452  143.6088 LP  0  0  0  0  0  0  0  0  0  0  0  0  # atno 17321 bound_to 7965
  139.8429  143.7540  152.3180 LP  0  0  0  0  0  0  0  0  0  0  0  0  # atno 17342 bound_to 10162
  139.7695  144.7481  151.0245 LP  0  0  0  0  0  0  0  0  0  0  0  0  # atno 17343 bound_to 10162
  156.6394  130.8698  151.3511 LP  0  0  0  0  0  0  0  0  0  0  0  0  # atno 17370 bound_to 10713
  157.7160  130.9498  150.1259 LP  0  0  0  0  0  0  0  0  0  0  0  0  # atno 17371 bound_to 10713
  139.9687  134.7329  156.0086 LP  0  0  0  0  0  0  0  0  0  0  0  0  # atno 17394 bound_to 11000
  141.1411  133.6564  156.3734 LP  0  0  0  0  0  0  0  0  0  0  0  0  # atno 17395 bound_to 11000

$$$$
