AV-unprocessed.smi:3046|AV-procd|sdf|11618|dock3
  -GOLD-   2272017 03D 1   1.00000     0.00000
 Structure written by MMmdl.
 37 37  0  0  0  0  0  0  0  0  1 V2000
  149.5264  140.0991  154.3895 C   0  0  0  0  0  0  0  0  0  0  0  0
  149.8657  138.9676  155.0253 C   0  0  0  0  0  0  0  0  0  0  0  0
  150.7283  137.8765  154.4292 C   0  0  0  0  0  0  0  0  0  0  0  0
  149.9493  136.6636  154.2372 N   0  0  0  0  0  0  0  0  0  0  0  0
  149.4844  135.8902  155.2291 C   0  0  0  0  0  0  0  0  0  0  0  0
  149.6876  136.1283  156.4200 O   0  0  0  0  0  0  0  0  0  0  0  0
  148.6249  134.6835  154.8103 C   0  0  1  0  0  0  0  0  0  0  0  0
  148.0275  133.9835  156.0419 C   0  0  0  0  0  0  0  0  0  0  0  0
  147.5412  135.0182  153.8601 N   0  0  0  0  0  0  0  0  0  0  0  0
  146.9188  133.9149  153.1245 C   0  0  2  0  0  0  0  0  0  0  0  0
  148.0515  132.9860  152.6564 C   0  0  0  0  0  0  0  0  0  0  0  0
  146.0575  134.4310  151.9474 C   0  0  0  0  0  0  0  0  0  0  0  0
  145.2526  133.3799  151.3527 N   0  0  0  0  0  0  0  0  0  0  0  0
  145.6663  132.1430  150.9052 C   0  0  0  0  0  0  0  0  0  0  0  0
  144.5633  131.4928  150.4314 C   0  0  0  0  0  0  0  0  0  0  0  0
  143.5076  132.4240  150.6385 C   0  0  0  0  0  0  0  0  0  0  0  0
  143.9228  133.5521  151.1923 N   0  0  0  0  0  0  0  0  0  0  0  0
  149.8647  140.3015  153.3837 H   0  0  0  0  0  0  0  0  0  0  0  0
  148.9037  140.8395  154.8693 H   0  0  0  0  0  0  0  0  0  0  0  0
  149.5053  138.7997  156.0300 H   0  0  0  0  0  0  0  0  0  0  0  0
  151.1175  138.2165  153.4686 H   0  0  0  0  0  0  0  0  0  0  0  0
  151.5817  137.6750  155.0794 H   0  0  0  0  0  0  0  0  0  0  0  0
  149.7302  136.4031  153.2868 H   0  0  0  0  0  0  0  0  0  0  0  0
  149.2835  133.9579  154.3316 H   0  0  0  0  0  0  0  0  0  0  0  0
  148.8030  133.7093  156.7583 H   0  0  0  0  0  0  0  0  0  0  0  0
  147.5110  133.0665  155.7565 H   0  0  0  0  0  0  0  0  0  0  0  0
  147.3068  134.6195  156.5579 H   0  0  0  0  0  0  0  0  0  0  0  0
  147.8509  135.7136  153.1960 H   0  0  0  0  0  0  0  0  0  0  0  0
  146.2957  133.3290  153.8004 H   0  0  0  0  0  0  0  0  0  0  0  0
  147.6590  132.0954  152.1651 H   0  0  0  0  0  0  0  0  0  0  0  0
  148.6582  132.6469  153.4968 H   0  0  0  0  0  0  0  0  0  0  0  0
  148.7125  133.4895  151.9498 H   0  0  0  0  0  0  0  0  0  0  0  0
  145.3685  135.2103  152.2700 H   0  0  0  0  0  0  0  0  0  0  0  0
  146.6907  134.8777  151.1788 H   0  0  0  0  0  0  0  0  0  0  0  0
  146.7002  131.8351  150.9588 H   0  0  0  0  0  0  0  0  0  0  0  0
  144.5174  130.5028  150.0026 H   0  0  0  0  0  0  0  0  0  0  0  0
  142.4588  132.3143  150.4051 H   0  0  0  0  0  0  0  0  0  0  0  0
  1  2  2  0  0  0  0
  1 18  1  0  0  0  0
  1 19  1  0  0  0  0
  2  3  1  0  0  0  0
  2 20  1  0  0  0  0
  3  4  1  0  0  0  0
  3 21  1  0  0  0  0
  3 22  1  0  0  0  0
  4  5  1  0  0  0  0
  4 23  1  0  0  0  0
  5  6  2  0  0  0  0
  5  7  1  0  0  0  0
  7  8  1  0  0  0  0
  7  9  1  0  0  0  0
  7 24  1  0  0  0  0
  8 25  1  0  0  0  0
  8 26  1  0  0  0  0
  8 27  1  0  0  0  0
  9 10  1  0  0  0  0
  9 28  1  0  0  0  0
 10 11  1  0  0  0  0
 10 12  1  0  0  0  0
 10 29  1  0  0  0  0
 11 30  1  0  0  0  0
 11 31  1  0  0  0  0
 11 32  1  0  0  0  0
 12 13  1  0  0  0  0
 12 33  1  0  0  0  0
 12 34  1  0  0  0  0
 13 17  1  0  0  0  0
 13 14  1  0  0  0  0
 14 15  2  0  0  0  0
 14 35  1  0  0  0  0
 15 16  1  0  0  0  0
 15 36  1  0  0  0  0
 16 17  2  0  0  0  0
 16 37  1  0  0  0  0
M  END
> <s_m_source_file>
AV-unprocessed.smi

> <i_m_source_file_index>
3046

> <i_lp_mmshare_version>
43012

> <i_f3d_flags>
0

> <s_epik_input>
W0NIMl09W0NIXVtDSDJdW05IXUMoPU8pW0NASF0oW0NIM10pW05IXVtDQEhdKFtDSDNdKVtDSDJdbjFbY0hdW2NIXVtjSF1uMQ==

> <s_epik_cmdline>
J2VwaWtfcHl0aG9uJywgJy1waCcsICc3LjAnLCAnLXRuJywgJzgnLCAnLW1hJywgJzIwMCcsICctbWV0YWxfYmluZGluZycsICctaW1hZScsICc8aW5maWxlLm1hZT4nLCAnLW9tYWUnLCAnPG91dGZpbGUubWFlPic=

> <r_lp_tautomer_probability>
1

> <r_epik_Ionization_Penalty>
0.950627

> <r_epik_Ionization_Penalty_Charging>
0

> <r_epik_Ionization_Penalty_Neutral>
0.950627

> <r_epik_State_Penalty>
0.994814

> <r_epik_Charging_Adjusted_Penalty>
0.994814

> <i_epik_Tot_Q>
0

> <i_epik_Tot_abs_Q>
0

> <r_epik_Metal_State_Penalty>
0.994788

> <b_epik_Metal_Only>
0

> <s_lp_Force_Field>
OPLS_2005

> <r_lp_Energy>
3.97817

> <b_lp_Chiralities_Consistent>
1

> <s_lp_Variant>
AV-unprocessed.smi:3046-6

> <Gold.Version>
5.8.1

> <Gold.Id.Protein>
6NUR|6NUR_protein|mol2

> <Gold.PLP.Fitness>
39.5499

> <Gold.PLP.PLP>
-28.3631

> <Gold.PLP.part.hbond>
-2.8197

> <Gold.PLP.part.metal>
0.0000

> <Gold.PLP.part.buried>
-2.6658

> <Gold.PLP.part.nonpolar>
-24.0732

> <Gold.PLP.part.repulsive>
0.2265

> <Gold.PLP.ligand.clash>
0.0000

> <Gold.PLP.ligand.torsion>
0.5062

> <Gold.PLP.Chemscore.Hbond>
1.9920

> <Gold.PLP.Chemscore.CHOScore>
2.0524

> <Gold.PLP.Chemscore.Metal>
0.0000

> <Gold.Chemscore.Hbonds>
donor molecule, donor type, donor heavy atom, donor atom, acceptor molecule, acceptor atom, score
      L1  H     4    23       P1  7948  0.95
      L1  H     9    28       P1  7948  0.99
      L1  C    14    35       P1 10747  0.90
      L1  C    16    37       P1 10186  0.50
      L1  C    16    37       P1 10952  0.62

> <Gold.PLP.Chemscore.Internal.Correction>
0.0661

> <Gold.Rescore>
     Score         DG    S(hbond)    S(metal)    S(lipo)     H(rot)  DE(clash)    DE(int)     intcor
     13.29     -14.02       1.81        0.00      68.99       2.17       0.03       0.70       ----

> <Gold.Chemscore.Fitness>
13.2926

> <Gold.Chemscore.DG>
-14.0233

> <Gold.Chemscore.ZeroCoef>
-5.4800

> <Gold.Chemscore.Hbond>
1.8072

> <Gold.Chemscore.Metal>
0.0000

> <Gold.Chemscore.Lipo>
68.9942

> <Gold.Chemscore.Internal_Hbond>
0.0000

> <Gold.Chemscore.DEClash>
0.0292

> <Gold.Chemscore.DEInternal>
0.7014

> <Gold.Chemscore.Rot>
2.1739

> <Gold.Chemscore.Internal.Correction>
   9.000000E+99

> <Gold.Chemscore.Hbonds>
donor molecule, donor type, donor heavy atom, donor atom, acceptor molecule, acceptor atom, score
      L1  H     4    23       P1  7948  0.21
      L1  H     9    28       P1  7948  0.93

> <Gold.Chemscore.Hbond.Weighted>
-6.0361

> <Gold.Chemscore.Metal.Weighted>
-0.0000

> <Gold.Chemscore.Lipo.Weighted>
-8.0723

> <Gold.Chemscore.Internal_Hbond.Weighted>
0.0000

> <Gold.Chemscore.DEClash.Weighted>
0.0292

> <Gold.Chemscore.DEInternal.Weighted>
0.7014

> <Gold.Chemscore.Rot.Weighted>
5.5652

> <Gold.Chemscore.Internal.Correction.Weighted>
   9.000000E+99

> <Gold.Protein.RotatedTorsions>
[ 6907 6896 6895 6894 ] final  -42.29 input  -60.11 | X-H torsion
[ 7974 7965 7964 7962 ] final -147.03 input  175.53 | X-H torsion
[ 8008 7997 7996 7995 ] final   69.08 input   59.86 | X-H torsion
[ 10167 10162 10161 10158 ] final -131.42 input  -65.29 | X-H torsion
[ 10718 10713 10712 10709 ] final   -8.00 input   66.30 | X-H torsion
[ 10763 10752 10751 10750 ] final -174.49 input  -60.55 | X-H torsion
[ 11005 11000 10999 10996 ] final -108.59 input  -57.11 | X-H torsion

> <Gold.Protein.ActiveResidues>
 VAL166  LYS551  ARG553  GLY616  TRP617  ASP618  TYR619  PRO620  LYS621  CYS622 
 ASP623  PHE694  ASN695  SER759  ASP760  ASP761  ALA762  ILE779  LEU786  VAL792 
 PHE793  MET794  SER795  GLU796  ALA797  LYS798  CYS799  TRP800  GLU811  SER814 

> <Gold.Protein.RotatedAtoms>
  150.9569  134.8962  159.7706 H   0  0  0  0  0  0  0  0  0  0  0  0  # atno 6907 bound_to 6896
  152.5141  134.3727  159.9334 H   0  0  0  0  0  0  0  0  0  0  0  0  # atno 6908 bound_to 6896
  151.3741  133.3804  159.2737 H   0  0  0  0  0  0  0  0  0  0  0  0  # atno 6909 bound_to 6896
  144.8120  140.5379  143.5636 H   0  0  0  0  0  0  0  0  0  0  0  0  # atno 7974 bound_to 7965
  155.7181  140.3493  155.5004 H   0  0  0  0  0  0  0  0  0  0  0  0  # atno 8008 bound_to 7997
  155.9294  140.1081  157.1166 H   0  0  0  0  0  0  0  0  0  0  0  0  # atno 8009 bound_to 7997
  154.4083  140.1234  156.4770 H   0  0  0  0  0  0  0  0  0  0  0  0  # atno 8010 bound_to 7997
  139.9191  143.6403  152.2558 H   0  0  0  0  0  0  0  0  0  0  0  0  # atno 10167 bound_to 10162
  156.7090  130.5116  149.5897 H   0  0  0  0  0  0  0  0  0  0  0  0  # atno 10718 bound_to 10713
  154.5956  135.2849  155.0589 H   0  0  0  0  0  0  0  0  0  0  0  0  # atno 10763 bound_to 10752
  154.1873  135.6446  153.5054 H   0  0  0  0  0  0  0  0  0  0  0  0  # atno 10764 bound_to 10752
  153.0137  135.5438  154.6657 H   0  0  0  0  0  0  0  0  0  0  0  0  # atno 10765 bound_to 10752
  141.0893  133.9083  157.2112 H   0  0  0  0  0  0  0  0  0  0  0  0  # atno 11005 bound_to 11000
  145.5302  139.1475  143.3504 LP  0  0  0  0  0  0  0  0  0  0  0  0  # atno 17320 bound_to 7965
  146.2419  140.5443  142.8930 LP  0  0  0  0  0  0  0  0  0  0  0  0  # atno 17321 bound_to 7965
  139.6877  144.7650  151.1495 LP  0  0  0  0  0  0  0  0  0  0  0  0  # atno 17342 bound_to 10162
  140.7667  143.5634  150.9074 LP  0  0  0  0  0  0  0  0  0  0  0  0  # atno 17343 bound_to 10162
  156.1675  130.6415  151.0796 LP  0  0  0  0  0  0  0  0  0  0  0  0  # atno 17370 bound_to 10713
  157.6944  131.0799  150.7014 LP  0  0  0  0  0  0  0  0  0  0  0  0  # atno 17371 bound_to 10713
  139.9716  135.0126  156.9527 LP  0  0  0  0  0  0  0  0  0  0  0  0  # atno 17394 bound_to 11000
  140.5289  134.0833  155.7310 LP  0  0  0  0  0  0  0  0  0  0  0  0  # atno 17395 bound_to 11000

$$$$
