AV-unprocessed.smi:2198|AV-procd|sdf|8916|dock2
  -GOLD-   2272012133D 1   1.00000     0.00000
 Structure written by MMmdl.
 43 44  0  0  0  0  0  0  0  0  1 V2000
  150.2416  134.4924  154.8723 C   0  0  0  0  0  0  0  0  0  0  0  0
  150.3311  136.0003  154.9617 C   0  0  0  0  0  0  0  0  0  0  0  0
  149.1428  136.6078  155.3325 N   0  0  0  0  0  0  0  0  0  0  0  0
  149.1256  137.9875  155.4350 C   0  0  0  0  0  0  0  0  0  0  0  0
  147.7851  138.5736  155.8421 C   0  0  0  0  0  0  0  0  0  0  0  0
  150.2386  138.7241  155.1880 C   0  0  0  0  0  0  0  0  0  0  0  0
  150.2634  140.2487  155.2941 C   0  0  0  0  0  0  0  0  0  0  0  0
  151.3160  140.8472  156.2313 C   0  0  0  0  0  0  0  0  0  0  0  0
  152.3446  140.2261  156.5007 O   0  0  0  0  0  0  0  0  0  0  0  0
  151.0361  142.0611  156.7287 N   0  0  0  0  0  0  0  0  0  0  0  0
  151.8795  142.8080  157.6571 C   0  0  1  0  0  0  0  0  0  0  0  0
  151.3240  144.2335  157.8272 C   0  0  0  0  0  0  0  0  0  0  0  0
  152.1453  145.0366  158.8477 C   0  0  0  0  0  0  0  0  0  0  0  0
  152.2192  144.3105  160.2000 C   0  0  0  0  0  0  0  0  0  0  0  0
  152.7837  142.8854  160.0453 C   0  0  1  0  0  0  0  0  0  0  0  0
  152.8524  142.1576  161.3955 C   0  0  0  0  0  0  0  0  0  0  0  0
  151.9578  142.0861  159.0187 C   0  0  0  0  0  0  0  0  0  0  0  0
  151.4838  138.0164  154.8076 C   0  0  0  0  0  0  0  0  0  0  0  0
  152.5298  138.6261  154.5880 O   0  0  0  0  0  0  0  0  0  0  0  0
  151.4452  136.6162  154.7068 N   0  0  0  0  0  0  0  0  0  0  0  0
  148.2936  136.0985  155.5298 H   0  0  0  0  0  0  0  0  0  0  0  0
  151.1421  134.0752  154.4196 H   0  0  0  0  0  0  0  0  0  0  0  0
  149.3870  134.1946  154.2642 H   0  0  0  0  0  0  0  0  0  0  0  0
  150.1274  134.0610  155.8672 H   0  0  0  0  0  0  0  0  0  0  0  0
  147.3973  139.2195  155.0543 H   0  0  0  0  0  0  0  0  0  0  0  0
  147.8872  139.1636  156.7531 H   0  0  0  0  0  0  0  0  0  0  0  0
  147.0458  137.7943  156.0301 H   0  0  0  0  0  0  0  0  0  0  0  0
  149.2845  140.5852  155.6363 H   0  0  0  0  0  0  0  0  0  0  0  0
  150.3816  140.6982  154.3075 H   0  0  0  0  0  0  0  0  0  0  0  0
  150.1691  142.4976  156.4505 H   0  0  0  0  0  0  0  0  0  0  0  0
  152.8855  142.8842  157.2393 H   0  0  0  0  0  0  0  0  0  0  0  0
  151.3232  144.7517  156.8675 H   0  0  0  0  0  0  0  0  0  0  0  0
  150.2846  144.1896  158.1565 H   0  0  0  0  0  0  0  0  0  0  0  0
  153.1532  145.1954  158.4624 H   0  0  0  0  0  0  0  0  0  0  0  0
  151.7063  146.0256  158.9807 H   0  0  0  0  0  0  0  0  0  0  0  0
  152.8391  144.8853  160.8890 H   0  0  0  0  0  0  0  0  0  0  0  0
  151.2235  144.2674  160.6437 H   0  0  0  0  0  0  0  0  0  0  0  0
  153.8028  142.9670  159.6645 H   0  0  0  0  0  0  0  0  0  0  0  0
  151.8609  142.0417  161.8344 H   0  0  0  0  0  0  0  0  0  0  0  0
  153.4701  142.7061  162.1071 H   0  0  0  0  0  0  0  0  0  0  0  0
  153.2850  141.1632  161.2830 H   0  0  0  0  0  0  0  0  0  0  0  0
  150.9506  141.9257  159.4070 H   0  0  0  0  0  0  0  0  0  0  0  0
  152.3974  141.0963  158.8885 H   0  0  0  0  0  0  0  0  0  0  0  0
  1 22  1  0  0  0  0
  1 23  1  0  0  0  0
  1 24  1  0  0  0  0
  1  2  1  0  0  0  0
  2  3  1  0  0  0  0
  2 20  2  0  0  0  0
  3  4  1  0  0  0  0
  3 21  1  0  0  0  0
  4  6  2  0  0  0  0
  4  5  1  0  0  0  0
  5 25  1  0  0  0  0
  5 26  1  0  0  0  0
  5 27  1  0  0  0  0
  6 18  1  0  0  0  0
  6  7  1  0  0  0  0
  7  8  1  0  0  0  0
  7 28  1  0  0  0  0
  7 29  1  0  0  0  0
  8  9  2  0  0  0  0
  8 10  1  0  0  0  0
 10 11  1  0  0  0  0
 10 30  1  0  0  0  0
 11 17  1  0  0  0  0
 11 12  1  0  0  0  0
 11 31  1  0  0  0  0
 12 13  1  0  0  0  0
 12 32  1  0  0  0  0
 12 33  1  0  0  0  0
 13 14  1  0  0  0  0
 13 34  1  0  0  0  0
 13 35  1  0  0  0  0
 14 15  1  0  0  0  0
 14 36  1  0  0  0  0
 14 37  1  0  0  0  0
 15 16  1  0  0  0  0
 15 17  1  0  0  0  0
 15 38  1  0  0  0  0
 16 39  1  0  0  0  0
 16 40  1  0  0  0  0
 16 41  1  0  0  0  0
 17 42  1  0  0  0  0
 17 43  1  0  0  0  0
 18 19  2  0  0  0  0
 18 20  1  0  0  0  0
M  END
> <s_m_source_file>
AV-unprocessed.smi

> <i_m_source_file_index>
2198

> <i_lp_mmshare_version>
43012

> <i_f3d_flags>
0

> <s_epik_input>
W0NIM11jMW5jKFtDSDNdKWMoYyg9TylbbkhdMSlbQ0gyXUMoPU8pW05IXVtDQEBIXTJbQ0gyXVtDSDJdW0NIMl1bQ0BASF0oW0NIM10pW0NIMl0y

> <s_epik_cmdline>
J2VwaWtfcHl0aG9uJywgJy1waCcsICc3LjAnLCAnLXRuJywgJzgnLCAnLW1hJywgJzIwMCcsICctbWV0YWxfYmluZGluZycsICctaW1hZScsICc8aW5maWxlLm1hZT4nLCAnLW9tYWUnLCAnPG91dGZpbGUubWFlPic=

> <r_lp_tautomer_probability>
0.156392

> <r_epik_Ionization_Penalty>
0.0136514

> <r_epik_Ionization_Penalty_Charging>
0.0135207

> <r_epik_Ionization_Penalty_Neutral>
0.000130657

> <r_epik_State_Penalty>
1.15342

> <r_epik_Charging_Adjusted_Penalty>
1.16694

> <i_epik_Tot_Q>
0

> <i_epik_Tot_abs_Q>
0

> <r_epik_Metal_State_Penalty>
1.31404

> <b_epik_Metal_Only>
0

> <s_lp_Force_Field>
OPLS_2005

> <r_lp_Energy>
13.5708

> <b_lp_Chiralities_Consistent>
1

> <s_lp_Variant>
AV-unprocessed.smi:2198-6

> <Gold.Version>
5.8.1

> <Gold.Id.Protein>
6NUR|6NUR_protein|mol2

> <Gold.PLP.Fitness>
44.8304

> <Gold.PLP.PLP>
-39.6659

> <Gold.PLP.part.hbond>
-2.0000

> <Gold.PLP.part.metal>
0.0000

> <Gold.PLP.part.buried>
-5.4413

> <Gold.PLP.part.nonpolar>
-33.1280

> <Gold.PLP.part.repulsive>
0.2730

> <Gold.PLP.ligand.clash>
0.0000

> <Gold.PLP.ligand.torsion>
0.4206

> <Gold.PLP.Chemscore.Hbond>
2.0000

> <Gold.PLP.Chemscore.CHOScore>
0.0000

> <Gold.PLP.Chemscore.Metal>
0.0000

> <Gold.Chemscore.Hbonds>
donor molecule, donor type, donor heavy atom, donor atom, acceptor molecule, acceptor atom, score
      P1  H  7997  8010       L1     9  1.00
      P1  H 10752 10764       L1    20  1.00

> <Gold.PLP.Chemscore.Internal.Correction>
0.0056

> <Gold.Rescore>
     Score         DG    S(hbond)    S(metal)    S(lipo)     H(rot)  DE(clash)    DE(int)     intcor
     17.02     -19.58       1.92        0.00      98.07       1.48       0.23       2.34       ----

> <Gold.Chemscore.Fitness>
17.0156

> <Gold.Chemscore.DG>
-19.5835

> <Gold.Chemscore.ZeroCoef>
-5.4800

> <Gold.Chemscore.Hbond>
1.9216

> <Gold.Chemscore.Metal>
0.0000

> <Gold.Chemscore.Lipo>
98.0711

> <Gold.Chemscore.Internal_Hbond>
0.0000

> <Gold.Chemscore.DEClash>
0.2311

> <Gold.Chemscore.DEInternal>
2.3369

> <Gold.Chemscore.Rot>
1.4801

> <Gold.Chemscore.Internal.Correction>
   9.000000E+99

> <Gold.Chemscore.Hbonds>
donor molecule, donor type, donor heavy atom, donor atom, acceptor molecule, acceptor atom, score
      P1  H  7997  8010       L1     9  0.94
      P1  H 10752 10764       L1    20  0.92

> <Gold.Chemscore.Hbond.Weighted>
-6.4183

> <Gold.Chemscore.Metal.Weighted>
-0.0000

> <Gold.Chemscore.Lipo.Weighted>
-11.4743

> <Gold.Chemscore.Internal_Hbond.Weighted>
0.0000

> <Gold.Chemscore.DEClash.Weighted>
0.2311

> <Gold.Chemscore.DEInternal.Weighted>
2.3369

> <Gold.Chemscore.Rot.Weighted>
3.7891

> <Gold.Chemscore.Internal.Correction.Weighted>
   9.000000E+99

> <Gold.Protein.RotatedTorsions>
[ 6907 6896 6895 6894 ] final   65.11 input  -60.11 | X-H torsion
[ 7974 7965 7964 7962 ] final -102.33 input  175.53 | X-H torsion
[ 8008 7997 7996 7995 ] final   70.80 input   59.86 | X-H torsion
[ 10167 10162 10161 10158 ] final   95.29 input  -65.29 | X-H torsion
[ 10718 10713 10712 10709 ] final  -47.03 input   66.30 | X-H torsion
[ 10763 10752 10751 10750 ] final  -55.36 input  -60.55 | X-H torsion
[ 11005 11000 10999 10996 ] final  167.44 input  -57.11 | X-H torsion

> <Gold.Protein.ActiveResidues>
 VAL166  LYS551  ARG553  GLY616  TRP617  ASP618  TYR619  PRO620  LYS621  CYS622 
 ASP623  PHE694  ASN695  SER759  ASP760  ASP761  ALA762  ILE779  LEU786  VAL792 
 PHE793  MET794  SER795  GLU796  ALA797  LYS798  CYS799  TRP800  GLU811  SER814 

> <Gold.Protein.RotatedAtoms>
  152.4382  134.5643  159.9902 H   0  0  0  0  0  0  0  0  0  0  0  0  # atno 6907 bound_to 6896
  151.5747  133.3379  159.3004 H   0  0  0  0  0  0  0  0  0  0  0  0  # atno 6908 bound_to 6896
  150.8284  134.7560  159.6897 H   0  0  0  0  0  0  0  0  0  0  0  0  # atno 6909 bound_to 6896
  145.2702  140.9296  143.2991 H   0  0  0  0  0  0  0  0  0  0  0  0  # atno 7974 bound_to 7965
  155.7443  140.3490  155.5119 H   0  0  0  0  0  0  0  0  0  0  0  0  # atno 8008 bound_to 7997
  155.9064  140.1043  157.1333 H   0  0  0  0  0  0  0  0  0  0  0  0  # atno 8009 bound_to 7997
  154.4050  140.1276  156.4489 H   0  0  0  0  0  0  0  0  0  0  0  0  # atno 8010 bound_to 7997
  139.8003  144.6816  150.9774 H   0  0  0  0  0  0  0  0  0  0  0  0  # atno 10167 bound_to 10162
  156.2124  130.4161  149.9097 H   0  0  0  0  0  0  0  0  0  0  0  0  # atno 10718 bound_to 10713
  154.1896  135.6429  153.5056 H   0  0  0  0  0  0  0  0  0  0  0  0  # atno 10763 bound_to 10752
  153.0038  135.5425  154.6429 H   0  0  0  0  0  0  0  0  0  0  0  0  # atno 10764 bound_to 10752
  154.5814  135.2925  155.0701 H   0  0  0  0  0  0  0  0  0  0  0  0  # atno 10765 bound_to 10752
  140.2768  134.7782  157.3724 H   0  0  0  0  0  0  0  0  0  0  0  0  # atno 11005 bound_to 11000
  144.9342  139.4263  143.6480 LP  0  0  0  0  0  0  0  0  0  0  0  0  # atno 17320 bound_to 7965
  146.3249  139.8268  142.8916 LP  0  0  0  0  0  0  0  0  0  0  0  0  # atno 17321 bound_to 7965
  140.7820  143.4289  151.0725 LP  0  0  0  0  0  0  0  0  0  0  0  0  # atno 17342 bound_to 10162
  139.7961  143.8149  152.3157 LP  0  0  0  0  0  0  0  0  0  0  0  0  # atno 17343 bound_to 10162
  156.6771  130.8843  151.3570 LP  0  0  0  0  0  0  0  0  0  0  0  0  # atno 17370 bound_to 10713
  157.7045  130.9370  150.0889 LP  0  0  0  0  0  0  0  0  0  0  0  0  # atno 17371 bound_to 10713
  140.1320  134.5082  155.8098 LP  0  0  0  0  0  0  0  0  0  0  0  0  # atno 17394 bound_to 11000
  141.2169  133.6793  156.7057 LP  0  0  0  0  0  0  0  0  0  0  0  0  # atno 17395 bound_to 11000

$$$$
