AV-unprocessed.smi:157|AV-procd|sdf|1297|dock2
  -GOLD-   2262018583D 1   1.00000     0.00000
 Structure written by MMmdl.
 35 37  0  0  0  0  0  0  0  0  1 V2000
  151.1181  143.6709  161.8736 O   0  0  0  0  0  0  0  0  0  0  0  0
  152.3907  143.3495  161.3543 C   0  0  0  0  0  0  0  0  0  0  0  0
  152.2730  142.9786  159.8686 C   0  0  1  0  0  0  0  0  0  0  0  0
  151.3818  141.8786  159.7131 O   0  0  0  0  0  0  0  0  0  0  0  0
  150.8236  141.8905  158.4316 C   0  0  2  0  0  0  0  0  0  0  0  0
  151.4518  140.7998  157.6152 N   0  0  0  0  0  0  0  0  0  0  0  0
  152.5155  140.0538  157.9451 C   0  0  0  0  0  0  0  0  0  0  0  0
  152.8674  139.1639  157.0323 N   0  0  0  0  0  0  0  0  0  0  0  0
  151.9379  139.3451  156.0102 C   0  0  0  0  0  0  0  0  0  0  0  0
  151.0485  140.3530  156.3536 C   0  0  0  0  0  0  0  0  0  0  0  0
  149.9594  140.9647  155.7625 N   0  0  0  0  0  0  0  0  0  0  0  0
  149.3731  140.3498  154.7841 C   0  0  0  0  0  0  0  0  0  0  0  0
  149.7142  139.1728  154.1330 N   0  0  0  0  0  0  0  0  0  0  0  0
  151.0543  138.8884  153.6485 C   0  0  0  0  0  0  0  0  0  0  0  0
  152.0421  138.5176  154.7618 C   0  0  2  0  0  0  0  0  0  0  0  0
  151.8361  137.1714  155.1392 O   0  0  0  0  0  0  0  0  0  0  0  0
  151.1410  143.2569  157.8118 C   0  0  0  0  0  0  0  0  0  0  0  0
  151.5958  144.0542  159.0185 C   0  0  2  0  0  0  0  0  0  0  0  0
  152.4860  145.0843  158.6403 O   0  0  0  0  0  0  0  0  0  0  0  0
  153.2463  142.7276  159.4414 H   0  0  0  0  0  0  0  0  0  0  0  0
  149.7611  141.6491  158.4756 H   0  0  0  0  0  0  0  0  0  0  0  0
  153.0538  138.5810  154.3598 H   0  0  0  0  0  0  0  0  0  0  0  0
  150.7335  144.4721  159.5406 H   0  0  0  0  0  0  0  0  0  0  0  0
  150.8816  144.5358  161.5753 H   0  0  0  0  0  0  0  0  0  0  0  0
  153.0842  144.1776  161.5032 H   0  0  0  0  0  0  0  0  0  0  0  0
  152.7716  142.5015  161.9242 H   0  0  0  0  0  0  0  0  0  0  0  0
  153.0525  140.1645  158.8756 H   0  0  0  0  0  0  0  0  0  0  0  0
  148.4667  140.7894  154.3656 H   0  0  0  0  0  0  0  0  0  0  0  0
  149.0152  138.7182  153.5632 H   0  0  0  0  0  0  0  0  0  0  0  0
  151.0161  138.1081  152.8877 H   0  0  0  0  0  0  0  0  0  0  0  0
  151.4137  139.7869  153.1446 H   0  0  0  0  0  0  0  0  0  0  0  0
  151.4095  137.1638  155.9829 H   0  0  0  0  0  0  0  0  0  0  0  0
  151.9460  143.1555  157.0812 H   0  0  0  0  0  0  0  0  0  0  0  0
  150.2652  143.6777  157.3169 H   0  0  0  0  0  0  0  0  0  0  0  0
  152.0287  145.9099  158.6903 H   0  0  0  0  0  0  0  0  0  0  0  0
  1  2  1  0  0  0  0
  1 24  1  0  0  0  0
  2  3  1  0  0  0  0
  2 25  1  0  0  0  0
  2 26  1  0  0  0  0
  3 20  1  0  0  0  0
  3 18  1  0  0  0  0
  3  4  1  0  0  0  0
  4  5  1  0  0  0  0
  5 21  1  0  0  0  0
  5  6  1  0  0  0  0
  5 17  1  0  0  0  0
  6 10  1  0  0  0  0
  6  7  1  0  0  0  0
  7  8  2  0  0  0  0
  7 27  1  0  0  0  0
  8  9  1  0  0  0  0
  9 15  1  0  0  0  0
  9 10  2  0  0  0  0
 10 11  1  0  0  0  0
 11 12  2  0  0  0  0
 12 13  1  0  0  0  0
 12 28  1  0  0  0  0
 13 14  1  0  0  0  0
 13 29  1  0  0  0  0
 14 15  1  0  0  0  0
 14 30  1  0  0  0  0
 14 31  1  0  0  0  0
 15 22  1  0  0  0  0
 15 16  1  0  0  0  0
 16 32  1  0  0  0  0
 17 18  1  0  0  0  0
 17 33  1  0  0  0  0
 17 34  1  0  0  0  0
 18 23  1  0  0  0  0
 18 19  1  0  0  0  0
 19 35  1  0  0  0  0
M  END
> <s_m_source_file>
AV-unprocessed.smi

> <i_m_source_file_index>
157

> <i_lp_mmshare_version>
43012

> <i_f3d_flags>
0

> <s_epik_input>
W09IXVtDSDJdW0NASF0xT1tDQEhdKFtDSDJdW0NAQEhdMVtPSF0pbihbY0hdbjIpYyhjMjMpTj1bQ0hdW05IXVtDSDJdW0NASF0zW09IXQ==

> <s_epik_cmdline>
J2VwaWtfcHl0aG9uJywgJy1waCcsICc3LjAnLCAnLXRuJywgJzgnLCAnLW1hJywgJzIwMCcsICctbWV0YWxfYmluZGluZycsICctaW1hZScsICc8aW5maWxlLm1hZT4nLCAnLW9tYWUnLCAnPG91dGZpbGUubWFlPic=

> <r_lp_tautomer_probability>
1

> <r_epik_Ionization_Penalty>
0.0357149

> <r_epik_Ionization_Penalty_Charging>
0.0355056

> <r_epik_Ionization_Penalty_Neutral>
0.000209255

> <r_epik_State_Penalty>
0.0296046

> <r_epik_Charging_Adjusted_Penalty>
0.0651102

> <i_epik_Tot_Q>
0

> <i_epik_Tot_abs_Q>
0

> <r_epik_Metal_State_Penalty>
3.03559e-05

> <b_epik_Metal_Only>
0

> <s_epik_Chemistry_Notes>
This compound has an imine and may undergo hydrolysis. This compound contains an acetal/aminal-like group ( X-CH(R)-Y where X, Y are N, S, or O) that may be acid/base labile, releasing an aldehyde.

> <s_lp_Force_Field>
OPLS_2005

> <r_lp_Energy>
44.0158

> <b_lp_Chiralities_Consistent>
1

> <s_lp_Variant>
AV-unprocessed.smi:157-7

> <Gold.Version>
5.8.1

> <Gold.Id.Protein>
6NUR|6NUR_protein|mol2

> <Gold.PLP.Fitness>
42.3056

> <Gold.PLP.PLP>
-37.6093

> <Gold.PLP.part.hbond>
-5.7380

> <Gold.PLP.part.metal>
0.0000

> <Gold.PLP.part.buried>
-5.7705

> <Gold.PLP.part.nonpolar>
-26.2845

> <Gold.PLP.part.repulsive>
0.1293

> <Gold.PLP.ligand.clash>
0.0000

> <Gold.PLP.ligand.torsion>
0.2347

> <Gold.PLP.Chemscore.Hbond>
1.7155

> <Gold.PLP.Chemscore.CHOScore>
0.0000

> <Gold.PLP.Chemscore.Metal>
0.0000

> <Gold.Chemscore.Hbonds>
donor molecule, donor type, donor heavy atom, donor atom, acceptor molecule, acceptor atom, score
      P1  H  6933  6945       L1     1  0.25
      P1  H  7997  8008       L1     8  0.55
      P1  H 10752 10763       L1    16  0.98

> <Gold.PLP.Chemscore.Internal.Correction>
0.0191

> <Gold.Rescore>
     Score         DG    S(hbond)    S(metal)    S(lipo)     H(rot)  DE(clash)    DE(int)     intcor
      7.12      -9.42       1.63        0.00      66.68       3.64       1.71       0.59       ----

> <Gold.Chemscore.Fitness>
7.1228

> <Gold.Chemscore.DG>
-9.4241

> <Gold.Chemscore.ZeroCoef>
-5.4800

> <Gold.Chemscore.Hbond>
1.6320

> <Gold.Chemscore.Metal>
0.0000

> <Gold.Chemscore.Lipo>
66.6819

> <Gold.Chemscore.Internal_Hbond>
0.0000

> <Gold.Chemscore.DEClash>
1.7118

> <Gold.Chemscore.DEInternal>
0.5895

> <Gold.Chemscore.Rot>
3.6362

> <Gold.Chemscore.Internal.Correction>
   9.000000E+99

> <Gold.Chemscore.Hbonds>
donor molecule, donor type, donor heavy atom, donor atom, acceptor molecule, acceptor atom, score
      P1  H  6933  6945       L1     1  0.17
      P1  H  7997  8008       L1     8  0.03
      P1  H 10752 10763       L1    16  0.87

> <Gold.Chemscore.Hbond.Weighted>
-5.4510

> <Gold.Chemscore.Metal.Weighted>
-0.0000

> <Gold.Chemscore.Lipo.Weighted>
-7.8018

> <Gold.Chemscore.Internal_Hbond.Weighted>
0.0000

> <Gold.Chemscore.DEClash.Weighted>
1.7118

> <Gold.Chemscore.DEInternal.Weighted>
0.5895

> <Gold.Chemscore.Rot.Weighted>
9.3087

> <Gold.Chemscore.Internal.Correction.Weighted>
   9.000000E+99

> <Gold.Protein.RotatedTorsions>
[ 6907 6896 6895 6894 ] final -161.31 input  -60.11 | X-H torsion
[ 7974 7965 7964 7962 ] final   10.53 input  175.53 | X-H torsion
[ 8008 7997 7996 7995 ] final  -65.85 input   59.86 | X-H torsion
[ 10167 10162 10161 10158 ] final -144.82 input  -65.29 | X-H torsion
[ 10718 10713 10712 10709 ] final  109.27 input   66.30 | X-H torsion
[ 10763 10752 10751 10750 ] final   52.50 input  -60.55 | X-H torsion
[ 11005 11000 10999 10996 ] final -139.22 input  -57.11 | X-H torsion

> <Gold.Protein.ActiveResidues>
 VAL166  LYS551  ARG553  GLY616  TRP617  ASP618  TYR619  PRO620  LYS621  CYS622 
 ASP623  PHE694  ASN695  SER759  ASP760  ASP761  ALA762  ILE779  LEU786  VAL792 
 PHE793  MET794  SER795  GLU796  ALA797  LYS798  CYS799  TRP800  GLU811  SER814 

> <Gold.Protein.RotatedAtoms>
  151.3627  133.3883  159.2691 H   0  0  0  0  0  0  0  0  0  0  0  0  # atno 6907 bound_to 6896
  150.9713  134.9086  159.7800 H   0  0  0  0  0  0  0  0  0  0  0  0  # atno 6908 bound_to 6896
  152.5185  134.3589  159.9330 H   0  0  0  0  0  0  0  0  0  0  0  0  # atno 6909 bound_to 6896
  146.2387  139.9620  142.8457 H   0  0  0  0  0  0  0  0  0  0  0  0  # atno 7974 bound_to 7965
  154.4697  140.0924  156.7113 H   0  0  0  0  0  0  0  0  0  0  0  0  # atno 8008 bound_to 7997
  155.4758  140.3466  155.4314 H   0  0  0  0  0  0  0  0  0  0  0  0  # atno 8009 bound_to 7997
  156.1018  140.1424  156.9445 H   0  0  0  0  0  0  0  0  0  0  0  0  # atno 8010 bound_to 7997
  139.7863  143.8030  152.2645 H   0  0  0  0  0  0  0  0  0  0  0  0  # atno 10167 bound_to 10162
  157.6549  131.0910  150.6429 H   0  0  0  0  0  0  0  0  0  0  0  0  # atno 10718 bound_to 10713
  152.9789  135.5810  154.4589 H   0  0  0  0  0  0  0  0  0  0  0  0  # atno 10763 bound_to 10752
  154.4167  135.2771  155.2004 H   0  0  0  0  0  0  0  0  0  0  0  0  # atno 10764 bound_to 10752
  154.3770  135.6155  153.5824 H   0  0  0  0  0  0  0  0  0  0  0  0  # atno 10765 bound_to 10752
  140.8540  134.2250  157.4744 H   0  0  0  0  0  0  0  0  0  0  0  0  # atno 11005 bound_to 11000
  145.1762  140.9745  143.4293 LP  0  0  0  0  0  0  0  0  0  0  0  0  # atno 17320 bound_to 7965
  144.9983  139.3622  143.6180 LP  0  0  0  0  0  0  0  0  0  0  0  0  # atno 17321 bound_to 7965
  139.8107  144.7337  150.9701 LP  0  0  0  0  0  0  0  0  0  0  0  0  # atno 17342 bound_to 10162
  140.7819  143.4253  151.0777 LP  0  0  0  0  0  0  0  0  0  0  0  0  # atno 17343 bound_to 10162
  156.6737  130.4547  149.5649 LP  0  0  0  0  0  0  0  0  0  0  0  0  # atno 17370 bound_to 10713
  156.1979  130.6601  151.1135 LP  0  0  0  0  0  0  0  0  0  0  0  0  # atno 17371 bound_to 10713
  139.8705  134.9697  156.4676 LP  0  0  0  0  0  0  0  0  0  0  0  0  # atno 17394 bound_to 11000
  140.8758  133.7954  155.9413 LP  0  0  0  0  0  0  0  0  0  0  0  0  # atno 17395 bound_to 11000

$$$$
