AV-unprocessed.smi:47|AV-procd|sdf|428|dock3
  -GOLD-   2262016303D 1   1.00000     0.00000
 Structure written by MMmdl.
 31 33  0  0  0  0  0  0  0  0  3 V2000
  145.6926  141.1167  154.6386 O   0  0  0  0  0  0  0  0  0  0  0  0
  146.9588  141.1258  154.0137 C   0  0  2  0  0  0  0  0  0  0  0  0
  147.4485  139.7153  153.6725 C   0  0  0  0  0  0  0  0  0  0  0  0
  148.9222  139.7686  153.7376 N   0  3  0  0  0  0  0  0  0  0  0  0
  149.3222  141.0691  154.3110 C   0  0  2  0  0  0  0  0  0  0  0  0
  150.4614  140.9154  155.2958 C   0  0  0  0  0  0  0  0  0  0  0  0
  151.5620  140.1722  155.0734 N   0  0  0  0  0  0  0  0  0  0  0  0
  152.3154  140.3057  156.1482 N   0  5  0  0  0  0  0  0  0  0  0  0
  151.6795  141.1289  156.9957 C   0  0  0  0  0  0  0  0  0  0  0  0
  152.2409  141.4970  158.3116 C   0  0  0  0  0  0  0  0  0  0  0  0
  151.8810  142.7185  158.9270 C   0  0  0  0  0  0  0  0  0  0  0  0
  152.4039  143.0810  160.1835 C   0  0  0  0  0  0  0  0  0  0  0  0
  153.2982  142.2223  160.8479 C   0  0  0  0  0  0  0  0  0  0  0  0
  153.6684  141.0039  160.2505 C   0  0  0  0  0  0  0  0  0  0  0  0
  153.1438  140.6467  158.9930 C   0  0  0  0  0  0  0  0  0  0  0  0
  150.5237  141.5322  156.4870 N   0  0  0  0  0  0  0  0  0  0  0  0
  148.0533  141.6571  154.9337 C   0  0  0  0  0  0  0  0  0  0  0  0
  146.9141  141.7321  153.1078 H   0  0  0  0  0  0  0  0  0  0  0  0
  149.6467  141.7049  153.4859 H   0  0  0  0  0  0  0  0  0  0  0  0
  145.0532  140.7928  154.0222 H   0  0  0  0  0  0  0  0  0  0  0  0
  147.1099  138.9971  154.4211 H   0  0  0  0  0  0  0  0  0  0  0  0
  147.0992  139.3754  152.6973 H   0  0  0  0  0  0  0  0  0  0  0  0
  149.2528  139.0340  154.3481 H   0  0  0  0  0  0  0  0  0  0  0  0
  151.1954  143.3915  158.4332 H   0  0  0  0  0  0  0  0  0  0  0  0
  152.1173  144.0181  160.6375 H   0  0  0  0  0  0  0  0  0  0  0  0
  153.6990  142.4976  161.8121 H   0  0  0  0  0  0  0  0  0  0  0  0
  154.3546  140.3408  160.7561 H   0  0  0  0  0  0  0  0  0  0  0  0
  153.4411  139.7052  158.5550 H   0  0  0  0  0  0  0  0  0  0  0  0
  148.0762  142.7450  155.0066 H   0  0  0  0  0  0  0  0  0  0  0  0
  147.9137  141.2555  155.9394 H   0  0  0  0  0  0  0  0  0  0  0  0
  149.3322  139.6596  152.8216 H   0  0  0  0  0  0  0  0  0  0  0  0
  1  2  1  0  0  0  0
  1 20  1  0  0  0  0
  2 18  1  0  0  0  0
  2 17  1  0  0  0  0
  2  3  1  0  0  0  0
  3  4  1  0  0  0  0
  3 21  1  0  0  0  0
  3 22  1  0  0  0  0
  4  5  1  0  0  0  0
  4 23  1  0  0  0  0
  4 31  1  0  0  0  0
  5 19  1  0  0  0  0
  5  6  1  0  0  0  0
  5 17  1  0  0  0  0
  6 16  1  0  0  0  0
  6  7  2  0  0  0  0
  7  8  1  0  0  0  0
  8  9  1  0  0  0  0
  9 10  1  0  0  0  0
  9 16  2  0  0  0  0
 10 15  1  0  0  0  0
 10 11  2  0  0  0  0
 11 12  1  0  0  0  0
 11 24  1  0  0  0  0
 12 13  2  0  0  0  0
 12 25  1  0  0  0  0
 13 14  1  0  0  0  0
 13 26  1  0  0  0  0
 14 15  2  0  0  0  0
 14 27  1  0  0  0  0
 15 28  1  0  0  0  0
 17 29  1  0  0  0  0
 17 30  1  0  0  0  0
M  CHG  1   4   1
M  CHG  1   8  -1
M  END
> <s_m_source_file>
AV-unprocessed.smi

> <i_m_source_file_index>
47

> <i_lp_mmshare_version>
43012

> <i_f3d_flags>
0

> <s_epik_input>
W09IXVtDQEhdMVtDSDJdW05IXVtDQEBIXShbQ0gyXTEpYzJuW25IXWMobjIpLWMzW2NIXVtjSF1bY0hdW2NIXVtjSF0z

> <s_epik_cmdline>
J2VwaWtfcHl0aG9uJywgJy1waCcsICc3LjAnLCAnLXRuJywgJzgnLCAnLW1hJywgJzIwMCcsICctbWV0YWxfYmluZGluZycsICctaW1hZScsICc8aW5maWxlLm1hZT4nLCAnLW9tYWUnLCAnPG91dGZpbGUubWFlPic=

> <r_lp_tautomer_probability>
1

> <r_epik_Ionization_Penalty>
1.09593

> <r_epik_Ionization_Penalty_Charging>
1.09593

> <r_epik_Ionization_Penalty_Neutral>
3.91329e-08

> <r_epik_State_Penalty>
0.690005

> <r_epik_Charging_Adjusted_Penalty>
1.78594

> <i_epik_Tot_Q>
0

> <i_epik_Tot_abs_Q>
2

> <r_epik_Metal_State_Penalty>
0.213596

> <b_epik_Metal_Only>
0

> <s_lp_Force_Field>
OPLS_2005

> <r_lp_Energy>
20.9677

> <b_lp_Chiralities_Consistent>
1

> <s_lp_Variant>
AV-unprocessed.smi:47-6

> <Gold.Version>
5.8.1

> <Gold.Id.Protein>
6NUR|6NUR_protein|mol2

> <Gold.PLP.Fitness>
46.1874

> <Gold.PLP.PLP>
-35.1444

> <Gold.PLP.part.hbond>
-3.9595

> <Gold.PLP.part.metal>
0.0000

> <Gold.PLP.part.buried>
-1.2811

> <Gold.PLP.part.nonpolar>
-28.3634

> <Gold.PLP.part.repulsive>
0.2215

> <Gold.PLP.ligand.clash>
0.0000

> <Gold.PLP.ligand.torsion>
0.6909

> <Gold.PLP.Chemscore.Hbond>
4.1400

> <Gold.PLP.Chemscore.CHOScore>
0.0000

> <Gold.PLP.Chemscore.Metal>
0.0000

> <Gold.Chemscore.Hbonds>
donor molecule, donor type, donor heavy atom, donor atom, acceptor molecule, acceptor atom, score
      L1  H     1    20       P1 10175  0.88
      L1  H     4    31       P1  7957  1.00
      P1  H  7989  7998       L1     7  0.40
      P1  H  7997  8009       L1     8  2.00

> <Gold.PLP.Chemscore.Internal.Correction>
0.0048

> <Gold.Rescore>
     Score         DG    S(hbond)    S(metal)    S(lipo)     H(rot)  DE(clash)    DE(int)     intcor
     20.05     -20.97       2.77        0.00      85.83       1.48       0.27       0.64       ----

> <Gold.Chemscore.Fitness>
20.0529

> <Gold.Chemscore.DG>
-20.9694

> <Gold.Chemscore.ZeroCoef>
-5.4800

> <Gold.Chemscore.Hbond>
2.7657

> <Gold.Chemscore.Metal>
0.0000

> <Gold.Chemscore.Lipo>
85.8283

> <Gold.Chemscore.Internal_Hbond>
0.0000

> <Gold.Chemscore.DEClash>
0.2719

> <Gold.Chemscore.DEInternal>
0.6445

> <Gold.Chemscore.Rot>
1.4804

> <Gold.Chemscore.Internal.Correction>
   9.000000E+99

> <Gold.Chemscore.Hbonds>
donor molecule, donor type, donor heavy atom, donor atom, acceptor molecule, acceptor atom, score
      L1  H     1    20       P1 10175  0.83
      L1  H     4    31       P1  7957  0.99
      P1  H  7989  7998       L1     7  0.01
      P1  H  7997  8009       L1     8  0.87

> <Gold.Chemscore.Hbond.Weighted>
-9.2373

> <Gold.Chemscore.Metal.Weighted>
-0.0000

> <Gold.Chemscore.Lipo.Weighted>
-10.0419

> <Gold.Chemscore.Internal_Hbond.Weighted>
0.0000

> <Gold.Chemscore.DEClash.Weighted>
0.2719

> <Gold.Chemscore.DEInternal.Weighted>
0.6445

> <Gold.Chemscore.Rot.Weighted>
3.7899

> <Gold.Chemscore.Internal.Correction.Weighted>
   9.000000E+99

> <Gold.Protein.RotatedTorsions>
[ 6907 6896 6895 6894 ] final  -76.03 input  -60.11 | X-H torsion
[ 7974 7965 7964 7962 ] final   51.13 input  175.53 | X-H torsion
[ 8008 7997 7996 7995 ] final -161.26 input   59.86 | X-H torsion
[ 10167 10162 10161 10158 ] final   -2.05 input  -65.29 | X-H torsion
[ 10718 10713 10712 10709 ] final   69.57 input   66.30 | X-H torsion
[ 10763 10752 10751 10750 ] final    5.85 input  -60.55 | X-H torsion
[ 11005 11000 10999 10996 ] final  154.31 input  -57.11 | X-H torsion

> <Gold.Protein.ActiveResidues>
 VAL166  LYS551  ARG553  GLY616  TRP617  ASP618  TYR619  PRO620  LYS621  CYS622 
 ASP623  PHE694  ASN695  SER759  ASP760  ASP761  ALA762  ILE779  LEU786  VAL792 
 PHE793  MET794  SER795  GLU796  ALA797  LYS798  CYS799  TRP800  GLU811  SER814 

> <Gold.Protein.RotatedAtoms>
  150.7040  134.4633  159.5390 H   0  0  0  0  0  0  0  0  0  0  0  0  # atno 6907 bound_to 6896
  152.2304  134.8325  160.0483 H   0  0  0  0  0  0  0  0  0  0  0  0  # atno 6908 bound_to 6896
  151.9143  133.3534  159.3911 H   0  0  0  0  0  0  0  0  0  0  0  0  # atno 6909 bound_to 6896
  145.9944  139.4372  143.0054 H   0  0  0  0  0  0  0  0  0  0  0  0  # atno 7974 bound_to 7965
  155.7895  140.0876  157.2016 H   0  0  0  0  0  0  0  0  0  0  0  0  # atno 8008 bound_to 7997
  154.3986  140.1492  156.3205 H   0  0  0  0  0  0  0  0  0  0  0  0  # atno 8009 bound_to 7997
  155.8573  140.3432  155.5735 H   0  0  0  0  0  0  0  0  0  0  0  0  # atno 8010 bound_to 7997
  140.6835  143.6702  150.8191 H   0  0  0  0  0  0  0  0  0  0  0  0  # atno 10167 bound_to 10162
  157.6353  130.9432  150.0531 H   0  0  0  0  0  0  0  0  0  0  0  0  # atno 10718 bound_to 10713
  153.2545  135.6917  153.7643 H   0  0  0  0  0  0  0  0  0  0  0  0  # atno 10763 bound_to 10752
  153.6726  135.3342  155.3158 H   0  0  0  0  0  0  0  0  0  0  0  0  # atno 10764 bound_to 10752
  154.8407  135.4503  154.1514 H   0  0  0  0  0  0  0  0  0  0  0  0  # atno 10765 bound_to 10752
  140.1477  134.8696  157.2414 H   0  0  0  0  0  0  0  0  0  0  0  0  # atno 11005 bound_to 11000
  145.7582  140.9946  143.1214 LP  0  0  0  0  0  0  0  0  0  0  0  0  # atno 17320 bound_to 7965
  144.6899  139.9298  143.7471 LP  0  0  0  0  0  0  0  0  0  0  0  0  # atno 17321 bound_to 7965
  140.0406  143.5350  152.2719 LP  0  0  0  0  0  0  0  0  0  0  0  0  # atno 17342 bound_to 10162
  139.6176  144.7622  151.2812 LP  0  0  0  0  0  0  0  0  0  0  0  0  # atno 17343 bound_to 10162
  156.1587  130.3643  149.9331 LP  0  0  0  0  0  0  0  0  0  0  0  0  # atno 17370 bound_to 10713
  156.7334  130.9052  151.3627 LP  0  0  0  0  0  0  0  0  0  0  0  0  # atno 17371 bound_to 10713
  140.2643  134.3535  155.7395 LP  0  0  0  0  0  0  0  0  0  0  0  0  # atno 17394 bound_to 11000
  141.2195  133.7387  156.9127 LP  0  0  0  0  0  0  0  0  0  0  0  0  # atno 17395 bound_to 11000

$$$$
