#       Name:                AV-unprocessed.smi:1406
#       Creating user name   scv26
#       Creation time:       Fri Mar 27 05:35:35 2020


#       File generated by GOLD software.
#

@<TRIPOS>MOLECULE
AV-unprocessed.smi:1406
    45    47     1
SMALL
NO_CHARGES


@<TRIPOS>ATOM
      1 ****        -2.6884  -2.9268   2.3038 C.3            1 S1                 0.0000
      2 ****        -2.3817  -1.5553   1.6689 C.3            1 S1                 0.0000
      3 ****        -0.8916  -1.1832   1.7316 C.2            1 S1                 0.0000
      4 ****        -0.0338  -2.0366   1.9609 O.2            1 S1                 0.0000
      5 ****        -0.5930   0.1037   1.4928 N.am           1 S1                 0.0000
      6 ****         0.7612   0.6350   1.3772 C.3            1 S1                 0.0000
      7 ****         0.8223   2.1557   1.4392 C.3            1 S1                 0.0000
      8 ****         2.1904   2.4701   0.8250 C.3            1 S1                 0.0000
      9 ****         2.5118   1.3565  -0.1014 N.4            1 S1                 1.0000
     10 ****         2.7966   1.7925  -1.4949 C.3            1 S1                 0.0000
     11 ****         2.7315   0.6052  -2.4670 C.3            1 S1                 0.0000
     12 ****         1.3268  -0.0264  -2.4936 C.3            1 S1                 0.0000
     13 ****         0.5329   0.2473  -1.2024 C.3            1 S1                 0.0000
     14 ****         1.4570   0.3126   0.0399 C.3            1 S1                 0.0000
     15 ****        -2.8564  -1.4723   0.2924 N.pl3          1 S1                 0.0000
     16 ****        -3.5510  -0.5108  -0.3193 C.2            1 S1                 0.0000
     17 ****        -3.7617  -0.7351  -1.6085 N.2            1 S1                 0.0000
     18 ****        -3.1240  -1.9360  -1.7386 C.2            1 S1                 0.0000
     19 ****        -2.5542  -2.4165  -0.6337 N.2            1 S1                 0.0000
     20 ****        -2.3806  -2.9538   3.3498 H              1 S1                 0.0000
     21 ****        -2.1780  -3.7411   1.7876 H              1 S1                 0.0000
     22 ****        -3.7578  -3.1375   2.2739 H              1 S1                 0.0000
     23 ****        -2.9250  -0.8030   2.2431 H              1 S1                 0.0000
     24 ****        -1.3543   0.7447   1.3218 H              1 S1                 0.0000
     25 ****         1.3693   0.2441   2.1959 H              1 S1                 0.0000
     26 ****         0.0328   2.5923   0.8254 H              1 S1                 0.0000
     27 ****         0.7157   2.5451   2.4522 H              1 S1                 0.0000
     28 ****         2.1985   3.4483   0.3423 H              1 S1                 0.0000
     29 ****         2.9537   2.4873   1.6037 H              1 S1                 0.0000
     30 ****         2.0759   2.5504  -1.8074 H              1 S1                 0.0000
     31 ****         3.7808   2.2611  -1.5258 H              1 S1                 0.0000
     32 ****         3.0186   0.9163  -3.4719 H              1 S1                 0.0000
     33 ****         3.4627  -0.1442  -2.1604 H              1 S1                 0.0000
     34 ****         0.7598   0.3540  -3.3440 H              1 S1                 0.0000
     35 ****         1.4240  -1.1012  -2.6513 H              1 S1                 0.0000
     36 ****        -0.0053   1.1909  -1.3021 H              1 S1                 0.0000
     37 ****        -0.2289  -0.5240  -1.0902 H              1 S1                 0.0000
     38 ****         1.9531  -0.6551   0.1283 H              1 S1                 0.0000
     39 ****        -3.9010   0.3770   0.1867 H              1 S1                 0.0000
     40 ****        -3.0698  -2.4674  -2.6773 H              1 S1                 0.0000
     41 ****         3.3612   0.9352   0.2475 H              1 S1                 0.0000
     42 ****        -0.3025  -2.9882   2.1097 LP             1 S1                 0.0000
     43 ****         0.9314  -1.7779   1.9983 LP             1 S1                 0.0000
     44 ****        -4.2466  -0.1850  -2.2884 LP             1 S1                 0.0000
     45 ****        -2.0336  -3.2622  -0.5165 LP             1 S1                 0.0000
@<TRIPOS>BOND
    1    1    2 1     
    2    1   20 1     
    3    1   21 1     
    4    1   22 1     
    5    2    3 1     
    6    2   15 1     
    7    2   23 1     
    8    3    4 2     
    9    3    5 am    
   10    5    6 1     
   11    5   24 1     
   12    6   14 1     
   13    6    7 1     
   14    6   25 1     
   15    7    8 1     
   16    7   26 1     
   17    7   27 1     
   18    8    9 1     
   19    8   28 1     
   20    8   29 1     
   21    9   14 1     
   22    9   10 1     
   23    9   41 1     
   24   10   11 1     
   25   10   30 1     
   26   10   31 1     
   27   11   12 1     
   28   11   32 1     
   29   11   33 1     
   30   12   13 1     
   31   12   34 1     
   32   12   35 1     
   33   13   14 1     
   34   13   36 1     
   35   13   37 1     
   36   14   38 1     
   37   15   19 1     
   38   15   16 1     
   39   16   17 2     
   40   16   39 1     
   41   17   18 1     
   42   18   19 2     
   43   18   40 1     
   44    4   42 1     
   45    4   43 1     
   46   17   44 1     
   47   19   45 1     
@<TRIPOS>SUBSTRUCTURE
      1 S1             1
@<TRIPOS>SET
LONE_PAIRS      STATIC     ATOMS    <user>   **** ""
4 42 43 44 45
DONOR_HYDROGENS      STATIC     ATOMS    <user>   **** ""
2 24 41
ATOM$BLUE        STATIC     ATOMS    COLORGROUP SYSTEM
4 42 43 44 45
ATOM$RED        STATIC     ATOMS    COLORGROUP SYSTEM
2 24 41
