AV-unprocessed.smi:3054|AV-procd|sdf|11640|dock3
  -GOLD-   2272017 33D 1   1.00000     0.00000
 Structure written by MMmdl.
 40 41  0  0  0  0  0  0  0  0  2 V2000
  148.6372  141.1791  155.5834 C   0  0  0  0  0  0  0  0  0  0  0  0
  148.5981  140.7483  154.1105 C   0  0  0  0  0  0  0  0  0  0  0  0
  147.2151  140.2127  153.6567 C   0  0  1  0  0  0  0  0  0  0  0  0
  146.9164  138.8057  154.2254 C   0  0  0  0  0  0  0  0  0  0  0  0
  146.9562  137.7666  153.1981 N   0  0  0  0  0  0  0  0  0  0  0  0
  145.9028  137.0665  152.7540 C   0  0  0  0  0  0  0  0  0  0  0  0
  144.7523  137.2457  153.1517 O   0  0  0  0  0  0  0  0  0  0  0  0
  146.2682  136.1690  151.8249 N   0  0  0  0  0  0  0  0  0  0  0  0
  145.4277  135.2591  151.1363 C   0  0  0  0  0  0  0  0  0  0  0  0
  145.6814  133.9093  150.7526 C   0  0  0  0  0  0  0  0  0  0  0  0
  144.6410  133.3877  150.1186 N   0  0  0  0  0  0  0  0  0  0  0  0
  143.7307  134.3868  150.0912 N   0  0  0  0  0  0  0  0  0  0  0  0
  144.1684  135.5428  150.6991 C   0  0  0  0  0  0  0  0  0  0  0  0
  146.0963  141.1580  153.9428 N   0  3  0  0  0  0  0  0  0  0  0  0
  145.5359  141.1458  155.3181 C   0  0  0  0  0  0  0  0  0  0  0  0
  145.6570  142.5768  155.8444 C   0  0  0  0  0  0  0  0  0  0  0  0
  145.5951  143.4211  154.5777 C   0  0  0  0  0  0  0  0  0  0  0  0
  146.3516  142.5677  153.5607 C   0  0  0  0  0  0  0  0  0  0  0  0
  142.8262  134.2657  149.6579 H   0  0  0  0  0  0  0  0  0  0  0  0
  149.6448  141.4814  155.8694 H   0  0  0  0  0  0  0  0  0  0  0  0
  148.3390  140.3630  156.2418 H   0  0  0  0  0  0  0  0  0  0  0  0
  147.9782  142.0254  155.7758 H   0  0  0  0  0  0  0  0  0  0  0  0
  148.9036  141.5932  153.4934 H   0  0  0  0  0  0  0  0  0  0  0  0
  149.3634  139.9855  153.9699 H   0  0  0  0  0  0  0  0  0  0  0  0
  147.2431  140.1093  152.5704 H   0  0  0  0  0  0  0  0  0  0  0  0
  147.6624  138.5364  154.9719 H   0  0  0  0  0  0  0  0  0  0  0  0
  145.9578  138.7994  154.7471 H   0  0  0  0  0  0  0  0  0  0  0  0
  147.8636  137.5469  152.8132 H   0  0  0  0  0  0  0  0  0  0  0  0
  147.2483  136.1293  151.5860 H   0  0  0  0  0  0  0  0  0  0  0  0
  146.5587  133.2982  150.9036 H   0  0  0  0  0  0  0  0  0  0  0  0
  143.5634  136.4354  150.7638 H   0  0  0  0  0  0  0  0  0  0  0  0
  144.4816  140.8798  155.2402 H   0  0  0  0  0  0  0  0  0  0  0  0
  145.9938  140.4179  155.9865 H   0  0  0  0  0  0  0  0  0  0  0  0
  144.8778  142.8311  156.5635 H   0  0  0  0  0  0  0  0  0  0  0  0
  146.6233  142.7126  156.3323 H   0  0  0  0  0  0  0  0  0  0  0  0
  144.5572  143.5433  154.2648 H   0  0  0  0  0  0  0  0  0  0  0  0
  146.0288  144.4134  154.7057 H   0  0  0  0  0  0  0  0  0  0  0  0
  147.4155  142.7990  153.6172 H   0  0  0  0  0  0  0  0  0  0  0  0
  146.0293  142.7611  152.5373 H   0  0  0  0  0  0  0  0  0  0  0  0
  145.3355  140.8577  153.3498 H   0  0  0  0  0  0  0  0  0  0  0  0
  1  2  1  0  0  0  0
  1 20  1  0  0  0  0
  1 21  1  0  0  0  0
  1 22  1  0  0  0  0
  2  3  1  0  0  0  0
  2 23  1  0  0  0  0
  2 24  1  0  0  0  0
  3  4  1  0  0  0  0
  3 14  1  0  0  0  0
  3 25  1  0  0  0  0
  4  5  1  0  0  0  0
  4 26  1  0  0  0  0
  4 27  1  0  0  0  0
  5  6  1  0  0  0  0
  5 28  1  0  0  0  0
  6  7  2  0  0  0  0
  6  8  1  0  0  0  0
  8  9  1  0  0  0  0
  8 29  1  0  0  0  0
  9 13  2  0  0  0  0
  9 10  1  0  0  0  0
 10 11  2  0  0  0  0
 10 30  1  0  0  0  0
 11 12  1  0  0  0  0
 12 19  1  0  0  0  0
 12 13  1  0  0  0  0
 13 31  1  0  0  0  0
 14 18  1  0  0  0  0
 14 15  1  0  0  0  0
 14 40  1  0  0  0  0
 15 16  1  0  0  0  0
 15 32  1  0  0  0  0
 15 33  1  0  0  0  0
 16 17  1  0  0  0  0
 16 34  1  0  0  0  0
 16 35  1  0  0  0  0
 17 18  1  0  0  0  0
 17 36  1  0  0  0  0
 17 37  1  0  0  0  0
 18 38  1  0  0  0  0
 18 39  1  0  0  0  0
M  CHG  1  14   1
M  END
> <s_m_source_file>
AV-unprocessed.smi

> <i_m_source_file_index>
3054

> <i_lp_mmshare_version>
43012

> <i_f3d_flags>
0

> <s_epik_input>
W0NIMl0xW0NIMl1bQ0gyXVtDSDJdTjFbQ0BIXShbQ0gyXVtDSDNdKVtDSDJdW05IXUMoPU8pW05IXWMyW2NIXW5bbkhdW2NIXTI=

> <s_epik_cmdline>
J2VwaWtfcHl0aG9uJywgJy1waCcsICc3LjAnLCAnLXRuJywgJzgnLCAnLW1hJywgJzIwMCcsICctbWV0YWxfYmluZGluZycsICctaW1hZScsICc8aW5maWxlLm1hZT4nLCAnLW9tYWUnLCAnPG91dGZpbGUubWFlPic=

> <r_lp_tautomer_probability>
0.5

> <r_epik_Ionization_Penalty>
0.00108132

> <r_epik_Ionization_Penalty_Charging>
0.00104139

> <r_epik_Ionization_Penalty_Neutral>
3.99244e-05

> <r_epik_State_Penalty>
0.00068071

> <r_epik_Charging_Adjusted_Penalty>
0.0017221

> <i_epik_Tot_Q>
1

> <i_epik_Tot_abs_Q>
1

> <r_epik_Metal_State_Penalty>
-0

> <b_epik_Metal_Only>
0

> <s_lp_Force_Field>
OPLS_2005

> <r_lp_Energy>
40.663

> <b_lp_Chiralities_Consistent>
1

> <s_lp_Variant>
AV-unprocessed.smi:3054-2

> <Gold.Version>
5.8.1

> <Gold.Id.Protein>
6NUR|6NUR_protein|mol2

> <Gold.PLP.Fitness>
43.9004

> <Gold.PLP.PLP>
-28.6882

> <Gold.PLP.part.hbond>
-4.0000

> <Gold.PLP.part.metal>
0.0000

> <Gold.PLP.part.buried>
-5.7226

> <Gold.PLP.part.nonpolar>
-20.3765

> <Gold.PLP.part.repulsive>
0.4284

> <Gold.PLP.ligand.clash>
0.0000

> <Gold.PLP.ligand.torsion>
1.3137

> <Gold.PLP.Chemscore.Hbond>
4.8800

> <Gold.PLP.Chemscore.CHOScore>
1.0000

> <Gold.PLP.Chemscore.Metal>
0.0000

> <Gold.Chemscore.Hbonds>
donor molecule, donor type, donor heavy atom, donor atom, acceptor molecule, acceptor atom, score
      L1  H     5    28       P1  7948  0.94
      L1  H     8    29       P1  7948  1.00
      L1  H    12    19       P1 10186  1.00
      L1  H    14    40       P1 10175  2.00
      L1  C    13    31       P1 10171  1.00

> <Gold.PLP.Chemscore.Internal.Correction>
0.1996

> <Gold.Rescore>
     Score         DG    S(hbond)    S(metal)    S(lipo)     H(rot)  DE(clash)    DE(int)     intcor
     19.05     -20.53       3.88        0.00      57.44       1.81       0.15       1.33       ----

> <Gold.Chemscore.Fitness>
19.0495

> <Gold.Chemscore.DG>
-20.5270

> <Gold.Chemscore.ZeroCoef>
-5.4800

> <Gold.Chemscore.Hbond>
3.8798

> <Gold.Chemscore.Metal>
0.0000

> <Gold.Chemscore.Lipo>
57.4424

> <Gold.Chemscore.Internal_Hbond>
0.0000

> <Gold.Chemscore.DEClash>
0.1460

> <Gold.Chemscore.DEInternal>
1.3314

> <Gold.Chemscore.Rot>
1.8094

> <Gold.Chemscore.Internal.Correction>
   9.000000E+99

> <Gold.Chemscore.Hbonds>
donor molecule, donor type, donor heavy atom, donor atom, acceptor molecule, acceptor atom, score
      L1  H     5    28       P1  7948  0.90
      L1  H     8    29       P1  7948  0.99
      L1  H    12    19       P1 10186  0.98
      L1  H    14    40       P1 10175  0.74

> <Gold.Chemscore.Hbond.Weighted>
-12.9584

> <Gold.Chemscore.Metal.Weighted>
-0.0000

> <Gold.Chemscore.Lipo.Weighted>
-6.7208

> <Gold.Chemscore.Internal_Hbond.Weighted>
0.0000

> <Gold.Chemscore.DEClash.Weighted>
0.1460

> <Gold.Chemscore.DEInternal.Weighted>
1.3314

> <Gold.Chemscore.Rot.Weighted>
4.6322

> <Gold.Chemscore.Internal.Correction.Weighted>
   9.000000E+99

> <Gold.Protein.RotatedTorsions>
[ 6907 6896 6895 6894 ] final   44.87 input  -60.11 | X-H torsion
[ 7974 7965 7964 7962 ] final -159.67 input  175.53 | X-H torsion
[ 8008 7997 7996 7995 ] final  125.05 input   59.86 | X-H torsion
[ 10167 10162 10161 10158 ] final -121.98 input  -65.29 | X-H torsion
[ 10718 10713 10712 10709 ] final -101.77 input   66.30 | X-H torsion
[ 10763 10752 10751 10750 ] final   90.60 input  -60.55 | X-H torsion
[ 11005 11000 10999 10996 ] final  -46.29 input  -57.11 | X-H torsion

> <Gold.Protein.ActiveResidues>
 VAL166  LYS551  ARG553  GLY616  TRP617  ASP618  TYR619  PRO620  LYS621  CYS622 
 ASP623  PHE694  ASN695  SER759  ASP760  ASP761  ALA762  ILE779  LEU786  VAL792 
 PHE793  MET794  SER795  GLU796  ALA797  LYS798  CYS799  TRP800  GLU811  SER814 

> <Gold.Protein.RotatedAtoms>
  152.2377  134.8259  160.0464 H   0  0  0  0  0  0  0  0  0  0  0  0  # atno 6907 bound_to 6896
  151.8985  133.3527  159.3831 H   0  0  0  0  0  0  0  0  0  0  0  0  # atno 6908 bound_to 6896
  150.7044  134.4778  159.5500 H   0  0  0  0  0  0  0  0  0  0  0  0  # atno 6909 bound_to 6896
  144.7456  140.3652  143.6088 H   0  0  0  0  0  0  0  0  0  0  0  0  # atno 7974 bound_to 7965
  156.2821  140.2725  156.1886 H   0  0  0  0  0  0  0  0  0  0  0  0  # atno 8008 bound_to 7997
  155.0481  140.0386  157.2552 H   0  0  0  0  0  0  0  0  0  0  0  0  # atno 8009 bound_to 7997
  154.7218  140.2689  155.6540 H   0  0  0  0  0  0  0  0  0  0  0  0  # atno 8010 bound_to 7997
  140.0192  143.5362  152.2228 H   0  0  0  0  0  0  0  0  0  0  0  0  # atno 10167 bound_to 10162
  156.0206  130.5389  150.7012 H   0  0  0  0  0  0  0  0  0  0  0  0  # atno 10718 bound_to 10713
  153.1993  135.4428  155.0246 H   0  0  0  0  0  0  0  0  0  0  0  0  # atno 10763 bound_to 10752
  154.8137  135.3306  154.7237 H   0  0  0  0  0  0  0  0  0  0  0  0  # atno 10764 bound_to 10752
  153.7684  135.6986  153.4967 H   0  0  0  0  0  0  0  0  0  0  0  0  # atno 10765 bound_to 10752
  141.0569  133.6722  156.3134 H   0  0  0  0  0  0  0  0  0  0  0  0  # atno 11005 bound_to 11000
  145.7136  139.1691  143.2525 LP  0  0  0  0  0  0  0  0  0  0  0  0  # atno 17320 bound_to 7965
  146.1329  140.7161  142.9403 LP  0  0  0  0  0  0  0  0  0  0  0  0  # atno 17321 bound_to 7965
  139.6151  144.7617  151.2864 LP  0  0  0  0  0  0  0  0  0  0  0  0  # atno 17342 bound_to 10162
  140.7349  143.6751  150.8048 LP  0  0  0  0  0  0  0  0  0  0  0  0  # atno 17343 bound_to 10162
  157.4672  131.0889  151.0682 LP  0  0  0  0  0  0  0  0  0  0  0  0  # atno 17370 bound_to 10713
  157.1153  130.6039  149.5492 LP  0  0  0  0  0  0  0  0  0  0  0  0  # atno 17371 bound_to 10713
  140.5945  134.5617  157.5506 LP  0  0  0  0  0  0  0  0  0  0  0  0  # atno 17394 bound_to 11000
  139.9398  134.7807  156.0707 LP  0  0  0  0  0  0  0  0  0  0  0  0  # atno 17395 bound_to 11000

$$$$
