AV-unprocessed.smi:2973|AV-procd|sdf|11347|dock5
  -GOLD-   2272016263D 1   1.00000     0.00000
 Structure written by MMmdl.
 48 50  0  0  0  0  0  0  0  0  2 V2000
  150.7415  142.6214  157.6344 C   0  0  0  0  0  0  0  0  0  0  0  0
  151.4682  141.6803  158.6211 C   0  0  2  0  0  0  0  0  0  0  0  0
  152.7854  142.3146  159.1178 C   0  0  0  0  0  0  0  0  0  0  0  0
  153.4685  141.4492  160.1872 C   0  0  0  0  0  0  0  0  0  0  0  0
  153.7282  140.0297  159.6670 C   0  0  0  0  0  0  0  0  0  0  0  0
  152.4285  139.3710  159.1722 C   0  0  0  0  0  0  0  0  0  0  0  0
  151.6954  140.2221  158.1025 C   0  0  2  0  0  0  0  0  0  0  0  0
  152.4360  140.2004  156.8508 N   0  5  0  0  0  0  0  0  0  0  0  0
  151.6801  139.6025  155.9014 C   0  0  0  0  0  0  0  0  0  0  0  0
  151.9858  139.4215  154.7236 O   0  0  0  0  0  0  0  0  0  0  0  0
  150.4891  139.2209  156.4014 N   0  0  0  0  0  0  0  0  0  0  0  0
  149.4127  138.5789  155.6303 C   0  0  0  0  0  0  0  0  0  0  0  0
  148.4730  139.5500  154.8937 C   0  0  0  0  0  0  0  0  0  0  0  0
  148.0972  140.5698  155.4712 O   0  0  0  0  0  0  0  0  0  0  0  0
  148.0927  139.2442  153.6413 N   0  0  0  0  0  0  0  0  0  0  0  0
  147.1872  140.0333  152.8159 C   0  0  0  0  0  0  0  0  0  0  0  0
  146.8060  139.2859  151.5269 C   0  0  0  0  0  0  0  0  0  0  0  0
  146.3262  137.8730  151.7995 C   0  0  0  0  0  0  0  0  0  0  0  0
  145.9262  137.0318  150.7391 C   0  0  0  0  0  0  0  0  0  0  0  0
  145.4924  135.7271  151.0444 C   0  0  0  0  0  0  0  0  0  0  0  0
  145.4756  135.3159  152.3911 C   0  0  0  0  0  0  0  0  0  0  0  0
  145.8970  136.2310  153.3766 C   0  0  0  0  0  0  0  0  0  0  0  0
  146.3165  137.4831  153.0943 N   0  0  0  0  0  0  0  0  0  0  0  0
  150.3957  139.5423  157.6965 C   0  0  0  0  0  0  0  0  0  0  0  0
  149.4400  139.3517  158.4500 O   0  0  0  0  0  0  0  0  0  0  0  0
  151.3132  142.7618  156.7168 H   0  0  0  0  0  0  0  0  0  0  0  0
  150.5895  143.6056  158.0775 H   0  0  0  0  0  0  0  0  0  0  0  0
  149.7572  142.2424  157.3601 H   0  0  0  0  0  0  0  0  0  0  0  0
  150.8189  141.6068  159.4954 H   0  0  0  0  0  0  0  0  0  0  0  0
  153.4662  142.4629  158.2786 H   0  0  0  0  0  0  0  0  0  0  0  0
  152.5895  143.3050  159.5301 H   0  0  0  0  0  0  0  0  0  0  0  0
  154.4082  141.9099  160.4926 H   0  0  0  0  0  0  0  0  0  0  0  0
  152.8418  141.4039  161.0786 H   0  0  0  0  0  0  0  0  0  0  0  0
  154.4574  140.0646  158.8567 H   0  0  0  0  0  0  0  0  0  0  0  0
  154.1748  139.4220  160.4541 H   0  0  0  0  0  0  0  0  0  0  0  0
  152.6495  138.3738  158.7874 H   0  0  0  0  0  0  0  0  0  0  0  0
  151.7716  139.2201  160.0305 H   0  0  0  0  0  0  0  0  0  0  0  0
  149.8455  137.8983  154.8956 H   0  0  0  0  0  0  0  0  0  0  0  0
  148.8084  137.9503  156.2862 H   0  0  0  0  0  0  0  0  0  0  0  0
  148.4439  138.3857  153.2406 H   0  0  0  0  0  0  0  0  0  0  0  0
  146.2946  140.2971  153.3856 H   0  0  0  0  0  0  0  0  0  0  0  0
  147.6883  140.9700  152.5698 H   0  0  0  0  0  0  0  0  0  0  0  0
  146.0222  139.8303  150.9981 H   0  0  0  0  0  0  0  0  0  0  0  0
  147.6590  139.2447  150.8482 H   0  0  0  0  0  0  0  0  0  0  0  0
  145.9519  137.3765  149.7156 H   0  0  0  0  0  0  0  0  0  0  0  0
  145.1781  135.0549  150.2597 H   0  0  0  0  0  0  0  0  0  0  0  0
  145.1478  134.3232  152.6623 H   0  0  0  0  0  0  0  0  0  0  0  0
  145.8967  135.9496  154.4193 H   0  0  0  0  0  0  0  0  0  0  0  0
  1  2  1  0  0  0  0
  1 26  1  0  0  0  0
  1 27  1  0  0  0  0
  1 28  1  0  0  0  0
  2  7  1  0  0  0  0
  2  3  1  0  0  0  0
  2 29  1  0  0  0  0
  3  4  1  0  0  0  0
  3 30  1  0  0  0  0
  3 31  1  0  0  0  0
  4  5  1  0  0  0  0
  4 32  1  0  0  0  0
  4 33  1  0  0  0  0
  5  6  1  0  0  0  0
  5 34  1  0  0  0  0
  5 35  1  0  0  0  0
  6  7  1  0  0  0  0
  6 36  1  0  0  0  0
  6 37  1  0  0  0  0
  7 24  1  0  0  0  0
  7  8  1  0  0  0  0
  8  9  1  0  0  0  0
  9 10  2  0  0  0  0
  9 11  1  0  0  0  0
 11 12  1  0  0  0  0
 11 24  1  0  0  0  0
 12 13  1  0  0  0  0
 12 38  1  0  0  0  0
 12 39  1  0  0  0  0
 13 14  2  0  0  0  0
 13 15  1  0  0  0  0
 15 16  1  0  0  0  0
 15 40  1  0  0  0  0
 16 17  1  0  0  0  0
 16 41  1  0  0  0  0
 16 42  1  0  0  0  0
 17 18  1  0  0  0  0
 17 43  1  0  0  0  0
 17 44  1  0  0  0  0
 18 23  1  0  0  0  0
 18 19  2  0  0  0  0
 19 20  1  0  0  0  0
 19 45  1  0  0  0  0
 20 21  2  0  0  0  0
 20 46  1  0  0  0  0
 21 22  1  0  0  0  0
 21 47  1  0  0  0  0
 22 23  2  0  0  0  0
 22 48  1  0  0  0  0
 24 25  2  0  0  0  0
M  CHG  1   8  -1
M  END
> <s_m_source_file>
AV-unprocessed.smi

> <i_m_source_file_index>
2973

> <i_lp_mmshare_version>
43012

> <i_f3d_flags>
0

> <s_epik_input>
W0NIMl0xW0NIMl1bQ0gyXVtDSDJdW0NAQEhdKFtDSDNdKVtDQF0xMltOSF1DKD1PKU4oQzI9TylbQ0gyXUMoPU8pW05IXVtDSDJdW0NIMl1jM1tjSF1bY0hdW2NIXVtjSF1uMw==

> <s_epik_cmdline>
J2VwaWtfcHl0aG9uJywgJy1waCcsICc3LjAnLCAnLXRuJywgJzgnLCAnLW1hJywgJzIwMCcsICctbWV0YWxfYmluZGluZycsICctaW1hZScsICc8aW5maWxlLm1hZT4nLCAnLW9tYWUnLCAnPG91dGZpbGUubWFlPic=

> <r_lp_tautomer_probability>
1

> <r_epik_Ionization_Penalty>
6.04175

> <r_epik_Ionization_Penalty_Charging>
6.01728

> <r_epik_Ionization_Penalty_Neutral>
0.0244696

> <r_epik_State_Penalty>
6.03712

> <r_epik_Charging_Adjusted_Penalty>
12.0544

> <i_epik_Tot_Q>
-1

> <i_epik_Tot_abs_Q>
1

> <r_epik_Metal_State_Penalty>
2.01153

> <b_epik_Metal_Only>
1

> <s_lp_Force_Field>
OPLS_2005

> <r_lp_Energy>
17.3345

> <b_lp_Chiralities_Consistent>
1

> <s_lp_Variant>
AV-unprocessed.smi:2973-11

> <Gold.Version>
5.8.1

> <Gold.Id.Protein>
6NUR|6NUR_protein|mol2

> <Gold.PLP.Fitness>
46.0070

> <Gold.PLP.PLP>
-38.4717

> <Gold.PLP.part.hbond>
-3.2199

> <Gold.PLP.part.metal>
0.0000

> <Gold.PLP.part.buried>
4.7218

> <Gold.PLP.part.nonpolar>
-40.7797

> <Gold.PLP.part.repulsive>
0.3689

> <Gold.PLP.ligand.clash>
0.0000

> <Gold.PLP.ligand.torsion>
0.6642

> <Gold.PLP.Chemscore.Hbond>
2.9440

> <Gold.PLP.Chemscore.CHOScore>
0.0000

> <Gold.PLP.Chemscore.Metal>
0.0000

> <Gold.Chemscore.Hbonds>
donor molecule, donor type, donor heavy atom, donor atom, acceptor molecule, acceptor atom, score
      P1  H  7989  7998       L1    10  0.93
      P1  H  7997  8009       L1     8  2.00

> <Gold.PLP.Chemscore.Internal.Correction>
0.0317

> <Gold.Rescore>
     Score         DG    S(hbond)    S(metal)    S(lipo)     H(rot)  DE(clash)    DE(int)     intcor
     15.52     -19.76       1.80        0.00     110.21       1.81       2.00       2.24       ----

> <Gold.Chemscore.Fitness>
15.5233

> <Gold.Chemscore.DG>
-19.7604

> <Gold.Chemscore.ZeroCoef>
-5.4800

> <Gold.Chemscore.Hbond>
1.8014

> <Gold.Chemscore.Metal>
0.0000

> <Gold.Chemscore.Lipo>
110.2122

> <Gold.Chemscore.Internal_Hbond>
0.0000

> <Gold.Chemscore.DEClash>
2.0001

> <Gold.Chemscore.DEInternal>
2.2370

> <Gold.Chemscore.Rot>
1.8090

> <Gold.Chemscore.Internal.Correction>
   9.000000E+99

> <Gold.Chemscore.Hbonds>
donor molecule, donor type, donor heavy atom, donor atom, acceptor molecule, acceptor atom, score
      P1  H  7989  7998       L1    10  0.85
      P1  H  7997  8009       L1     8  0.89

> <Gold.Chemscore.Hbond.Weighted>
-6.0166

> <Gold.Chemscore.Metal.Weighted>
-0.0000

> <Gold.Chemscore.Lipo.Weighted>
-12.8948

> <Gold.Chemscore.Internal_Hbond.Weighted>
0.0000

> <Gold.Chemscore.DEClash.Weighted>
2.0001

> <Gold.Chemscore.DEInternal.Weighted>
2.2370

> <Gold.Chemscore.Rot.Weighted>
4.6310

> <Gold.Chemscore.Internal.Correction.Weighted>
   9.000000E+99

> <Gold.Protein.RotatedTorsions>
[ 6907 6896 6895 6894 ] final  107.93 input  -60.11 | X-H torsion
[ 7974 7965 7964 7962 ] final  -99.54 input  175.53 | X-H torsion
[ 8008 7997 7996 7995 ] final -176.89 input   59.86 | X-H torsion
[ 10167 10162 10161 10158 ] final  -36.75 input  -65.29 | X-H torsion
[ 10718 10713 10712 10709 ] final  -49.14 input   66.30 | X-H torsion
[ 10763 10752 10751 10750 ] final   31.32 input  -60.55 | X-H torsion
[ 11005 11000 10999 10996 ] final    5.94 input  -57.11 | X-H torsion

> <Gold.Protein.ActiveResidues>
 VAL166  LYS551  ARG553  GLY616  TRP617  ASP618  TYR619  PRO620  LYS621  CYS622 
 ASP623  PHE694  ASN695  SER759  ASP760  ASP761  ALA762  ILE779  LEU786  VAL792 
 PHE793  MET794  SER795  GLU796  ALA797  LYS798  CYS799  TRP800  GLU811  SER814 

> <Gold.Protein.RotatedAtoms>
  152.5134  133.9163  159.7512 H   0  0  0  0  0  0  0  0  0  0  0  0  # atno 6907 bound_to 6896
  150.9545  133.6504  159.2772 H   0  0  0  0  0  0  0  0  0  0  0  0  # atno 6908 bound_to 6896
  151.3771  135.0938  159.9537 H   0  0  0  0  0  0  0  0  0  0  0  0  # atno 6909 bound_to 6896
  145.3062  140.9389  143.2795 H   0  0  0  0  0  0  0  0  0  0  0  0  # atno 7974 bound_to 7965
  156.0004  140.1219  157.0553 H   0  0  0  0  0  0  0  0  0  0  0  0  # atno 8008 bound_to 7997
  154.4240  140.1108  156.5757 H   0  0  0  0  0  0  0  0  0  0  0  0  # atno 8009 bound_to 7997
  155.6221  140.3472  155.4657 H   0  0  0  0  0  0  0  0  0  0  0  0  # atno 8010 bound_to 7997
  140.7135  143.3387  151.2404 H   0  0  0  0  0  0  0  0  0  0  0  0  # atno 10167 bound_to 10162
  156.1922  130.4153  149.9356 H   0  0  0  0  0  0  0  0  0  0  0  0  # atno 10718 bound_to 10713
  153.0322  135.6442  154.1181 H   0  0  0  0  0  0  0  0  0  0  0  0  # atno 10763 bound_to 10752
  154.0901  135.2867  155.3275 H   0  0  0  0  0  0  0  0  0  0  0  0  # atno 10764 bound_to 10752
  154.6471  135.5439  153.7920 H   0  0  0  0  0  0  0  0  0  0  0  0  # atno 10765 bound_to 10752
  140.5651  134.0155  155.7986 H   0  0  0  0  0  0  0  0  0  0  0  0  # atno 11005 bound_to 11000
  144.9053  139.4597  143.6613 LP  0  0  0  0  0  0  0  0  0  0  0  0  # atno 17320 bound_to 7965
  146.3134  139.7830  142.9002 LP  0  0  0  0  0  0  0  0  0  0  0  0  # atno 17321 bound_to 7965
  139.6889  143.9725  152.2849 LP  0  0  0  0  0  0  0  0  0  0  0  0  # atno 17342 bound_to 10162
  139.9380  144.6699  150.8295 LP  0  0  0  0  0  0  0  0  0  0  0  0  # atno 17343 bound_to 10162
  156.7093  130.8964  151.3607 LP  0  0  0  0  0  0  0  0  0  0  0  0  # atno 17370 bound_to 10713
  157.6936  130.9258  150.0581 LP  0  0  0  0  0  0  0  0  0  0  0  0  # atno 17371 bound_to 10713
  141.1091  133.9646  157.2944 LP  0  0  0  0  0  0  0  0  0  0  0  0  # atno 17394 bound_to 11000
  139.9389  135.0193  156.8644 LP  0  0  0  0  0  0  0  0  0  0  0  0  # atno 17395 bound_to 11000

$$$$
