AV-unprocessed.smi:2858|AV-procd|sdf|10999|dock7
  -GOLD-   2272015453D 1   1.00000     0.00000
 Structure written by MMmdl.
 40 41  0  0  0  0  0  0  0  0  2 V2000
  144.7393  135.9805  152.7491 O   0  0  0  0  0  0  0  0  0  0  0  0
  145.5802  136.8746  152.7967 C   0  0  0  0  0  0  0  0  0  0  0  0
  146.4951  136.9922  154.0254 C   0  0  0  0  0  0  0  0  0  0  0  0
  147.6905  137.8480  153.8091 N   0  3  2  0  0  0  0  0  0  0  0  0
  148.4845  138.0235  155.0505 C   0  0  0  0  0  0  0  0  0  0  0  0
  149.9674  137.6646  154.8559 C   0  0  0  0  0  0  0  0  0  0  0  0
  150.8135  138.8840  154.4541 C   0  0  0  0  0  0  0  0  0  0  0  0
  150.6907  139.9674  155.4228 N   0  0  0  0  0  0  0  0  0  0  0  0
  151.5668  140.2195  156.4063 C   0  0  0  0  0  0  0  0  0  0  0  0
  152.5772  139.5430  156.6027 O   0  0  0  0  0  0  0  0  0  0  0  0
  151.1852  141.2772  157.1428 N   0  0  0  0  0  0  0  0  0  0  0  0
  151.8231  141.8192  158.2895 C   0  0  0  0  0  0  0  0  0  0  0  0
  151.7747  143.2133  158.5469 C   0  0  0  0  0  0  0  0  0  0  0  0
  152.3909  143.7230  159.7058 C   0  0  0  0  0  0  0  0  0  0  0  0
  153.0299  142.8297  160.5836 C   0  0  0  0  0  0  0  0  0  0  0  0
  153.0150  141.4602  160.2621 C   0  0  0  0  0  0  0  0  0  0  0  0
  152.4233  140.9676  159.1529 N   0  0  0  0  0  0  0  0  0  0  0  0
  147.3394  139.1246  153.1417 C   0  0  0  0  0  0  0  0  0  0  0  0
  146.7017  138.8484  151.7687 C   0  0  0  0  0  0  0  0  0  0  0  0
  145.7236  137.7639  151.8007 N   0  0  0  0  0  0  0  0  0  0  0  0
  145.9030  137.3974  154.8475 H   0  0  0  0  0  0  0  0  0  0  0  0
  146.8148  135.9926  154.3229 H   0  0  0  0  0  0  0  0  0  0  0  0
  148.3760  139.0445  155.4195 H   0  0  0  0  0  0  0  0  0  0  0  0
  148.0789  137.3704  155.8249 H   0  0  0  0  0  0  0  0  0  0  0  0
  150.3633  137.2385  155.7788 H   0  0  0  0  0  0  0  0  0  0  0  0
  150.0685  136.8941  154.0924 H   0  0  0  0  0  0  0  0  0  0  0  0
  151.8622  138.6027  154.3432 H   0  0  0  0  0  0  0  0  0  0  0  0
  150.4889  139.2599  153.4834 H   0  0  0  0  0  0  0  0  0  0  0  0
  149.8859  140.5710  155.3343 H   0  0  0  0  0  0  0  0  0  0  0  0
  150.2802  141.6685  156.9272 H   0  0  0  0  0  0  0  0  0  0  0  0
  151.2650  143.8947  157.8825 H   0  0  0  0  0  0  0  0  0  0  0  0
  152.3677  144.7813  159.9198 H   0  0  0  0  0  0  0  0  0  0  0  0
  153.5126  143.1839  161.4825 H   0  0  0  0  0  0  0  0  0  0  0  0
  153.4873  140.7402  160.9136 H   0  0  0  0  0  0  0  0  0  0  0  0
  146.6445  139.6796  153.7741 H   0  0  0  0  0  0  0  0  0  0  0  0
  148.2159  139.7572  153.0069 H   0  0  0  0  0  0  0  0  0  0  0  0
  146.2290  139.7512  151.3809 H   0  0  0  0  0  0  0  0  0  0  0  0
  147.4775  138.5694  151.0548 H   0  0  0  0  0  0  0  0  0  0  0  0
  145.1116  137.6775  151.0014 H   0  0  0  0  0  0  0  0  0  0  0  0
  148.2783  137.3408  153.1630 H   0  0  0  0  0  0  0  0  0  0  0  0
  1  2  2  0  0  0  0
  2 20  1  0  0  0  0
  2  3  1  0  0  0  0
  3  4  1  0  0  0  0
  3 21  1  0  0  0  0
  3 22  1  0  0  0  0
  4  5  1  0  0  0  0
  4 18  1  0  0  0  0
  4 40  1  0  0  0  0
  5  6  1  0  0  0  0
  5 23  1  0  0  0  0
  5 24  1  0  0  0  0
  6  7  1  0  0  0  0
  6 25  1  0  0  0  0
  6 26  1  0  0  0  0
  7  8  1  0  0  0  0
  7 27  1  0  0  0  0
  7 28  1  0  0  0  0
  8  9  1  0  0  0  0
  8 29  1  0  0  0  0
  9 10  2  0  0  0  0
  9 11  1  0  0  0  0
 11 12  1  0  0  0  0
 11 30  1  0  0  0  0
 12 17  1  0  0  0  0
 12 13  2  0  0  0  0
 13 14  1  0  0  0  0
 13 31  1  0  0  0  0
 14 15  2  0  0  0  0
 14 32  1  0  0  0  0
 15 16  1  0  0  0  0
 15 33  1  0  0  0  0
 16 17  2  0  0  0  0
 16 34  1  0  0  0  0
 18 19  1  0  0  0  0
 18 35  1  0  0  0  0
 18 36  1  0  0  0  0
 19 20  1  0  0  0  0
 19 37  1  0  0  0  0
 19 38  1  0  0  0  0
 20 39  1  0  0  0  0
M  CHG  1   4   1
M  END
> <s_m_source_file>
AV-unprocessed.smi

> <i_m_source_file_index>
2858

> <i_lp_mmshare_version>
43012

> <i_f3d_flags>
0

> <s_epik_input>
Tz1DMVtDSDJdTihbQ0gyXVtDSDJdW05IXTEpW0NIMl1bQ0gyXVtDSDJdW05IXUMoPU8pW05IXWMyW2NIXVtjSF1bY0hdW2NIXW4y

> <s_epik_cmdline>
J2VwaWtfcHl0aG9uJywgJy1waCcsICc3LjAnLCAnLXRuJywgJzgnLCAnLW1hJywgJzIwMCcsICctbWV0YWxfYmluZGluZycsICctaW1hZScsICc8aW5maWxlLm1hZT4nLCAnLW9tYWUnLCAnPG91dGZpbGUubWFlPic=

> <r_epik_Ionization_Penalty>
0.11034

> <r_epik_Ionization_Penalty_Charging>
0.110189

> <r_epik_Ionization_Penalty_Neutral>
0.000150894

> <r_epik_State_Penalty>
0.0999426

> <r_epik_Charging_Adjusted_Penalty>
0.210132

> <i_epik_Tot_Q>
1

> <i_epik_Tot_abs_Q>
1

> <r_epik_Metal_State_Penalty>
0.172915

> <b_epik_Metal_Only>
0

> <s_lp_Force_Field>
OPLS_2005

> <r_lp_Energy>
23.7119

> <b_lp_Chiralities_Consistent>
1

> <s_lp_Variant>
AV-unprocessed.smi:2858-1

> <Gold.Version>
5.8.1

> <Gold.Id.Protein>
6NUR|6NUR_protein|mol2

> <Gold.PLP.Fitness>
46.4498

> <Gold.PLP.PLP>
-36.9918

> <Gold.PLP.part.hbond>
-3.1196

> <Gold.PLP.part.metal>
0.0000

> <Gold.PLP.part.buried>
-2.7993

> <Gold.PLP.part.nonpolar>
-30.7690

> <Gold.PLP.part.repulsive>
0.4088

> <Gold.PLP.ligand.clash>
0.0000

> <Gold.PLP.ligand.torsion>
1.2860

> <Gold.PLP.Chemscore.Hbond>
4.0000

> <Gold.PLP.Chemscore.CHOScore>
0.0000

> <Gold.PLP.Chemscore.Metal>
0.0000

> <Gold.Chemscore.Hbonds>
donor molecule, donor type, donor heavy atom, donor atom, acceptor molecule, acceptor atom, score
      L1  H     4    40       P1  7948  2.00
      L1  H    20    39       P1 10171  0.93
      P1  H  7997  8010       L1    10  1.00

> <Gold.PLP.Chemscore.Internal.Correction>
0.0299

> <Gold.Rescore>
     Score         DG    S(hbond)    S(metal)    S(lipo)     H(rot)  DE(clash)    DE(int)     intcor
     16.97     -19.58       2.93        0.00      82.30       2.08       0.09       2.51       ----

> <Gold.Chemscore.Fitness>
16.9701

> <Gold.Chemscore.DG>
-19.5759

> <Gold.Chemscore.ZeroCoef>
-5.4800

> <Gold.Chemscore.Hbond>
2.9299

> <Gold.Chemscore.Metal>
0.0000

> <Gold.Chemscore.Lipo>
82.2968

> <Gold.Chemscore.Internal_Hbond>
0.0000

> <Gold.Chemscore.DEClash>
0.0924

> <Gold.Chemscore.DEInternal>
2.5134

> <Gold.Chemscore.Rot>
2.0777

> <Gold.Chemscore.Internal.Correction>
   9.000000E+99

> <Gold.Chemscore.Hbonds>
donor molecule, donor type, donor heavy atom, donor atom, acceptor molecule, acceptor atom, score
      L1  H     4    40       P1  7948  1.00
      L1  H    20    39       P1 10171  0.89
      P1  H  7997  8010       L1    10  0.99

> <Gold.Chemscore.Hbond.Weighted>
-9.7860

> <Gold.Chemscore.Metal.Weighted>
-0.0000

> <Gold.Chemscore.Lipo.Weighted>
-9.6287

> <Gold.Chemscore.Internal_Hbond.Weighted>
0.0000

> <Gold.Chemscore.DEClash.Weighted>
0.0924

> <Gold.Chemscore.DEInternal.Weighted>
2.5134

> <Gold.Chemscore.Rot.Weighted>
5.3188

> <Gold.Chemscore.Internal.Correction.Weighted>
   9.000000E+99

> <Gold.Protein.RotatedTorsions>
[ 6907 6896 6895 6894 ] final -107.84 input  -60.11 | X-H torsion
[ 7974 7965 7964 7962 ] final   93.10 input  175.53 | X-H torsion
[ 8008 7997 7996 7995 ] final   81.86 input   59.86 | X-H torsion
[ 10167 10162 10161 10158 ] final  159.40 input  -65.29 | X-H torsion
[ 10718 10713 10712 10709 ] final   27.71 input   66.30 | X-H torsion
[ 10763 10752 10751 10750 ] final -103.51 input  -60.55 | X-H torsion
[ 11005 11000 10999 10996 ] final -176.02 input  -57.11 | X-H torsion

> <Gold.Protein.ActiveResidues>
 VAL166  LYS551  ARG553  GLY616  TRP617  ASP618  TYR619  PRO620  LYS621  CYS622 
 ASP623  PHE694  ASN695  SER759  ASP760  ASP761  ALA762  ILE779  LEU786  VAL792 
 PHE793  MET794  SER795  GLU796  ALA797  LYS798  CYS799  TRP800  GLU811  SER814 

> <Gold.Protein.RotatedAtoms>
  150.7467  133.9767  159.3562 H   0  0  0  0  0  0  0  0  0  0  0  0  # atno 6907 bound_to 6896
  151.7704  135.0785  160.0368 H   0  0  0  0  0  0  0  0  0  0  0  0  # atno 6908 bound_to 6896
  152.3342  133.5956  159.5867 H   0  0  0  0  0  0  0  0  0  0  0  0  # atno 6909 bound_to 6896
  145.4834  139.2278  143.2870 H   0  0  0  0  0  0  0  0  0  0  0  0  # atno 7974 bound_to 7965
  155.9028  140.3432  155.6039 H   0  0  0  0  0  0  0  0  0  0  0  0  # atno 8008 bound_to 7997
  155.7480  140.0816  157.2233 H   0  0  0  0  0  0  0  0  0  0  0  0  # atno 8009 bound_to 7997
  154.4046  140.1558  156.2679 H   0  0  0  0  0  0  0  0  0  0  0  0  # atno 8010 bound_to 7997
  139.4832  144.4733  151.8545 H   0  0  0  0  0  0  0  0  0  0  0  0  # atno 10167 bound_to 10162
  157.2238  130.6991  149.6282 H   0  0  0  0  0  0  0  0  0  0  0  0  # atno 10718 bound_to 10713
  154.7813  135.4820  153.9850 H   0  0  0  0  0  0  0  0  0  0  0  0  # atno 10763 bound_to 10752
  153.1497  135.6789  153.8908 H   0  0  0  0  0  0  0  0  0  0  0  0  # atno 10764 bound_to 10752
  153.8556  135.3161  155.3413 H   0  0  0  0  0  0  0  0  0  0  0  0  # atno 10765 bound_to 10752
  140.4568  134.6292  157.4825 H   0  0  0  0  0  0  0  0  0  0  0  0  # atno 11005 bound_to 11000
  146.2327  140.5622  142.8968 LP  0  0  0  0  0  0  0  0  0  0  0  0  # atno 17320 bound_to 7965
  144.7875  140.5967  143.6563 LP  0  0  0  0  0  0  0  0  0  0  0  0  # atno 17321 bound_to 7965
  140.4204  144.2251  150.5887 LP  0  0  0  0  0  0  0  0  0  0  0  0  # atno 17342 bound_to 10162
  140.4879  143.2357  151.8861 LP  0  0  0  0  0  0  0  0  0  0  0  0  # atno 17343 bound_to 10162
  155.9680  130.4511  150.5722 LP  0  0  0  0  0  0  0  0  0  0  0  0  # atno 17370 bound_to 10713
  157.3548  131.0740  151.1684 LP  0  0  0  0  0  0  0  0  0  0  0  0  # atno 17371 bound_to 10713
  139.9971  134.6894  155.9591 LP  0  0  0  0  0  0  0  0  0  0  0  0  # atno 17394 bound_to 11000
  141.1639  133.6537  156.4413 LP  0  0  0  0  0  0  0  0  0  0  0  0  # atno 17395 bound_to 11000

$$$$
