AV-unprocessed.smi:1089|AV-procd|sdf|4734|dock8
  -GOLD-   22720 3273D 1   1.00000     0.00000
 Structure written by MMmdl.
 18 19  0  0  0  0  0  0  0  0  2 V2000
  153.4179  142.4436  161.6843 C   0  0  0  0  0  0  0  0  0  0  0  0
  153.9846  141.4971  160.8787 N   0  0  0  0  0  0  0  0  0  0  0  0
  153.3761  141.7843  159.7366 C   0  0  0  0  0  0  0  0  0  0  0  0
  152.5197  142.8041  159.8233 N   0  0  0  0  0  0  0  0  0  0  0  0
  151.6831  143.4073  158.8265 C   0  0  0  0  0  0  0  0  0  0  0  0
  151.8230  144.8868  158.4700 C   0  0  0  0  0  0  0  0  0  0  0  0
  150.3826  144.9070  158.2459 N   0  3  0  0  0  0  0  0  0  0  0  0
  150.2255  143.7556  159.1261 C   0  0  0  0  0  0  0  0  0  0  0  0
  152.5331  143.2526  161.1009 N   0  0  0  0  0  0  0  0  0  0  0  0
  153.6644  142.5396  162.7315 H   0  0  0  0  0  0  0  0  0  0  0  0
  153.5592  141.2406  158.8214 H   0  0  0  0  0  0  0  0  0  0  0  0
  151.7551  142.7860  157.9305 H   0  0  0  0  0  0  0  0  0  0  0  0
  152.1141  145.5209  159.3098 H   0  0  0  0  0  0  0  0  0  0  0  0
  152.4146  145.0911  157.5773 H   0  0  0  0  0  0  0  0  0  0  0  0
  149.9269  145.7444  158.5798 H   0  0  0  0  0  0  0  0  0  0  0  0
  149.4964  143.0245  158.7758 H   0  0  0  0  0  0  0  0  0  0  0  0
  150.0434  144.0544  160.1602 H   0  0  0  0  0  0  0  0  0  0  0  0
  150.1537  144.6757  157.2898 H   0  0  0  0  0  0  0  0  0  0  0  0
  1  9  2  0  0  0  0
  1  2  1  0  0  0  0
  1 10  1  0  0  0  0
  2  3  2  0  0  0  0
  3  4  1  0  0  0  0
  3 11  1  0  0  0  0
  4  5  1  0  0  0  0
  4  9  1  0  0  0  0
  5  8  1  0  0  0  0
  5  6  1  0  0  0  0
  5 12  1  0  0  0  0
  6  7  1  0  0  0  0
  6 13  1  0  0  0  0
  6 14  1  0  0  0  0
  7  8  1  0  0  0  0
  7 15  1  0  0  0  0
  7 18  1  0  0  0  0
  8 16  1  0  0  0  0
  8 17  1  0  0  0  0
M  CHG  1   7   1
M  END
> <s_m_source_file>
AV-unprocessed.smi

> <i_m_source_file_index>
1089

> <i_lp_mmshare_version>
43012

> <i_f3d_flags>
0

> <s_epik_input>
bjFbY0hdbltjSF1uMVtDSF0yW0NIMl1bTkhdW0NIMl0y

> <s_epik_cmdline>
J2VwaWtfcHl0aG9uJywgJy1waCcsICc3LjAnLCAnLXRuJywgJzgnLCAnLW1hJywgJzIwMCcsICctbWV0YWxfYmluZGluZycsICctaW1hZScsICc8aW5maWxlLm1hZT4nLCAnLW9tYWUnLCAnPG91dGZpbGUubWFlPic=

> <r_lp_tautomer_probability>
1

> <r_epik_Ionization_Penalty>
0.0079223

> <r_epik_Ionization_Penalty_Charging>
0.00792139

> <r_epik_Ionization_Penalty_Neutral>
9.13162e-07

> <r_epik_State_Penalty>
0.00594323

> <r_epik_Charging_Adjusted_Penalty>
0.0138646

> <i_epik_Tot_Q>
1

> <i_epik_Tot_abs_Q>
1

> <r_epik_Metal_State_Penalty>
-0

> <b_epik_Metal_Only>
0

> <s_lp_Force_Field>
OPLS_2005

> <r_lp_Energy>
16.5639

> <b_lp_Chiralities_Consistent>
1

> <s_lp_Variant>
AV-unprocessed.smi:1089-1

> <Gold.Version>
5.8.1

> <Gold.Id.Protein>
6NUR|6NUR_protein|mol2

> <Gold.PLP.Fitness>
29.6896

> <Gold.PLP.PLP>
-23.8265

> <Gold.PLP.part.hbond>
-2.0000

> <Gold.PLP.part.metal>
0.0000

> <Gold.PLP.part.buried>
-4.0540

> <Gold.PLP.part.nonpolar>
-18.1932

> <Gold.PLP.part.repulsive>
0.2450

> <Gold.PLP.ligand.clash>
0.0000

> <Gold.PLP.ligand.torsion>
0.1968

> <Gold.PLP.Chemscore.Hbond>
2.0036

> <Gold.PLP.Chemscore.CHOScore>
0.0000

> <Gold.PLP.Chemscore.Metal>
0.0000

> <Gold.Chemscore.Hbonds>
donor molecule, donor type, donor heavy atom, donor atom, acceptor molecule, acceptor atom, score
      L1  H     7    15       P1  8029  0.01
      L1  H     7    18       P1  8028  2.00

> <Gold.PLP.Chemscore.Internal.Correction>
0.2457

> <Gold.Rescore>
     Score         DG    S(hbond)    S(metal)    S(lipo)     H(rot)  DE(clash)    DE(int)     intcor
      8.94      -9.10       0.75        0.00      31.26       1.00       0.03       0.13       ----

> <Gold.Chemscore.Fitness>
8.9410

> <Gold.Chemscore.DG>
-9.0988

> <Gold.Chemscore.ZeroCoef>
-5.4800

> <Gold.Chemscore.Hbond>
0.7550

> <Gold.Chemscore.Metal>
0.0000

> <Gold.Chemscore.Lipo>
31.2573

> <Gold.Chemscore.Internal_Hbond>
0.0000

> <Gold.Chemscore.DEClash>
0.0282

> <Gold.Chemscore.DEInternal>
0.1295

> <Gold.Chemscore.Rot>
1.0000

> <Gold.Chemscore.Internal.Correction>
   9.000000E+99

> <Gold.Chemscore.Hbonds>
donor molecule, donor type, donor heavy atom, donor atom, acceptor molecule, acceptor atom, score
      L1  H     7    15       P1  8029  0.01
      L1  H     7    18       P1  8028  0.27

> <Gold.Chemscore.Hbond.Weighted>
-2.5217

> <Gold.Chemscore.Metal.Weighted>
-0.0000

> <Gold.Chemscore.Lipo.Weighted>
-3.6571

> <Gold.Chemscore.Internal_Hbond.Weighted>
0.0000

> <Gold.Chemscore.DEClash.Weighted>
0.0282

> <Gold.Chemscore.DEInternal.Weighted>
0.1295

> <Gold.Chemscore.Rot.Weighted>
2.5600

> <Gold.Chemscore.Internal.Correction.Weighted>
   9.000000E+99

> <Gold.Protein.RotatedTorsions>
[ 6907 6896 6895 6894 ] final  -84.83 input  -60.11 | X-H torsion
[ 7974 7965 7964 7962 ] final  142.33 input  175.53 | X-H torsion
[ 8008 7997 7996 7995 ] final   62.13 input   59.86 | X-H torsion
[ 10167 10162 10161 10158 ] final -134.60 input  -65.29 | X-H torsion
[ 10718 10713 10712 10709 ] final   63.40 input   66.30 | X-H torsion
[ 10763 10752 10751 10750 ] final  144.91 input  -60.55 | X-H torsion
[ 11005 11000 10999 10996 ] final  -30.42 input  -57.11 | X-H torsion

> <Gold.Protein.ActiveResidues>
 VAL166  LYS551  ARG553  GLY616  TRP617  ASP618  TYR619  PRO620  LYS621  CYS622 
 ASP623  PHE694  ASN695  SER759  ASP760  ASP761  ALA762  ILE779  LEU786  VAL792 
 PHE793  MET794  SER795  GLU796  ALA797  LYS798  CYS799  TRP800  GLU811  SER814 

> <Gold.Protein.RotatedAtoms>
  150.6874  134.3297  159.4821 H   0  0  0  0  0  0  0  0  0  0  0  0  # atno 6907 bound_to 6896
  152.1163  134.9235  160.0574 H   0  0  0  0  0  0  0  0  0  0  0  0  # atno 6908 bound_to 6896
  152.0458  133.3962  159.4393 H   0  0  0  0  0  0  0  0  0  0  0  0  # atno 6909 bound_to 6896
  144.9017  139.5413  143.5750 H   0  0  0  0  0  0  0  0  0  0  0  0  # atno 7974 bound_to 7965
  155.6095  140.3495  155.4618 H   0  0  0  0  0  0  0  0  0  0  0  0  # atno 8008 bound_to 7997
  156.0166  140.1244  157.0425 H   0  0  0  0  0  0  0  0  0  0  0  0  # atno 8009 bound_to 7997
  154.4299  140.1071  156.5890 H   0  0  0  0  0  0  0  0  0  0  0  0  # atno 8010 bound_to 7997
  139.8864  143.6776  152.2619 H   0  0  0  0  0  0  0  0  0  0  0  0  # atno 10167 bound_to 10162
  157.5968  130.9103  149.9711 H   0  0  0  0  0  0  0  0  0  0  0  0  # atno 10718 bound_to 10713
  153.9966  135.2927  155.3407 H   0  0  0  0  0  0  0  0  0  0  0  0  # atno 10763 bound_to 10752
  154.7183  135.5120  153.8776 H   0  0  0  0  0  0  0  0  0  0  0  0  # atno 10764 bound_to 10752
  153.0785  135.6671  154.0213 H   0  0  0  0  0  0  0  0  0  0  0  0  # atno 10765 bound_to 10752
  140.9382  133.7295  156.1036 H   0  0  0  0  0  0  0  0  0  0  0  0  # atno 11005 bound_to 11000
  146.3112  139.7753  142.9018 LP  0  0  0  0  0  0  0  0  0  0  0  0  # atno 17320 bound_to 7965
  145.3604  141.0325  143.3288 LP  0  0  0  0  0  0  0  0  0  0  0  0  # atno 17321 bound_to 7965
  139.7149  144.7613  151.1050 LP  0  0  0  0  0  0  0  0  0  0  0  0  # atno 17342 bound_to 10162
  140.7735  143.5282  150.9455 LP  0  0  0  0  0  0  0  0  0  0  0  0  # atno 17343 bound_to 10162
  156.1033  130.3654  150.0179 LP  0  0  0  0  0  0  0  0  0  0  0  0  # atno 17370 bound_to 10713
  156.8291  130.9386  151.3638 LP  0  0  0  0  0  0  0  0  0  0  0  0  # atno 17371 bound_to 10713
  140.7771  134.3767  157.5495 LP  0  0  0  0  0  0  0  0  0  0  0  0  # atno 17394 bound_to 11000
  139.8813  134.9058  156.2908 LP  0  0  0  0  0  0  0  0  0  0  0  0  # atno 17395 bound_to 11000

$$$$
