AV-unprocessed.smi:213|AV-procd|sdf|1636|dock3
  -GOLD-   2262019593D 1   1.00000     0.00000
 Structure written by MMmdl.
 59 62  0  0  0  0  0  0  0  0  2 V2000
  144.2321  137.3312  153.2688 C   0  0  0  0  0  0  0  0  0  0  0  0
  145.6752  137.0111  152.8356 C   0  0  1  0  0  0  0  0  0  0  0  0
  145.7426  136.4360  151.4009 C   0  0  0  0  0  0  0  0  0  0  0  0
  145.2876  135.0249  151.3258 N   0  3  0  0  0  0  0  0  0  0  0  0
  144.3718  134.7852  150.1850 C   0  0  0  0  0  0  0  0  0  0  0  0
  143.8882  133.3254  150.1787 C   0  0  0  0  0  0  0  0  0  0  0  0
  145.0092  132.4519  150.1314 O   0  0  0  0  0  0  0  0  0  0  0  0
  145.8528  132.6077  151.2657 C   0  0  0  0  0  0  0  0  0  0  0  0
  146.4015  134.0439  151.3104 C   0  0  0  0  0  0  0  0  0  0  0  0
  146.5415  138.1882  152.9842 N   0  0  0  0  0  0  0  0  0  0  0  0
  146.7210  139.1110  151.8652 C   0  0  0  0  0  0  0  0  0  0  0  0
  147.5005  138.2080  153.9529 C   0  0  0  0  0  0  0  0  0  0  0  0
  147.8141  137.0565  154.6071 N   0  0  0  0  0  0  0  0  0  0  0  0
  148.7569  137.0440  155.5537 C   0  0  0  0  0  0  0  0  0  0  0  0
  149.4993  138.0556  156.0037 N   0  0  0  0  0  0  0  0  0  0  0  0
  149.1882  139.2174  155.3625 C   0  0  0  0  0  0  0  0  0  0  0  0
  148.2141  139.3832  154.3359 C   0  0  0  0  0  0  0  0  0  0  0  0
  148.1777  140.7165  153.9402 N   0  0  0  0  0  0  0  0  0  0  0  0
  149.0808  141.2995  154.6801 C   0  0  0  0  0  0  0  0  0  0  0  0
  149.7357  140.4716  155.5621 N   0  0  0  0  0  0  0  0  0  0  0  0
  150.7767  140.8473  156.5025 C   0  0  0  0  0  0  0  0  0  0  0  0
  150.3002  141.9015  157.5213 C   0  0  1  0  0  0  0  0  0  0  0  0
  149.4933  141.2733  158.4997 O   0  0  0  0  0  0  0  0  0  0  0  0
  151.4772  142.6049  158.2226 C   0  0  2  0  0  0  0  0  0  0  0  0
  152.1880  141.7576  159.2762 C   0  0  0  0  0  0  0  0  0  0  0  0
  152.8977  142.8096  160.1032 C   0  0  0  0  0  0  0  0  0  0  0  0
  151.9737  144.0249  159.9943 C   0  0  0  0  0  0  0  0  0  0  0  0
  151.0157  143.7102  158.9874 O   0  0  0  0  0  0  0  0  0  0  0  0
  143.6146  136.4330  153.2776 H   0  0  0  0  0  0  0  0  0  0  0  0
  143.7534  138.0500  152.6034 H   0  0  0  0  0  0  0  0  0  0  0  0
  144.2115  137.7465  154.2770 H   0  0  0  0  0  0  0  0  0  0  0  0
  146.0265  136.2571  153.5389 H   0  0  0  0  0  0  0  0  0  0  0  0
  145.1198  137.0491  150.7484 H   0  0  0  0  0  0  0  0  0  0  0  0
  146.7546  136.5032  150.9990 H   0  0  0  0  0  0  0  0  0  0  0  0
  143.5127  135.4539  150.2513 H   0  0  0  0  0  0  0  0  0  0  0  0
  144.8853  135.0131  149.2493 H   0  0  0  0  0  0  0  0  0  0  0  0
  143.2806  133.1114  151.0597 H   0  0  0  0  0  0  0  0  0  0  0  0
  143.2602  133.1411  149.3068 H   0  0  0  0  0  0  0  0  0  0  0  0
  145.3035  132.3714  152.1786 H   0  0  0  0  0  0  0  0  0  0  0  0
  146.6741  131.8943  151.1950 H   0  0  0  0  0  0  0  0  0  0  0  0
  147.0377  134.2251  150.4425 H   0  0  0  0  0  0  0  0  0  0  0  0
  147.0292  134.1599  152.1934 H   0  0  0  0  0  0  0  0  0  0  0  0
  147.7773  139.3045  151.6735 H   0  0  0  0  0  0  0  0  0  0  0  0
  146.2289  140.0599  152.0790 H   0  0  0  0  0  0  0  0  0  0  0  0
  146.2939  138.7163  150.9441 H   0  0  0  0  0  0  0  0  0  0  0  0
  148.9429  136.0866  156.0176 H   0  0  0  0  0  0  0  0  0  0  0  0
  149.2957  142.3554  154.6016 H   0  0  0  0  0  0  0  0  0  0  0  0
  151.1250  139.9493  157.0147 H   0  0  0  0  0  0  0  0  0  0  0  0
  151.6248  141.2284  155.9324 H   0  0  0  0  0  0  0  0  0  0  0  0
  149.6881  142.6461  157.0104 H   0  0  0  0  0  0  0  0  0  0  0  0
  149.6672  140.3448  158.4806 H   0  0  0  0  0  0  0  0  0  0  0  0
  152.2008  142.9666  157.4894 H   0  0  0  0  0  0  0  0  0  0  0  0
  151.4609  141.2271  159.8925 H   0  0  0  0  0  0  0  0  0  0  0  0
  152.8710  141.0247  158.8457 H   0  0  0  0  0  0  0  0  0  0  0  0
  153.0627  142.4934  161.1336 H   0  0  0  0  0  0  0  0  0  0  0  0
  153.8678  143.0392  159.6606 H   0  0  0  0  0  0  0  0  0  0  0  0
  151.4573  144.2240  160.9335 H   0  0  0  0  0  0  0  0  0  0  0  0
  152.5333  144.9196  159.7188 H   0  0  0  0  0  0  0  0  0  0  0  0
  144.7488  134.8508  152.1624 H   0  0  0  0  0  0  0  0  0  0  0  0
  1  2  1  0  0  0  0
  1 29  1  0  0  0  0
  1 30  1  0  0  0  0
  1 31  1  0  0  0  0
  2  3  1  0  0  0  0
  2 10  1  0  0  0  0
  2 32  1  0  0  0  0
  3  4  1  0  0  0  0
  3 33  1  0  0  0  0
  3 34  1  0  0  0  0
  4  9  1  0  0  0  0
  4  5  1  0  0  0  0
  4 59  1  0  0  0  0
  5  6  1  0  0  0  0
  5 35  1  0  0  0  0
  5 36  1  0  0  0  0
  6  7  1  0  0  0  0
  6 37  1  0  0  0  0
  6 38  1  0  0  0  0
  7  8  1  0  0  0  0
  8  9  1  0  0  0  0
  8 39  1  0  0  0  0
  8 40  1  0  0  0  0
  9 41  1  0  0  0  0
  9 42  1  0  0  0  0
 10 11  1  0  0  0  0
 10 12  1  0  0  0  0
 11 43  1  0  0  0  0
 11 44  1  0  0  0  0
 11 45  1  0  0  0  0
 12 17  1  0  0  0  0
 12 13  2  0  0  0  0
 13 14  1  0  0  0  0
 14 15  2  0  0  0  0
 14 46  1  0  0  0  0
 15 16  1  0  0  0  0
 16 20  1  0  0  0  0
 16 17  2  0  0  0  0
 17 18  1  0  0  0  0
 18 19  2  0  0  0  0
 19 20  1  0  0  0  0
 19 47  1  0  0  0  0
 20 21  1  0  0  0  0
 21 22  1  0  0  0  0
 21 48  1  0  0  0  0
 21 49  1  0  0  0  0
 22 23  1  0  0  0  0
 22 24  1  0  0  0  0
 22 50  1  0  0  0  0
 23 51  1  0  0  0  0
 24 28  1  0  0  0  0
 24 25  1  0  0  0  0
 24 52  1  0  0  0  0
 25 26  1  0  0  0  0
 25 53  1  0  0  0  0
 25 54  1  0  0  0  0
 26 27  1  0  0  0  0
 26 55  1  0  0  0  0
 26 56  1  0  0  0  0
 27 28  1  0  0  0  0
 27 57  1  0  0  0  0
 27 58  1  0  0  0  0
M  CHG  1   4   1
M  END
> <s_m_source_file>
AV-unprocessed.smi

> <i_m_source_file_index>
213

> <i_lp_mmshare_version>
43012

> <i_f3d_flags>
0

> <s_epik_input>
W0NIMl0xW0NIMl1PW0NIMl1bQ0gyXU4xW0NIMl1bQ0BASF0oW0NIM10pTihbQ0gzXSljKG5bY0hdbjIpYyhjMjMpbltjSF1uM1tDSDJdW0NASF0oW09IXSlbQ0BASF00W0NIMl1bQ0gyXVtDSDJdTzQ=

> <s_epik_cmdline>
J2VwaWtfcHl0aG9uJywgJy1waCcsICc3LjAnLCAnLXRuJywgJzgnLCAnLW1hJywgJzIwMCcsICctbWV0YWxfYmluZGluZycsICctaW1hZScsICc8aW5maWxlLm1hZT4nLCAnLW9tYWUnLCAnPG91dGZpbGUubWFlPic=

> <r_lp_tautomer_probability>
1

> <r_epik_Ionization_Penalty>
0.399679

> <r_epik_Ionization_Penalty_Charging>
0.399433

> <r_epik_Ionization_Penalty_Neutral>
0.000246213

> <r_epik_State_Penalty>
0.286032

> <r_epik_Charging_Adjusted_Penalty>
0.685465

> <i_epik_Tot_Q>
1

> <i_epik_Tot_abs_Q>
1

> <r_epik_Metal_State_Penalty>
0.286072

> <b_epik_Metal_Only>
0

> <s_lp_Force_Field>
OPLS_2005

> <r_lp_Energy>
43.5533

> <b_lp_Chiralities_Consistent>
1

> <s_lp_Variant>
AV-unprocessed.smi:213-4

> <Gold.Version>
5.8.1

> <Gold.Id.Protein>
6NUR|6NUR_protein|mol2

> <Gold.PLP.Fitness>
46.8418

> <Gold.PLP.PLP>
-46.4893

> <Gold.PLP.part.hbond>
0.0000

> <Gold.PLP.part.metal>
0.0000

> <Gold.PLP.part.buried>
-3.9676

> <Gold.PLP.part.nonpolar>
-45.5675

> <Gold.PLP.part.repulsive>
1.3403

> <Gold.PLP.ligand.clash>
0.0000

> <Gold.PLP.ligand.torsion>
1.6923

> <Gold.PLP.Chemscore.Hbond>
0.0000

> <Gold.PLP.Chemscore.CHOScore>
1.0000

> <Gold.PLP.Chemscore.Metal>
0.0000

> <Gold.Chemscore.Hbonds>
donor molecule, donor type, donor heavy atom, donor atom, acceptor molecule, acceptor atom, score
      L1  C    19    47       P1  8028  0.81

> <Gold.PLP.Chemscore.Internal.Correction>
0.7370

> <Gold.Rescore>
     Score         DG    S(hbond)    S(metal)    S(lipo)     H(rot)  DE(clash)    DE(int)     intcor
      7.93     -11.53       0.00        0.00     113.56       2.83       1.10       2.51       ----

> <Gold.Chemscore.Fitness>
7.9317

> <Gold.Chemscore.DG>
-11.5341

> <Gold.Chemscore.ZeroCoef>
-5.4800

> <Gold.Chemscore.Hbond>
0.0000

> <Gold.Chemscore.Metal>
0.0000

> <Gold.Chemscore.Lipo>
113.5642

> <Gold.Chemscore.Internal_Hbond>
0.0000

> <Gold.Chemscore.DEClash>
1.0950

> <Gold.Chemscore.DEInternal>
2.5073

> <Gold.Chemscore.Rot>
2.8254

> <Gold.Chemscore.Internal.Correction>
   9.000000E+99

> <Gold.Chemscore.Hbond.Weighted>
-0.0000

> <Gold.Chemscore.Metal.Weighted>
-0.0000

> <Gold.Chemscore.Lipo.Weighted>
-13.2870

> <Gold.Chemscore.Internal_Hbond.Weighted>
0.0000

> <Gold.Chemscore.DEClash.Weighted>
1.0950

> <Gold.Chemscore.DEInternal.Weighted>
2.5073

> <Gold.Chemscore.Rot.Weighted>
7.2330

> <Gold.Chemscore.Internal.Correction.Weighted>
   9.000000E+99

> <Gold.Protein.RotatedTorsions>
[ 6907 6896 6895 6894 ] final   -7.60 input  -60.11 | X-H torsion
[ 7974 7965 7964 7962 ] final -151.18 input  175.53 | X-H torsion
[ 8008 7997 7996 7995 ] final  101.79 input   59.86 | X-H torsion
[ 10167 10162 10161 10158 ] final   69.99 input  -65.29 | X-H torsion
[ 10718 10713 10712 10709 ] final  -49.57 input   66.30 | X-H torsion
[ 10763 10752 10751 10750 ] final  172.77 input  -60.55 | X-H torsion
[ 11005 11000 10999 10996 ] final   50.03 input  -57.11 | X-H torsion

> <Gold.Protein.ActiveResidues>
 VAL166  LYS551  ARG553  GLY616  TRP617  ASP618  TYR619  PRO620  LYS621  CYS622 
 ASP623  PHE694  ASN695  SER759  ASP760  ASP761  ALA762  ILE779  LEU786  VAL792 
 PHE793  MET794  SER795  GLU796  ALA797  LYS798  CYS799  TRP800  GLU811  SER814 

> <Gold.Protein.RotatedAtoms>
  151.4470  135.1026  159.9686 H   0  0  0  0  0  0  0  0  0  0  0  0  # atno 6907 bound_to 6896
  152.4902  133.8476  159.7195 H   0  0  0  0  0  0  0  0  0  0  0  0  # atno 6908 bound_to 6896
  150.9048  133.7012  159.2897 H   0  0  0  0  0  0  0  0  0  0  0  0  # atno 6909 bound_to 6896
  144.7864  140.4832  143.5803 H   0  0  0  0  0  0  0  0  0  0  0  0  # atno 7974 bound_to 7965
  156.1332  140.3192  155.8381 H   0  0  0  0  0  0  0  0  0  0  0  0  # atno 8008 bound_to 7997
  155.4293  140.0517  157.3037 H   0  0  0  0  0  0  0  0  0  0  0  0  # atno 8009 bound_to 7997
  154.4916  140.2094  155.9549 H   0  0  0  0  0  0  0  0  0  0  0  0  # atno 8010 bound_to 7997
  140.0618  144.5226  150.7289 H   0  0  0  0  0  0  0  0  0  0  0  0  # atno 10167 bound_to 10162
  156.1881  130.4152  149.9410 H   0  0  0  0  0  0  0  0  0  0  0  0  # atno 10718 bound_to 10713
  154.4308  135.2760  155.1914 H   0  0  0  0  0  0  0  0  0  0  0  0  # atno 10763 bound_to 10752
  154.3821  135.6085  153.5800 H   0  0  0  0  0  0  0  0  0  0  0  0  # atno 10764 bound_to 10752
  152.9836  135.5883  154.4619 H   0  0  0  0  0  0  0  0  0  0  0  0  # atno 10765 bound_to 10752
  140.1052  134.5028  155.8726 H   0  0  0  0  0  0  0  0  0  0  0  0  # atno 11005 bound_to 11000
  145.5909  139.1495  143.3183 LP  0  0  0  0  0  0  0  0  0  0  0  0  # atno 17320 bound_to 7965
  146.2098  140.6035  142.9064 LP  0  0  0  0  0  0  0  0  0  0  0  0  # atno 17321 bound_to 7965
  140.7168  143.2552  151.4408 LP  0  0  0  0  0  0  0  0  0  0  0  0  # atno 17342 bound_to 10162
  139.5889  144.1543  152.2064 LP  0  0  0  0  0  0  0  0  0  0  0  0  # atno 17343 bound_to 10162
  156.7159  130.8988  151.3614 LP  0  0  0  0  0  0  0  0  0  0  0  0  # atno 17370 bound_to 10713
  157.6912  130.9235  150.0518 LP  0  0  0  0  0  0  0  0  0  0  0  0  # atno 17371 bound_to 10713
  141.2116  133.6709  156.6597 LP  0  0  0  0  0  0  0  0  0  0  0  0  # atno 17394 bound_to 11000
  140.3165  134.8043  157.4219 LP  0  0  0  0  0  0  0  0  0  0  0  0  # atno 17395 bound_to 11000

$$$$
