AV-unprocessed.smi:2261|AV-procd|sdf|9137|dock9
  -GOLD-   2272012343D 1   1.00000     0.00000
 Structure written by MMmdl.
 41 42  0  0  0  0  0  0  0  0  1 V2000
  145.8720  139.0198  157.0303 C   0  0  0  0  0  0  0  0  0  0  0  0
  146.0248  140.3963  156.3607 C   0  0  0  0  0  0  0  0  0  0  0  0
  144.6612  141.0855  156.1998 C   0  0  0  0  0  0  0  0  0  0  0  0
  147.0402  141.2808  157.0956 C   0  0  0  0  0  0  0  0  0  0  0  0
  148.3465  140.9494  156.4029 C   0  0  2  0  0  0  0  0  0  0  0  0
  149.3202  142.0287  156.5403 N   0  0  0  0  0  0  0  0  0  0  0  0
  150.5154  141.9231  157.1402 C   0  0  0  0  0  0  0  0  0  0  0  0
  150.8993  140.9094  157.7225 O   0  0  0  0  0  0  0  0  0  0  0  0
  151.4294  143.1440  157.0449 C   0  0  0  0  0  0  0  0  0  0  0  0
  151.7399  143.6642  158.4371 C   0  0  0  0  0  0  0  0  0  0  0  0
  151.4391  144.9946  158.7958 C   0  0  0  0  0  0  0  0  0  0  0  0
  151.7263  145.4253  160.1052 C   0  0  0  0  0  0  0  0  0  0  0  0
  152.3033  144.5049  161.0027 C   0  0  0  0  0  0  0  0  0  0  0  0
  152.5969  143.2293  160.6703 N   0  0  0  0  0  0  0  0  0  0  0  0
  152.3209  142.8250  159.4121 C   0  0  0  0  0  0  0  0  0  0  0  0
  147.8969  140.7079  154.9459 C   0  0  0  0  0  0  0  0  0  0  0  0
  147.7810  141.9904  154.0937 C   0  0  0  0  0  0  0  0  0  0  0  0
  148.7699  139.6639  154.2325 C   0  0  0  0  0  0  0  0  0  0  0  0
  146.5780  140.1764  155.0634 O   0  0  0  0  0  0  0  0  0  0  0  0
  145.4664  139.1138  158.0379 H   0  0  0  0  0  0  0  0  0  0  0  0
  146.8290  138.5028  157.1047 H   0  0  0  0  0  0  0  0  0  0  0  0
  145.1987  138.3787  156.4605 H   0  0  0  0  0  0  0  0  0  0  0  0
  144.2105  141.2985  157.1695 H   0  0  0  0  0  0  0  0  0  0  0  0
  143.9669  140.4586  155.6398 H   0  0  0  0  0  0  0  0  0  0  0  0
  144.7566  142.0291  155.6618 H   0  0  0  0  0  0  0  0  0  0  0  0
  146.7987  142.3353  156.9517 H   0  0  0  0  0  0  0  0  0  0  0  0
  147.0720  141.0977  158.1703 H   0  0  0  0  0  0  0  0  0  0  0  0
  148.7338  140.0248  156.8357 H   0  0  0  0  0  0  0  0  0  0  0  0
  149.0941  142.9032  156.0894 H   0  0  0  0  0  0  0  0  0  0  0  0
  152.3526  142.8798  156.5271 H   0  0  0  0  0  0  0  0  0  0  0  0
  150.9469  143.9254  156.4560 H   0  0  0  0  0  0  0  0  0  0  0  0
  150.9908  145.6712  158.0828 H   0  0  0  0  0  0  0  0  0  0  0  0
  151.5071  146.4363  160.4154 H   0  0  0  0  0  0  0  0  0  0  0  0
  152.5352  144.8010  162.0150 H   0  0  0  0  0  0  0  0  0  0  0  0
  152.5596  141.7973  159.1807 H   0  0  0  0  0  0  0  0  0  0  0  0
  148.7573  142.4375  153.9050 H   0  0  0  0  0  0  0  0  0  0  0  0
  147.1582  142.7430  154.5771 H   0  0  0  0  0  0  0  0  0  0  0  0
  147.3333  141.7735  153.1235 H   0  0  0  0  0  0  0  0  0  0  0  0
  149.7940  140.0194  154.1151 H   0  0  0  0  0  0  0  0  0  0  0  0
  148.3815  139.4393  153.2389 H   0  0  0  0  0  0  0  0  0  0  0  0
  148.8044  138.7280  154.7908 H   0  0  0  0  0  0  0  0  0  0  0  0
  1  2  1  0  0  0  0
  1 20  1  0  0  0  0
  1 21  1  0  0  0  0
  1 22  1  0  0  0  0
  2 19  1  0  0  0  0
  2  3  1  0  0  0  0
  2  4  1  0  0  0  0
  3 23  1  0  0  0  0
  3 24  1  0  0  0  0
  3 25  1  0  0  0  0
  4  5  1  0  0  0  0
  4 26  1  0  0  0  0
  4 27  1  0  0  0  0
  5  6  1  0  0  0  0
  5 16  1  0  0  0  0
  5 28  1  0  0  0  0
  6  7  1  0  0  0  0
  6 29  1  0  0  0  0
  7  8  2  0  0  0  0
  7  9  1  0  0  0  0
  9 10  1  0  0  0  0
  9 30  1  0  0  0  0
  9 31  1  0  0  0  0
 10 15  1  0  0  0  0
 10 11  2  0  0  0  0
 11 12  1  0  0  0  0
 11 32  1  0  0  0  0
 12 13  2  0  0  0  0
 12 33  1  0  0  0  0
 13 14  1  0  0  0  0
 13 34  1  0  0  0  0
 14 15  2  0  0  0  0
 15 35  1  0  0  0  0
 16 17  1  0  0  0  0
 16 18  1  0  0  0  0
 16 19  1  0  0  0  0
 17 36  1  0  0  0  0
 17 37  1  0  0  0  0
 17 38  1  0  0  0  0
 18 39  1  0  0  0  0
 18 40  1  0  0  0  0
 18 41  1  0  0  0  0
M  END
> <s_m_source_file>
AV-unprocessed.smi

> <i_m_source_file_index>
2261

> <i_lp_mmshare_version>
43012

> <i_f3d_flags>
0

> <s_epik_input>
W0NIM11DMShbQ0gzXSlbQ0gyXVtDQEhdKEMoTzEpKFtDSDNdKVtDSDNdKVtOSF1DKD1PKVtDSDJdYzJbY0hdW2NIXVtjSF1uW2NIXTI=

> <s_epik_cmdline>
J2VwaWtfcHl0aG9uJywgJy1waCcsICc3LjAnLCAnLXRuJywgJzgnLCAnLW1hJywgJzIwMCcsICctbWV0YWxfYmluZGluZycsICctaW1hZScsICc8aW5maWxlLm1hZT4nLCAnLW9tYWUnLCAnPG91dGZpbGUubWFlPic=

> <r_epik_Ionization_Penalty>
0.00420617

> <r_epik_Ionization_Penalty_Charging>
0

> <r_epik_Ionization_Penalty_Neutral>
0.00420617

> <r_epik_State_Penalty>
0.0030219

> <r_epik_Charging_Adjusted_Penalty>
0.0030219

> <i_epik_Tot_Q>
0

> <i_epik_Tot_abs_Q>
0

> <r_epik_Metal_State_Penalty>
-0

> <b_epik_Metal_Only>
0

> <s_lp_Force_Field>
OPLS_2005

> <r_lp_Energy>
16.2034

> <b_lp_Chiralities_Consistent>
1

> <s_lp_Variant>
AV-unprocessed.smi:2261-2

> <Gold.Version>
5.8.1

> <Gold.Id.Protein>
6NUR|6NUR_protein|mol2

> <Gold.PLP.Fitness>
36.6264

> <Gold.PLP.PLP>
-33.6739

> <Gold.PLP.part.hbond>
-1.0000

> <Gold.PLP.part.metal>
0.0000

> <Gold.PLP.part.buried>
-5.5335

> <Gold.PLP.part.nonpolar>
-27.6818

> <Gold.PLP.part.repulsive>
0.1491

> <Gold.PLP.ligand.clash>
0.0000

> <Gold.PLP.ligand.torsion>
0.0308

> <Gold.PLP.Chemscore.Hbond>
1.0000

> <Gold.PLP.Chemscore.CHOScore>
0.0000

> <Gold.PLP.Chemscore.Metal>
0.0000

> <Gold.Chemscore.Hbonds>
donor molecule, donor type, donor heavy atom, donor atom, acceptor molecule, acceptor atom, score
      L1  H     6    29       P1  8028  1.00

> <Gold.PLP.Chemscore.Internal.Correction>
0.0140

> <Gold.Rescore>
     Score         DG    S(hbond)    S(metal)    S(lipo)     H(rot)  DE(clash)    DE(int)     intcor
     16.37     -16.63       1.00        0.00      94.85       1.28       0.12       0.14       ----

> <Gold.Chemscore.Fitness>
16.3684

> <Gold.Chemscore.DG>
-16.6288

> <Gold.Chemscore.ZeroCoef>
-5.4800

> <Gold.Chemscore.Hbond>
0.9998

> <Gold.Chemscore.Metal>
0.0000

> <Gold.Chemscore.Lipo>
94.8471

> <Gold.Chemscore.Internal_Hbond>
0.0000

> <Gold.Chemscore.DEClash>
0.1183

> <Gold.Chemscore.DEInternal>
0.1421

> <Gold.Chemscore.Rot>
1.2842

> <Gold.Chemscore.Internal.Correction>
   9.000000E+99

> <Gold.Chemscore.Hbonds>
donor molecule, donor type, donor heavy atom, donor atom, acceptor molecule, acceptor atom, score
      L1  H     6    29       P1  8028  1.00

> <Gold.Chemscore.Hbond.Weighted>
-3.3392

> <Gold.Chemscore.Metal.Weighted>
-0.0000

> <Gold.Chemscore.Lipo.Weighted>
-11.0971

> <Gold.Chemscore.Internal_Hbond.Weighted>
0.0000

> <Gold.Chemscore.DEClash.Weighted>
0.1183

> <Gold.Chemscore.DEInternal.Weighted>
0.1421

> <Gold.Chemscore.Rot.Weighted>
3.2875

> <Gold.Chemscore.Internal.Correction.Weighted>
   9.000000E+99

> <Gold.Protein.RotatedTorsions>
[ 6907 6896 6895 6894 ] final  152.30 input  -60.11 | X-H torsion
[ 7974 7965 7964 7962 ] final -121.18 input  175.53 | X-H torsion
[ 8008 7997 7996 7995 ] final -132.36 input   59.86 | X-H torsion
[ 10167 10162 10161 10158 ] final   58.35 input  -65.29 | X-H torsion
[ 10718 10713 10712 10709 ] final -105.80 input   66.30 | X-H torsion
[ 10763 10752 10751 10750 ] final   42.26 input  -60.55 | X-H torsion
[ 11005 11000 10999 10996 ] final   78.84 input  -57.11 | X-H torsion

> <Gold.Protein.ActiveResidues>
 VAL166  LYS551  ARG553  GLY616  TRP617  ASP618  TYR619  PRO620  LYS621  CYS622 
 ASP623  PHE694  ASN695  SER759  ASP760  ASP761  ALA762  ILE779  LEU786  VAL792 
 PHE793  MET794  SER795  GLU796  ALA797  LYS798  CYS799  TRP800  GLU811  SER814 

> <Gold.Protein.RotatedAtoms>
  152.0886  133.4189  159.4533 H   0  0  0  0  0  0  0  0  0  0  0  0  # atno 6907 bound_to 6896
  150.6862  134.2898  159.4671 H   0  0  0  0  0  0  0  0  0  0  0  0  # atno 6908 bound_to 6896
  152.0747  134.9510  160.0625 H   0  0  0  0  0  0  0  0  0  0  0  0  # atno 6909 bound_to 6896
  145.0431  140.8160  143.4254 H   0  0  0  0  0  0  0  0  0  0  0  0  # atno 7974 bound_to 7965
  155.3276  140.0465  157.3041 H   0  0  0  0  0  0  0  0  0  0  0  0  # atno 8008 bound_to 7997
  154.5346  140.2268  155.8711 H   0  0  0  0  0  0  0  0  0  0  0  0  # atno 8009 bound_to 7997
  156.1822  140.3071  155.9176 H   0  0  0  0  0  0  0  0  0  0  0  0  # atno 8010 bound_to 7997
  140.1881  144.4113  150.6583 H   0  0  0  0  0  0  0  0  0  0  0  0  # atno 10167 bound_to 10162
  156.0362  130.5581  150.7590 H   0  0  0  0  0  0  0  0  0  0  0  0  # atno 10718 bound_to 10713
  152.9887  135.6137  154.2921 H   0  0  0  0  0  0  0  0  0  0  0  0  # atno 10763 bound_to 10752
  154.2645  135.2781  155.2766 H   0  0  0  0  0  0  0  0  0  0  0  0  # atno 10764 bound_to 10752
  154.5176  135.5823  153.6712 H   0  0  0  0  0  0  0  0  0  0  0  0  # atno 10765 bound_to 10752
  139.9196  134.7795  156.1701 H   0  0  0  0  0  0  0  0  0  0  0  0  # atno 11005 bound_to 11000
  145.1622  139.2452  143.5385 LP  0  0  0  0  0  0  0  0  0  0  0  0  # atno 17320 bound_to 7965
  146.3511  140.1352  142.8596 LP  0  0  0  0  0  0  0  0  0  0  0  0  # atno 17321 bound_to 7965
  140.6474  143.2216  151.6155 LP  0  0  0  0  0  0  0  0  0  0  0  0  # atno 17342 bound_to 10162
  139.5267  144.3037  152.1052 LP  0  0  0  0  0  0  0  0  0  0  0  0  # atno 17343 bound_to 10162
  157.5114  131.0926  151.0193 LP  0  0  0  0  0  0  0  0  0  0  0  0  # atno 17370 bound_to 10713
  157.0547  130.5801  149.5376 LP  0  0  0  0  0  0  0  0  0  0  0  0  # atno 17371 bound_to 10713
  141.0705  133.6799  156.2131 LP  0  0  0  0  0  0  0  0  0  0  0  0  # atno 17394 bound_to 11000
  140.6514  134.5063  157.5577 LP  0  0  0  0  0  0  0  0  0  0  0  0  # atno 17395 bound_to 11000

$$$$
