AV-unprocessed.smi:37|AV-procd|sdf|310|dock6
  -GOLD-   2262016123D 1   1.00000     0.00000
 Structure written by MMmdl.
 44 45  0  0  0  0  0  0  0  0  1 V2000
  151.8494  145.5705  159.5883 C   0  0  0  0  0  0  0  0  0  0  0  0
  151.9417  144.2023  160.2774 C   0  0  0  0  0  0  0  0  0  0  0  0
  152.7057  143.1826  159.4359 C   0  0  0  0  0  0  0  0  0  0  0  0
  153.5199  143.5355  158.5825 O   0  0  0  0  0  0  0  0  0  0  0  0
  152.3900  141.9152  159.7455 O   0  0  0  0  0  0  0  0  0  0  0  0
  153.2409  140.8603  159.3307 C   0  0  0  0  0  0  0  0  0  0  0  0
  152.4263  139.8481  158.5154 C   0  0  1  0  0  0  0  0  0  0  0  0
  152.7315  139.9342  157.1282 O   0  0  0  0  0  0  0  0  0  0  0  0
  152.4721  138.7087  156.5066 C   0  0  2  0  0  0  0  0  0  0  0  0
  151.3444  138.8664  155.5114 N   0  0  0  0  0  0  0  0  0  0  0  0
  150.7000  140.0809  155.3063 C   0  0  0  0  0  0  0  0  0  0  0  0
  149.6860  140.2340  154.4220 C   0  0  0  0  0  0  0  0  0  0  0  0
  149.1072  141.4383  154.2793 F   0  0  0  0  0  0  0  0  0  0  0  0
  149.2136  139.1046  153.6262 C   0  0  0  0  0  0  0  0  0  0  0  0
  148.3035  139.1455  152.8004 O   0  0  0  0  0  0  0  0  0  0  0  0
  149.8887  137.9045  153.8686 N   0  0  0  0  0  0  0  0  0  0  0  0
  150.9335  137.7323  154.7779 C   0  0  0  0  0  0  0  0  0  0  0  0
  151.4523  136.6261  154.9222 O   0  0  0  0  0  0  0  0  0  0  0  0
  152.1613  137.6799  157.6167 C   0  0  2  0  0  0  0  0  0  0  0  0
  150.2054  137.3667  157.8947 Br  0  0  0  0  0  0  0  0  0  0  0  0
  152.7035  138.3811  158.8504 C   0  0  1  0  0  0  0  0  0  0  0  0
  154.1055  138.1683  158.9805 O   0  0  0  0  0  0  0  0  0  0  0  0
  154.5872  136.9387  159.2362 C   0  0  0  0  0  0  0  0  0  0  0  0
  153.9209  135.9082  159.3325 O   0  0  0  0  0  0  0  0  0  0  0  0
  156.1064  136.9228  159.3895 C   0  0  0  0  0  0  0  0  0  0  0  0
  156.5826  137.8188  160.5412 C   0  0  0  0  0  0  0  0  0  0  0  0
  149.5927  137.0943  153.3441 H   0  0  0  0  0  0  0  0  0  0  0  0
  151.3101  146.2801  160.2158 H   0  0  0  0  0  0  0  0  0  0  0  0
  151.3213  145.5057  158.6361 H   0  0  0  0  0  0  0  0  0  0  0  0
  152.8401  145.9849  159.3978 H   0  0  0  0  0  0  0  0  0  0  0  0
  152.4368  144.3062  161.2431 H   0  0  0  0  0  0  0  0  0  0  0  0
  150.9415  143.8156  160.4748 H   0  0  0  0  0  0  0  0  0  0  0  0
  154.0760  141.2459  158.7443 H   0  0  0  0  0  0  0  0  0  0  0  0
  153.6548  140.3739  160.2151 H   0  0  0  0  0  0  0  0  0  0  0  0
  151.3605  140.0399  158.6503 H   0  0  0  0  0  0  0  0  0  0  0  0
  153.3591  138.4555  155.9224 H   0  0  0  0  0  0  0  0  0  0  0  0
  150.9985  140.9519  155.8707 H   0  0  0  0  0  0  0  0  0  0  0  0
  152.6302  136.7181  157.4060 H   0  0  0  0  0  0  0  0  0  0  0  0
  152.1863  138.0786  159.7622 H   0  0  0  0  0  0  0  0  0  0  0  0
  156.4325  135.8965  159.5610 H   0  0  0  0  0  0  0  0  0  0  0  0
  156.5586  137.2465  158.4519 H   0  0  0  0  0  0  0  0  0  0  0  0
  157.6653  137.7575  160.6520 H   0  0  0  0  0  0  0  0  0  0  0  0
  156.1363  137.5168  161.4894 H   0  0  0  0  0  0  0  0  0  0  0  0
  156.3286  138.8651  160.3675 H   0  0  0  0  0  0  0  0  0  0  0  0
  1  2  1  0  0  0  0
  1 28  1  0  0  0  0
  1 29  1  0  0  0  0
  1 30  1  0  0  0  0
  2  3  1  0  0  0  0
  2 31  1  0  0  0  0
  2 32  1  0  0  0  0
  3  4  2  0  0  0  0
  3  5  1  0  0  0  0
  5  6  1  0  0  0  0
  6  7  1  0  0  0  0
  6 33  1  0  0  0  0
  6 34  1  0  0  0  0
  7 21  1  0  0  0  0
  7  8  1  0  0  0  0
  7 35  1  0  0  0  0
  8  9  1  0  0  0  0
  9 10  1  0  0  0  0
  9 19  1  0  0  0  0
  9 36  1  0  0  0  0
 10 17  1  0  0  0  0
 10 11  1  0  0  0  0
 11 12  2  0  0  0  0
 11 37  1  0  0  0  0
 12 13  1  0  0  0  0
 12 14  1  0  0  0  0
 14 15  2  0  0  0  0
 14 16  1  0  0  0  0
 16 27  1  0  0  0  0
 16 17  1  0  0  0  0
 17 18  2  0  0  0  0
 19 20  1  0  0  0  0
 19 21  1  0  0  0  0
 19 38  1  0  0  0  0
 21 22  1  0  0  0  0
 21 39  1  0  0  0  0
 22 23  1  0  0  0  0
 23 24  2  0  0  0  0
 23 25  1  0  0  0  0
 25 26  1  0  0  0  0
 25 40  1  0  0  0  0
 25 41  1  0  0  0  0
 26 42  1  0  0  0  0
 26 43  1  0  0  0  0
 26 44  1  0  0  0  0
M  END
> <s_m_source_file>
AV-unprocessed.smi

> <i_m_source_file_index>
37

> <i_lp_mmshare_version>
43012

> <i_f3d_flags>
0

> <s_epik_input>
W0NIM11bQ0gyXUMoPU8pT1tDSDJdW0NAQEhdMU9bQ0BASF0objJbY0hdYyhGKWMoPU8pW25IXWMyPU8pW0NAQEhdKEJyKVtDQEhdMU9DKD1PKVtDSDJdW0NIM10=

> <s_epik_cmdline>
J2VwaWtfcHl0aG9uJywgJy1waCcsICc3LjAnLCAnLXRuJywgJzgnLCAnLW1hJywgJzIwMCcsICctbWV0YWxfYmluZGluZycsICctaW1hZScsICc8aW5maWxlLm1hZT4nLCAnLW9tYWUnLCAnPG91dGZpbGUubWFlPic=

> <r_lp_tautomer_probability>
0.999537

> <r_epik_Ionization_Penalty>
0.104106

> <r_epik_Ionization_Penalty_Charging>
0.104106

> <r_epik_Ionization_Penalty_Neutral>
3.94675e-16

> <r_epik_State_Penalty>
0.0940182

> <r_epik_Charging_Adjusted_Penalty>
0.198124

> <i_epik_Tot_Q>
0

> <i_epik_Tot_abs_Q>
0

> <r_epik_Metal_State_Penalty>
3.05314

> <b_epik_Metal_Only>
0

> <s_epik_Chemistry_Notes>
This compound has an ester and may undergo hydrolysis at high or low pH. This compound contains an acetal/aminal-like group ( X-CH(R)-Y where X, Y are N, S, or O) that may be acid/base labile, releasing an aldehyde.

> <s_lp_Force_Field>
OPLS_2005

> <r_lp_Energy>
24.0333

> <b_lp_Chiralities_Consistent>
1

> <s_lp_Variant>
AV-unprocessed.smi:37-8

> <Gold.Version>
5.8.1

> <Gold.Id.Protein>
6NUR|6NUR_protein|mol2

> <Gold.PLP.Fitness>
47.4571

> <Gold.PLP.PLP>
-38.4272

> <Gold.PLP.part.hbond>
-4.0000

> <Gold.PLP.part.metal>
0.0000

> <Gold.PLP.part.buried>
-7.2046

> <Gold.PLP.part.nonpolar>
-29.9516

> <Gold.PLP.part.repulsive>
2.4771

> <Gold.PLP.ligand.clash>
0.0000

> <Gold.PLP.ligand.torsion>
1.5802

> <Gold.PLP.Chemscore.Hbond>
3.9840

> <Gold.PLP.Chemscore.CHOScore>
0.0000

> <Gold.PLP.Chemscore.Metal>
0.0000

> <Gold.Chemscore.Hbonds>
donor molecule, donor type, donor heavy atom, donor atom, acceptor molecule, acceptor atom, score
      L1  H    16    27       P1  7948  1.00
      P1  H  6896  6907       L1    24  0.94
      P1  H  7997  8008       L1     8  0.86
      P1  H 10752 10763       L1    18  1.00

> <Gold.PLP.Chemscore.Internal.Correction>
0.2383

> <Gold.Rescore>
     Score         DG    S(hbond)    S(metal)    S(lipo)     H(rot)  DE(clash)    DE(int)     intcor
     13.06     -14.84       3.10        0.00      64.42       3.33       0.45       1.33       ----

> <Gold.Chemscore.Fitness>
13.0602

> <Gold.Chemscore.DG>
-14.8373

> <Gold.Chemscore.ZeroCoef>
-5.4800

> <Gold.Chemscore.Hbond>
3.0974

> <Gold.Chemscore.Metal>
0.0000

> <Gold.Chemscore.Lipo>
64.4227

> <Gold.Chemscore.Internal_Hbond>
0.0000

> <Gold.Chemscore.DEClash>
0.4462

> <Gold.Chemscore.DEInternal>
1.3308

> <Gold.Chemscore.Rot>
3.3303

> <Gold.Chemscore.Internal.Correction>
   9.000000E+99

> <Gold.Chemscore.Hbonds>
donor molecule, donor type, donor heavy atom, donor atom, acceptor molecule, acceptor atom, score
      L1  H    16    27       P1  7948  0.77
      P1  H  6896  6907       L1    24  0.87
      P1  H  7997  8008       L1     8  0.17
      P1  H 10752 10763       L1    18  1.00

> <Gold.Chemscore.Hbond.Weighted>
-10.3454

> <Gold.Chemscore.Metal.Weighted>
-0.0000

> <Gold.Chemscore.Lipo.Weighted>
-7.5375

> <Gold.Chemscore.Internal_Hbond.Weighted>
0.0000

> <Gold.Chemscore.DEClash.Weighted>
0.4462

> <Gold.Chemscore.DEInternal.Weighted>
1.3308

> <Gold.Chemscore.Rot.Weighted>
8.5256

> <Gold.Chemscore.Internal.Correction.Weighted>
   9.000000E+99

> <Gold.Protein.RotatedTorsions>
[ 6907 6896 6895 6894 ] final   69.77 input  -60.11 | X-H torsion
[ 7974 7965 7964 7962 ] final   65.17 input  175.53 | X-H torsion
[ 8008 7997 7996 7995 ] final  -81.55 input   59.86 | X-H torsion
[ 10167 10162 10161 10158 ] final   -7.03 input  -65.29 | X-H torsion
[ 10718 10713 10712 10709 ] final -150.68 input   66.30 | X-H torsion
[ 10763 10752 10751 10750 ] final   66.52 input  -60.55 | X-H torsion
[ 11005 11000 10999 10996 ] final   30.44 input  -57.11 | X-H torsion

> <Gold.Protein.ActiveResidues>
 VAL166  LYS551  ARG553  GLY616  TRP617  ASP618  TYR619  PRO620  LYS621  CYS622 
 ASP623  PHE694  ASN695  SER759  ASP760  ASP761  ALA762  ILE779  LEU786  VAL792 
 PHE793  MET794  SER795  GLU796  ALA797  LYS798  CYS799  TRP800  GLU811  SER814 

> <Gold.Protein.RotatedAtoms>
  152.4707  134.4967  159.9711 H   0  0  0  0  0  0  0  0  0  0  0  0  # atno 6907 bound_to 6896
  151.4995  133.3501  159.2874 H   0  0  0  0  0  0  0  0  0  0  0  0  # atno 6908 bound_to 6896
  150.8715  134.8118  159.7220 H   0  0  0  0  0  0  0  0  0  0  0  0  # atno 6909 bound_to 6896
  145.8416  139.3199  143.0928 H   0  0  0  0  0  0  0  0  0  0  0  0  # atno 7974 bound_to 7965
  154.5995  140.0646  156.9348 H   0  0  0  0  0  0  0  0  0  0  0  0  # atno 8008 bound_to 7997
  155.2157  140.3326  155.4304 H   0  0  0  0  0  0  0  0  0  0  0  0  # atno 8009 bound_to 7997
  156.2309  140.1840  156.7230 H   0  0  0  0  0  0  0  0  0  0  0  0  # atno 8010 bound_to 7997
  140.7016  143.6127  150.8688 H   0  0  0  0  0  0  0  0  0  0  0  0  # atno 10167 bound_to 10162
  156.4493  130.8160  151.2391 H   0  0  0  0  0  0  0  0  0  0  0  0  # atno 10718 bound_to 10713
  153.0144  135.5317  154.6837 H   0  0  0  0  0  0  0  0  0  0  0  0  # atno 10763 bound_to 10752
  154.5990  135.2866  155.0557 H   0  0  0  0  0  0  0  0  0  0  0  0  # atno 10764 bound_to 10752
  154.1622  135.6546  153.5041 H   0  0  0  0  0  0  0  0  0  0  0  0  # atno 10765 bound_to 10752
  140.2944  134.2828  155.7768 H   0  0  0  0  0  0  0  0  0  0  0  0  # atno 11005 bound_to 11000
  145.9458  140.8945  143.0284 LP  0  0  0  0  0  0  0  0  0  0  0  0  # atno 17320 bound_to 7965
  144.6733  140.1612  143.7422 LP  0  0  0  0  0  0  0  0  0  0  0  0  # atno 17321 bound_to 7965
  139.9850  143.5910  152.2930 LP  0  0  0  0  0  0  0  0  0  0  0  0  # atno 17342 bound_to 10162
  139.6544  144.7662  151.2084 LP  0  0  0  0  0  0  0  0  0  0  0  0  # atno 17343 bound_to 10162
  157.7503  131.0143  150.3458 LP  0  0  0  0  0  0  0  0  0  0  0  0  # atno 17370 bound_to 10713
  156.3833  130.3884  149.7085 LP  0  0  0  0  0  0  0  0  0  0  0  0  # atno 17371 bound_to 10713
  141.2140  133.7606  156.9673 LP  0  0  0  0  0  0  0  0  0  0  0  0  # atno 17394 bound_to 11000
  140.1166  134.9443  157.2143 LP  0  0  0  0  0  0  0  0  0  0  0  0  # atno 17395 bound_to 11000

$$$$
