AV-unprocessed.smi:2474|AV-procd|sdf|9751|dock10
  -GOLD-   2272013393D 1   1.00000     0.00000
 Structure written by MMmdl.
 40 41  0  0  0  0  0  0  0  0  1 V2000
  151.3490  136.5802  156.1984 C   0  0  0  0  0  0  0  0  0  0  0  0
  150.6955  137.6365  155.3741 C   0  0  0  0  0  0  0  0  0  0  0  0
  151.2756  138.7539  154.8265 C   0  0  0  0  0  0  0  0  0  0  0  0
  150.3845  139.5631  154.1189 N   0  0  0  0  0  0  0  0  0  0  0  0
  149.1398  139.0771  154.1196 C   0  0  0  0  0  0  0  0  0  0  0  0
  147.9685  139.7834  153.5039 C   0  0  2  0  0  0  0  0  0  0  0  0
  147.7536  141.1791  154.1071 C   0  0  0  0  0  0  0  0  0  0  0  0
  146.6808  138.9283  153.4878 C   0  0  0  0  0  0  0  0  0  0  0  0
  146.8866  137.6428  152.8232 N   0  0  0  0  0  0  0  0  0  0  0  0
  145.9392  136.7176  152.6147 C   0  0  0  0  0  0  0  0  0  0  0  0
  144.7420  136.8874  152.8452 O   0  0  0  0  0  0  0  0  0  0  0  0
  146.4629  135.5620  152.1840 N   0  0  0  0  0  0  0  0  0  0  0  0
  145.7212  134.3140  152.0337 C   0  0  2  0  0  0  0  0  0  0  0  0
  146.6994  133.1509  151.7583 C   0  0  0  0  0  0  0  0  0  0  0  0
  145.9888  131.7945  151.6346 C   0  0  0  0  0  0  0  0  0  0  0  0
  144.9765  131.7678  150.4811 C   0  0  0  0  0  0  0  0  0  0  0  0
  143.6582  132.9865  150.7361 S   0  0  0  0  0  0  0  0  0  0  0  0
  144.6882  134.4702  150.9045 C   0  0  0  0  0  0  0  0  0  0  0  0
  148.9946  137.5579  154.9984 S   0  0  0  0  0  0  0  0  0  0  0  0
  152.4041  136.8034  156.3581 H   0  0  0  0  0  0  0  0  0  0  0  0
  151.2805  135.6091  155.7076 H   0  0  0  0  0  0  0  0  0  0  0  0
  150.8709  136.5017  157.1751 H   0  0  0  0  0  0  0  0  0  0  0  0
  152.3101  139.0550  154.8979 H   0  0  0  0  0  0  0  0  0  0  0  0
  148.2364  139.9498  152.4596 H   0  0  0  0  0  0  0  0  0  0  0  0
  148.6526  141.7891  154.0147 H   0  0  0  0  0  0  0  0  0  0  0  0
  147.4986  141.1187  155.1655 H   0  0  0  0  0  0  0  0  0  0  0  0
  146.9440  141.7047  153.6005 H   0  0  0  0  0  0  0  0  0  0  0  0
  146.3136  138.7807  154.5050 H   0  0  0  0  0  0  0  0  0  0  0  0
  145.8912  139.4587  152.9549 H   0  0  0  0  0  0  0  0  0  0  0  0
  147.8392  137.4030  152.5904 H   0  0  0  0  0  0  0  0  0  0  0  0
  147.4584  135.5215  152.0226 H   0  0  0  0  0  0  0  0  0  0  0  0
  145.1816  134.1144  152.9616 H   0  0  0  0  0  0  0  0  0  0  0  0
  147.2674  133.3499  150.8486 H   0  0  0  0  0  0  0  0  0  0  0  0
  147.4323  133.0861  152.5637 H   0  0  0  0  0  0  0  0  0  0  0  0
  146.7337  131.0139  151.4775 H   0  0  0  0  0  0  0  0  0  0  0  0
  145.4873  131.5534  152.5727 H   0  0  0  0  0  0  0  0  0  0  0  0
  145.4741  131.9746  149.5330 H   0  0  0  0  0  0  0  0  0  0  0  0
  144.5260  130.7788  150.3972 H   0  0  0  0  0  0  0  0  0  0  0  0
  144.0331  135.3192  151.1022 H   0  0  0  0  0  0  0  0  0  0  0  0
  145.1852  134.6640  149.9531 H   0  0  0  0  0  0  0  0  0  0  0  0
  1  2  1  0  0  0  0
  1 20  1  0  0  0  0
  1 21  1  0  0  0  0
  1 22  1  0  0  0  0
  2 19  1  0  0  0  0
  2  3  2  0  0  0  0
  3  4  1  0  0  0  0
  3 23  1  0  0  0  0
  4  5  2  0  0  0  0
  5  6  1  0  0  0  0
  5 19  1  0  0  0  0
  6  7  1  0  0  0  0
  6  8  1  0  0  0  0
  6 24  1  0  0  0  0
  7 25  1  0  0  0  0
  7 26  1  0  0  0  0
  7 27  1  0  0  0  0
  8  9  1  0  0  0  0
  8 28  1  0  0  0  0
  8 29  1  0  0  0  0
  9 10  1  0  0  0  0
  9 30  1  0  0  0  0
 10 11  2  0  0  0  0
 10 12  1  0  0  0  0
 12 13  1  0  0  0  0
 12 31  1  0  0  0  0
 13 18  1  0  0  0  0
 13 14  1  0  0  0  0
 13 32  1  0  0  0  0
 14 15  1  0  0  0  0
 14 33  1  0  0  0  0
 14 34  1  0  0  0  0
 15 16  1  0  0  0  0
 15 35  1  0  0  0  0
 15 36  1  0  0  0  0
 16 17  1  0  0  0  0
 16 37  1  0  0  0  0
 16 38  1  0  0  0  0
 17 18  1  0  0  0  0
 18 39  1  0  0  0  0
 18 40  1  0  0  0  0
M  END
> <s_m_source_file>
AV-unprocessed.smi

> <i_m_source_file_index>
2474

> <i_lp_mmshare_version>
43012

> <i_f3d_flags>
0

> <s_epik_input>
W0NIM11jMVtjSF1uYyhzMSlbQ0BIXShbQ0gzXSlbQ0gyXVtOSF1DKD1PKVtOSF1bQ0BASF0yW0NIMl1bQ0gyXVtDSDJdU1tDSDJdMg==

> <s_epik_cmdline>
J2VwaWtfcHl0aG9uJywgJy1waCcsICc3LjAnLCAnLXRuJywgJzgnLCAnLW1hJywgJzIwMCcsICctbWV0YWxfYmluZGluZycsICctaW1hZScsICc8aW5maWxlLm1hZT4nLCAnLW9tYWUnLCAnPG91dGZpbGUubWFlPic=

> <r_epik_Ionization_Penalty>
0.000644338

> <r_epik_Ionization_Penalty_Charging>
0

> <r_epik_Ionization_Penalty_Neutral>
0.000644338

> <r_epik_State_Penalty>
0.000374131

> <r_epik_Charging_Adjusted_Penalty>
0.000374131

> <i_epik_Tot_Q>
0

> <i_epik_Tot_abs_Q>
0

> <r_epik_Metal_State_Penalty>
-0

> <b_epik_Metal_Only>
0

> <s_lp_Force_Field>
OPLS_2005

> <r_lp_Energy>
-6.83814

> <b_lp_Chiralities_Consistent>
1

> <s_lp_Variant>
AV-unprocessed.smi:2474-1

> <Gold.Version>
5.8.1

> <Gold.Id.Protein>
6NUR|6NUR_protein|mol2

> <Gold.PLP.Fitness>
40.5289

> <Gold.PLP.PLP>
-31.9972

> <Gold.PLP.part.hbond>
-3.0000

> <Gold.PLP.part.metal>
0.0000

> <Gold.PLP.part.buried>
-2.1979

> <Gold.PLP.part.nonpolar>
-27.8373

> <Gold.PLP.part.repulsive>
0.7760

> <Gold.PLP.ligand.clash>
0.0000

> <Gold.PLP.ligand.torsion>
0.1640

> <Gold.PLP.Chemscore.Hbond>
2.9100

> <Gold.PLP.Chemscore.CHOScore>
0.0000

> <Gold.PLP.Chemscore.Metal>
0.0000

> <Gold.Chemscore.Hbonds>
donor molecule, donor type, donor heavy atom, donor atom, acceptor molecule, acceptor atom, score
      L1  H     9    30       P1  7948  0.96
      L1  H    12    31       P1  7948  1.00
      P1  H  7989  7998       L1     4  0.95

> <Gold.PLP.Chemscore.Internal.Correction>
0.1297

> <Gold.Rescore>
     Score         DG    S(hbond)    S(metal)    S(lipo)     H(rot)  DE(clash)    DE(int)     intcor
     19.27     -20.24       2.63        0.00      83.03       1.46       0.68       0.28       ----

> <Gold.Chemscore.Fitness>
19.2670

> <Gold.Chemscore.DG>
-20.2358

> <Gold.Chemscore.ZeroCoef>
-5.4800

> <Gold.Chemscore.Hbond>
2.6296

> <Gold.Chemscore.Metal>
0.0000

> <Gold.Chemscore.Lipo>
83.0293

> <Gold.Chemscore.Internal_Hbond>
0.0000

> <Gold.Chemscore.DEClash>
0.6850

> <Gold.Chemscore.DEInternal>
0.2839

> <Gold.Chemscore.Rot>
1.4616

> <Gold.Chemscore.Internal.Correction>
   9.000000E+99

> <Gold.Chemscore.Hbonds>
donor molecule, donor type, donor heavy atom, donor atom, acceptor molecule, acceptor atom, score
      L1  H     9    30       P1  7948  0.92
      L1  H    12    31       P1  7948  0.97
      P1  H  7989  7998       L1     4  0.21

> <Gold.Chemscore.Hbond.Weighted>
-8.7830

> <Gold.Chemscore.Metal.Weighted>
-0.0000

> <Gold.Chemscore.Lipo.Weighted>
-9.7144

> <Gold.Chemscore.Internal_Hbond.Weighted>
0.0000

> <Gold.Chemscore.DEClash.Weighted>
0.6850

> <Gold.Chemscore.DEInternal.Weighted>
0.2839

> <Gold.Chemscore.Rot.Weighted>
3.7416

> <Gold.Chemscore.Internal.Correction.Weighted>
   9.000000E+99

> <Gold.Protein.RotatedTorsions>
[ 6907 6896 6895 6894 ] final  -93.01 input  -60.11 | X-H torsion
[ 7974 7965 7964 7962 ] final   63.48 input  175.53 | X-H torsion
[ 8008 7997 7996 7995 ] final    4.90 input   59.86 | X-H torsion
[ 10167 10162 10161 10158 ] final -113.21 input  -65.29 | X-H torsion
[ 10718 10713 10712 10709 ] final  -12.30 input   66.30 | X-H torsion
[ 10763 10752 10751 10750 ] final   93.02 input  -60.55 | X-H torsion
[ 11005 11000 10999 10996 ] final   21.45 input  -57.11 | X-H torsion

> <Gold.Protein.ActiveResidues>
 VAL166  LYS551  ARG553  GLY616  TRP617  ASP618  TYR619  PRO620  LYS621  CYS622 
 ASP623  PHE694  ASN695  SER759  ASP760  ASP761  ALA762  ILE779  LEU786  VAL792 
 PHE793  MET794  SER795  GLU796  ALA797  LYS798  CYS799  TRP800  GLU811  SER814 

> <Gold.Protein.RotatedAtoms>
  150.6915  134.2033  159.4330 H   0  0  0  0  0  0  0  0  0  0  0  0  # atno 6907 bound_to 6896
  151.9998  134.9932  160.0574 H   0  0  0  0  0  0  0  0  0  0  0  0  # atno 6908 bound_to 6896
  152.1589  133.4534  159.4888 H   0  0  0  0  0  0  0  0  0  0  0  0  # atno 6909 bound_to 6896
  145.8614  139.3317  143.0817 H   0  0  0  0  0  0  0  0  0  0  0  0  # atno 7974 bound_to 7965
  154.7216  140.2713  155.6536 H   0  0  0  0  0  0  0  0  0  0  0  0  # atno 8008 bound_to 7997
  156.2825  140.2733  156.1814 H   0  0  0  0  0  0  0  0  0  0  0  0  # atno 8009 bound_to 7997
  155.0499  140.0371  157.2530 H   0  0  0  0  0  0  0  0  0  0  0  0  # atno 8010 bound_to 7997
  140.1143  143.4499  152.1732 H   0  0  0  0  0  0  0  0  0  0  0  0  # atno 10167 bound_to 10162
  156.6467  130.4943  149.6076 H   0  0  0  0  0  0  0  0  0  0  0  0  # atno 10718 bound_to 10713
  153.2257  135.4340  155.0539 H   0  0  0  0  0  0  0  0  0  0  0  0  # atno 10763 bound_to 10752
  154.8272  135.3367  154.6862 H   0  0  0  0  0  0  0  0  0  0  0  0  # atno 10764 bound_to 10752
  153.7291  135.7012  153.5050 H   0  0  0  0  0  0  0  0  0  0  0  0  # atno 10765 bound_to 10752
  140.3915  134.1814  155.7662 H   0  0  0  0  0  0  0  0  0  0  0  0  # atno 11005 bound_to 11000
  145.9244  140.9093  143.0389 LP  0  0  0  0  0  0  0  0  0  0  0  0  # atno 17320 bound_to 7965
  144.6726  140.1332  143.7442 LP  0  0  0  0  0  0  0  0  0  0  0  0  # atno 17321 bound_to 7965
  139.5602  144.7400  151.4177 LP  0  0  0  0  0  0  0  0  0  0  0  0  # atno 17342 bound_to 10162
  140.6908  143.7866  150.7252 LP  0  0  0  0  0  0  0  0  0  0  0  0  # atno 17343 bound_to 10162
  156.2117  130.6682  151.1276 LP  0  0  0  0  0  0  0  0  0  0  0  0  # atno 17370 bound_to 10713
  157.7154  131.0712  150.6346 LP  0  0  0  0  0  0  0  0  0  0  0  0  # atno 17371 bound_to 10713
  141.1889  133.8250  157.0976 LP  0  0  0  0  0  0  0  0  0  0  0  0  # atno 17394 bound_to 11000
  140.0403  134.9857  157.0950 LP  0  0  0  0  0  0  0  0  0  0  0  0  # atno 17395 bound_to 11000

$$$$
