AV-unprocessed.smi:2156|AV-procd|sdf|8779|dock10
  -GOLD-   2272011563D 1   1.00000     0.00000
 Structure written by MMmdl.
 34 34  0  0  0  0  0  0  0  0  1 V2000
  150.3498  145.0802  160.0097 C   0  0  0  0  0  0  0  0  0  0  0  0
  151.6654  144.9123  159.2419 C   0  0  0  0  0  0  0  0  0  0  0  0
  152.6428  143.9566  159.9484 C   0  0  0  0  0  0  0  0  0  0  0  0
  152.3126  142.4627  159.7556 C   0  0  2  0  0  0  0  0  0  0  0  0
  153.4945  141.5681  160.1537 C   0  0  0  0  0  0  0  0  0  0  0  0
  151.9529  142.1856  158.3657 N   0  0  0  0  0  0  0  0  0  0  0  0
  150.8241  141.5930  157.9450 C   0  0  0  0  0  0  0  0  0  0  0  0
  149.9318  141.2172  158.7066 O   0  0  0  0  0  0  0  0  0  0  0  0
  150.6808  141.4309  156.4248 C   0  0  0  0  0  0  0  0  0  0  0  0
  150.8392  140.0408  155.9733 N   0  0  0  0  0  0  0  0  0  0  0  0
  149.8817  139.4576  155.1554 C   0  0  0  0  0  0  0  0  0  0  0  0
  149.9580  138.1806  154.7117 C   0  0  0  0  0  0  0  0  0  0  0  0
  151.0861  137.3347  155.0865 C   0  0  0  0  0  0  0  0  0  0  0  0
  151.2453  136.1681  154.7342 O   0  0  0  0  0  0  0  0  0  0  0  0
  152.0262  137.9562  155.9127 N   0  0  0  0  0  0  0  0  0  0  0  0
  151.9526  139.2711  156.3752 C   0  0  0  0  0  0  0  0  0  0  0  0
  152.8354  139.7201  157.1054 O   0  0  0  0  0  0  0  0  0  0  0  0
  152.8237  137.4083  156.2009 H   0  0  0  0  0  0  0  0  0  0  0  0
  149.6771  145.7568  159.4827 H   0  0  0  0  0  0  0  0  0  0  0  0
  150.5245  145.4920  161.0039 H   0  0  0  0  0  0  0  0  0  0  0  0
  149.8362  144.1254  160.1269 H   0  0  0  0  0  0  0  0  0  0  0  0
  151.4516  144.5394  158.2396 H   0  0  0  0  0  0  0  0  0  0  0  0
  152.1247  145.8926  159.1145 H   0  0  0  0  0  0  0  0  0  0  0  0
  153.6584  144.1547  159.6024 H   0  0  0  0  0  0  0  0  0  0  0  0
  152.6385  144.1824  161.0157 H   0  0  0  0  0  0  0  0  0  0  0  0
  151.4816  142.2089  160.4161 H   0  0  0  0  0  0  0  0  0  0  0  0
  153.7714  141.7243  161.1968 H   0  0  0  0  0  0  0  0  0  0  0  0
  154.3738  141.7741  159.5424 H   0  0  0  0  0  0  0  0  0  0  0  0
  153.2452  140.5131  160.0357 H   0  0  0  0  0  0  0  0  0  0  0  0
  152.6221  142.4671  157.6638 H   0  0  0  0  0  0  0  0  0  0  0  0
  149.6997  141.8100  156.1356 H   0  0  0  0  0  0  0  0  0  0  0  0
  151.3998  142.0771  155.9171 H   0  0  0  0  0  0  0  0  0  0  0  0
  149.0256  140.0454  154.8563 H   0  0  0  0  0  0  0  0  0  0  0  0
  149.1796  137.7825  154.0770 H   0  0  0  0  0  0  0  0  0  0  0  0
  1  2  1  0  0  0  0
  1 19  1  0  0  0  0
  1 20  1  0  0  0  0
  1 21  1  0  0  0  0
  2  3  1  0  0  0  0
  2 22  1  0  0  0  0
  2 23  1  0  0  0  0
  3  4  1  0  0  0  0
  3 24  1  0  0  0  0
  3 25  1  0  0  0  0
  4  5  1  0  0  0  0
  4  6  1  0  0  0  0
  4 26  1  0  0  0  0
  5 27  1  0  0  0  0
  5 28  1  0  0  0  0
  5 29  1  0  0  0  0
  6  7  1  0  0  0  0
  6 30  1  0  0  0  0
  7  8  2  0  0  0  0
  7  9  1  0  0  0  0
  9 10  1  0  0  0  0
  9 31  1  0  0  0  0
  9 32  1  0  0  0  0
 10 16  1  0  0  0  0
 10 11  1  0  0  0  0
 11 12  2  0  0  0  0
 11 33  1  0  0  0  0
 12 13  1  0  0  0  0
 12 34  1  0  0  0  0
 13 14  2  0  0  0  0
 13 15  1  0  0  0  0
 15 18  1  0  0  0  0
 15 16  1  0  0  0  0
 16 17  2  0  0  0  0
M  END
> <s_m_source_file>
AV-unprocessed.smi

> <i_m_source_file_index>
2156

> <i_lp_mmshare_version>
43012

> <i_f3d_flags>
0

> <s_epik_input>
W0NIM11bQ0gyXVtDSDJdW0NASF0oW0NIM10pW05IXUMoPU8pW0NIMl1uMVtjSF1bY0hdYyg9TylbbkhdYzE9Tw==

> <s_epik_cmdline>
J2VwaWtfcHl0aG9uJywgJy1waCcsICc3LjAnLCAnLXRuJywgJzgnLCAnLW1hJywgJzIwMCcsICctbWV0YWxfYmluZGluZycsICctaW1hZScsICc8aW5maWxlLm1hZT4nLCAnLW9tYWUnLCAnPG91dGZpbGUubWFlPic=

> <r_lp_tautomer_probability>
0.999537

> <r_epik_Ionization_Penalty>
0.00324917

> <r_epik_Ionization_Penalty_Charging>
0.00324916

> <r_epik_Ionization_Penalty_Neutral>
1.93017e-08

> <r_epik_State_Penalty>
0.00229371

> <r_epik_Charging_Adjusted_Penalty>
0.00554286

> <i_epik_Tot_Q>
0

> <i_epik_Tot_abs_Q>
0

> <r_epik_Metal_State_Penalty>
0.364744

> <b_epik_Metal_Only>
0

> <s_lp_Force_Field>
OPLS_2005

> <r_lp_Energy>
3.31869

> <b_lp_Chiralities_Consistent>
1

> <s_lp_Variant>
AV-unprocessed.smi:2156-1

> <Gold.Version>
5.8.1

> <Gold.Id.Protein>
6NUR|6NUR_protein|mol2

> <Gold.PLP.Fitness>
43.3942

> <Gold.PLP.PLP>
-38.3028

> <Gold.PLP.part.hbond>
-2.0000

> <Gold.PLP.part.metal>
0.0000

> <Gold.PLP.part.buried>
-4.7656

> <Gold.PLP.part.nonpolar>
-31.7596

> <Gold.PLP.part.repulsive>
0.4075

> <Gold.PLP.ligand.clash>
0.0000

> <Gold.PLP.ligand.torsion>
0.4707

> <Gold.PLP.Chemscore.Hbond>
2.0000

> <Gold.PLP.Chemscore.CHOScore>
0.0000

> <Gold.PLP.Chemscore.Metal>
0.0000

> <Gold.Chemscore.Hbonds>
donor molecule, donor type, donor heavy atom, donor atom, acceptor molecule, acceptor atom, score
      P1  H  7997  8009       L1    17  1.00
      P1  H 10752 10765       L1    14  1.00

> <Gold.PLP.Chemscore.Internal.Correction>
0.0328

> <Gold.Rescore>
     Score         DG    S(hbond)    S(metal)    S(lipo)     H(rot)  DE(clash)    DE(int)     intcor
     12.12     -15.11       1.87        0.00      77.07       2.19       0.18       2.81       ----

> <Gold.Chemscore.Fitness>
12.1198

> <Gold.Chemscore.DG>
-15.1080

> <Gold.Chemscore.ZeroCoef>
-5.4800

> <Gold.Chemscore.Hbond>
1.8651

> <Gold.Chemscore.Metal>
0.0000

> <Gold.Chemscore.Lipo>
77.0710

> <Gold.Chemscore.Internal_Hbond>
0.0000

> <Gold.Chemscore.DEClash>
0.1799

> <Gold.Chemscore.DEInternal>
2.8084

> <Gold.Chemscore.Rot>
2.1949

> <Gold.Chemscore.Internal.Correction>
   9.000000E+99

> <Gold.Chemscore.Hbonds>
donor molecule, donor type, donor heavy atom, donor atom, acceptor molecule, acceptor atom, score
      P1  H  7997  8009       L1    17  0.98
      P1  H 10752 10765       L1    14  0.94

> <Gold.Chemscore.Hbond.Weighted>
-6.2296

> <Gold.Chemscore.Metal.Weighted>
-0.0000

> <Gold.Chemscore.Lipo.Weighted>
-9.0173

> <Gold.Chemscore.Internal_Hbond.Weighted>
0.0000

> <Gold.Chemscore.DEClash.Weighted>
0.1799

> <Gold.Chemscore.DEInternal.Weighted>
2.8084

> <Gold.Chemscore.Rot.Weighted>
5.6188

> <Gold.Chemscore.Internal.Correction.Weighted>
   9.000000E+99

> <Gold.Protein.RotatedTorsions>
[ 6907 6896 6895 6894 ] final  -75.73 input  -60.11 | X-H torsion
[ 7974 7965 7964 7962 ] final   37.48 input  175.53 | X-H torsion
[ 8008 7997 7996 7995 ] final -169.41 input   59.86 | X-H torsion
[ 10167 10162 10161 10158 ] final   96.34 input  -65.29 | X-H torsion
[ 10718 10713 10712 10709 ] final  -54.31 input   66.30 | X-H torsion
[ 10763 10752 10751 10750 ] final  177.62 input  -60.55 | X-H torsion
[ 11005 11000 10999 10996 ] final  151.15 input  -57.11 | X-H torsion

> <Gold.Protein.ActiveResidues>
 VAL166  LYS551  ARG553  GLY616  TRP617  ASP618  TYR619  PRO620  LYS621  CYS622 
 ASP623  PHE694  ASN695  SER759  ASP760  ASP761  ALA762  ILE779  LEU786  VAL792 
 PHE793  MET794  SER795  GLU796  ALA797  LYS798  CYS799  TRP800  GLU811  SER814 

> <Gold.Protein.RotatedAtoms>
  150.7049  134.4677  159.5410 H   0  0  0  0  0  0  0  0  0  0  0  0  # atno 6907 bound_to 6896
  152.2339  134.8292  160.0479 H   0  0  0  0  0  0  0  0  0  0  0  0  # atno 6908 bound_to 6896
  151.9098  133.3523  159.3896 H   0  0  0  0  0  0  0  0  0  0  0  0  # atno 6909 bound_to 6896
  146.1134  139.5889  142.9337 H   0  0  0  0  0  0  0  0  0  0  0  0  # atno 7974 bound_to 7965
  155.9046  140.1047  157.1325 H   0  0  0  0  0  0  0  0  0  0  0  0  # atno 8008 bound_to 7997
  154.4031  140.1286  156.4544 H   0  0  0  0  0  0  0  0  0  0  0  0  # atno 8009 bound_to 7997
  155.7382  140.3467  155.5094 H   0  0  0  0  0  0  0  0  0  0  0  0  # atno 8010 bound_to 7997
  139.7903  144.6854  150.9901 H   0  0  0  0  0  0  0  0  0  0  0  0  # atno 10167 bound_to 10162
  156.1461  130.4153  150.0021 H   0  0  0  0  0  0  0  0  0  0  0  0  # atno 10718 bound_to 10713
  154.4969  135.2781  155.1452 H   0  0  0  0  0  0  0  0  0  0  0  0  # atno 10763 bound_to 10752
  154.3101  135.6230  153.5465 H   0  0  0  0  0  0  0  0  0  0  0  0  # atno 10764 bound_to 10752
  152.9896  135.5717  154.5403 H   0  0  0  0  0  0  0  0  0  0  0  0  # atno 10765 bound_to 10752
  140.1193  134.8874  157.2050 H   0  0  0  0  0  0  0  0  0  0  0  0  # atno 11005 bound_to 11000
  145.5617  141.0403  143.2223 LP  0  0  0  0  0  0  0  0  0  0  0  0  # atno 17320 bound_to 7965
  144.7531  139.7142  143.7265 LP  0  0  0  0  0  0  0  0  0  0  0  0  # atno 17321 bound_to 7965
  140.7820  143.4388  151.0583 LP  0  0  0  0  0  0  0  0  0  0  0  0  # atno 17342 bound_to 10162
  139.8065  143.8011  152.3168 LP  0  0  0  0  0  0  0  0  0  0  0  0  # atno 17343 bound_to 10162
  156.7893  130.9250  151.3646 LP  0  0  0  0  0  0  0  0  0  0  0  0  # atno 17370 bound_to 10713
  157.6618  130.8972  149.9846 LP  0  0  0  0  0  0  0  0  0  0  0  0  # atno 17371 bound_to 10713
  140.2986  134.3158  155.7296 LP  0  0  0  0  0  0  0  0  0  0  0  0  # atno 17394 bound_to 11000
  141.2148  133.7578  156.9607 LP  0  0  0  0  0  0  0  0  0  0  0  0  # atno 17395 bound_to 11000

$$$$
