#       Name:                AV-unprocessed.smi:2822
#       Creating user name   scv26
#       Creation time:       Fri Mar 27 15:30:51 2020


#       File generated by GOLD software.
#

@<TRIPOS>MOLECULE
AV-unprocessed.smi:2822
    43    45     1
SMALL
NO_CHARGES


@<TRIPOS>ATOM
      1 ****        -3.3784   1.5701  -0.5067 Cl             1 S1                 0.0000
      2 ****        -2.4449   3.0257  -0.4910 C.ar           1 S1                 0.0000
      3 ****        -3.1072   4.2707  -0.4800 C.ar           1 S1                 0.0000
      4 ****        -2.3926   5.4158  -0.4664 N.pl3          1 S1                 1.0000
      5 ****        -1.0429   5.4329  -0.4623 C.ar           1 S1                 0.0000
      6 ****        -0.3238   4.2202  -0.4719 C.ar           1 S1                 0.0000
      7 ****        -1.0286   2.9907  -0.4864 C.ar           1 S1                 0.0000
      8 ****        -0.3752   1.7493  -0.4960 N.pl3          1 S1                 0.0000
      9 ****         1.0772   1.6456  -0.4690 C.3            1 S1                 0.0000
     10 ****         1.5560   0.1842  -0.4260 C.3            1 S1                 0.0000
     11 ****         1.0653  -0.5884   0.8154 C.3            1 S1                 0.0000
     12 ****         1.5137  -2.0019   0.7610 N.4            1 S1                 1.0000
     13 ****         1.1081  -2.8063   1.9436 C.3            1 S1                 0.0000
     14 ****        -0.3879  -3.1757   1.9130 C.3            1 S1                 0.0000
     15 ****        -0.7594  -3.8720   0.5966 C.3            1 S1                 0.0000
     16 ****        -0.3348  -3.0134  -0.6034 C.3            1 S1                 0.0000
     17 ****         1.1671  -2.6611  -0.5287 C.3            1 S1                 0.0000
     18 ****         1.6370  -1.7958  -1.7147 C.3            1 S1                 0.0000
     19 ****         1.1159  -0.4765  -1.6075 O.3            1 S1                 0.0000
     20 ****        -4.1816   4.3835  -0.4817 H              1 S1                 0.0000
     21 ****        -0.5809   6.4095  -0.4520 H              1 S1                 0.0000
     22 ****         0.7554   4.2542  -0.4697 H              1 S1                 0.0000
     23 ****        -0.9211   0.9005  -0.5477 H              1 S1                 0.0000
     24 ****         1.4871   2.1381  -1.3515 H              1 S1                 0.0000
     25 ****         1.4583   2.1779   0.4034 H              1 S1                 0.0000
     26 ****         2.6475   0.1971  -0.4243 H              1 S1                 0.0000
     27 ****         1.4537  -0.1200   1.7203 H              1 S1                 0.0000
     28 ****        -0.0215  -0.5461   0.8821 H              1 S1                 0.0000
     29 ****         1.7053  -3.7190   1.9567 H              1 S1                 0.0000
     30 ****         1.3505  -2.2685   2.8609 H              1 S1                 0.0000
     31 ****        -0.6237  -3.8276   2.7546 H              1 S1                 0.0000
     32 ****        -1.0003  -2.2830   2.0423 H              1 S1                 0.0000
     33 ****        -0.2668  -4.8438   0.5446 H              1 S1                 0.0000
     34 ****        -1.8321  -4.0642   0.5615 H              1 S1                 0.0000
     35 ****        -0.5440  -3.5519  -1.5283 H              1 S1                 0.0000
     36 ****        -0.9389  -2.1061  -0.6384 H              1 S1                 0.0000
     37 ****         1.7242  -3.5985  -0.5691 H              1 S1                 0.0000
     38 ****         2.7269  -1.7576  -1.7525 H              1 S1                 0.0000
     39 ****         1.3088  -2.2322  -2.6584 H              1 S1                 0.0000
     40 ****         2.5227  -1.9604   0.7877 H              1 S1                 0.0000
     41 ****        -2.8938   6.3046  -0.4595 H              1 S1                 0.0000
     42 ****         1.4143   0.0526  -2.4019 LP             1 S1                 0.0000
     43 ****         0.1172  -0.5253  -1.5956 LP             1 S1                 0.0000
@<TRIPOS>BOND
    1    1    2 1     
    2    2    7 ar    
    3    2    3 ar    
    4    3    4 ar    
    5    3   20 1     
    6    4    5 ar    
    7    4   41 1     
    8    5    6 ar    
    9    5   21 1     
   10    6    7 ar    
   11    6   22 1     
   12    7    8 1     
   13    8    9 1     
   14    8   23 1     
   15    9   10 1     
   16    9   24 1     
   17    9   25 1     
   18   10   19 1     
   19   10   11 1     
   20   10   26 1     
   21   11   12 1     
   22   11   27 1     
   23   11   28 1     
   24   12   17 1     
   25   12   13 1     
   26   12   40 1     
   27   13   14 1     
   28   13   29 1     
   29   13   30 1     
   30   14   15 1     
   31   14   31 1     
   32   14   32 1     
   33   15   16 1     
   34   15   33 1     
   35   15   34 1     
   36   16   17 1     
   37   16   35 1     
   38   16   36 1     
   39   17   18 1     
   40   17   37 1     
   41   18   19 1     
   42   18   38 1     
   43   18   39 1     
   44   19   42 1     
   45   19   43 1     
@<TRIPOS>SUBSTRUCTURE
      1 S1             1
@<TRIPOS>SET
LONE_PAIRS      STATIC     ATOMS    <user>   **** ""
2 42 43
DONOR_HYDROGENS      STATIC     ATOMS    <user>   **** ""
3 41 23 40
ATOM$BLUE        STATIC     ATOMS    COLORGROUP SYSTEM
2 42 43
ATOM$RED        STATIC     ATOMS    COLORGROUP SYSTEM
3 41 23 40
