AV-unprocessed.smi:1629|AV-procd|sdf|6524|dock2
  -GOLD-   22720 7203D 1   1.00000     0.00000
 Structure written by MMmdl.
 44 45  0  0  0  0  0  0  0  0  3 V2000
  147.0640  134.8524  161.8789 C   0  0  0  0  0  0  0  0  0  0  0  0
  147.5698  135.9638  160.5069 S   0  0  0  0  0  0  0  0  0  0  0  0
  147.8063  137.2788  161.1243 O   0  0  0  0  0  0  0  0  0  0  0  0
  148.7184  135.3072  159.8621 O   0  0  0  0  0  0  0  0  0  0  0  0
  146.2338  135.9305  159.5882 N   0  5  0  0  0  0  0  0  0  0  0  0
  146.2803  136.4389  158.2249 C   0  0  0  0  0  0  0  0  0  0  0  0
  147.7144  136.9060  157.8540 C   0  0  0  0  0  0  0  0  0  0  0  0
  147.7786  137.6851  156.5111 C   0  0  0  0  0  0  0  0  0  0  0  0
  146.8674  138.8504  156.5370 N   0  0  0  0  0  0  0  0  0  0  0  0
  147.2184  140.1595  156.5875 C   0  0  0  0  0  0  0  0  0  0  0  0
  146.4009  141.0809  156.5659 O   0  0  0  0  0  0  0  0  0  0  0  0
  148.5411  140.3832  156.6665 N   0  0  0  0  0  0  0  0  0  0  0  0
  149.1689  141.6954  156.7641 C   0  0  0  0  0  0  0  0  0  0  0  0
  150.6983  141.5828  156.8837 C   0  0  0  0  0  0  0  0  0  0  0  0
  151.2884  142.6812  157.7458 C   0  0  0  0  0  0  0  0  0  0  0  0
  152.1724  142.4061  158.8117 C   0  0  0  0  0  0  0  0  0  0  0  0
  152.6794  143.4752  159.5797 C   0  0  0  0  0  0  0  0  0  0  0  0
  152.2915  144.7946  159.2669 C   0  0  0  0  0  0  0  0  0  0  0  0
  151.4043  145.0118  158.1929 C   0  0  0  0  0  0  0  0  0  0  0  0
  150.9401  143.9612  157.4809 N   0  3  0  0  0  0  0  0  0  0  0  0
  145.4770  138.3924  156.7163 C   0  0  0  0  0  0  0  0  0  0  0  0
  145.3158  137.6443  158.0696 C   0  0  0  0  0  0  0  0  0  0  0  0
  147.8834  134.7639  162.5915 H   0  0  0  0  0  0  0  0  0  0  0  0
  146.8227  133.8682  161.4787 H   0  0  0  0  0  0  0  0  0  0  0  0
  146.1900  135.2674  162.3796 H   0  0  0  0  0  0  0  0  0  0  0  0
  145.9733  135.6815  157.5025 H   0  0  0  0  0  0  0  0  0  0  0  0
  148.1074  137.5462  158.6456 H   0  0  0  0  0  0  0  0  0  0  0  0
  148.3820  136.0456  157.8012 H   0  0  0  0  0  0  0  0  0  0  0  0
  148.8153  137.9507  156.3059 H   0  0  0  0  0  0  0  0  0  0  0  0
  147.4934  137.0369  155.6795 H   0  0  0  0  0  0  0  0  0  0  0  0
  149.1530  139.5800  156.6749 H   0  0  0  0  0  0  0  0  0  0  0  0
  148.9042  142.2618  155.8709 H   0  0  0  0  0  0  0  0  0  0  0  0
  148.7570  142.2431  157.6135 H   0  0  0  0  0  0  0  0  0  0  0  0
  150.9759  140.6167  157.3073 H   0  0  0  0  0  0  0  0  0  0  0  0
  151.1554  141.6255  155.8939 H   0  0  0  0  0  0  0  0  0  0  0  0
  152.4582  141.3894  159.0403 H   0  0  0  0  0  0  0  0  0  0  0  0
  153.3573  143.2853  160.3990 H   0  0  0  0  0  0  0  0  0  0  0  0
  152.6687  145.6272  159.8426 H   0  0  0  0  0  0  0  0  0  0  0  0
  151.0544  145.9862  157.8844 H   0  0  0  0  0  0  0  0  0  0  0  0
  144.7651  139.2177  156.6788 H   0  0  0  0  0  0  0  0  0  0  0  0
  145.2034  137.7452  155.8800 H   0  0  0  0  0  0  0  0  0  0  0  0
  144.2849  137.3051  158.1780 H   0  0  0  0  0  0  0  0  0  0  0  0
  145.4866  138.3568  158.8783 H   0  0  0  0  0  0  0  0  0  0  0  0
  150.2993  144.1413  156.7077 H   0  0  0  0  0  0  0  0  0  0  0  0
  1  2  1  0  0  0  0
  1 23  1  0  0  0  0
  1 24  1  0  0  0  0
  1 25  1  0  0  0  0
  2  3  2  0  0  0  0
  2  4  2  0  0  0  0
  2  5  1  0  0  0  0
  5  6  1  0  0  0  0
  6 22  1  0  0  0  0
  6  7  1  0  0  0  0
  6 26  1  0  0  0  0
  7  8  1  0  0  0  0
  7 27  1  0  0  0  0
  7 28  1  0  0  0  0
  8  9  1  0  0  0  0
  8 29  1  0  0  0  0
  8 30  1  0  0  0  0
  9 10  1  0  0  0  0
  9 21  1  0  0  0  0
 10 11  2  0  0  0  0
 10 12  1  0  0  0  0
 12 13  1  0  0  0  0
 12 31  1  0  0  0  0
 13 14  1  0  0  0  0
 13 32  1  0  0  0  0
 13 33  1  0  0  0  0
 14 15  1  0  0  0  0
 14 34  1  0  0  0  0
 14 35  1  0  0  0  0
 15 20  1  0  0  0  0
 15 16  2  0  0  0  0
 16 17  1  0  0  0  0
 16 36  1  0  0  0  0
 17 18  2  0  0  0  0
 17 37  1  0  0  0  0
 18 19  1  0  0  0  0
 18 38  1  0  0  0  0
 19 20  2  0  0  0  0
 19 39  1  0  0  0  0
 20 44  1  0  0  0  0
 21 22  1  0  0  0  0
 21 40  1  0  0  0  0
 21 41  1  0  0  0  0
 22 42  1  0  0  0  0
 22 43  1  0  0  0  0
M  CHG  1   5  -1
M  CHG  1  20   1
M  END
> <s_m_source_file>
AV-unprocessed.smi

> <i_m_source_file_index>
1629

> <i_lp_mmshare_version>
43012

> <i_f3d_flags>
0

> <s_epik_input>
W0NIM11TKD1PKSg9TylbTkhdW0NIXTFbQ0gyXVtDSDJdTihbQ0gyXVtDSDJdMSlDKD1PKVtOSF1bQ0gyXVtDSDJdYzJbY0hdW2NIXVtjSF1bY0hdbjI=

> <s_epik_cmdline>
J2VwaWtfcHl0aG9uJywgJy1waCcsICc3LjAnLCAnLXRuJywgJzgnLCAnLW1hJywgJzIwMCcsICctbWV0YWxfYmluZGluZycsICctaW1hZScsICc8aW5maWxlLm1hZT4nLCAnLW9tYWUnLCAnPG91dGZpbGUubWFlPic=

> <r_epik_Ionization_Penalty>
8.25917

> <r_epik_Ionization_Penalty_Charging>
8.2591

> <r_epik_Ionization_Penalty_Neutral>
6.17235e-05

> <r_epik_State_Penalty>
8.35449

> <r_epik_Charging_Adjusted_Penalty>
16.6136

> <i_epik_Tot_Q>
0

> <i_epik_Tot_abs_Q>
2

> <r_epik_Metal_State_Penalty>
4.3175

> <b_epik_Metal_Only>
1

> <s_lp_Force_Field>
OPLS_2005

> <r_lp_Energy>
28.7999

> <b_lp_Chiralities_Consistent>
1

> <s_lp_Variant>
AV-unprocessed.smi:1629-4

> <Gold.Version>
5.8.1

> <Gold.Id.Protein>
6NUR|6NUR_protein|mol2

> <Gold.PLP.Fitness>
44.1332

> <Gold.PLP.PLP>
-30.6453

> <Gold.PLP.part.hbond>
-4.0000

> <Gold.PLP.part.metal>
0.0000

> <Gold.PLP.part.buried>
-4.0999

> <Gold.PLP.part.nonpolar>
-22.7745

> <Gold.PLP.part.repulsive>
0.0725

> <Gold.PLP.ligand.clash>
0.0000

> <Gold.PLP.ligand.torsion>
0.9783

> <Gold.PLP.Chemscore.Hbond>
4.8000

> <Gold.PLP.Chemscore.CHOScore>
0.0000

> <Gold.PLP.Chemscore.Metal>
0.0000

> <Gold.Chemscore.Hbonds>
donor molecule, donor type, donor heavy atom, donor atom, acceptor molecule, acceptor atom, score
      L1  H    20    44       P1  8028  2.00
      P1  H  6896  6907       L1     4  0.84
      P1  H  6931  6943       L1     3  0.91
      P1  H  6934  6947       L1     3  0.80

> <Gold.PLP.Chemscore.Internal.Correction>
1.0445

> <Gold.Rescore>
     Score         DG    S(hbond)    S(metal)    S(lipo)     H(rot)  DE(clash)    DE(int)     intcor
     19.82     -22.19       3.58        0.00      79.16       1.77       0.06       2.32       ----

> <Gold.Chemscore.Fitness>
19.8191

> <Gold.Chemscore.DG>
-22.1938

> <Gold.Chemscore.ZeroCoef>
-5.4800

> <Gold.Chemscore.Hbond>
3.5846

> <Gold.Chemscore.Metal>
0.0000

> <Gold.Chemscore.Lipo>
79.1646

> <Gold.Chemscore.Internal_Hbond>
0.0000

> <Gold.Chemscore.DEClash>
0.0550

> <Gold.Chemscore.DEInternal>
2.3197

> <Gold.Chemscore.Rot>
1.7661

> <Gold.Chemscore.Internal.Correction>
   9.000000E+99

> <Gold.Chemscore.Hbonds>
donor molecule, donor type, donor heavy atom, donor atom, acceptor molecule, acceptor atom, score
      L1  H    20    44       P1  8028  0.99
      P1  H  6896  6907       L1     4  0.77
      P1  H  6931  6943       L1     3  0.88
      P1  H  6934  6947       L1     3  0.80

> <Gold.Chemscore.Hbond.Weighted>
-11.9727

> <Gold.Chemscore.Metal.Weighted>
-0.0000

> <Gold.Chemscore.Lipo.Weighted>
-9.2623

> <Gold.Chemscore.Internal_Hbond.Weighted>
0.0000

> <Gold.Chemscore.DEClash.Weighted>
0.0550

> <Gold.Chemscore.DEInternal.Weighted>
2.3197

> <Gold.Chemscore.Rot.Weighted>
4.5211

> <Gold.Chemscore.Internal.Correction.Weighted>
   9.000000E+99

> <Gold.Protein.RotatedTorsions>
[ 6907 6896 6895 6894 ] final  -67.94 input  -60.11 | X-H torsion
[ 7974 7965 7964 7962 ] final -121.03 input  175.53 | X-H torsion
[ 8008 7997 7996 7995 ] final   -5.88 input   59.86 | X-H torsion
[ 10167 10162 10161 10158 ] final -142.17 input  -65.29 | X-H torsion
[ 10718 10713 10712 10709 ] final   78.51 input   66.30 | X-H torsion
[ 10763 10752 10751 10750 ] final  -69.04 input  -60.55 | X-H torsion
[ 11005 11000 10999 10996 ] final    0.58 input  -57.11 | X-H torsion

> <Gold.Protein.ActiveResidues>
 VAL166  LYS551  ARG553  GLY616  TRP617  ASP618  TYR619  PRO620  LYS621  CYS622 
 ASP623  PHE694  ASN695  SER759  ASP760  ASP761  ALA762  ILE779  LEU786  VAL792 
 PHE793  MET794  SER795  GLU796  ALA797  LYS798  CYS799  TRP800  GLU811  SER814 

> <Gold.Protein.RotatedAtoms>
  150.7382  134.5810  159.5938 H   0  0  0  0  0  0  0  0  0  0  0  0  # atno 6907 bound_to 6896
  152.3223  134.7361  160.0319 H   0  0  0  0  0  0  0  0  0  0  0  0  # atno 6908 bound_to 6896
  151.7873  133.3320  159.3525 H   0  0  0  0  0  0  0  0  0  0  0  0  # atno 6909 bound_to 6896
  145.0448  140.8173  143.4245 H   0  0  0  0  0  0  0  0  0  0  0  0  # atno 7974 bound_to 7965
  154.5994  140.2447  155.7813 H   0  0  0  0  0  0  0  0  0  0  0  0  # atno 8008 bound_to 7997
  156.2301  140.2969  156.0119 H   0  0  0  0  0  0  0  0  0  0  0  0  # atno 8009 bound_to 7997
  155.2237  140.0401  157.2942 H   0  0  0  0  0  0  0  0  0  0  0  0  # atno 8010 bound_to 7997
  139.8114  143.7698  152.2663 H   0  0  0  0  0  0  0  0  0  0  0  0  # atno 10167 bound_to 10162
  157.6747  130.9871  150.1796 H   0  0  0  0  0  0  0  0  0  0  0  0  # atno 10718 bound_to 10713
  154.3977  135.6038  153.5879 H   0  0  0  0  0  0  0  0  0  0  0  0  # atno 10763 bound_to 10752
  152.9788  135.5899  154.4221 H   0  0  0  0  0  0  0  0  0  0  0  0  # atno 10764 bound_to 10752
  154.4015  135.2843  155.2071 H   0  0  0  0  0  0  0  0  0  0  0  0  # atno 10765 bound_to 10752
  140.6249  133.9627  155.8244 H   0  0  0  0  0  0  0  0  0  0  0  0  # atno 11005 bound_to 11000
  145.1602  139.2463  143.5395 LP  0  0  0  0  0  0  0  0  0  0  0  0  # atno 17320 bound_to 7965
  146.3513  140.1327  142.8596 LP  0  0  0  0  0  0  0  0  0  0  0  0  # atno 17321 bound_to 7965
  139.7848  144.7432  151.0038 LP  0  0  0  0  0  0  0  0  0  0  0  0  # atno 17342 bound_to 10162
  140.7817  143.4504  151.0421 LP  0  0  0  0  0  0  0  0  0  0  0  0  # atno 17343 bound_to 10162
  156.2532  130.3703  149.8210 LP  0  0  0  0  0  0  0  0  0  0  0  0  # atno 17370 bound_to 10713
  156.5977  130.8533  151.3424 LP  0  0  0  0  0  0  0  0  0  0  0  0  # atno 17371 bound_to 10713
  141.0716  134.0197  157.3518 LP  0  0  0  0  0  0  0  0  0  0  0  0  # atno 17394 bound_to 11000
  139.9138  135.0194  156.7801 LP  0  0  0  0  0  0  0  0  0  0  0  0  # atno 17395 bound_to 11000

$$$$
