#       Name:                AV-unprocessed.smi:2824
#       Creating user name   scv26
#       Creation time:       Fri Mar 27 15:32:51 2020


#       File generated by GOLD software.
#

@<TRIPOS>MOLECULE
AV-unprocessed.smi:2824
    45    46     1
SMALL
NO_CHARGES


@<TRIPOS>ATOM
      1 ****        -2.5277   3.6162   0.4786 C.3            1 S1                 0.0000
      2 ****        -3.4921   2.4449   0.4703 C.ar           1 S1                 0.0000
      3 ****        -4.8743   2.6794   0.6285 C.ar           1 S1                 0.0000
      4 ****        -5.7813   1.6044   0.6218 C.ar           1 S1                 0.0000
      5 ****        -5.3076   0.2907   0.4579 C.ar           1 S1                 0.0000
      6 ****        -3.9294   0.0512   0.2992 C.ar           1 S1                 0.0000
      7 ****        -3.0050   1.1273   0.3025 C.ar           1 S1                 0.0000
      8 ****        -1.6426   0.9674   0.1517 O.3            1 S1                 0.0000
      9 ****        -1.1333  -0.3403  -0.0741 C.3            1 S1                 0.0000
     10 ****         0.3938  -0.2587  -0.2363 C.3            1 S1                 0.0000
     11 ****         0.6536   0.1847  -1.5543 O.3            1 S1                 0.0000
     12 ****         1.0610  -1.6413  -0.0606 C.3            1 S1                 0.0000
     13 ****         2.5054  -1.5349   0.1783 N.am           1 S1                 0.0000
     14 ****         3.2797  -1.7729  -0.9438 N.2            1 S1                 0.0000
     15 ****         4.5714  -1.7107  -0.8957 C.2            1 S1                 0.0000
     16 ****         5.3284  -1.9830  -2.1723 C.3            1 S1                 0.0000
     17 ****         6.6445  -1.8897  -1.9795 F              1 S1                 0.0000
     18 ****         5.0518  -3.2096  -2.6163 F              1 S1                 0.0000
     19 ****         4.9746  -1.1046  -3.1109 F              1 S1                 0.0000
     20 ****         5.2158  -1.3879   0.3666 C.2            1 S1                 0.0000
     21 ****         4.4582  -1.1584   1.4605 C.2            1 S1                 0.0000
     22 ****         2.9997  -1.2246   1.4124 C.2            1 S1                 0.0000
     23 ****         2.2817  -1.0181   2.3905 O.2            1 S1                 0.0000
     24 ****        -3.0506   4.5646   0.6057 H              1 S1                 0.0000
     25 ****        -1.9751   3.6577  -0.4603 H              1 S1                 0.0000
     26 ****        -1.8122   3.5115   1.2947 H              1 S1                 0.0000
     27 ****        -5.2449   3.6861   0.7551 H              1 S1                 0.0000
     28 ****        -6.8387   1.7872   0.7429 H              1 S1                 0.0000
     29 ****        -6.0026  -0.5360   0.4541 H              1 S1                 0.0000
     30 ****        -3.6069  -0.9715   0.1777 H              1 S1                 0.0000
     31 ****        -1.3720  -0.9522   0.7973 H              1 S1                 0.0000
     32 ****        -1.5924  -0.8075  -0.9473 H              1 S1                 0.0000
     33 ****         0.7972   0.4553   0.4829 H              1 S1                 0.0000
     34 ****         0.2741  -0.4330  -2.1602 H              1 S1                 0.0000
     35 ****         0.6117  -2.1659   0.7848 H              1 S1                 0.0000
     36 ****         0.8540  -2.2772  -0.9239 H              1 S1                 0.0000
     37 ****         6.2926  -1.3324   0.4258 H              1 S1                 0.0000
     38 ****         4.9413  -0.9184   2.3963 H              1 S1                 0.0000
     39 ****        -1.2110   1.3123   0.9852 LP             1 S1                 0.0000
     40 ****        -1.3637   1.5310  -0.6258 LP             1 S1                 0.0000
     41 ****         1.6409   0.2393  -1.7030 LP             1 S1                 0.0000
     42 ****         0.2452   1.0869  -1.6929 LP             1 S1                 0.0000
     43 ****         2.8319  -1.9975  -1.8093 LP             1 S1                 0.0000
     44 ****         1.2872  -1.0745   2.3016 LP             1 S1                 0.0000
     45 ****         2.6927  -0.7939   3.2741 LP             1 S1                 0.0000
@<TRIPOS>BOND
    1    1    2 1     
    2    1   24 1     
    3    1   25 1     
    4    1   26 1     
    5    2    7 ar    
    6    2    3 ar    
    7    3    4 ar    
    8    3   27 1     
    9    4    5 ar    
   10    4   28 1     
   11    5    6 ar    
   12    5   29 1     
   13    6    7 ar    
   14    6   30 1     
   15    7    8 1     
   16    8    9 1     
   17    9   10 1     
   18    9   31 1     
   19    9   32 1     
   20   10   11 1     
   21   10   12 1     
   22   10   33 1     
   23   11   34 1     
   24   12   13 1     
   25   12   35 1     
   26   12   36 1     
   27   13   22 am    
   28   13   14 1     
   29   14   15 2     
   30   15   16 1     
   31   15   20 1     
   32   16   17 1     
   33   16   18 1     
   34   16   19 1     
   35   20   21 2     
   36   20   37 1     
   37   21   22 1     
   38   21   38 1     
   39   22   23 2     
   40    8   39 1     
   41    8   40 1     
   42   11   41 1     
   43   11   42 1     
   44   14   43 1     
   45   23   44 1     
   46   23   45 1     
@<TRIPOS>SUBSTRUCTURE
      1 S1             1
@<TRIPOS>SET
LONE_PAIRS      STATIC     ATOMS    <user>   **** ""
7 39 40 41 42 43 44 45
DONOR_HYDROGENS      STATIC     ATOMS    <user>   **** ""
1 34
ATOM$BLUE        STATIC     ATOMS    COLORGROUP SYSTEM
7 39 40 41 42 43 44 45
ATOM$RED        STATIC     ATOMS    COLORGROUP SYSTEM
1 34
