AV-unprocessed.smi:397|AV-procd|sdf|2488|dock4
  -GOLD-   2262022433D 1   1.00000     0.00000
 Structure written by MMmdl.
 37 38  0  0  0  0  0  0  0  0  1 V2000
  144.1213  144.4468  155.4199 C   0  0  0  0  0  0  0  0  0  0  0  0
  144.7422  143.8404  156.5393 O   0  0  0  0  0  0  0  0  0  0  0  0
  145.9634  143.2010  156.2056 C   0  0  0  0  0  0  0  0  0  0  0  0
  146.7616  142.9029  157.4834 C   0  0  0  0  0  0  0  0  0  0  0  0
  148.1732  142.6782  157.1925 N   0  0  0  0  0  0  0  0  0  0  0  0
  148.8583  141.5644  157.4914 C   0  0  0  0  0  0  0  0  0  0  0  0
  148.3615  140.6043  158.0821 O   0  0  0  0  0  0  0  0  0  0  0  0
  150.3309  141.5488  157.0541 C   0  0  0  0  0  0  0  0  0  0  0  0
  151.2555  141.0855  158.1130 N   0  0  0  0  0  0  0  0  0  0  0  0
  151.4501  139.6907  158.2719 C   0  0  0  0  0  0  0  0  0  0  0  0
  150.8725  138.8811  157.5439 O   0  0  0  0  0  0  0  0  0  0  0  0
  152.3611  139.3024  159.3437 C   0  0  0  0  0  0  0  0  0  0  0  0
  152.5877  137.9073  159.5306 C   0  0  0  0  0  0  0  0  0  0  0  0
  152.7558  136.7749  159.7007 N   0  0  0  0  0  0  0  0  0  0  0  0
  152.9599  140.2295  160.1186 C   0  0  0  0  0  0  0  0  0  0  0  0
  152.7534  141.5877  159.9592 N   0  0  0  0  0  0  0  0  0  0  0  0
  153.3890  142.5878  160.7938 C   0  0  0  0  0  0  0  0  0  0  0  0
  153.2572  142.5078  162.3001 C   0  0  0  0  0  0  0  0  0  0  0  0
  152.5454  143.6022  161.5371 C   0  0  0  0  0  0  0  0  0  0  0  0
  151.8814  142.0479  158.9432 C   0  0  0  0  0  0  0  0  0  0  0  0
  151.6624  143.2505  158.7777 O   0  0  0  0  0  0  0  0  0  0  0  0
  143.1915  144.9227  155.7312 H   0  0  0  0  0  0  0  0  0  0  0  0
  143.8814  143.7077  154.6544 H   0  0  0  0  0  0  0  0  0  0  0  0
  144.7611  145.2123  154.9794 H   0  0  0  0  0  0  0  0  0  0  0  0
  145.7756  142.2790  155.6530 H   0  0  0  0  0  0  0  0  0  0  0  0
  146.5473  143.8555  155.5568 H   0  0  0  0  0  0  0  0  0  0  0  0
  146.7003  143.7605  158.1534 H   0  0  0  0  0  0  0  0  0  0  0  0
  146.3276  142.0595  158.0234 H   0  0  0  0  0  0  0  0  0  0  0  0
  148.6621  143.4190  156.7114 H   0  0  0  0  0  0  0  0  0  0  0  0
  150.4259  140.9257  156.1630 H   0  0  0  0  0  0  0  0  0  0  0  0
  150.5938  142.5477  156.7028 H   0  0  0  0  0  0  0  0  0  0  0  0
  153.6251  139.8809  160.8940 H   0  0  0  0  0  0  0  0  0  0  0  0
  154.3475  142.9836  160.4628 H   0  0  0  0  0  0  0  0  0  0  0  0
  152.6516  141.7131  162.7303 H   0  0  0  0  0  0  0  0  0  0  0  0
  154.1249  142.7942  162.8911 H   0  0  0  0  0  0  0  0  0  0  0  0
  152.9433  144.6112  161.6238 H   0  0  0  0  0  0  0  0  0  0  0  0
  151.4622  143.5427  161.4589 H   0  0  0  0  0  0  0  0  0  0  0  0
  1  2  1  0  0  0  0
  1 22  1  0  0  0  0
  1 23  1  0  0  0  0
  1 24  1  0  0  0  0
  2  3  1  0  0  0  0
  3  4  1  0  0  0  0
  3 25  1  0  0  0  0
  3 26  1  0  0  0  0
  4  5  1  0  0  0  0
  4 27  1  0  0  0  0
  4 28  1  0  0  0  0
  5  6  1  0  0  0  0
  5 29  1  0  0  0  0
  6  7  2  0  0  0  0
  6  8  1  0  0  0  0
  8  9  1  0  0  0  0
  8 30  1  0  0  0  0
  8 31  1  0  0  0  0
  9 20  1  0  0  0  0
  9 10  1  0  0  0  0
 10 11  2  0  0  0  0
 10 12  1  0  0  0  0
 12 13  1  0  0  0  0
 12 15  2  0  0  0  0
 13 14  3  0  0  0  0
 15 16  1  0  0  0  0
 15 32  1  0  0  0  0
 16 17  1  0  0  0  0
 16 20  1  0  0  0  0
 17 19  1  0  0  0  0
 17 18  1  0  0  0  0
 17 33  1  0  0  0  0
 18 19  1  0  0  0  0
 18 34  1  0  0  0  0
 18 35  1  0  0  0  0
 19 36  1  0  0  0  0
 19 37  1  0  0  0  0
 20 21  2  0  0  0  0
M  END
> <s_m_source_file>
AV-unprocessed.smi

> <i_m_source_file_index>
397

> <i_lp_mmshare_version>
43012

> <i_f3d_flags>
0

> <s_epik_input>
W0NIM11PW0NIMl1bQ0gyXVtOSF1DKD1PKVtDSDJdbjFjKD1PKWMoQyNOKVtjSF1uKGMxPU8pW0NIXTJbQ0gyXVtDSDJdMg==

> <s_epik_cmdline>
J2VwaWtfcHl0aG9uJywgJy1waCcsICc3LjAnLCAnLXRuJywgJzgnLCAnLW1hJywgJzIwMCcsICctbWV0YWxfYmluZGluZycsICctaW1hZScsICc8aW5maWxlLm1hZT4nLCAnLW9tYWUnLCAnPG91dGZpbGUubWFlPic=

> <r_lp_tautomer_probability>
1

> <r_epik_Ionization_Penalty>
2.64697e-08

> <r_epik_Ionization_Penalty_Charging>
8.39351e-11

> <r_epik_Ionization_Penalty_Neutral>
2.63858e-08

> <r_epik_State_Penalty>
-0

> <r_epik_Charging_Adjusted_Penalty>
8.39351e-11

> <i_epik_Tot_Q>
0

> <i_epik_Tot_abs_Q>
0

> <r_epik_Metal_State_Penalty>
-0

> <b_epik_Metal_Only>
0

> <s_lp_Force_Field>
OPLS_2005

> <r_lp_Energy>
30.955

> <b_lp_Chiralities_Consistent>
1

> <s_lp_Variant>
AV-unprocessed.smi:397-1

> <Gold.Version>
5.8.1

> <Gold.Id.Protein>
6NUR|6NUR_protein|mol2

> <Gold.PLP.Fitness>
42.4510

> <Gold.PLP.PLP>
-37.6946

> <Gold.PLP.part.hbond>
-2.4563

> <Gold.PLP.part.metal>
0.0000

> <Gold.PLP.part.buried>
-6.7833

> <Gold.PLP.part.nonpolar>
-28.3052

> <Gold.PLP.part.repulsive>
0.1446

> <Gold.PLP.ligand.clash>
0.0000

> <Gold.PLP.ligand.torsion>
0.7084

> <Gold.PLP.Chemscore.Hbond>
2.0000

> <Gold.PLP.Chemscore.CHOScore>
0.0000

> <Gold.PLP.Chemscore.Metal>
0.0000

> <Gold.Chemscore.Hbonds>
donor molecule, donor type, donor heavy atom, donor atom, acceptor molecule, acceptor atom, score
      L1  H     5    29       P1  8028  1.00
      P1  H  6896  6907       L1    14  1.00

> <Gold.PLP.Chemscore.Internal.Correction>
0.1732

> <Gold.Rescore>
     Score         DG    S(hbond)    S(metal)    S(lipo)     H(rot)  DE(clash)    DE(int)     intcor
     12.19     -13.27       1.93        0.00      65.44       2.46       0.00       1.08       ----

> <Gold.Chemscore.Fitness>
12.1865

> <Gold.Chemscore.DG>
-13.2685

> <Gold.Chemscore.ZeroCoef>
-5.4800

> <Gold.Chemscore.Hbond>
1.9272

> <Gold.Chemscore.Metal>
0.0000

> <Gold.Chemscore.Lipo>
65.4351

> <Gold.Chemscore.Internal_Hbond>
0.0000

> <Gold.Chemscore.DEClash>
0.0004

> <Gold.Chemscore.DEInternal>
1.0815

> <Gold.Chemscore.Rot>
2.4626

> <Gold.Chemscore.Internal.Correction>
   9.000000E+99

> <Gold.Chemscore.Hbonds>
donor molecule, donor type, donor heavy atom, donor atom, acceptor molecule, acceptor atom, score
      L1  H     5    29       P1  8028  0.60
      P1  H  6896  6907       L1    14  1.00

> <Gold.Chemscore.Hbond.Weighted>
-6.4369

> <Gold.Chemscore.Metal.Weighted>
-0.0000

> <Gold.Chemscore.Lipo.Weighted>
-7.6559

> <Gold.Chemscore.Internal_Hbond.Weighted>
0.0000

> <Gold.Chemscore.DEClash.Weighted>
0.0004

> <Gold.Chemscore.DEInternal.Weighted>
1.0815

> <Gold.Chemscore.Rot.Weighted>
6.3043

> <Gold.Chemscore.Internal.Correction.Weighted>
   9.000000E+99

> <Gold.Protein.RotatedTorsions>
[ 6907 6896 6895 6894 ] final   31.14 input  -60.11 | X-H torsion
[ 7974 7965 7964 7962 ] final -102.20 input  175.53 | X-H torsion
[ 8008 7997 7996 7995 ] final -131.63 input   59.86 | X-H torsion
[ 10167 10162 10161 10158 ] final  -85.03 input  -65.29 | X-H torsion
[ 10718 10713 10712 10709 ] final  129.19 input   66.30 | X-H torsion
[ 10763 10752 10751 10750 ] final  142.34 input  -60.55 | X-H torsion
[ 11005 11000 10999 10996 ] final  175.80 input  -57.11 | X-H torsion

> <Gold.Protein.ActiveResidues>
 VAL166  LYS551  ARG553  GLY616  TRP617  ASP618  TYR619  PRO620  LYS621  CYS622 
 ASP623  PHE694  ASN695  SER759  ASP760  ASP761  ALA762  ILE779  LEU786  VAL792 
 PHE793  MET794  SER795  GLU796  ALA797  LYS798  CYS799  TRP800  GLU811  SER814 

> <Gold.Protein.RotatedAtoms>
  152.0560  134.9624  160.0574 H   0  0  0  0  0  0  0  0  0  0  0  0  # atno 6907 bound_to 6896
  152.1006  133.4243  159.4594 H   0  0  0  0  0  0  0  0  0  0  0  0  # atno 6908 bound_to 6896
  150.6839  134.2683  159.4621 H   0  0  0  0  0  0  0  0  0  0  0  0  # atno 6909 bound_to 6896
  145.2718  140.9301  143.2982 H   0  0  0  0  0  0  0  0  0  0  0  0  # atno 7974 bound_to 7965
  155.3154  140.0459  157.3037 H   0  0  0  0  0  0  0  0  0  0  0  0  # atno 8008 bound_to 7997
  154.5409  140.2287  155.8609 H   0  0  0  0  0  0  0  0  0  0  0  0  # atno 8009 bound_to 7997
  156.1880  140.3057  155.9283 H   0  0  0  0  0  0  0  0  0  0  0  0  # atno 8010 bound_to 7997
  140.4076  143.2636  151.9060 H   0  0  0  0  0  0  0  0  0  0  0  0  # atno 10167 bound_to 10162
  157.5177  131.1098  150.9200 H   0  0  0  0  0  0  0  0  0  0  0  0  # atno 10718 bound_to 10713
  153.9541  135.2967  155.3437 H   0  0  0  0  0  0  0  0  0  0  0  0  # atno 10763 bound_to 10752
  154.7410  135.5024  153.9126 H   0  0  0  0  0  0  0  0  0  0  0  0  # atno 10764 bound_to 10752
  153.0979  135.6726  153.9837 H   0  0  0  0  0  0  0  0  0  0  0  0  # atno 10765 bound_to 10752
  140.3662  134.7070  157.4363 H   0  0  0  0  0  0  0  0  0  0  0  0  # atno 11005 bound_to 11000
  144.9328  139.4278  143.6487 LP  0  0  0  0  0  0  0  0  0  0  0  0  # atno 17320 bound_to 7965
  146.3244  139.8248  142.8920 LP  0  0  0  0  0  0  0  0  0  0  0  0  # atno 17321 bound_to 7965
  139.4783  144.5569  151.8299 LP  0  0  0  0  0  0  0  0  0  0  0  0  # atno 17342 bound_to 10162
  140.4672  144.1638  150.5913 LP  0  0  0  0  0  0  0  0  0  0  0  0  # atno 17343 bound_to 10162
  156.9820  130.5531  149.5297 LP  0  0  0  0  0  0  0  0  0  0  0  0  # atno 17370 bound_to 10713
  156.0332  130.5421  150.8586 LP  0  0  0  0  0  0  0  0  0  0  0  0  # atno 17371 bound_to 10713
  140.0588  134.6025  155.8773 LP  0  0  0  0  0  0  0  0  0  0  0  0  # atno 17394 bound_to 11000
  141.1969  133.6594  156.5714 LP  0  0  0  0  0  0  0  0  0  0  0  0  # atno 17395 bound_to 11000

$$$$
