#       Name:                AV-unprocessed.smi:1378
#       Creating user name   scv26
#       Creation time:       Fri Mar 27 05:20:20 2020


#       File generated by GOLD software.
#

@<TRIPOS>MOLECULE
AV-unprocessed.smi:1378
    51    53     1
SMALL
NO_CHARGES


@<TRIPOS>ATOM
      1 ****        -3.2794   2.2232  -1.3792 C.3            1 S1                 0.0000
      2 ****        -3.2138   0.8205  -1.5711 O.3            1 S1                 0.0000
      3 ****        -2.0109   0.2633  -1.0733 C.3            1 S1                 0.0000
      4 ****        -2.0313  -1.2547  -1.3068 C.3            1 S1                 0.0000
      5 ****        -0.7851  -1.9095  -0.8836 N.pl3          1 S1                 0.0000
      6 ****        -0.4982  -2.6684   0.2128 C.2            1 S1                 0.0000
      7 ****        -1.5814  -3.0820   1.5424 S.3            1 S1                 0.0000
      8 ****        -1.8448  -1.5387   2.4626 C.3            1 S1                 0.0000
      9 ****        -0.5380  -0.8263   2.8101 C.2            1 S1                 0.0000
     10 ****         0.0658  -1.1076   3.8441 O.2            1 S1                 0.0000
     11 ****        -0.1063   0.0783   1.9197 N.am           1 S1                 0.0000
     12 ****         1.1318   0.8439   2.0037 C.3            1 S1                 0.0000
     13 ****         0.9076   2.1876   2.7275 C.3            1 S1                 0.0000
     14 ****         1.3259   3.2847   1.7432 C.3            1 S1                 0.0000
     15 ****         1.1923   2.6459   0.3637 C.3            1 S1                 0.0000
     16 ****         1.6203   1.1976   0.5895 C.3            1 S1                 0.0000
     17 ****         0.8055  -3.0480   0.1252 N.pl3          1 S1                 1.0000
     18 ****         1.3650  -2.5285  -1.0424 C.ar           1 S1                 0.0000
     19 ****         2.6515  -2.6348  -1.5614 C.ar           1 S1                 0.0000
     20 ****         2.8951  -1.9815  -2.7873 C.ar           1 S1                 0.0000
     21 ****         1.8805  -1.2603  -3.4495 C.ar           1 S1                 0.0000
     22 ****         0.5798  -1.1593  -2.9137 C.ar           1 S1                 0.0000
     23 ****         0.3478  -1.8042  -1.6993 C.ar           1 S1                 0.0000
     24 ****        -4.2183   2.6045  -1.7806 H              1 S1                 0.0000
     25 ****        -2.4625   2.7306  -1.8938 H              1 S1                 0.0000
     26 ****        -3.2377   2.4790  -0.3195 H              1 S1                 0.0000
     27 ****        -1.1575   0.7212  -1.5749 H              1 S1                 0.0000
     28 ****        -1.9208   0.4820  -0.0104 H              1 S1                 0.0000
     29 ****        -2.8566  -1.7092  -0.7582 H              1 S1                 0.0000
     30 ****        -2.1954  -1.4833  -2.3606 H              1 S1                 0.0000
     31 ****        -2.4844  -0.8799   1.8750 H              1 S1                 0.0000
     32 ****        -2.3888  -1.7658   3.3797 H              1 S1                 0.0000
     33 ****        -0.6798   0.2422   1.1052 H              1 S1                 0.0000
     34 ****         1.8982   0.2547   2.5107 H              1 S1                 0.0000
     35 ****        -0.1425   2.3181   2.9943 H              1 S1                 0.0000
     36 ****         1.4799   2.2476   3.6536 H              1 S1                 0.0000
     37 ****         0.7266   4.1898   1.8458 H              1 S1                 0.0000
     38 ****         2.3676   3.5558   1.9191 H              1 S1                 0.0000
     39 ****         0.1507   2.6764   0.0408 H              1 S1                 0.0000
     40 ****         1.7935   3.1497  -0.3936 H              1 S1                 0.0000
     41 ****         2.7091   1.1381   0.5594 H              1 S1                 0.0000
     42 ****         1.2412   0.5274  -0.1827 H              1 S1                 0.0000
     43 ****         3.4301  -3.1885  -1.0574 H              1 S1                 0.0000
     44 ****         3.8794  -2.0361  -3.2293 H              1 S1                 0.0000
     45 ****         2.1041  -0.7740  -4.3881 H              1 S1                 0.0000
     46 ****        -0.1900  -0.6032  -3.4282 H              1 S1                 0.0000
     47 ****         1.2757  -3.6162   0.8182 H              1 S1                 0.0000
     48 ****        -3.2763   0.6270  -2.5502 LP             1 S1                 0.0000
     49 ****        -3.9850   0.3951  -1.0974 LP             1 S1                 0.0000
     50 ****        -0.2980  -1.8051   4.4615 LP             1 S1                 0.0000
     51 ****         0.9204  -0.6389   4.0673 LP             1 S1                 0.0000
@<TRIPOS>BOND
    1    1    2 1     
    2    1   24 1     
    3    1   25 1     
    4    1   26 1     
    5    2    3 1     
    6    3    4 1     
    7    3   27 1     
    8    3   28 1     
    9    4    5 1     
   10    4   29 1     
   11    4   30 1     
   12    5   23 1     
   13    5    6 1     
   14    6    7 1     
   15    6   17 2     
   16    7    8 1     
   17    8    9 1     
   18    8   31 1     
   19    8   32 1     
   20    9   10 2     
   21    9   11 am    
   22   11   12 1     
   23   11   33 1     
   24   12   16 1     
   25   12   13 1     
   26   12   34 1     
   27   13   14 1     
   28   13   35 1     
   29   13   36 1     
   30   14   15 1     
   31   14   37 1     
   32   14   38 1     
   33   15   16 1     
   34   15   39 1     
   35   15   40 1     
   36   16   41 1     
   37   16   42 1     
   38   17   18 1     
   39   17   47 1     
   40   18   23 ar    
   41   18   19 ar    
   42   19   20 ar    
   43   19   43 1     
   44   20   21 ar    
   45   20   44 1     
   46   21   22 ar    
   47   21   45 1     
   48   22   23 ar    
   49   22   46 1     
   50    2   48 1     
   51    2   49 1     
   52   10   50 1     
   53   10   51 1     
@<TRIPOS>SUBSTRUCTURE
      1 S1             1
@<TRIPOS>SET
LONE_PAIRS      STATIC     ATOMS    <user>   **** ""
4 48 49 50 51
DONOR_HYDROGENS      STATIC     ATOMS    <user>   **** ""
2 33 47
ATOM$BLUE        STATIC     ATOMS    COLORGROUP SYSTEM
4 48 49 50 51
ATOM$RED        STATIC     ATOMS    COLORGROUP SYSTEM
2 33 47
