AV-unprocessed.smi:2028|AV-procd|sdf|8221|dock6
  -GOLD-   2272010493D 1   1.00000     0.00000
 Structure written by MMmdl.
 38 39  0  0  0  0  0  0  0  0  1 V2000
  148.6882  135.2019  156.2628 C   0  0  0  0  0  0  0  0  0  0  0  0
  149.4812  134.5394  155.1227 C   0  0  0  0  0  0  0  0  0  0  0  0
  150.5139  133.5659  155.7282 C   0  0  0  0  0  0  0  0  0  0  0  0
  148.4990  133.7871  154.1998 C   0  0  0  0  0  0  0  0  0  0  0  0
  150.1606  135.6180  154.3964 N   0  0  0  0  0  0  0  0  0  0  0  0
  151.1584  136.4153  154.8195 C   0  0  0  0  0  0  0  0  0  0  0  0
  151.6936  136.3260  155.9240 O   0  0  0  0  0  0  0  0  0  0  0  0
  151.6137  137.4983  153.8406 C   0  0  0  0  0  0  0  0  0  0  0  0
  151.1288  138.8411  154.3038 C   0  0  0  0  0  0  0  0  0  0  0  0
  150.1929  139.6347  153.6866 C   0  0  0  0  0  0  0  0  0  0  0  0
  149.9290  141.1255  154.5489 S   0  0  0  0  0  0  0  0  0  0  0  0
  151.1209  140.6058  155.7442 C   0  0  0  0  0  0  0  0  0  0  0  0
  151.5464  141.3412  156.8900 N   0  0  0  0  0  0  0  0  0  0  0  0
  151.1842  142.7424  157.0810 C   0  0  0  0  0  0  0  0  0  0  0  0
  151.6213  143.0997  158.5058 C   0  0  0  0  0  0  0  0  0  0  0  0
  152.5575  141.9722  158.9369 C   0  0  0  0  0  0  0  0  0  0  0  0
  152.3171  140.8913  157.8961 C   0  0  0  0  0  0  0  0  0  0  0  0
  152.8026  139.7672  158.0135 O   0  0  0  0  0  0  0  0  0  0  0  0
  151.6422  139.4036  155.4781 N   0  0  0  0  0  0  0  0  0  0  0  0
  148.1524  134.4611  156.8574 H   0  0  0  0  0  0  0  0  0  0  0  0
  147.9506  135.9071  155.8770 H   0  0  0  0  0  0  0  0  0  0  0  0
  149.3454  135.7508  156.9384 H   0  0  0  0  0  0  0  0  0  0  0  0
  151.2315  134.0913  156.3599 H   0  0  0  0  0  0  0  0  0  0  0  0
  151.0780  133.0371  154.9598 H   0  0  0  0  0  0  0  0  0  0  0  0
  150.0268  132.8101  156.3452 H   0  0  0  0  0  0  0  0  0  0  0  0
  147.9208  133.0519  154.7605 H   0  0  0  0  0  0  0  0  0  0  0  0
  149.0127  133.2466  153.4047 H   0  0  0  0  0  0  0  0  0  0  0  0
  147.7912  134.4712  153.7305 H   0  0  0  0  0  0  0  0  0  0  0  0
  149.8094  135.7988  153.4671 H   0  0  0  0  0  0  0  0  0  0  0  0
  152.7021  137.4830  153.7736 H   0  0  0  0  0  0  0  0  0  0  0  0
  151.2413  137.2753  152.8395 H   0  0  0  0  0  0  0  0  0  0  0  0
  149.6493  139.4353  152.7751 H   0  0  0  0  0  0  0  0  0  0  0  0
  151.7148  143.3535  156.3491 H   0  0  0  0  0  0  0  0  0  0  0  0
  150.1134  142.9021  156.9450 H   0  0  0  0  0  0  0  0  0  0  0  0
  152.1067  144.0754  158.5476 H   0  0  0  0  0  0  0  0  0  0  0  0
  150.7544  143.1348  159.1672 H   0  0  0  0  0  0  0  0  0  0  0  0
  153.6014  142.2851  158.8977 H   0  0  0  0  0  0  0  0  0  0  0  0
  152.3361  141.6145  159.9429 H   0  0  0  0  0  0  0  0  0  0  0  0
  1  2  1  0  0  0  0
  1 20  1  0  0  0  0
  1 21  1  0  0  0  0
  1 22  1  0  0  0  0
  2  3  1  0  0  0  0
  2  4  1  0  0  0  0
  2  5  1  0  0  0  0
  3 23  1  0  0  0  0
  3 24  1  0  0  0  0
  3 25  1  0  0  0  0
  4 26  1  0  0  0  0
  4 27  1  0  0  0  0
  4 28  1  0  0  0  0
  5  6  1  0  0  0  0
  5 29  1  0  0  0  0
  6  7  2  0  0  0  0
  6  8  1  0  0  0  0
  8  9  1  0  0  0  0
  8 30  1  0  0  0  0
  8 31  1  0  0  0  0
  9 19  1  0  0  0  0
  9 10  2  0  0  0  0
 10 11  1  0  0  0  0
 10 32  1  0  0  0  0
 11 12  1  0  0  0  0
 12 13  1  0  0  0  0
 12 19  2  0  0  0  0
 13 17  1  0  0  0  0
 13 14  1  0  0  0  0
 14 15  1  0  0  0  0
 14 33  1  0  0  0  0
 14 34  1  0  0  0  0
 15 16  1  0  0  0  0
 15 35  1  0  0  0  0
 15 36  1  0  0  0  0
 16 17  1  0  0  0  0
 16 37  1  0  0  0  0
 16 38  1  0  0  0  0
 17 18  2  0  0  0  0
M  END
> <s_m_source_file>
AV-unprocessed.smi

> <i_m_source_file_index>
2028

> <i_lp_mmshare_version>
43012

> <i_f3d_flags>
0

> <s_epik_input>
W0NIM11DKFtDSDNdKShbQ0gzXSlbTkhdQyg9TylbQ0gyXWMxW2NIXXNjKG4xKU4yW0NIMl1bQ0gyXVtDSDJdQzI9Tw==

> <s_epik_cmdline>
J2VwaWtfcHl0aG9uJywgJy1waCcsICc3LjAnLCAnLXRuJywgJzgnLCAnLW1hJywgJzIwMCcsICctbWV0YWxfYmluZGluZycsICctaW1hZScsICc8aW5maWxlLm1hZT4nLCAnLW9tYWUnLCAnPG91dGZpbGUubWFlPic=

> <r_lp_tautomer_probability>
1

> <r_epik_Ionization_Penalty>
2.98188e-05

> <r_epik_Ionization_Penalty_Charging>
0

> <r_epik_Ionization_Penalty_Neutral>
2.98188e-05

> <r_epik_State_Penalty>
-0

> <r_epik_Charging_Adjusted_Penalty>
0

> <i_epik_Tot_Q>
0

> <i_epik_Tot_abs_Q>
0

> <r_epik_Metal_State_Penalty>
-0

> <b_epik_Metal_Only>
0

> <s_lp_Force_Field>
OPLS_2005

> <r_lp_Energy>
17.4642

> <b_lp_Chiralities_Consistent>
1

> <s_lp_Variant>
AV-unprocessed.smi:2028-1

> <Gold.Version>
5.8.1

> <Gold.Id.Protein>
6NUR|6NUR_protein|mol2

> <Gold.PLP.Fitness>
46.7497

> <Gold.PLP.PLP>
-35.4499

> <Gold.PLP.part.hbond>
-3.0863

> <Gold.PLP.part.metal>
0.0000

> <Gold.PLP.part.buried>
-2.3184

> <Gold.PLP.part.nonpolar>
-29.6260

> <Gold.PLP.part.repulsive>
0.0797

> <Gold.PLP.ligand.clash>
0.0000

> <Gold.PLP.ligand.torsion>
0.3400

> <Gold.PLP.Chemscore.Hbond>
2.9913

> <Gold.PLP.Chemscore.CHOScore>
0.9968

> <Gold.PLP.Chemscore.Metal>
0.0000

> <Gold.Chemscore.Hbonds>
donor molecule, donor type, donor heavy atom, donor atom, acceptor molecule, acceptor atom, score
      L1  H     5    29       P1  7948  0.60
      P1  H  7997  8009       L1    18  0.89
      P1  H 10752 10763       L1     7  0.55
      L1  C    10    32       P1  7957  0.22

> <Gold.PLP.Chemscore.Internal.Correction>
0.0156

> <Gold.Rescore>
     Score         DG    S(hbond)    S(metal)    S(lipo)     H(rot)  DE(clash)    DE(int)     intcor
     16.61     -18.60       2.32        0.00      77.28       1.44       0.28       1.71       ----

> <Gold.Chemscore.Fitness>
16.6060

> <Gold.Chemscore.DG>
-18.6029

> <Gold.Chemscore.ZeroCoef>
-5.4800

> <Gold.Chemscore.Hbond>
2.3234

> <Gold.Chemscore.Metal>
0.0000

> <Gold.Chemscore.Lipo>
77.2777

> <Gold.Chemscore.Internal_Hbond>
0.0000

> <Gold.Chemscore.DEClash>
0.2842

> <Gold.Chemscore.DEInternal>
1.7127

> <Gold.Chemscore.Rot>
1.4371

> <Gold.Chemscore.Internal.Correction>
   9.000000E+99

> <Gold.Chemscore.Hbonds>
donor molecule, donor type, donor heavy atom, donor atom, acceptor molecule, acceptor atom, score
      L1  H     5    29       P1  7948  0.04
      P1  H  7997  8009       L1    18  0.22
      P1  H 10752 10763       L1     7  0.03

> <Gold.Chemscore.Hbond.Weighted>
-7.7603

> <Gold.Chemscore.Metal.Weighted>
-0.0000

> <Gold.Chemscore.Lipo.Weighted>
-9.0415

> <Gold.Chemscore.Internal_Hbond.Weighted>
0.0000

> <Gold.Chemscore.DEClash.Weighted>
0.2842

> <Gold.Chemscore.DEInternal.Weighted>
1.7127

> <Gold.Chemscore.Rot.Weighted>
3.6789

> <Gold.Chemscore.Internal.Correction.Weighted>
   9.000000E+99

> <Gold.Protein.RotatedTorsions>
[ 6907 6896 6895 6894 ] final   67.16 input  -60.11 | X-H torsion
[ 7974 7965 7964 7962 ] final -168.28 input  175.53 | X-H torsion
[ 8008 7997 7996 7995 ] final  151.27 input   59.86 | X-H torsion
[ 10167 10162 10161 10158 ] final  147.40 input  -65.29 | X-H torsion
[ 10718 10713 10712 10709 ] final    3.96 input   66.30 | X-H torsion
[ 10763 10752 10751 10750 ] final   98.85 input  -60.55 | X-H torsion
[ 11005 11000 10999 10996 ] final -151.81 input  -57.11 | X-H torsion

> <Gold.Protein.ActiveResidues>
 VAL166  LYS551  ARG553  GLY616  TRP617  ASP618  TYR619  PRO620  LYS621  CYS622 
 ASP623  PHE694  ASN695  SER759  ASP760  ASP761  ALA762  ILE779  LEU786  VAL792 
 PHE793  MET794  SER795  GLU796  ALA797  LYS798  CYS799  TRP800  GLU811  SER814 

> <Gold.Protein.RotatedAtoms>
  152.4532  134.5347  159.9821 H   0  0  0  0  0  0  0  0  0  0  0  0  # atno 6907 bound_to 6896
  151.5415  133.3426  159.2944 H   0  0  0  0  0  0  0  0  0  0  0  0  # atno 6908 bound_to 6896
  150.8468  134.7811  159.7040 H   0  0  0  0  0  0  0  0  0  0  0  0  # atno 6909 bound_to 6896
  144.7206  140.2394  143.6293 H   0  0  0  0  0  0  0  0  0  0  0  0  # atno 7974 bound_to 7965
  156.2681  140.2052  156.6149 H   0  0  0  0  0  0  0  0  0  0  0  0  # atno 8008 bound_to 7997
  154.6802  140.0541  157.0282 H   0  0  0  0  0  0  0  0  0  0  0  0  # atno 8009 bound_to 7997
  155.1011  140.3206  155.4550 H   0  0  0  0  0  0  0  0  0  0  0  0  # atno 8010 bound_to 7997
  139.4891  144.5758  151.6967 H   0  0  0  0  0  0  0  0  0  0  0  0  # atno 10167 bound_to 10162
  156.8855  130.5669  149.5651 H   0  0  0  0  0  0  0  0  0  0  0  0  # atno 10718 bound_to 10713
  153.2941  135.4134  155.1193 H   0  0  0  0  0  0  0  0  0  0  0  0  # atno 10763 bound_to 10752
  154.8529  135.3525  154.5941 H   0  0  0  0  0  0  0  0  0  0  0  0  # atno 10764 bound_to 10752
  153.6364  135.7058  153.5315 H   0  0  0  0  0  0  0  0  0  0  0  0  # atno 10765 bound_to 10752
  140.7256  134.3678  157.5176 H   0  0  0  0  0  0  0  0  0  0  0  0  # atno 11005 bound_to 11000
  145.8334  139.2096  143.1869 LP  0  0  0  0  0  0  0  0  0  0  0  0  # atno 17320 bound_to 7965
  146.0410  140.8165  142.9828 LP  0  0  0  0  0  0  0  0  0  0  0  0  # atno 17321 bound_to 7965
  140.5354  144.0664  150.6068 LP  0  0  0  0  0  0  0  0  0  0  0  0  # atno 17342 bound_to 10162
  140.3668  143.2877  152.0323 LP  0  0  0  0  0  0  0  0  0  0  0  0  # atno 17343 bound_to 10162
  156.0655  130.5699  150.9280 LP  0  0  0  0  0  0  0  0  0  0  0  0  # atno 17370 bound_to 10713
  157.6115  131.0936  150.8787 LP  0  0  0  0  0  0  0  0  0  0  0  0  # atno 17371 bound_to 10713
  139.8838  134.8984  156.2744 LP  0  0  0  0  0  0  0  0  0  0  0  0  # atno 17394 bound_to 11000
  140.9965  133.7177  156.0894 LP  0  0  0  0  0  0  0  0  0  0  0  0  # atno 17395 bound_to 11000

$$$$
