AV-unprocessed.smi:2450|AV-procd|sdf|9665|dock5
  -GOLD-   2272013303D 1   1.00000     0.00000
 Structure written by MMmdl.
 41 42  0  0  0  0  0  0  0  0  1 V2000
  147.0611  139.8478  153.2205 C   0  0  0  0  0  0  0  0  0  0  0  0
  147.7225  141.1216  153.7669 C   0  0  0  0  0  0  0  0  0  0  0  0
  147.2791  141.4837  155.1967 C   0  0  2  0  0  0  0  0  0  0  0  0
  145.9921  142.3225  155.1965 C   0  0  0  0  0  0  0  0  0  0  0  0
  148.3429  142.2107  155.8858 N   0  0  0  0  0  0  0  0  0  0  0  0
  149.1193  141.7188  156.8616 C   0  0  0  0  0  0  0  0  0  0  0  0
  149.0231  140.5718  157.2983 O   0  0  0  0  0  0  0  0  0  0  0  0
  150.0102  142.6357  157.2748 N   0  0  0  0  0  0  0  0  0  0  0  0
  151.0513  142.4893  158.2349 C   0  0  0  0  0  0  0  0  0  0  0  0
  151.3549  143.5125  159.1664 C   0  0  0  0  0  0  0  0  0  0  0  0
  152.4368  143.3446  160.0477 C   0  0  0  0  0  0  0  0  0  0  0  0
  153.1913  142.1635  159.9563 C   0  0  0  0  0  0  0  0  0  0  0  0
  152.9248  141.1867  159.0665 N   0  0  0  0  0  0  0  0  0  0  0  0
  151.8753  141.3272  158.2195 C   0  0  0  0  0  0  0  0  0  0  0  0
  151.6372  140.2647  157.3174 N   0  0  0  0  0  0  0  0  0  0  0  0
  151.6755  140.4938  155.8772 C   0  0  0  0  0  0  0  0  0  0  0  0
  151.7535  139.1013  155.2587 C   0  0  0  0  0  0  0  0  0  0  0  0
  152.6189  138.3475  156.2638 C   0  0  0  0  0  0  0  0  0  0  0  0
  152.2330  138.9646  157.6125 C   0  0  0  0  0  0  0  0  0  0  0  0
  147.3742  139.6605  152.1934 H   0  0  0  0  0  0  0  0  0  0  0  0
  145.9744  139.9365  153.2248 H   0  0  0  0  0  0  0  0  0  0  0  0
  147.3281  138.9709  153.8107 H   0  0  0  0  0  0  0  0  0  0  0  0
  148.8068  141.0073  153.7334 H   0  0  0  0  0  0  0  0  0  0  0  0
  147.4848  141.9499  153.0984 H   0  0  0  0  0  0  0  0  0  0  0  0
  147.0746  140.5508  155.7256 H   0  0  0  0  0  0  0  0  0  0  0  0
  145.1779  141.7913  154.7033 H   0  0  0  0  0  0  0  0  0  0  0  0
  146.1355  143.2699  154.6756 H   0  0  0  0  0  0  0  0  0  0  0  0
  145.6681  142.5469  156.2133 H   0  0  0  0  0  0  0  0  0  0  0  0
  148.5009  143.1636  155.5921 H   0  0  0  0  0  0  0  0  0  0  0  0
  150.0179  143.5064  156.7637 H   0  0  0  0  0  0  0  0  0  0  0  0
  150.7931  144.4329  159.2052 H   0  0  0  0  0  0  0  0  0  0  0  0
  152.6893  144.1093  160.7671 H   0  0  0  0  0  0  0  0  0  0  0  0
  154.0349  142.0006  160.6102 H   0  0  0  0  0  0  0  0  0  0  0  0
  150.7952  141.0400  155.5370 H   0  0  0  0  0  0  0  0  0  0  0  0
  152.5627  141.0640  155.5988 H   0  0  0  0  0  0  0  0  0  0  0  0
  150.7590  138.6554  155.2140 H   0  0  0  0  0  0  0  0  0  0  0  0
  152.1712  139.1057  154.2518 H   0  0  0  0  0  0  0  0  0  0  0  0
  152.4661  137.2685  156.2326 H   0  0  0  0  0  0  0  0  0  0  0  0
  153.6719  138.5441  156.0586 H   0  0  0  0  0  0  0  0  0  0  0  0
  153.0970  139.0491  158.2734 H   0  0  0  0  0  0  0  0  0  0  0  0
  151.4889  138.3390  158.1061 H   0  0  0  0  0  0  0  0  0  0  0  0
  1  2  1  0  0  0  0
  1 20  1  0  0  0  0
  1 21  1  0  0  0  0
  1 22  1  0  0  0  0
  2  3  1  0  0  0  0
  2 23  1  0  0  0  0
  2 24  1  0  0  0  0
  3  4  1  0  0  0  0
  3  5  1  0  0  0  0
  3 25  1  0  0  0  0
  4 26  1  0  0  0  0
  4 27  1  0  0  0  0
  4 28  1  0  0  0  0
  5  6  1  0  0  0  0
  5 29  1  0  0  0  0
  6  7  2  0  0  0  0
  6  8  1  0  0  0  0
  8  9  1  0  0  0  0
  8 30  1  0  0  0  0
  9 14  1  0  0  0  0
  9 10  2  0  0  0  0
 10 11  1  0  0  0  0
 10 31  1  0  0  0  0
 11 12  2  0  0  0  0
 11 32  1  0  0  0  0
 12 13  1  0  0  0  0
 12 33  1  0  0  0  0
 13 14  2  0  0  0  0
 14 15  1  0  0  0  0
 15 19  1  0  0  0  0
 15 16  1  0  0  0  0
 16 17  1  0  0  0  0
 16 34  1  0  0  0  0
 16 35  1  0  0  0  0
 17 18  1  0  0  0  0
 17 36  1  0  0  0  0
 17 37  1  0  0  0  0
 18 19  1  0  0  0  0
 18 38  1  0  0  0  0
 18 39  1  0  0  0  0
 19 40  1  0  0  0  0
 19 41  1  0  0  0  0
M  END
> <s_m_source_file>
AV-unprocessed.smi

> <i_m_source_file_index>
2450

> <i_lp_mmshare_version>
43012

> <i_f3d_flags>
0

> <s_epik_input>
W0NIM11bQ0gyXVtDQEhdKFtDSDNdKVtOSF1DKD1PKVtOSF1jMVtjSF1bY0hdW2NIXW5jMU4yW0NIMl1bQ0gyXVtDSDJdW0NIMl0y

> <s_epik_cmdline>
J2VwaWtfcHl0aG9uJywgJy1waCcsICc3LjAnLCAnLXRuJywgJzgnLCAnLW1hJywgJzIwMCcsICctbWV0YWxfYmluZGluZycsICctaW1hZScsICc8aW5maWxlLm1hZT4nLCAnLW9tYWUnLCAnPG91dGZpbGUubWFlPic=

> <r_lp_tautomer_probability>
1

> <r_epik_Ionization_Penalty>
0.103391

> <r_epik_Ionization_Penalty_Charging>
0

> <r_epik_Ionization_Penalty_Neutral>
0.103391

> <r_epik_State_Penalty>
0.0927616

> <r_epik_Charging_Adjusted_Penalty>
0.0927616

> <i_epik_Tot_Q>
0

> <i_epik_Tot_abs_Q>
0

> <r_epik_Metal_State_Penalty>
0.0789158

> <b_epik_Metal_Only>
0

> <s_lp_Force_Field>
OPLS_2005

> <r_lp_Energy>
32.2235

> <b_lp_Chiralities_Consistent>
1

> <s_lp_Variant>
AV-unprocessed.smi:2450-1

> <Gold.Version>
5.8.1

> <Gold.Id.Protein>
6NUR|6NUR_protein|mol2

> <Gold.PLP.Fitness>
39.7046

> <Gold.PLP.PLP>
-35.8327

> <Gold.PLP.part.hbond>
-2.0000

> <Gold.PLP.part.metal>
0.0000

> <Gold.PLP.part.buried>
-4.8233

> <Gold.PLP.part.nonpolar>
-29.6555

> <Gold.PLP.part.repulsive>
0.1151

> <Gold.PLP.ligand.clash>
0.0000

> <Gold.PLP.ligand.torsion>
1.0313

> <Gold.PLP.Chemscore.Hbond>
1.8640

> <Gold.PLP.Chemscore.CHOScore>
0.0000

> <Gold.PLP.Chemscore.Metal>
0.0000

> <Gold.Chemscore.Hbonds>
donor molecule, donor type, donor heavy atom, donor atom, acceptor molecule, acceptor atom, score
      L1  H     5    29       P1  8028  1.00
      L1  H     8    30       P1  8028  0.88

> <Gold.PLP.Chemscore.Internal.Correction>
0.3425

> <Gold.Rescore>
     Score         DG    S(hbond)    S(metal)    S(lipo)     H(rot)  DE(clash)    DE(int)     intcor
     14.53     -18.89       1.92        0.00      88.72       1.32       0.00       4.35       ----

> <Gold.Chemscore.Fitness>
14.5308

> <Gold.Chemscore.DG>
-18.8874

> <Gold.Chemscore.ZeroCoef>
-5.4800

> <Gold.Chemscore.Hbond>
1.9151

> <Gold.Chemscore.Metal>
0.0000

> <Gold.Chemscore.Lipo>
88.7238

> <Gold.Chemscore.Internal_Hbond>
0.0000

> <Gold.Chemscore.DEClash>
0.0048

> <Gold.Chemscore.DEInternal>
4.3518

> <Gold.Chemscore.Rot>
1.3163

> <Gold.Chemscore.Internal.Correction>
   9.000000E+99

> <Gold.Chemscore.Hbonds>
donor molecule, donor type, donor heavy atom, donor atom, acceptor molecule, acceptor atom, score
      L1  H     5    29       P1  8028  0.98
      L1  H     8    30       P1  8028  0.84

> <Gold.Chemscore.Hbond.Weighted>
-6.3963

> <Gold.Chemscore.Metal.Weighted>
-0.0000

> <Gold.Chemscore.Lipo.Weighted>
-10.3807

> <Gold.Chemscore.Internal_Hbond.Weighted>
0.0000

> <Gold.Chemscore.DEClash.Weighted>
0.0048

> <Gold.Chemscore.DEInternal.Weighted>
4.3518

> <Gold.Chemscore.Rot.Weighted>
3.3696

> <Gold.Chemscore.Internal.Correction.Weighted>
   9.000000E+99

> <Gold.Protein.RotatedTorsions>
[ 6907 6896 6895 6894 ] final  -90.55 input  -60.11 | X-H torsion
[ 7974 7965 7964 7962 ] final   32.97 input  175.53 | X-H torsion
[ 8008 7997 7996 7995 ] final -100.32 input   59.86 | X-H torsion
[ 10167 10162 10161 10158 ] final   42.42 input  -65.29 | X-H torsion
[ 10718 10713 10712 10709 ] final  -74.47 input   66.30 | X-H torsion
[ 10763 10752 10751 10750 ] final  103.36 input  -60.55 | X-H torsion
[ 11005 11000 10999 10996 ] final  130.76 input  -57.11 | X-H torsion

> <Gold.Protein.ActiveResidues>
 VAL166  LYS551  ARG553  GLY616  TRP617  ASP618  TYR619  PRO620  LYS621  CYS622 
 ASP623  PHE694  ASN695  SER759  ASP760  ASP761  ALA762  ILE779  LEU786  VAL792 
 PHE793  MET794  SER795  GLU796  ALA797  LYS798  CYS799  TRP800  GLU811  SER814 

> <Gold.Protein.RotatedAtoms>
  150.6883  134.2415  159.4474 H   0  0  0  0  0  0  0  0  0  0  0  0  # atno 6907 bound_to 6896
  152.0359  134.9738  160.0582 H   0  0  0  0  0  0  0  0  0  0  0  0  # atno 6908 bound_to 6896
  152.1259  133.4345  159.4734 H   0  0  0  0  0  0  0  0  0  0  0  0  # atno 6909 bound_to 6896
  146.1451  139.6457  142.9136 H   0  0  0  0  0  0  0  0  0  0  0  0  # atno 7974 bound_to 7965
  154.8270  140.0441  157.1450 H   0  0  0  0  0  0  0  0  0  0  0  0  # atno 8008 bound_to 7997
  154.9195  140.3025  155.5203 H   0  0  0  0  0  0  0  0  0  0  0  0  # atno 8009 bound_to 7997
  156.2984  140.2343  156.4243 H   0  0  0  0  0  0  0  0  0  0  0  0  # atno 8010 bound_to 7997
  140.3545  144.2307  150.6143 H   0  0  0  0  0  0  0  0  0  0  0  0  # atno 10167 bound_to 10162
  156.0241  130.4418  150.2897 H   0  0  0  0  0  0  0  0  0  0  0  0  # atno 10718 bound_to 10713
  153.3517  135.3979  155.1651 H   0  0  0  0  0  0  0  0  0  0  0  0  # atno 10763 bound_to 10752
  154.8663  135.3658  154.5213 H   0  0  0  0  0  0  0  0  0  0  0  0  # atno 10764 bound_to 10752
  153.5666  135.7080  153.5583 H   0  0  0  0  0  0  0  0  0  0  0  0  # atno 10765 bound_to 10752
  139.9691  134.9582  156.9341 H   0  0  0  0  0  0  0  0  0  0  0  0  # atno 11005 bound_to 11000
  145.4955  141.0438  143.2569 LP  0  0  0  0  0  0  0  0  0  0  0  0  # atno 17320 bound_to 7965
  144.7837  139.6471  143.7143 LP  0  0  0  0  0  0  0  0  0  0  0  0  # atno 17321 bound_to 7965
  140.5187  143.2271  151.8423 LP  0  0  0  0  0  0  0  0  0  0  0  0  # atno 17342 bound_to 10162
  139.4822  144.4863  151.9242 LP  0  0  0  0  0  0  0  0  0  0  0  0  # atno 17343 bound_to 10162
  157.1001  131.0193  151.3089 LP  0  0  0  0  0  0  0  0  0  0  0  0  # atno 17370 bound_to 10713
  157.4787  130.7752  149.7393 LP  0  0  0  0  0  0  0  0  0  0  0  0  # atno 17371 bound_to 10713
  140.5333  134.0792  155.7321 LP  0  0  0  0  0  0  0  0  0  0  0  0  # atno 17394 bound_to 11000
  141.1370  133.9203  157.2410 LP  0  0  0  0  0  0  0  0  0  0  0  0  # atno 17395 bound_to 11000

$$$$
