AV-unprocessed.smi:33|AV-procd|sdf|211|dock3
  -GOLD-   2262015513D 1   1.00000     0.00000
 Structure written by MMmdl.
 67 72  0  0  0  0  0  0  0  0  1 V2000
  148.7403  129.6405  155.6175 O   0  0  0  0  0  0  0  0  0  0  0  0
  148.9143  129.9813  154.4457 C   0  0  0  0  0  0  0  0  0  0  0  0
  149.7262  130.9910  154.0758 O   0  0  0  0  0  0  0  0  0  0  0  0
  150.2769  131.8531  155.0583 C   0  0  0  0  0  0  0  0  0  0  0  0
  150.0669  133.3161  154.6350 C   0  0  2  0  0  0  0  0  0  0  0  0
  150.7775  134.1620  155.5277 O   0  0  0  0  0  0  0  0  0  0  0  0
  149.9654  134.5010  156.6107 C   0  0  1  0  0  0  0  0  0  0  0  0
  150.1973  135.9473  156.8925 N   0  0  0  0  0  0  0  0  0  0  0  0
  149.9611  136.6411  158.0598 C   0  0  0  0  0  0  0  0  0  0  0  0
  150.2487  137.9145  158.0200 N   0  0  0  0  0  0  0  0  0  0  0  0
  150.7131  138.1125  156.7260 C   0  0  0  0  0  0  0  0  0  0  0  0
  151.1842  139.2427  156.0058 C   0  0  0  0  0  0  0  0  0  0  0  0
  151.2694  140.4782  156.5517 N   0  0  0  0  0  0  0  0  0  0  0  0
  152.2750  140.6724  157.6066 C   0  0  0  0  0  0  0  0  0  0  0  0
  153.2621  139.9354  157.6487 O   0  0  0  0  0  0  0  0  0  0  0  0
  152.1314  141.7884  158.6024 C   0  0  0  0  0  0  0  0  0  0  0  0
  153.2604  142.2483  159.3153 C   0  0  0  0  0  0  0  0  0  0  0  0
  153.1297  143.2840  160.2606 C   0  0  0  0  0  0  0  0  0  0  0  0
  151.8670  143.8534  160.5127 C   0  0  0  0  0  0  0  0  0  0  0  0
  150.7327  143.3800  159.8263 C   0  0  0  0  0  0  0  0  0  0  0  0
  150.8624  142.3448  158.8806 C   0  0  0  0  0  0  0  0  0  0  0  0
  150.3513  141.5056  156.0384 C   0  0  0  0  0  0  0  0  0  0  0  0
  150.6536  142.6961  156.1417 O   0  0  0  0  0  0  0  0  0  0  0  0
  149.0785  141.1159  155.3412 C   0  0  0  0  0  0  0  0  0  0  0  0
  148.6241  141.8634  154.2325 C   0  0  0  0  0  0  0  0  0  0  0  0
  147.4253  141.5122  153.5821 C   0  0  0  0  0  0  0  0  0  0  0  0
  146.6637  140.4236  154.0476 C   0  0  0  0  0  0  0  0  0  0  0  0
  147.0962  139.6915  155.1696 C   0  0  0  0  0  0  0  0  0  0  0  0
  148.2953  140.0414  155.8202 C   0  0  0  0  0  0  0  0  0  0  0  0
  151.5612  139.0642  154.7131 N   0  0  0  0  0  0  0  0  0  0  0  0
  151.4839  137.8495  154.1610 C   0  0  0  0  0  0  0  0  0  0  0  0
  151.0674  136.7062  154.7113 N   0  0  0  0  0  0  0  0  0  0  0  0
  150.6845  136.8853  156.0090 C   0  0  0  0  0  0  0  0  0  0  0  0
  148.5009  134.2642  156.2006 C   0  0  2  0  0  0  0  0  0  0  0  0
  147.8834  133.2675  156.9898 O   0  0  0  0  0  0  0  0  0  0  0  0
  148.6202  133.7972  154.7560 C   0  0  1  0  0  0  0  0  0  0  0  0
  148.4322  134.8344  153.9384 F   0  0  0  0  0  0  0  0  0  0  0  0
  148.2461  129.3186  153.2886 C   0  0  0  0  0  0  0  0  0  0  0  0
  146.9951  129.8036  152.8409 C   0  0  0  0  0  0  0  0  0  0  0  0
  146.3380  129.1974  151.7526 C   0  0  0  0  0  0  0  0  0  0  0  0
  146.9235  128.0974  151.0995 C   0  0  0  0  0  0  0  0  0  0  0  0
  148.1675  127.6050  151.5351 C   0  0  0  0  0  0  0  0  0  0  0  0
  148.8269  128.2111  152.6224 C   0  0  0  0  0  0  0  0  0  0  0  0
  149.8262  131.6611  156.0327 H   0  0  0  0  0  0  0  0  0  0  0  0
  151.3441  131.6459  155.1479 H   0  0  0  0  0  0  0  0  0  0  0  0
  150.4513  133.4567  153.6239 H   0  0  0  0  0  0  0  0  0  0  0  0
  150.2682  133.9653  157.5113 H   0  0  0  0  0  0  0  0  0  0  0  0
  149.5638  136.1698  158.9469 H   0  0  0  0  0  0  0  0  0  0  0  0
  154.2342  141.8188  159.1299 H   0  0  0  0  0  0  0  0  0  0  0  0
  153.9989  143.6403  160.7935 H   0  0  0  0  0  0  0  0  0  0  0  0
  151.7675  144.6480  161.2375 H   0  0  0  0  0  0  0  0  0  0  0  0
  149.7624  143.8098  160.0258 H   0  0  0  0  0  0  0  0  0  0  0  0
  149.9839  141.9862  158.3638 H   0  0  0  0  0  0  0  0  0  0  0  0
  149.2011  142.7004  153.8663 H   0  0  0  0  0  0  0  0  0  0  0  0
  147.0902  142.0790  152.7262 H   0  0  0  0  0  0  0  0  0  0  0  0
  145.7445  140.1548  153.5484 H   0  0  0  0  0  0  0  0  0  0  0  0
  146.5079  138.8618  155.5324 H   0  0  0  0  0  0  0  0  0  0  0  0
  148.6149  139.4753  156.6832 H   0  0  0  0  0  0  0  0  0  0  0  0
  151.8002  137.7846  153.1305 H   0  0  0  0  0  0  0  0  0  0  0  0
  147.9122  135.1797  156.2823 H   0  0  0  0  0  0  0  0  0  0  0  0
  148.2686  132.4320  156.7728 H   0  0  0  0  0  0  0  0  0  0  0  0
  147.8853  133.0421  154.4729 H   0  0  0  0  0  0  0  0  0  0  0  0
  146.5256  130.6469  153.3266 H   0  0  0  0  0  0  0  0  0  0  0  0
  145.3834  129.5773  151.4197 H   0  0  0  0  0  0  0  0  0  0  0  0
  146.4190  127.6317  150.2657 H   0  0  0  0  0  0  0  0  0  0  0  0
  148.6172  126.7600  151.0350 H   0  0  0  0  0  0  0  0  0  0  0  0
  149.7797  127.8069  152.9320 H   0  0  0  0  0  0  0  0  0  0  0  0
  1  2  2  0  0  0  0
  2  3  1  0  0  0  0
  2 38  1  0  0  0  0
  3  4  1  0  0  0  0
  4  5  1  0  0  0  0
  4 44  1  0  0  0  0
  4 45  1  0  0  0  0
  5 36  1  0  0  0  0
  5  6  1  0  0  0  0
  5 46  1  0  0  0  0
  6  7  1  0  0  0  0
  7  8  1  0  0  0  0
  7 34  1  0  0  0  0
  7 47  1  0  0  0  0
  8 33  1  0  0  0  0
  8  9  1  0  0  0  0
  9 10  2  0  0  0  0
  9 48  1  0  0  0  0
 10 11  1  0  0  0  0
 11 33  2  0  0  0  0
 11 12  1  0  0  0  0
 12 13  1  0  0  0  0
 12 30  2  0  0  0  0
 13 14  1  0  0  0  0
 13 22  1  0  0  0  0
 14 15  2  0  0  0  0
 14 16  1  0  0  0  0
 16 21  1  0  0  0  0
 16 17  2  0  0  0  0
 17 18  1  0  0  0  0
 17 49  1  0  0  0  0
 18 19  2  0  0  0  0
 18 50  1  0  0  0  0
 19 20  1  0  0  0  0
 19 51  1  0  0  0  0
 20 21  2  0  0  0  0
 20 52  1  0  0  0  0
 21 53  1  0  0  0  0
 22 23  2  0  0  0  0
 22 24  1  0  0  0  0
 24 29  1  0  0  0  0
 24 25  2  0  0  0  0
 25 26  1  0  0  0  0
 25 54  1  0  0  0  0
 26 27  2  0  0  0  0
 26 55  1  0  0  0  0
 27 28  1  0  0  0  0
 27 56  1  0  0  0  0
 28 29  2  0  0  0  0
 28 57  1  0  0  0  0
 29 58  1  0  0  0  0
 30 31  1  0  0  0  0
 31 32  2  0  0  0  0
 31 59  1  0  0  0  0
 32 33  1  0  0  0  0
 34 35  1  0  0  0  0
 34 36  1  0  0  0  0
 34 60  1  0  0  0  0
 35 61  1  0  0  0  0
 36 37  1  0  0  0  0
 36 62  1  0  0  0  0
 38 43  1  0  0  0  0
 38 39  2  0  0  0  0
 39 40  1  0  0  0  0
 39 63  1  0  0  0  0
 40 41  2  0  0  0  0
 40 64  1  0  0  0  0
 41 42  1  0  0  0  0
 41 65  1  0  0  0  0
 42 43  2  0  0  0  0
 42 66  1  0  0  0  0
 43 67  1  0  0  0  0
M  END
> <s_m_source_file>
AV-unprocessed.smi

> <i_m_source_file_index>
33

> <i_lp_mmshare_version>
43012

> <i_f3d_flags>
0

> <s_epik_input>
W2NIXTFbY0hdW2NIXVtjSF1bY0hdYzFDKD1PKU9bQ0gyXVtDQEBIXTJPW0NASF0oW0NAQEhdKFtPSF0pW0NAQEhdMkYpbihbY0hdbjMpYyhjMzQpbltjSF1uYzROKEMoPU8pYzVbY0hdW2NIXVtjSF1bY0hdW2NIXTUpQyg9TyljNltjSF1bY0hdW2NIXVtjSF1bY0hdNg==

> <s_epik_cmdline>
J2VwaWtfcHl0aG9uJywgJy1waCcsICc3LjAnLCAnLXRuJywgJzgnLCAnLW1hJywgJzIwMCcsICctbWV0YWxfYmluZGluZycsICctaW1hZScsICc8aW5maWxlLm1hZT4nLCAnLW9tYWUnLCAnPG91dGZpbGUubWFlPic=

> <r_lp_tautomer_probability>
1

> <r_epik_Ionization_Penalty>
0.00067664

> <r_epik_Ionization_Penalty_Charging>
0

> <r_epik_Ionization_Penalty_Neutral>
0.00067664

> <r_epik_State_Penalty>
0.000428095

> <r_epik_Charging_Adjusted_Penalty>
0.000428095

> <i_epik_Tot_Q>
0

> <i_epik_Tot_abs_Q>
0

> <r_epik_Metal_State_Penalty>
-0

> <b_epik_Metal_Only>
0

> <s_epik_Chemistry_Notes>
This compound has an ester and may undergo hydrolysis at high or low pH. This compound contains an acetal/aminal-like group ( X-CH(R)-Y where X, Y are N, S, or O) that may be acid/base labile, releasing an aldehyde.

> <s_lp_Force_Field>
OPLS_2005

> <r_lp_Energy>
69.3236

> <b_lp_Chiralities_Consistent>
1

> <s_lp_Variant>
AV-unprocessed.smi:33-13

> <Gold.Version>
5.8.1

> <Gold.Id.Protein>
6NUR|6NUR_protein|mol2

> <Gold.PLP.Fitness>
60.2976

> <Gold.PLP.PLP>
-56.7658

> <Gold.PLP.part.hbond>
-2.2056

> <Gold.PLP.part.metal>
0.0000

> <Gold.PLP.part.buried>
0.5072

> <Gold.PLP.part.nonpolar>
-56.2812

> <Gold.PLP.part.repulsive>
2.3993

> <Gold.PLP.ligand.clash>
0.0000

> <Gold.PLP.ligand.torsion>
5.1607

> <Gold.PLP.Chemscore.Hbond>
2.0693

> <Gold.PLP.Chemscore.CHOScore>
0.9365

> <Gold.PLP.Chemscore.Metal>
0.0000

> <Gold.Chemscore.Hbonds>
donor molecule, donor type, donor heavy atom, donor atom, acceptor molecule, acceptor atom, score
      P1  H  7989  7998       L1    30  0.67
      P1  H  7997  8008       L1    15  0.81
      P1  H 10752 10763       L1    32  0.56
      L1  C    31    59       P1  7949  0.94

> <Gold.PLP.Chemscore.Internal.Correction>
4.8358

> <Gold.Rescore>
     Score         DG    S(hbond)    S(metal)    S(lipo)     H(rot)  DE(clash)    DE(int)     intcor
      7.92     -20.38       0.92        0.00     156.23       2.52       1.70      10.76       ----

> <Gold.Chemscore.Fitness>
7.9163

> <Gold.Chemscore.DG>
-20.3761

> <Gold.Chemscore.ZeroCoef>
-5.4800

> <Gold.Chemscore.Hbond>
0.9221

> <Gold.Chemscore.Metal>
0.0000

> <Gold.Chemscore.Lipo>
156.2338

> <Gold.Chemscore.Internal_Hbond>
0.0000

> <Gold.Chemscore.DEClash>
1.6991

> <Gold.Chemscore.DEInternal>
10.7606

> <Gold.Chemscore.Rot>
2.5247

> <Gold.Chemscore.Internal.Correction>
   9.000000E+99

> <Gold.Chemscore.Hbonds>
donor molecule, donor type, donor heavy atom, donor atom, acceptor molecule, acceptor atom, score
      P1  H  7989  7998       L1    30  0.60
      P1  H  7997  8008       L1    15  0.79
      P1  H 10752 10763       L1    32  0.09

> <Gold.Chemscore.Hbond.Weighted>
-3.0800

> <Gold.Chemscore.Metal.Weighted>
-0.0000

> <Gold.Chemscore.Lipo.Weighted>
-18.2794

> <Gold.Chemscore.Internal_Hbond.Weighted>
0.0000

> <Gold.Chemscore.DEClash.Weighted>
1.6991

> <Gold.Chemscore.DEInternal.Weighted>
10.7606

> <Gold.Chemscore.Rot.Weighted>
6.4633

> <Gold.Chemscore.Internal.Correction.Weighted>
   9.000000E+99

> <Gold.Protein.RotatedTorsions>
[ 6907 6896 6895 6894 ] final  -20.13 input  -60.11 | X-H torsion
[ 7974 7965 7964 7962 ] final   -5.34 input  175.53 | X-H torsion
[ 8008 7997 7996 7995 ] final  -83.56 input   59.86 | X-H torsion
[ 10167 10162 10161 10158 ] final   33.28 input  -65.29 | X-H torsion
[ 10718 10713 10712 10709 ] final  115.11 input   66.30 | X-H torsion
[ 10763 10752 10751 10750 ] final   64.55 input  -60.55 | X-H torsion
[ 11005 11000 10999 10996 ] final   88.13 input  -57.11 | X-H torsion

> <Gold.Protein.ActiveResidues>
 VAL166  LYS551  ARG553  GLY616  TRP617  ASP618  TYR619  PRO620  LYS621  CYS622 
 ASP623  PHE694  ASN695  SER759  ASP760  ASP761  ALA762  ILE779  LEU786  VAL792 
 PHE793  MET794  SER795  GLU796  ALA797  LYS798  CYS799  TRP800  GLU811  SER814 

> <Gold.Protein.RotatedAtoms>
  151.2528  135.0628  159.9068 H   0  0  0  0  0  0  0  0  0  0  0  0  # atno 6907 bound_to 6896
  152.5377  134.0314  159.8036 H   0  0  0  0  0  0  0  0  0  0  0  0  # atno 6908 bound_to 6896
  151.0524  133.5563  159.2672 H   0  0  0  0  0  0  0  0  0  0  0  0  # atno 6909 bound_to 6896
  146.2355  140.2006  142.8333 H   0  0  0  0  0  0  0  0  0  0  0  0  # atno 7974 bound_to 7965
  154.6204  140.0617  156.9607 H   0  0  0  0  0  0  0  0  0  0  0  0  # atno 8008 bound_to 7997
  155.1827  140.3300  155.4354 H   0  0  0  0  0  0  0  0  0  0  0  0  # atno 8009 bound_to 7997
  156.2428  140.1895  156.6922 H   0  0  0  0  0  0  0  0  0  0  0  0  # atno 8010 bound_to 7997
  140.4422  144.1171  150.6176 H   0  0  0  0  0  0  0  0  0  0  0  0  # atno 10167 bound_to 10162
  157.6242  131.1008  150.7282 H   0  0  0  0  0  0  0  0  0  0  0  0  # atno 10718 bound_to 10713
  153.0060  135.5389  154.6528 H   0  0  0  0  0  0  0  0  0  0  0  0  # atno 10763 bound_to 10752
  154.5756  135.2845  155.0786 H   0  0  0  0  0  0  0  0  0  0  0  0  # atno 10764 bound_to 10752
  154.1935  135.6496  153.5119 H   0  0  0  0  0  0  0  0  0  0  0  0  # atno 10765 bound_to 10752
  139.8903  134.8468  156.2958 H   0  0  0  0  0  0  0  0  0  0  0  0  # atno 11005 bound_to 11000
  144.9785  140.8436  143.5412 LP  0  0  0  0  0  0  0  0  0  0  0  0  # atno 17320 bound_to 7965
  145.1997  139.2258  143.5199 LP  0  0  0  0  0  0  0  0  0  0  0  0  # atno 17321 bound_to 7965
  140.4305  143.2570  151.9601 LP  0  0  0  0  0  0  0  0  0  0  0  0  # atno 17342 bound_to 10162
  139.4790  144.5748  151.8029 LP  0  0  0  0  0  0  0  0  0  0  0  0  # atno 17343 bound_to 10162
  156.7634  130.4806  149.5432 LP  0  0  0  0  0  0  0  0  0  0  0  0  # atno 17370 bound_to 10713
  156.1404  130.6240  151.0459 LP  0  0  0  0  0  0  0  0  0  0  0  0  # atno 17371 bound_to 10713
  140.9946  133.7188  156.0866 LP  0  0  0  0  0  0  0  0  0  0  0  0  # atno 17394 bound_to 11000
  140.7579  134.3972  157.5530 LP  0  0  0  0  0  0  0  0  0  0  0  0  # atno 17395 bound_to 11000

$$$$
