AV-unprocessed.smi:1429|AV-procd|sdf|5821|dock8
  -GOLD-   22720 5473D 1   1.00000     0.00000
 Structure written by MMmdl.
 29 30  0  0  0  0  0  0  0  0  2 V2000
  143.9733  143.3714  161.9014 C   0  0  0  0  0  0  0  0  0  0  0  0
  145.3441  143.6410  161.3827 C   0  0  0  0  0  0  0  0  0  0  0  0
  146.1893  142.6661  161.0400 N   0  0  0  0  0  0  0  0  0  0  0  0
  147.4024  143.1623  160.5851 N   0  0  0  0  0  0  0  0  0  0  0  0
  147.4618  144.5015  160.5993 C   0  0  0  0  0  0  0  0  0  0  0  0
  148.5497  145.1770  160.1936 N   0  5  0  0  0  0  0  0  0  0  0  0
  149.6323  144.5055  159.7390 C   0  0  0  0  0  0  0  0  0  0  0  0
  149.6253  143.4378  159.1218 O   0  0  0  0  0  0  0  0  0  0  0  0
  150.7962  145.1075  160.0167 N   0  0  0  0  0  0  0  0  0  0  0  0
  152.1130  144.6085  159.6403 C   0  0  0  0  0  0  0  0  0  0  0  0
  152.3677  143.2192  160.2474 C   0  0  1  0  0  0  0  0  0  0  0  0
  153.6140  142.5369  159.7228 C   0  0  0  0  0  0  0  0  0  0  0  0
  153.8597  141.4749  160.7894 C   0  0  0  0  0  0  0  0  0  0  0  0
  153.4091  142.0467  162.0137 O   0  0  0  0  0  0  0  0  0  0  0  0
  152.6421  143.2196  161.7533 C   0  0  0  0  0  0  0  0  0  0  0  0
  145.9781  145.2644  161.1712 S   0  0  0  0  0  0  0  0  0  0  0  0
  144.0317  142.8850  162.8751 H   0  0  0  0  0  0  0  0  0  0  0  0
  143.4338  142.7202  161.2132 H   0  0  0  0  0  0  0  0  0  0  0  0
  143.4179  144.3031  162.0088 H   0  0  0  0  0  0  0  0  0  0  0  0
  150.7616  145.9798  160.5236 H   0  0  0  0  0  0  0  0  0  0  0  0
  152.1739  144.5569  158.5524 H   0  0  0  0  0  0  0  0  0  0  0  0
  152.8806  145.3099  159.9719 H   0  0  0  0  0  0  0  0  0  0  0  0
  151.5112  142.5727  160.0471 H   0  0  0  0  0  0  0  0  0  0  0  0
  153.4856  142.1153  158.7254 H   0  0  0  0  0  0  0  0  0  0  0  0
  154.4500  143.2373  159.6937 H   0  0  0  0  0  0  0  0  0  0  0  0
  153.2646  140.5844  160.5828 H   0  0  0  0  0  0  0  0  0  0  0  0
  154.9067  141.1769  160.8490 H   0  0  0  0  0  0  0  0  0  0  0  0
  153.2381  144.0879  162.0381 H   0  0  0  0  0  0  0  0  0  0  0  0
  151.7253  143.2329  162.3433 H   0  0  0  0  0  0  0  0  0  0  0  0
  1  2  1  0  0  0  0
  1 17  1  0  0  0  0
  1 18  1  0  0  0  0
  1 19  1  0  0  0  0
  2 16  1  0  0  0  0
  2  3  2  0  0  0  0
  3  4  1  0  0  0  0
  4  5  2  0  0  0  0
  5  6  1  0  0  0  0
  5 16  1  0  0  0  0
  6  7  1  0  0  0  0
  7  8  2  0  0  0  0
  7  9  1  0  0  0  0
  9 10  1  0  0  0  0
  9 20  1  0  0  0  0
 10 11  1  0  0  0  0
 10 21  1  0  0  0  0
 10 22  1  0  0  0  0
 11 15  1  0  0  0  0
 11 12  1  0  0  0  0
 11 23  1  0  0  0  0
 12 13  1  0  0  0  0
 12 24  1  0  0  0  0
 12 25  1  0  0  0  0
 13 14  1  0  0  0  0
 13 26  1  0  0  0  0
 13 27  1  0  0  0  0
 14 15  1  0  0  0  0
 15 28  1  0  0  0  0
 15 29  1  0  0  0  0
M  CHG  1   6  -1
M  END
> <s_m_source_file>
AV-unprocessed.smi

> <i_m_source_file_index>
1429

> <i_lp_mmshare_version>
43012

> <i_f3d_flags>
0

> <s_epik_input>
W0NIM11jMW5uYyhzMSlbTkhdQyg9TylbTkhdW0NIMl1bQ0BASF0yW0NIMl1bQ0gyXU9bQ0gyXTI=

> <s_epik_cmdline>
J2VwaWtfcHl0aG9uJywgJy1waCcsICc3LjAnLCAnLXRuJywgJzgnLCAnLW1hJywgJzIwMCcsICctbWV0YWxfYmluZGluZycsICctaW1hZScsICc8aW5maWxlLm1hZT4nLCAnLW9tYWUnLCAnPG91dGZpbGUubWFlPic=

> <r_lp_tautomer_probability>
1

> <r_epik_Ionization_Penalty>
4.4122

> <r_epik_Ionization_Penalty_Charging>
4.26477

> <r_epik_Ionization_Penalty_Neutral>
0.147429

> <r_epik_State_Penalty>
4.26433

> <r_epik_Charging_Adjusted_Penalty>
8.5291

> <i_epik_Tot_Q>
-1

> <i_epik_Tot_abs_Q>
1

> <r_epik_Metal_State_Penalty>
0.713483

> <b_epik_Metal_Only>
1

> <s_lp_Force_Field>
OPLS_2005

> <r_lp_Energy>
16.2384

> <b_lp_Chiralities_Consistent>
1

> <s_lp_Variant>
AV-unprocessed.smi:1429-4

> <Gold.Version>
5.8.1

> <Gold.Id.Protein>
6NUR|6NUR_protein|mol2

> <Gold.PLP.Fitness>
40.8649

> <Gold.PLP.PLP>
-37.0943

> <Gold.PLP.part.hbond>
-3.7584

> <Gold.PLP.part.metal>
0.0000

> <Gold.PLP.part.buried>
-5.4096

> <Gold.PLP.part.nonpolar>
-28.9421

> <Gold.PLP.part.repulsive>
0.6416

> <Gold.PLP.ligand.clash>
0.0000

> <Gold.PLP.ligand.torsion>
0.2896

> <Gold.PLP.Chemscore.Hbond>
1.4392

> <Gold.PLP.Chemscore.CHOScore>
0.0000

> <Gold.PLP.Chemscore.Metal>
0.0000

> <Gold.Chemscore.Hbonds>
donor molecule, donor type, donor heavy atom, donor atom, acceptor molecule, acceptor atom, score
      P1  H  6933  6944       L1     4  1.00
      P1  H  6934  6946       L1     3  0.39

> <Gold.PLP.Chemscore.Internal.Correction>
0.0322

> <Gold.Rescore>
     Score         DG    S(hbond)    S(metal)    S(lipo)     H(rot)  DE(clash)    DE(int)     intcor
     11.15     -14.46       0.92        0.00      78.79       1.30       0.40       2.91       ----

> <Gold.Chemscore.Fitness>
11.1459

> <Gold.Chemscore.DG>
-14.4635

> <Gold.Chemscore.ZeroCoef>
-5.4800

> <Gold.Chemscore.Hbond>
0.9245

> <Gold.Chemscore.Metal>
0.0000

> <Gold.Chemscore.Lipo>
78.7917

> <Gold.Chemscore.Internal_Hbond>
0.0000

> <Gold.Chemscore.DEClash>
0.4047

> <Gold.Chemscore.DEInternal>
2.9128

> <Gold.Chemscore.Rot>
1.2980

> <Gold.Chemscore.Internal.Correction>
   9.000000E+99

> <Gold.Chemscore.Hbonds>
donor molecule, donor type, donor heavy atom, donor atom, acceptor molecule, acceptor atom, score
      P1  H  6933  6944       L1     4  0.42
      P1  H  6934  6946       L1     3  0.01

> <Gold.Chemscore.Hbond.Weighted>
-3.0877

> <Gold.Chemscore.Metal.Weighted>
-0.0000

> <Gold.Chemscore.Lipo.Weighted>
-9.2186

> <Gold.Chemscore.Internal_Hbond.Weighted>
0.0000

> <Gold.Chemscore.DEClash.Weighted>
0.4047

> <Gold.Chemscore.DEInternal.Weighted>
2.9128

> <Gold.Chemscore.Rot.Weighted>
3.3229

> <Gold.Chemscore.Internal.Correction.Weighted>
   9.000000E+99

> <Gold.Protein.RotatedTorsions>
[ 6907 6896 6895 6894 ] final -150.78 input  -60.11 | X-H torsion
[ 7974 7965 7964 7962 ] final -152.41 input  175.53 | X-H torsion
[ 8008 7997 7996 7995 ] final   79.56 input   59.86 | X-H torsion
[ 10167 10162 10161 10158 ] final -139.00 input  -65.29 | X-H torsion
[ 10718 10713 10712 10709 ] final   88.08 input   66.30 | X-H torsion
[ 10763 10752 10751 10750 ] final -125.86 input  -60.55 | X-H torsion
[ 11005 11000 10999 10996 ] final    9.85 input  -57.11 | X-H torsion

> <Gold.Protein.ActiveResidues>
 VAL166  LYS551  ARG553  GLY616  TRP617  ASP618  TYR619  PRO620  LYS621  CYS622 
 ASP623  PHE694  ASN695  SER759  ASP760  ASP761  ALA762  ILE779  LEU786  VAL792 
 PHE793  MET794  SER795  GLU796  ALA797  LYS798  CYS799  TRP800  GLU811  SER814 

> <Gold.Protein.RotatedAtoms>
  151.2036  133.4596  159.2596 H   0  0  0  0  0  0  0  0  0  0  0  0  # atno 6907 bound_to 6896
  151.1045  134.9991  159.8475 H   0  0  0  0  0  0  0  0  0  0  0  0  # atno 6908 bound_to 6896
  152.5446  134.1960  159.8746 H   0  0  0  0  0  0  0  0  0  0  0  0  # atno 6909 bound_to 6896
  144.7796  140.4666  143.5849 H   0  0  0  0  0  0  0  0  0  0  0  0  # atno 7974 bound_to 7965
  155.8714  140.3449  155.5824 H   0  0  0  0  0  0  0  0  0  0  0  0  # atno 8008 bound_to 7997
  155.7823  140.0860  157.2072 H   0  0  0  0  0  0  0  0  0  0  0  0  # atno 8009 bound_to 7997
  154.4017  140.1498  156.3053 H   0  0  0  0  0  0  0  0  0  0  0  0  # atno 8010 bound_to 7997
  139.8423  143.7306  152.2662 H   0  0  0  0  0  0  0  0  0  0  0  0  # atno 10167 bound_to 10162
  157.6946  131.0281  150.3221 H   0  0  0  0  0  0  0  0  0  0  0  0  # atno 10718 bound_to 10713
  154.8740  135.4015  154.3337 H   0  0  0  0  0  0  0  0  0  0  0  0  # atno 10763 bound_to 10752
  153.4146  135.7021  153.6341 H   0  0  0  0  0  0  0  0  0  0  0  0  # atno 10764 bound_to 10752
  153.5028  135.3724  155.2519 H   0  0  0  0  0  0  0  0  0  0  0  0  # atno 10765 bound_to 10752
  140.5211  134.0558  155.7845 H   0  0  0  0  0  0  0  0  0  0  0  0  # atno 11005 bound_to 11000
  145.6088  139.1511  143.3087 LP  0  0  0  0  0  0  0  0  0  0  0  0  # atno 17320 bound_to 7965
  146.1996  140.6206  142.9108 LP  0  0  0  0  0  0  0  0  0  0  0  0  # atno 17321 bound_to 7965
  139.7547  144.7524  151.0453 LP  0  0  0  0  0  0  0  0  0  0  0  0  # atno 17342 bound_to 10162
  140.7797  143.4819  151.0006 LP  0  0  0  0  0  0  0  0  0  0  0  0  # atno 17343 bound_to 10162
  156.3706  130.3863  149.7178 LP  0  0  0  0  0  0  0  0  0  0  0  0  # atno 17370 bound_to 10713
  156.4594  130.7944  151.2965 LP  0  0  0  0  0  0  0  0  0  0  0  0  # atno 17371 bound_to 10713
  141.1333  133.9264  157.2488 LP  0  0  0  0  0  0  0  0  0  0  0  0  # atno 17394 bound_to 11000
  139.9605  135.0155  156.9248 LP  0  0  0  0  0  0  0  0  0  0  0  0  # atno 17395 bound_to 11000

$$$$
