AV-unprocessed.smi:3308|AV-procd|sdf|12708|dock10
  -GOLD-   2272019 43D 1   1.00000     0.00000
 Structure written by MMmdl.
 41 42  0  0  0  0  0  0  0  0  2 V2000
  149.6779  139.8001  154.4153 C   0  0  0  0  0  0  0  0  0  0  0  0
  148.9498  141.1531  154.2998 C   0  0  2  0  0  0  0  0  0  0  0  0
  149.2964  142.0154  155.4545 N   0  3  0  0  0  0  0  0  0  0  0  0
  150.7203  142.0049  155.8546 C   0  0  0  0  0  0  0  0  0  0  0  0
  150.8923  141.9250  157.3780 C   0  0  0  0  0  0  0  0  0  0  0  0
  150.5993  140.8853  157.9711 O   0  0  0  0  0  0  0  0  0  0  0  0
  151.3651  143.0109  158.0235 N   0  0  0  0  0  0  0  0  0  0  0  0
  151.5591  143.0699  159.4710 C   0  0  0  0  0  0  0  0  0  0  0  0
  151.8381  144.5383  159.7908 C   0  0  0  0  0  0  0  0  0  0  0  0
  152.4207  145.0957  158.4994 C   0  0  0  0  0  0  0  0  0  0  0  0
  151.7440  144.2781  157.3984 C   0  0  0  0  0  0  0  0  0  0  0  0
  147.4072  140.9895  154.2077 C   0  0  2  0  0  0  0  0  0  0  0  0
  146.7439  140.7043  155.5683 C   0  0  0  0  0  0  0  0  0  0  0  0
  147.0258  139.9503  153.2565 N   0  0  0  0  0  0  0  0  0  0  0  0
  147.1606  139.9620  151.8832 C   0  0  0  0  0  0  0  0  0  0  0  0
  146.6512  138.7861  151.4120 C   0  0  0  0  0  0  0  0  0  0  0  0
  146.2089  138.1144  152.5852 C   0  0  0  0  0  0  0  0  0  0  0  0
  146.4300  138.8144  153.6859 N   0  0  0  0  0  0  0  0  0  0  0  0
  149.5044  139.1734  153.5413 H   0  0  0  0  0  0  0  0  0  0  0  0
  149.3472  139.2454  155.2938 H   0  0  0  0  0  0  0  0  0  0  0  0
  150.7573  139.9278  154.4922 H   0  0  0  0  0  0  0  0  0  0  0  0
  149.2930  141.6507  153.3913 H   0  0  0  0  0  0  0  0  0  0  0  0
  149.0777  142.9669  155.1937 H   0  0  0  0  0  0  0  0  0  0  0  0
  151.2259  141.1555  155.3959 H   0  0  0  0  0  0  0  0  0  0  0  0
  151.1976  142.9154  155.4899 H   0  0  0  0  0  0  0  0  0  0  0  0
  150.6898  142.7035  160.0193 H   0  0  0  0  0  0  0  0  0  0  0  0
  152.4156  142.4497  159.7396 H   0  0  0  0  0  0  0  0  0  0  0  0
  150.9004  145.0476  160.0176 H   0  0  0  0  0  0  0  0  0  0  0  0
  152.5028  144.6659  160.6458 H   0  0  0  0  0  0  0  0  0  0  0  0
  152.2591  146.1685  158.3900 H   0  0  0  0  0  0  0  0  0  0  0  0
  153.4964  144.9164  158.4790 H   0  0  0  0  0  0  0  0  0  0  0  0
  152.4143  144.1395  156.5488 H   0  0  0  0  0  0  0  0  0  0  0  0
  150.8454  144.7866  157.0459 H   0  0  0  0  0  0  0  0  0  0  0  0
  146.9920  141.9256  153.8306 H   0  0  0  0  0  0  0  0  0  0  0  0
  146.8579  141.5393  156.2586 H   0  0  0  0  0  0  0  0  0  0  0  0
  147.1682  139.8181  156.0413 H   0  0  0  0  0  0  0  0  0  0  0  0
  145.6728  140.5352  155.4515 H   0  0  0  0  0  0  0  0  0  0  0  0
  147.6042  140.7964  151.3597 H   0  0  0  0  0  0  0  0  0  0  0  0
  146.5967  138.4581  150.3844 H   0  0  0  0  0  0  0  0  0  0  0  0
  145.7352  137.1474  152.6689 H   0  0  0  0  0  0  0  0  0  0  0  0
  148.7221  141.7645  156.2466 H   0  0  0  0  0  0  0  0  0  0  0  0
  1  2  1  0  0  0  0
  1 19  1  0  0  0  0
  1 20  1  0  0  0  0
  1 21  1  0  0  0  0
  2  3  1  0  0  0  0
  2 12  1  0  0  0  0
  2 22  1  0  0  0  0
  3  4  1  0  0  0  0
  3 23  1  0  0  0  0
  3 41  1  0  0  0  0
  4  5  1  0  0  0  0
  4 24  1  0  0  0  0
  4 25  1  0  0  0  0
  5  6  2  0  0  0  0
  5  7  1  0  0  0  0
  7 11  1  0  0  0  0
  7  8  1  0  0  0  0
  8  9  1  0  0  0  0
  8 26  1  0  0  0  0
  8 27  1  0  0  0  0
  9 10  1  0  0  0  0
  9 28  1  0  0  0  0
  9 29  1  0  0  0  0
 10 11  1  0  0  0  0
 10 30  1  0  0  0  0
 10 31  1  0  0  0  0
 11 32  1  0  0  0  0
 11 33  1  0  0  0  0
 12 13  1  0  0  0  0
 12 14  1  0  0  0  0
 12 34  1  0  0  0  0
 13 35  1  0  0  0  0
 13 36  1  0  0  0  0
 13 37  1  0  0  0  0
 14 18  1  0  0  0  0
 14 15  1  0  0  0  0
 15 16  2  0  0  0  0
 15 38  1  0  0  0  0
 16 17  1  0  0  0  0
 16 39  1  0  0  0  0
 17 18  2  0  0  0  0
 17 40  1  0  0  0  0
M  CHG  1   3   1
M  END
> <s_m_source_file>
AV-unprocessed.smi

> <i_m_source_file_index>
3308

> <i_lp_mmshare_version>
43012

> <i_f3d_flags>
0

> <s_epik_input>
bjFbY0hdW2NIXVtjSF1uMVtDQEBIXShbQ0gzXSlbQ0BIXShbQ0gzXSlbTkhdW0NIMl1DKD1PKU4yW0NIMl1bQ0gyXVtDSDJdW0NIMl0y

> <s_epik_cmdline>
J2VwaWtfcHl0aG9uJywgJy1waCcsICc3LjAnLCAnLXRuJywgJzgnLCAnLW1hJywgJzIwMCcsICctbWV0YWxfYmluZGluZycsICctaW1hZScsICc8aW5maWxlLm1hZT4nLCAnLW9tYWUnLCAnPG91dGZpbGUubWFlPic=

> <r_lp_tautomer_probability>
1

> <r_epik_Ionization_Penalty>
0.141739

> <r_epik_Ionization_Penalty_Charging>
0.141731

> <r_epik_Ionization_Penalty_Neutral>
8.82171e-06

> <r_epik_State_Penalty>
0.131043

> <r_epik_Charging_Adjusted_Penalty>
0.272773

> <i_epik_Tot_Q>
1

> <i_epik_Tot_abs_Q>
1

> <r_epik_Metal_State_Penalty>
0.131385

> <b_epik_Metal_Only>
0

> <s_lp_Force_Field>
OPLS_2005

> <r_lp_Energy>
31.7083

> <b_lp_Chiralities_Consistent>
1

> <s_lp_Variant>
AV-unprocessed.smi:3308-1

> <Gold.Version>
5.8.1

> <Gold.Id.Protein>
6NUR|6NUR_protein|mol2

> <Gold.PLP.Fitness>
45.8970

> <Gold.PLP.PLP>
-40.1134

> <Gold.PLP.part.hbond>
-1.0000

> <Gold.PLP.part.metal>
0.0000

> <Gold.PLP.part.buried>
-1.3831

> <Gold.PLP.part.nonpolar>
-39.9618

> <Gold.PLP.part.repulsive>
0.3300

> <Gold.PLP.ligand.clash>
0.0000

> <Gold.PLP.ligand.torsion>
0.9492

> <Gold.PLP.Chemscore.Hbond>
2.0000

> <Gold.PLP.Chemscore.CHOScore>
0.5352

> <Gold.PLP.Chemscore.Metal>
0.0000

> <Gold.Chemscore.Hbonds>
donor molecule, donor type, donor heavy atom, donor atom, acceptor molecule, acceptor atom, score
      L1  H     3    23       P1  8028  2.00
      L1  C    15    38       P1  7957  0.40

> <Gold.PLP.Chemscore.Internal.Correction>
0.0763

> <Gold.Rescore>
     Score         DG    S(hbond)    S(metal)    S(lipo)     H(rot)  DE(clash)    DE(int)     intcor
     14.67     -16.96       0.99        0.00     109.03       1.78       1.36       0.93       ----

> <Gold.Chemscore.Fitness>
14.6725

> <Gold.Chemscore.DG>
-16.9610

> <Gold.Chemscore.ZeroCoef>
-5.4800

> <Gold.Chemscore.Hbond>
0.9850

> <Gold.Chemscore.Metal>
0.0000

> <Gold.Chemscore.Lipo>
109.0336

> <Gold.Chemscore.Internal_Hbond>
0.0000

> <Gold.Chemscore.DEClash>
1.3616

> <Gold.Chemscore.DEInternal>
0.9270

> <Gold.Chemscore.Rot>
1.7836

> <Gold.Chemscore.Internal.Correction>
   9.000000E+99

> <Gold.Chemscore.Hbonds>
donor molecule, donor type, donor heavy atom, donor atom, acceptor molecule, acceptor atom, score
      L1  H     3    23       P1  8028  0.95

> <Gold.Chemscore.Hbond.Weighted>
-3.2901

> <Gold.Chemscore.Metal.Weighted>
-0.0000

> <Gold.Chemscore.Lipo.Weighted>
-12.7569

> <Gold.Chemscore.Internal_Hbond.Weighted>
0.0000

> <Gold.Chemscore.DEClash.Weighted>
1.3616

> <Gold.Chemscore.DEInternal.Weighted>
0.9270

> <Gold.Chemscore.Rot.Weighted>
4.5660

> <Gold.Chemscore.Internal.Correction.Weighted>
   9.000000E+99

> <Gold.Protein.RotatedTorsions>
[ 6907 6896 6895 6894 ] final  -54.19 input  -60.11 | X-H torsion
[ 7974 7965 7964 7962 ] final  -25.77 input  175.53 | X-H torsion
[ 8008 7997 7996 7995 ] final  -79.23 input   59.86 | X-H torsion
[ 10167 10162 10161 10158 ] final   93.37 input  -65.29 | X-H torsion
[ 10718 10713 10712 10709 ] final -141.93 input   66.30 | X-H torsion
[ 10763 10752 10751 10750 ] final    3.58 input  -60.55 | X-H torsion
[ 11005 11000 10999 10996 ] final   47.08 input  -57.11 | X-H torsion

> <Gold.Protein.ActiveResidues>
 VAL166  LYS551  ARG553  GLY616  TRP617  ASP618  TYR619  PRO620  LYS621  CYS622 
 ASP623  PHE694  ASN695  SER759  ASP760  ASP761  ALA762  ILE779  LEU786  VAL792 
 PHE793  MET794  SER795  GLU796  ALA797  LYS798  CYS799  TRP800  GLU811  SER814 

> <Gold.Protein.RotatedAtoms>
  150.8360  134.7633  159.6892 H   0  0  0  0  0  0  0  0  0  0  0  0  # atno 6907 bound_to 6896
  152.4456  134.5497  159.9873 H   0  0  0  0  0  0  0  0  0  0  0  0  # atno 6908 bound_to 6896
  151.5647  133.3360  159.3014 H   0  0  0  0  0  0  0  0  0  0  0  0  # atno 6909 bound_to 6896
  146.1469  140.4931  142.8628 H   0  0  0  0  0  0  0  0  0  0  0  0  # atno 7974 bound_to 7965
  154.5765  140.0681  156.9042 H   0  0  0  0  0  0  0  0  0  0  0  0  # atno 8008 bound_to 7997
  155.2539  140.3353  155.4261 H   0  0  0  0  0  0  0  0  0  0  0  0  # atno 8009 bound_to 7997
  156.2158  140.1778  156.7577 H   0  0  0  0  0  0  0  0  0  0  0  0  # atno 8010 bound_to 7997
  139.8186  144.6741  150.9548 H   0  0  0  0  0  0  0  0  0  0  0  0  # atno 10167 bound_to 10162
  156.3399  130.7631  151.1766 H   0  0  0  0  0  0  0  0  0  0  0  0  # atno 10718 bound_to 10713
  153.2816  135.6941  153.7380 H   0  0  0  0  0  0  0  0  0  0  0  0  # atno 10763 bound_to 10752
  153.6365  135.3401  155.3059 H   0  0  0  0  0  0  0  0  0  0  0  0  # atno 10764 bound_to 10752
  154.8497  135.4421  154.1871 H   0  0  0  0  0  0  0  0  0  0  0  0  # atno 10765 bound_to 10752
  140.1311  134.4704  155.8521 H   0  0  0  0  0  0  0  0  0  0  0  0  # atno 11005 bound_to 11000
  144.7857  140.5931  143.6575 LP  0  0  0  0  0  0  0  0  0  0  0  0  # atno 17320 bound_to 7965
  145.4916  139.1488  143.3706 LP  0  0  0  0  0  0  0  0  0  0  0  0  # atno 17321 bound_to 7965
  140.7814  143.4114  151.0987 LP  0  0  0  0  0  0  0  0  0  0  0  0  # atno 17342 bound_to 10162
  139.7776  143.8402  152.3132 LP  0  0  0  0  0  0  0  0  0  0  0  0  # atno 17343 bound_to 10162
  157.7445  131.0457  150.4858 LP  0  0  0  0  0  0  0  0  0  0  0  0  # atno 17370 bound_to 10713
  156.5037  130.4123  149.6339 LP  0  0  0  0  0  0  0  0  0  0  0  0  # atno 17371 bound_to 10713
  141.2170  133.6796  156.7071 LP  0  0  0  0  0  0  0  0  0  0  0  0  # atno 17394 bound_to 11000
  140.2841  134.8293  157.3959 LP  0  0  0  0  0  0  0  0  0  0  0  0  # atno 17395 bound_to 11000

$$$$
