AV-unprocessed.smi:170|AV-procd|sdf|1409|dock3
  -GOLD-   2262019163D 1   1.00000     0.00000
 Structure written by MMmdl.
 57 61  0  0  0  0  0  0  0  0  1 V2000
  143.5994  145.6761  158.8248 O   0  0  0  0  0  0  0  0  0  0  0  0
  144.5210  145.0399  157.9593 C   0  0  1  0  0  0  0  0  0  0  0  0
  144.4013  143.5076  158.0677 C   0  0  0  0  0  0  0  0  0  0  0  0
  145.6501  142.8319  157.7650 N   0  0  0  0  0  0  0  0  0  0  0  0
  146.6449  142.4976  158.6543 C   0  0  0  0  0  0  0  0  0  0  0  0
  147.6754  141.8918  158.1308 N   0  0  0  0  0  0  0  0  0  0  0  0
  147.3651  141.7934  156.7789 C   0  0  0  0  0  0  0  0  0  0  0  0
  148.0210  141.2452  155.6376 C   0  0  0  0  0  0  0  0  0  0  0  0
  149.2268  140.6285  155.6446 N   0  0  0  0  0  0  0  0  0  0  0  0
  149.3761  139.7843  154.4645 C   0  0  0  0  0  0  0  0  0  0  0  0
  150.6389  138.9206  154.5818 C   0  0  0  0  0  0  0  0  0  0  0  0
  151.7624  139.7680  154.7783 O   0  0  0  0  0  0  0  0  0  0  0  0
  151.6584  140.5164  155.9842 C   0  0  0  0  0  0  0  0  0  0  0  0
  150.4156  141.4367  155.9478 C   0  0  2  0  0  0  0  0  0  0  0  0
  150.2709  142.2363  157.2692 C   0  0  0  0  0  0  0  0  0  0  0  0
  151.4740  143.1198  157.5919 C   0  0  0  0  0  0  0  0  0  0  0  0
  152.4270  142.7220  158.7290 C   0  0  0  0  0  0  0  0  0  0  0  0
  152.6036  144.2109  159.0402 C   0  0  0  0  0  0  0  0  0  0  0  0
  151.2666  144.4491  158.3342 C   0  0  0  0  0  0  0  0  0  0  0  0
  147.4019  141.3607  154.4363 N   0  0  0  0  0  0  0  0  0  0  0  0
  146.2073  141.9536  154.3512 C   0  0  0  0  0  0  0  0  0  0  0  0
  145.4705  142.4921  155.3252 N   0  0  0  0  0  0  0  0  0  0  0  0
  146.0962  142.3902  156.5327 C   0  0  0  0  0  0  0  0  0  0  0  0
  144.3396  145.5509  156.5162 C   0  0  2  0  0  0  0  0  0  0  0  0
  144.2791  147.0774  156.3355 C   0  0  0  0  0  0  0  0  0  0  0  0
  143.0461  147.2944  155.4720 C   0  0  0  0  0  0  0  0  0  0  0  0
  142.7826  145.9149  154.8797 C   0  0  0  0  0  0  0  0  0  0  0  0
  143.1443  145.0417  155.9359 O   0  0  0  0  0  0  0  0  0  0  0  0
  143.3259  145.0506  159.4783 H   0  0  0  0  0  0  0  0  0  0  0  0
  145.5167  145.3331  158.2952 H   0  0  0  0  0  0  0  0  0  0  0  0
  144.0827  143.2152  159.0691 H   0  0  0  0  0  0  0  0  0  0  0  0
  143.6396  143.1398  157.3791 H   0  0  0  0  0  0  0  0  0  0  0  0
  146.5840  142.7223  159.7094 H   0  0  0  0  0  0  0  0  0  0  0  0
  148.5036  139.1405  154.3448 H   0  0  0  0  0  0  0  0  0  0  0  0
  149.4360  140.4131  153.5748 H   0  0  0  0  0  0  0  0  0  0  0  0
  150.5527  138.2084  155.4040 H   0  0  0  0  0  0  0  0  0  0  0  0
  150.7849  138.3415  153.6701 H   0  0  0  0  0  0  0  0  0  0  0  0
  151.6200  139.8394  156.8392 H   0  0  0  0  0  0  0  0  0  0  0  0
  152.5708  141.1033  156.0855 H   0  0  0  0  0  0  0  0  0  0  0  0
  150.5613  142.1377  155.1265 H   0  0  0  0  0  0  0  0  0  0  0  0
  149.3874  142.8726  157.2311 H   0  0  0  0  0  0  0  0  0  0  0  0
  150.0906  141.5437  158.0921 H   0  0  0  0  0  0  0  0  0  0  0  0
  152.0730  143.3077  156.6989 H   0  0  0  0  0  0  0  0  0  0  0  0
  151.9279  142.1810  159.5346 H   0  0  0  0  0  0  0  0  0  0  0  0
  153.3350  142.2122  158.4054 H   0  0  0  0  0  0  0  0  0  0  0  0
  152.6110  144.4591  160.1018 H   0  0  0  0  0  0  0  0  0  0  0  0
  153.4468  144.6582  158.5110 H   0  0  0  0  0  0  0  0  0  0  0  0
  151.2373  145.3300  157.6921 H   0  0  0  0  0  0  0  0  0  0  0  0
  150.4177  144.4230  159.0198 H   0  0  0  0  0  0  0  0  0  0  0  0
  145.7797  142.0028  153.3605 H   0  0  0  0  0  0  0  0  0  0  0  0
  145.1643  145.1722  155.9096 H   0  0  0  0  0  0  0  0  0  0  0  0
  144.1990  147.6241  157.2754 H   0  0  0  0  0  0  0  0  0  0  0  0
  145.1776  147.4307  155.8284 H   0  0  0  0  0  0  0  0  0  0  0  0
  142.2048  147.5895  156.1003 H   0  0  0  0  0  0  0  0  0  0  0  0
  143.1862  148.0626  154.7111 H   0  0  0  0  0  0  0  0  0  0  0  0
  141.7447  145.7754  154.5771 H   0  0  0  0  0  0  0  0  0  0  0  0
  143.4234  145.7309  154.0158 H   0  0  0  0  0  0  0  0  0  0  0  0
  1  2  1  0  0  0  0
  1 29  1  0  0  0  0
  2  3  1  0  0  0  0
  2 24  1  0  0  0  0
  2 30  1  0  0  0  0
  3  4  1  0  0  0  0
  3 31  1  0  0  0  0
  3 32  1  0  0  0  0
  4 23  1  0  0  0  0
  4  5  1  0  0  0  0
  5  6  2  0  0  0  0
  5 33  1  0  0  0  0
  6  7  1  0  0  0  0
  7 23  2  0  0  0  0
  7  8  1  0  0  0  0
  8  9  1  0  0  0  0
  8 20  2  0  0  0  0
  9 14  1  0  0  0  0
  9 10  1  0  0  0  0
 10 11  1  0  0  0  0
 10 34  1  0  0  0  0
 10 35  1  0  0  0  0
 11 12  1  0  0  0  0
 11 36  1  0  0  0  0
 11 37  1  0  0  0  0
 12 13  1  0  0  0  0
 13 14  1  0  0  0  0
 13 38  1  0  0  0  0
 13 39  1  0  0  0  0
 14 15  1  0  0  0  0
 14 40  1  0  0  0  0
 15 16  1  0  0  0  0
 15 41  1  0  0  0  0
 15 42  1  0  0  0  0
 16 19  1  0  0  0  0
 16 17  1  0  0  0  0
 16 43  1  0  0  0  0
 17 18  1  0  0  0  0
 17 44  1  0  0  0  0
 17 45  1  0  0  0  0
 18 19  1  0  0  0  0
 18 46  1  0  0  0  0
 18 47  1  0  0  0  0
 19 48  1  0  0  0  0
 19 49  1  0  0  0  0
 20 21  1  0  0  0  0
 21 22  2  0  0  0  0
 21 50  1  0  0  0  0
 22 23  1  0  0  0  0
 24 28  1  0  0  0  0
 24 25  1  0  0  0  0
 24 51  1  0  0  0  0
 25 26  1  0  0  0  0
 25 52  1  0  0  0  0
 25 53  1  0  0  0  0
 26 27  1  0  0  0  0
 26 54  1  0  0  0  0
 26 55  1  0  0  0  0
 27 28  1  0  0  0  0
 27 56  1  0  0  0  0
 27 57  1  0  0  0  0
M  END
> <s_m_source_file>
AV-unprocessed.smi

> <i_m_source_file_index>
170

> <i_lp_mmshare_version>
43012

> <i_f3d_flags>
0

> <s_epik_input>
TzFbQ0gyXVtDSDJdW0NIMl1bQ0BIXTFbQ0BIXShbT0hdKVtDSDJdbihbY0hdbjIpYyhjMjMpbltjSF1uYzNONFtDSDJdW0NIMl1PW0NIMl1bQ0BIXTRbQ0gyXVtDSF01W0NIMl1bQ0gyXVtDSDJdNQ==

> <s_epik_cmdline>
J2VwaWtfcHl0aG9uJywgJy1waCcsICc3LjAnLCAnLXRuJywgJzgnLCAnLW1hJywgJzIwMCcsICctbWV0YWxfYmluZGluZycsICctaW1hZScsICc8aW5maWxlLm1hZT4nLCAnLW9tYWUnLCAnPG91dGZpbGUubWFlPic=

> <r_lp_tautomer_probability>
1

> <r_epik_Ionization_Penalty>
4.98275e-05

> <r_epik_Ionization_Penalty_Charging>
0

> <r_epik_Ionization_Penalty_Neutral>
4.98275e-05

> <r_epik_State_Penalty>
-0

> <r_epik_Charging_Adjusted_Penalty>
0

> <i_epik_Tot_Q>
0

> <i_epik_Tot_abs_Q>
0

> <r_epik_Metal_State_Penalty>
-0

> <b_epik_Metal_Only>
0

> <s_lp_Force_Field>
OPLS_2005

> <r_lp_Energy>
52.3548

> <b_lp_Chiralities_Consistent>
1

> <s_lp_Variant>
AV-unprocessed.smi:170-4

> <Gold.Version>
5.8.1

> <Gold.Id.Protein>
6NUR|6NUR_protein|mol2

> <Gold.PLP.Fitness>
47.6587

> <Gold.PLP.PLP>
-47.4830

> <Gold.PLP.part.hbond>
-1.0000

> <Gold.PLP.part.metal>
0.0000

> <Gold.PLP.part.buried>
-7.3544

> <Gold.PLP.part.nonpolar>
-41.1493

> <Gold.PLP.part.repulsive>
0.5571

> <Gold.PLP.ligand.clash>
0.6676

> <Gold.PLP.ligand.torsion>
1.6863

> <Gold.PLP.Chemscore.Hbond>
1.0000

> <Gold.PLP.Chemscore.CHOScore>
0.2550

> <Gold.PLP.Chemscore.Metal>
0.0000

> <Gold.Chemscore.Hbonds>
donor molecule, donor type, donor heavy atom, donor atom, acceptor molecule, acceptor atom, score
      P1  H  7989  7998       L1    12  1.00
      L1  C    21    50       P1 10175  0.19

> <Gold.PLP.Chemscore.Internal.Correction>
0.4511

> <Gold.Rescore>
     Score         DG    S(hbond)    S(metal)    S(lipo)     H(rot)  DE(clash)    DE(int)     intcor
      9.65     -13.39       0.44        0.00     112.35       2.61       0.03       3.71       ----

> <Gold.Chemscore.Fitness>
9.6456

> <Gold.Chemscore.DG>
-13.3860

> <Gold.Chemscore.ZeroCoef>
-5.4800

> <Gold.Chemscore.Hbond>
0.4352

> <Gold.Chemscore.Metal>
0.0000

> <Gold.Chemscore.Lipo>
112.3547

> <Gold.Chemscore.Internal_Hbond>
0.0000

> <Gold.Chemscore.DEClash>
0.0266

> <Gold.Chemscore.DEInternal>
3.7138

> <Gold.Chemscore.Rot>
2.6144

> <Gold.Chemscore.Internal.Correction>
   9.000000E+99

> <Gold.Chemscore.Hbonds>
donor molecule, donor type, donor heavy atom, donor atom, acceptor molecule, acceptor atom, score
      P1  H  7989  7998       L1    12  0.26

> <Gold.Chemscore.Hbond.Weighted>
-1.4535

> <Gold.Chemscore.Metal.Weighted>
-0.0000

> <Gold.Chemscore.Lipo.Weighted>
-13.1455

> <Gold.Chemscore.Internal_Hbond.Weighted>
0.0000

> <Gold.Chemscore.DEClash.Weighted>
0.0266

> <Gold.Chemscore.DEInternal.Weighted>
3.7138

> <Gold.Chemscore.Rot.Weighted>
6.6929

> <Gold.Chemscore.Internal.Correction.Weighted>
   9.000000E+99

> <Gold.Protein.RotatedTorsions>
[ 6907 6896 6895 6894 ] final   62.93 input  -60.11 | X-H torsion
[ 7974 7965 7964 7962 ] final -167.29 input  175.53 | X-H torsion
[ 8008 7997 7996 7995 ] final  136.63 input   59.86 | X-H torsion
[ 10167 10162 10161 10158 ] final -102.26 input  -65.29 | X-H torsion
[ 10718 10713 10712 10709 ] final  -98.93 input   66.30 | X-H torsion
[ 10763 10752 10751 10750 ] final   59.00 input  -60.55 | X-H torsion
[ 11005 11000 10999 10996 ] final -117.73 input  -57.11 | X-H torsion

> <Gold.Protein.ActiveResidues>
 VAL166  LYS551  ARG553  GLY616  TRP617  ASP618  TYR619  PRO620  LYS621  CYS622 
 ASP623  PHE694  ASN695  SER759  ASP760  ASP761  ALA762  ILE779  LEU786  VAL792 
 PHE793  MET794  SER795  GLU796  ALA797  LYS798  CYS799  TRP800  GLU811  SER814 

> <Gold.Protein.RotatedAtoms>
  152.4212  134.5951  159.9984 H   0  0  0  0  0  0  0  0  0  0  0  0  # atno 6907 bound_to 6896
  151.6100  133.3342  159.3073 H   0  0  0  0  0  0  0  0  0  0  0  0  # atno 6908 bound_to 6896
  150.8101  134.7288  159.6745 H   0  0  0  0  0  0  0  0  0  0  0  0  # atno 6909 bound_to 6896
  144.7226  140.2540  143.6274 H   0  0  0  0  0  0  0  0  0  0  0  0  # atno 7974 bound_to 7965
  156.3004  140.2440  156.3778 H   0  0  0  0  0  0  0  0  0  0  0  0  # atno 8008 bound_to 7997
  154.8729  140.0415  157.1755 H   0  0  0  0  0  0  0  0  0  0  0  0  # atno 8009 bound_to 7997
  154.8776  140.2944  155.5448 H   0  0  0  0  0  0  0  0  0  0  0  0  # atno 8010 bound_to 7997
  140.2326  143.3596  152.0873 H   0  0  0  0  0  0  0  0  0  0  0  0  # atno 10167 bound_to 10162
  156.0120  130.5260  150.6596 H   0  0  0  0  0  0  0  0  0  0  0  0  # atno 10718 bound_to 10713
  152.9884  135.5587  154.5643 H   0  0  0  0  0  0  0  0  0  0  0  0  # atno 10763 bound_to 10752
  154.5056  135.2799  155.1387 H   0  0  0  0  0  0  0  0  0  0  0  0  # atno 10764 bound_to 10752
  154.2800  135.6346  153.5396 H   0  0  0  0  0  0  0  0  0  0  0  0  # atno 10765 bound_to 10752
  141.0334  133.9946  157.3107 H   0  0  0  0  0  0  0  0  0  0  0  0  # atno 11005 bound_to 11000
  145.8200  139.2039  143.1943 LP  0  0  0  0  0  0  0  0  0  0  0  0  # atno 17320 bound_to 7965
  146.0522  140.8057  142.9776 LP  0  0  0  0  0  0  0  0  0  0  0  0  # atno 17321 bound_to 7965
  139.5105  144.6885  151.5824 LP  0  0  0  0  0  0  0  0  0  0  0  0  # atno 17342 bound_to 10162
  140.6174  143.9323  150.6499 LP  0  0  0  0  0  0  0  0  0  0  0  0  # atno 17343 bound_to 10162
  157.4341  131.0853  151.1009 LP  0  0  0  0  0  0  0  0  0  0  0  0  # atno 17370 bound_to 10713
  157.1573  130.6210  149.5600 LP  0  0  0  0  0  0  0  0  0  0  0  0  # atno 17371 bound_to 10713
  139.9224  135.0201  156.8112 LP  0  0  0  0  0  0  0  0  0  0  0  0  # atno 17394 bound_to 11000
  140.6365  133.9857  155.7687 LP  0  0  0  0  0  0  0  0  0  0  0  0  # atno 17395 bound_to 11000

$$$$
