AV-unprocessed.smi:102|AV-procd|sdf|955|dock4
  -GOLD-   2262017493D 1   1.00000     0.00000
 Structure written by MMmdl.
 44 45  0  0  0  0  0  0  0  0  1 V2000
  145.9230  132.4612  151.7292 C   0  0  0  0  0  0  0  0  0  0  0  0
  146.6708  131.8973  152.9300 C   0  0  0  0  0  0  0  0  0  0  0  0
  146.1649  131.0479  153.6632 O   0  0  0  0  0  0  0  0  0  0  0  0
  147.8931  132.4287  153.0641 O   0  0  0  0  0  0  0  0  0  0  0  0
  148.7904  131.9095  154.0340 C   0  0  0  0  0  0  0  0  0  0  0  0
  148.5381  132.5644  155.4018 C   0  0  2  0  0  0  0  0  0  0  0  0
  148.6342  133.9756  155.3218 O   0  0  0  0  0  0  0  0  0  0  0  0
  148.8096  134.4780  156.6074 C   0  0  2  0  0  0  0  0  0  0  0  0
  149.6309  135.7423  156.5089 N   0  0  0  0  0  0  0  0  0  0  0  0
  150.0001  136.2418  155.2677 C   0  0  0  0  0  0  0  0  0  0  0  0
  150.7688  137.3462  155.1161 C   0  0  0  0  0  0  0  0  0  0  0  0
  151.0808  137.7729  153.8806 F   0  0  0  0  0  0  0  0  0  0  0  0
  151.2668  138.0726  156.2807 C   0  0  0  0  0  0  0  0  0  0  0  0
  151.9639  139.0844  156.2454 O   0  0  0  0  0  0  0  0  0  0  0  0
  150.8923  137.5197  157.5087 N   0  0  0  0  0  0  0  0  0  0  0  0
  150.1066  136.3789  157.6792 C   0  0  0  0  0  0  0  0  0  0  0  0
  149.8630  135.9684  158.8128 O   0  0  0  0  0  0  0  0  0  0  0  0
  149.4914  133.3905  157.4617 C   0  0  1  0  0  0  0  0  0  0  0  0
  148.7681  133.1887  158.6690 O   0  0  0  0  0  0  0  0  0  0  0  0
  147.4964  132.7536  158.6270 C   0  0  0  0  0  0  0  0  0  0  0  0
  146.8762  132.6368  160.0128 C   0  0  0  0  0  0  0  0  0  0  0  0
  146.8587  132.4762  157.6112 O   0  0  0  0  0  0  0  0  0  0  0  0
  149.4417  132.1477  156.5751 C   0  0  2  0  0  0  0  0  0  0  0  0
  150.7757  131.8137  156.2061 O   0  0  0  0  0  0  0  0  0  0  0  0
  151.6855  131.4701  157.1347 C   0  0  0  0  0  0  0  0  0  0  0  0
  152.7188  130.4903  156.5954 C   0  0  0  0  0  0  0  0  0  0  0  0
  151.7201  131.8634  158.3004 O   0  0  0  0  0  0  0  0  0  0  0  0
  151.2264  137.9798  158.3429 H   0  0  0  0  0  0  0  0  0  0  0  0
  146.6111  132.6520  150.9051 H   0  0  0  0  0  0  0  0  0  0  0  0
  145.4333  133.3976  151.9961 H   0  0  0  0  0  0  0  0  0  0  0  0
  145.1638  131.7571  151.3881 H   0  0  0  0  0  0  0  0  0  0  0  0
  148.6466  130.8309  154.1051 H   0  0  0  0  0  0  0  0  0  0  0  0
  149.8243  132.0807  153.7302 H   0  0  0  0  0  0  0  0  0  0  0  0
  147.5105  132.3440  155.6944 H   0  0  0  0  0  0  0  0  0  0  0  0
  147.8338  134.7678  157.0010 H   0  0  0  0  0  0  0  0  0  0  0  0
  149.6626  135.7387  154.3729 H   0  0  0  0  0  0  0  0  0  0  0  0
  150.5190  133.6831  157.6822 H   0  0  0  0  0  0  0  0  0  0  0  0
  147.5311  132.0722  160.6766 H   0  0  0  0  0  0  0  0  0  0  0  0
  145.9146  132.1258  159.9601 H   0  0  0  0  0  0  0  0  0  0  0  0
  146.7180  133.6271  160.4401 H   0  0  0  0  0  0  0  0  0  0  0  0
  148.9811  131.3187  157.1146 H   0  0  0  0  0  0  0  0  0  0  0  0
  152.2555  129.7895  155.9006 H   0  0  0  0  0  0  0  0  0  0  0  0
  153.1668  129.9212  157.4102 H   0  0  0  0  0  0  0  0  0  0  0  0
  153.5091  131.0275  156.0713 H   0  0  0  0  0  0  0  0  0  0  0  0
  1  2  1  0  0  0  0
  1 29  1  0  0  0  0
  1 30  1  0  0  0  0
  1 31  1  0  0  0  0
  2  3  2  0  0  0  0
  2  4  1  0  0  0  0
  4  5  1  0  0  0  0
  5  6  1  0  0  0  0
  5 32  1  0  0  0  0
  5 33  1  0  0  0  0
  6 23  1  0  0  0  0
  6  7  1  0  0  0  0
  6 34  1  0  0  0  0
  7  8  1  0  0  0  0
  8  9  1  0  0  0  0
  8 18  1  0  0  0  0
  8 35  1  0  0  0  0
  9 16  1  0  0  0  0
  9 10  1  0  0  0  0
 10 11  2  0  0  0  0
 10 36  1  0  0  0  0
 11 12  1  0  0  0  0
 11 13  1  0  0  0  0
 13 14  2  0  0  0  0
 13 15  1  0  0  0  0
 15 28  1  0  0  0  0
 15 16  1  0  0  0  0
 16 17  2  0  0  0  0
 18 19  1  0  0  0  0
 18 23  1  0  0  0  0
 18 37  1  0  0  0  0
 19 20  1  0  0  0  0
 20 21  1  0  0  0  0
 20 22  2  0  0  0  0
 21 38  1  0  0  0  0
 21 39  1  0  0  0  0
 21 40  1  0  0  0  0
 23 24  1  0  0  0  0
 23 41  1  0  0  0  0
 24 25  1  0  0  0  0
 25 26  1  0  0  0  0
 25 27  2  0  0  0  0
 26 42  1  0  0  0  0
 26 43  1  0  0  0  0
 26 44  1  0  0  0  0
M  END
> <s_m_source_file>
AV-unprocessed.smi

> <i_m_source_file_index>
102

> <i_lp_mmshare_version>
43012

> <i_f3d_flags>
0

> <s_epik_input>
W0NIM11DKD1PKU9bQ0gyXVtDQEBIXTFPW0NASF0oW0NAQEhdKE9DKD1PKVtDSDNdKVtDQEhdMU9DKD1PKVtDSDNdKW4yW2NIXWMoRiljKD1PKVtuSF1jMj1P

> <s_epik_cmdline>
J2VwaWtfcHl0aG9uJywgJy1waCcsICc3LjAnLCAnLXRuJywgJzgnLCAnLW1hJywgJzIwMCcsICctbWV0YWxfYmluZGluZycsICctaW1hZScsICc8aW5maWxlLm1hZT4nLCAnLW9tYWUnLCAnPG91dGZpbGUubWFlPic=

> <r_lp_tautomer_probability>
0.999537

> <r_epik_Ionization_Penalty>
0.058267

> <r_epik_Ionization_Penalty_Charging>
0.058267

> <r_epik_Ionization_Penalty_Neutral>
6.57791e-16

> <r_epik_State_Penalty>
0.0503774

> <r_epik_Charging_Adjusted_Penalty>
0.108644

> <i_epik_Tot_Q>
0

> <i_epik_Tot_abs_Q>
0

> <r_epik_Metal_State_Penalty>
2.6644

> <b_epik_Metal_Only>
0

> <s_epik_Chemistry_Notes>
This compound has an ester and may undergo hydrolysis at high or low pH. This compound contains an acetal/aminal-like group ( X-CH(R)-Y where X, Y are N, S, or O) that may be acid/base labile, releasing an aldehyde.

> <s_lp_Force_Field>
OPLS_2005

> <r_lp_Energy>
7.073

> <b_lp_Chiralities_Consistent>
1

> <s_lp_Variant>
AV-unprocessed.smi:102-11

> <Gold.Version>
5.8.1

> <Gold.Id.Protein>
6NUR|6NUR_protein|mol2

> <Gold.PLP.Fitness>
39.3844

> <Gold.PLP.PLP>
-28.8026

> <Gold.PLP.part.hbond>
-4.0000

> <Gold.PLP.part.metal>
0.0000

> <Gold.PLP.part.buried>
-6.1968

> <Gold.PLP.part.nonpolar>
-19.0165

> <Gold.PLP.part.repulsive>
0.5344

> <Gold.PLP.ligand.clash>
0.0000

> <Gold.PLP.ligand.torsion>
0.6620

> <Gold.PLP.Chemscore.Hbond>
3.0000

> <Gold.PLP.Chemscore.CHOScore>
0.9434

> <Gold.PLP.Chemscore.Metal>
0.0000

> <Gold.Chemscore.Hbonds>
donor molecule, donor type, donor heavy atom, donor atom, acceptor molecule, acceptor atom, score
      P1  H  6896  6907       L1    27  1.00
      P1  H  6896  6908       L1    17  1.00
      L1  C    10    36       P1  7948  0.77

> <Gold.PLP.Chemscore.Internal.Correction>
0.0755

> <Gold.Rescore>
     Score         DG    S(hbond)    S(metal)    S(lipo)     H(rot)  DE(clash)    DE(int)     intcor
      3.71     -10.48       2.96        0.00      46.85       4.05       0.20       6.56       ----

> <Gold.Chemscore.Fitness>
3.7117

> <Gold.Chemscore.DG>
-10.4798

> <Gold.Chemscore.ZeroCoef>
-5.4800

> <Gold.Chemscore.Hbond>
2.9614

> <Gold.Chemscore.Metal>
0.0000

> <Gold.Chemscore.Lipo>
46.8539

> <Gold.Chemscore.Internal_Hbond>
0.0000

> <Gold.Chemscore.DEClash>
0.2033

> <Gold.Chemscore.DEInternal>
6.5648

> <Gold.Chemscore.Rot>
4.0520

> <Gold.Chemscore.Internal.Correction>
   9.000000E+99

> <Gold.Chemscore.Hbonds>
donor molecule, donor type, donor heavy atom, donor atom, acceptor molecule, acceptor atom, score
      P1  H  6896  6907       L1    27  1.00
      P1  H  6896  6908       L1    17  0.99

> <Gold.Chemscore.Hbond.Weighted>
-9.8911

> <Gold.Chemscore.Metal.Weighted>
-0.0000

> <Gold.Chemscore.Lipo.Weighted>
-5.4819

> <Gold.Chemscore.Internal_Hbond.Weighted>
0.0000

> <Gold.Chemscore.DEClash.Weighted>
0.2033

> <Gold.Chemscore.DEInternal.Weighted>
6.5648

> <Gold.Chemscore.Rot.Weighted>
10.3732

> <Gold.Chemscore.Internal.Correction.Weighted>
   9.000000E+99

> <Gold.Protein.RotatedTorsions>
[ 6907 6896 6895 6894 ] final -166.11 input  -60.11 | X-H torsion
[ 7974 7965 7964 7962 ] final  167.56 input  175.53 | X-H torsion
[ 8008 7997 7996 7995 ] final -172.67 input   59.86 | X-H torsion
[ 10167 10162 10161 10158 ] final  177.22 input  -65.29 | X-H torsion
[ 10718 10713 10712 10709 ] final  144.16 input   66.30 | X-H torsion
[ 10763 10752 10751 10750 ] final   96.14 input  -60.55 | X-H torsion
[ 11005 11000 10999 10996 ] final -174.58 input  -57.11 | X-H torsion

> <Gold.Protein.ActiveResidues>
 VAL166  LYS551  ARG553  GLY616  TRP617  ASP618  TYR619  PRO620  LYS621  CYS622 
 ASP623  PHE694  ASN695  SER759  ASP760  ASP761  ALA762  ILE779  LEU786  VAL792 
 PHE793  MET794  SER795  GLU796  ALA797  LYS798  CYS799  TRP800  GLU811  SER814 

> <Gold.Protein.RotatedAtoms>
  151.4384  133.3650  159.2778 H   0  0  0  0  0  0  0  0  0  0  0  0  # atno 6907 bound_to 6896
  150.9175  134.8594  159.7477 H   0  0  0  0  0  0  0  0  0  0  0  0  # atno 6908 bound_to 6896
  152.4964  134.4319  159.9567 H   0  0  0  0  0  0  0  0  0  0  0  0  # atno 6909 bound_to 6896
  144.7420  139.8779  143.6394 H   0  0  0  0  0  0  0  0  0  0  0  0  # atno 7974 bound_to 7965
  155.9475  140.1120  157.1004 H   0  0  0  0  0  0  0  0  0  0  0  0  # atno 8008 bound_to 7997
  154.4102  140.1207  156.5075 H   0  0  0  0  0  0  0  0  0  0  0  0  # atno 8009 bound_to 7997
  155.6884  140.3473  155.4885 H   0  0  0  0  0  0  0  0  0  0  0  0  # atno 8010 bound_to 7997
  139.5245  144.2823  152.0536 H   0  0  0  0  0  0  0  0  0  0  0  0  # atno 10167 bound_to 10162
  157.3605  131.0964  151.0919 H   0  0  0  0  0  0  0  0  0  0  0  0  # atno 10718 bound_to 10713
  153.2614  135.4229  155.0898 H   0  0  0  0  0  0  0  0  0  0  0  0  # atno 10763 bound_to 10752
  154.8421  135.3450  154.6372 H   0  0  0  0  0  0  0  0  0  0  0  0  # atno 10764 bound_to 10752
  153.6792  135.7039  153.5180 H   0  0  0  0  0  0  0  0  0  0  0  0  # atno 10765 bound_to 10752
  140.4729  134.6148  157.4889 H   0  0  0  0  0  0  0  0  0  0  0  0  # atno 11005 bound_to 11000
  146.1233  139.4254  143.0215 LP  0  0  0  0  0  0  0  0  0  0  0  0  # atno 17320 bound_to 7965
  145.7273  141.0055  143.1371 LP  0  0  0  0  0  0  0  0  0  0  0  0  # atno 17321 bound_to 7965
  140.2278  144.4400  150.6313 LP  0  0  0  0  0  0  0  0  0  0  0  0  # atno 17342 bound_to 10162
  140.6376  143.2197  151.6361 LP  0  0  0  0  0  0  0  0  0  0  0  0  # atno 17343 bound_to 10162
  157.2061  130.6417  149.5756 LP  0  0  0  0  0  0  0  0  0  0  0  0  # atno 17370 bound_to 10713
  155.9736  130.4675  150.6327 LP  0  0  0  0  0  0  0  0  0  0  0  0  # atno 17371 bound_to 10713
  139.9874  134.7040  155.9750 LP  0  0  0  0  0  0  0  0  0  0  0  0  # atno 17394 bound_to 11000
  141.1568  133.6542  156.4188 LP  0  0  0  0  0  0  0  0  0  0  0  0  # atno 17395 bound_to 11000

$$$$
