AV-unprocessed.smi:2973|AV-procd|sdf|11338|dock1
  -GOLD-   2272016243D 1   1.00000     0.00000
 Structure written by MMmdl.
 49 51  0  0  0  0  0  0  0  0  1 V2000
  147.3410  135.8871  156.1482 C   0  0  0  0  0  0  0  0  0  0  0  0
  147.6813  134.4931  155.5782 C   0  0  1  0  0  0  0  0  0  0  0  0
  146.8243  134.2114  154.3247 C   0  0  0  0  0  0  0  0  0  0  0  0
  147.0800  132.8081  153.7532 C   0  0  0  0  0  0  0  0  0  0  0  0
  148.5676  132.5956  153.4399 C   0  0  0  0  0  0  0  0  0  0  0  0
  149.4319  132.8532  154.6841 C   0  0  0  0  0  0  0  0  0  0  0  0
  149.1947  134.2648  155.2728 C   0  0  1  0  0  0  0  0  0  0  0  0
  149.7407  135.2903  154.3990 N   0  0  0  0  0  0  0  0  0  0  0  0
  150.7442  135.9755  154.9613 C   0  0  0  0  0  0  0  0  0  0  0  0
  151.3741  136.8823  154.4200 O   0  0  0  0  0  0  0  0  0  0  0  0
  150.9417  135.4949  156.2027 N   0  0  0  0  0  0  0  0  0  0  0  0
  151.9747  135.9858  157.1276 C   0  0  0  0  0  0  0  0  0  0  0  0
  151.5331  137.1342  158.0517 C   0  0  0  0  0  0  0  0  0  0  0  0
  150.7734  136.8862  158.9873 O   0  0  0  0  0  0  0  0  0  0  0  0
  151.9902  138.3724  157.7976 N   0  0  0  0  0  0  0  0  0  0  0  0
  151.6435  139.5707  158.5519 C   0  0  0  0  0  0  0  0  0  0  0  0
  152.1907  140.8390  157.8756 C   0  0  0  0  0  0  0  0  0  0  0  0
  152.2274  142.0268  158.8181 C   0  0  0  0  0  0  0  0  0  0  0  0
  151.7857  143.2979  158.3927 C   0  0  0  0  0  0  0  0  0  0  0  0
  151.8415  144.3681  159.3067 C   0  0  0  0  0  0  0  0  0  0  0  0
  152.3326  144.1269  160.6044 C   0  0  0  0  0  0  0  0  0  0  0  0
  152.7450  142.8201  160.9326 C   0  0  0  0  0  0  0  0  0  0  0  0
  152.6956  141.7869  160.0640 N   0  0  0  0  0  0  0  0  0  0  0  0
  150.0940  134.4948  156.4813 C   0  0  0  0  0  0  0  0  0  0  0  0
  150.0283  133.8443  157.5244 O   0  0  0  0  0  0  0  0  0  0  0  0
  147.5927  136.6822  155.4460 H   0  0  0  0  0  0  0  0  0  0  0  0
  147.8688  136.0860  157.0809 H   0  0  0  0  0  0  0  0  0  0  0  0
  146.2751  135.9683  156.3625 H   0  0  0  0  0  0  0  0  0  0  0  0
  147.3868  133.7642  156.3353 H   0  0  0  0  0  0  0  0  0  0  0  0
  145.7658  134.3115  154.5680 H   0  0  0  0  0  0  0  0  0  0  0  0
  147.0319  134.9586  153.5576 H   0  0  0  0  0  0  0  0  0  0  0  0
  146.7456  132.0556  154.4683 H   0  0  0  0  0  0  0  0  0  0  0  0
  146.4862  132.6618  152.8505 H   0  0  0  0  0  0  0  0  0  0  0  0
  148.7289  131.5788  153.0804 H   0  0  0  0  0  0  0  0  0  0  0  0
  148.8727  133.2601  152.6307 H   0  0  0  0  0  0  0  0  0  0  0  0
  149.1982  132.0975  155.4359 H   0  0  0  0  0  0  0  0  0  0  0  0
  150.4846  132.7129  154.4320 H   0  0  0  0  0  0  0  0  0  0  0  0
  149.3945  135.4518  153.4645 H   0  0  0  0  0  0  0  0  0  0  0  0
  152.3258  135.1627  157.7521 H   0  0  0  0  0  0  0  0  0  0  0  0
  152.8499  136.3167  156.5659 H   0  0  0  0  0  0  0  0  0  0  0  0
  152.6138  138.4939  157.0129 H   0  0  0  0  0  0  0  0  0  0  0  0
  150.5613  139.6376  158.6760 H   0  0  0  0  0  0  0  0  0  0  0  0
  152.0664  139.4694  159.5519 H   0  0  0  0  0  0  0  0  0  0  0  0
  153.1982  140.6563  157.4993 H   0  0  0  0  0  0  0  0  0  0  0  0
  151.5832  141.0959  157.0067 H   0  0  0  0  0  0  0  0  0  0  0  0
  151.4129  143.4505  157.3903 H   0  0  0  0  0  0  0  0  0  0  0  0
  151.5141  145.3558  159.0176 H   0  0  0  0  0  0  0  0  0  0  0  0
  152.3912  144.9238  161.3309 H   0  0  0  0  0  0  0  0  0  0  0  0
  153.1260  142.5991  161.9185 H   0  0  0  0  0  0  0  0  0  0  0  0
  1  2  1  0  0  0  0
  1 26  1  0  0  0  0
  1 27  1  0  0  0  0
  1 28  1  0  0  0  0
  2  7  1  0  0  0  0
  2  3  1  0  0  0  0
  2 29  1  0  0  0  0
  3  4  1  0  0  0  0
  3 30  1  0  0  0  0
  3 31  1  0  0  0  0
  4  5  1  0  0  0  0
  4 32  1  0  0  0  0
  4 33  1  0  0  0  0
  5  6  1  0  0  0  0
  5 34  1  0  0  0  0
  5 35  1  0  0  0  0
  6  7  1  0  0  0  0
  6 36  1  0  0  0  0
  6 37  1  0  0  0  0
  7 24  1  0  0  0  0
  7  8  1  0  0  0  0
  8  9  1  0  0  0  0
  8 38  1  0  0  0  0
  9 10  2  0  0  0  0
  9 11  1  0  0  0  0
 11 12  1  0  0  0  0
 11 24  1  0  0  0  0
 12 13  1  0  0  0  0
 12 39  1  0  0  0  0
 12 40  1  0  0  0  0
 13 14  2  0  0  0  0
 13 15  1  0  0  0  0
 15 16  1  0  0  0  0
 15 41  1  0  0  0  0
 16 17  1  0  0  0  0
 16 42  1  0  0  0  0
 16 43  1  0  0  0  0
 17 18  1  0  0  0  0
 17 44  1  0  0  0  0
 17 45  1  0  0  0  0
 18 23  1  0  0  0  0
 18 19  2  0  0  0  0
 19 20  1  0  0  0  0
 19 46  1  0  0  0  0
 20 21  2  0  0  0  0
 20 47  1  0  0  0  0
 21 22  1  0  0  0  0
 21 48  1  0  0  0  0
 22 23  2  0  0  0  0
 22 49  1  0  0  0  0
 24 25  2  0  0  0  0
M  END
> <s_m_source_file>
AV-unprocessed.smi

> <i_m_source_file_index>
2973

> <i_lp_mmshare_version>
43012

> <i_f3d_flags>
0

> <s_epik_input>
W0NIMl0xW0NIMl1bQ0gyXVtDSDJdW0NAQEhdKFtDSDNdKVtDQF0xMltOSF1DKD1PKU4oQzI9TylbQ0gyXUMoPU8pW05IXVtDSDJdW0NIMl1jM1tjSF1bY0hdW2NIXVtjSF1uMw==

> <s_epik_cmdline>
J2VwaWtfcHl0aG9uJywgJy1waCcsICc3LjAnLCAnLXRuJywgJzgnLCAnLW1hJywgJzIwMCcsICctbWV0YWxfYmluZGluZycsICctaW1hZScsICc8aW5maWxlLm1hZT4nLCAnLW9tYWUnLCAnPG91dGZpbGUubWFlPic=

> <r_lp_tautomer_probability>
1

> <r_epik_Ionization_Penalty>
0.0245152

> <r_epik_Ionization_Penalty_Charging>
0

> <r_epik_Ionization_Penalty_Neutral>
0.0245152

> <r_epik_State_Penalty>
0.0198648

> <r_epik_Charging_Adjusted_Penalty>
0.0198648

> <i_epik_Tot_Q>
0

> <i_epik_Tot_abs_Q>
0

> <r_epik_Metal_State_Penalty>
0.0400162

> <b_epik_Metal_Only>
0

> <s_lp_Force_Field>
OPLS_2005

> <r_lp_Energy>
22.4148

> <b_lp_Chiralities_Consistent>
1

> <s_lp_Variant>
AV-unprocessed.smi:2973-2

> <Gold.Version>
5.8.1

> <Gold.Id.Protein>
6NUR|6NUR_protein|mol2

> <Gold.PLP.Fitness>
47.6867

> <Gold.PLP.PLP>
-39.7797

> <Gold.PLP.part.hbond>
-4.1844

> <Gold.PLP.part.metal>
0.0000

> <Gold.PLP.part.buried>
-6.1929

> <Gold.PLP.part.nonpolar>
-31.0662

> <Gold.PLP.part.repulsive>
0.8024

> <Gold.PLP.ligand.clash>
0.0000

> <Gold.PLP.ligand.torsion>
0.8385

> <Gold.PLP.Chemscore.Hbond>
3.1771

> <Gold.PLP.Chemscore.CHOScore>
0.0000

> <Gold.PLP.Chemscore.Metal>
0.0000

> <Gold.Chemscore.Hbonds>
donor molecule, donor type, donor heavy atom, donor atom, acceptor molecule, acceptor atom, score
      L1  H     8    38       P1  7948  0.90
      P1  H  6896  6907       L1    25  0.67
      P1  H  6896  6908       L1    14  1.00
      P1  H 10752 10765       L1    10  0.56

> <Gold.PLP.Chemscore.Internal.Correction>
0.0528

> <Gold.Rescore>
     Score         DG    S(hbond)    S(metal)    S(lipo)     H(rot)  DE(clash)    DE(int)     intcor
     18.94     -19.87       2.53        0.00      91.42       1.86       0.03       0.90       ----

> <Gold.Chemscore.Fitness>
18.9358

> <Gold.Chemscore.DG>
-19.8663

> <Gold.Chemscore.ZeroCoef>
-5.4800

> <Gold.Chemscore.Hbond>
2.5270

> <Gold.Chemscore.Metal>
0.0000

> <Gold.Chemscore.Lipo>
91.4160

> <Gold.Chemscore.Internal_Hbond>
0.0000

> <Gold.Chemscore.DEClash>
0.0310

> <Gold.Chemscore.DEInternal>
0.8996

> <Gold.Chemscore.Rot>
1.8553

> <Gold.Chemscore.Internal.Correction>
   9.000000E+99

> <Gold.Chemscore.Hbonds>
donor molecule, donor type, donor heavy atom, donor atom, acceptor molecule, acceptor atom, score
      L1  H     8    38       P1  7948  0.18
      P1  H  6896  6907       L1    25  0.64
      P1  H  6896  6908       L1    14  0.79
      P1  H 10752 10765       L1    10  0.07

> <Gold.Chemscore.Hbond.Weighted>
-8.4403

> <Gold.Chemscore.Metal.Weighted>
-0.0000

> <Gold.Chemscore.Lipo.Weighted>
-10.6957

> <Gold.Chemscore.Internal_Hbond.Weighted>
0.0000

> <Gold.Chemscore.DEClash.Weighted>
0.0310

> <Gold.Chemscore.DEInternal.Weighted>
0.8996

> <Gold.Chemscore.Rot.Weighted>
4.7497

> <Gold.Chemscore.Internal.Correction.Weighted>
   9.000000E+99

> <Gold.Protein.RotatedTorsions>
[ 6907 6896 6895 6894 ] final -146.71 input  -60.11 | X-H torsion
[ 7974 7965 7964 7962 ] final  126.64 input  175.53 | X-H torsion
[ 8008 7997 7996 7995 ] final  177.87 input   59.86 | X-H torsion
[ 10167 10162 10161 10158 ] final   68.30 input  -65.29 | X-H torsion
[ 10718 10713 10712 10709 ] final  -52.10 input   66.30 | X-H torsion
[ 10763 10752 10751 10750 ] final  140.29 input  -60.55 | X-H torsion
[ 11005 11000 10999 10996 ] final  -63.96 input  -57.11 | X-H torsion

> <Gold.Protein.ActiveResidues>
 VAL166  LYS551  ARG553  GLY616  TRP617  ASP618  TYR619  PRO620  LYS621  CYS622 
 ASP623  PHE694  ASN695  SER759  ASP760  ASP761  ALA762  ILE779  LEU786  VAL792 
 PHE793  MET794  SER795  GLU796  ALA797  LYS798  CYS799  TRP800  GLU811  SER814 

> <Gold.Protein.RotatedAtoms>
  151.1455  133.4942  159.2595 H   0  0  0  0  0  0  0  0  0  0  0  0  # atno 6907 bound_to 6896
  151.1609  135.0272  159.8720 H   0  0  0  0  0  0  0  0  0  0  0  0  # atno 6908 bound_to 6896
  152.5463  134.1329  159.8500 H   0  0  0  0  0  0  0  0  0  0  0  0  # atno 6909 bound_to 6896
  145.0595  139.3817  143.5013 H   0  0  0  0  0  0  0  0  0  0  0  0  # atno 7974 bound_to 7965
  156.0609  140.1347  156.9942 H   0  0  0  0  0  0  0  0  0  0  0  0  # atno 8008 bound_to 7997
  154.4481  140.0991  156.6586 H   0  0  0  0  0  0  0  0  0  0  0  0  # atno 8009 bound_to 7997
  155.5379  140.3460  155.4442 H   0  0  0  0  0  0  0  0  0  0  0  0  # atno 8010 bound_to 7997
  140.0801  144.5078  150.7167 H   0  0  0  0  0  0  0  0  0  0  0  0  # atno 10167 bound_to 10162
  156.1651  130.4149  149.9732 H   0  0  0  0  0  0  0  0  0  0  0  0  # atno 10718 bound_to 10713
  153.9202  135.3001  155.3448 H   0  0  0  0  0  0  0  0  0  0  0  0  # atno 10763 bound_to 10752
  154.7579  135.4948  153.9412 H   0  0  0  0  0  0  0  0  0  0  0  0  # atno 10764 bound_to 10752
  153.1146  135.6767  153.9544 H   0  0  0  0  0  0  0  0  0  0  0  0  # atno 10765 bound_to 10752
  141.1410  133.6659  156.5760 H   0  0  0  0  0  0  0  0  0  0  0  0  # atno 11005 bound_to 11000
  146.3523  140.0286  142.8652 LP  0  0  0  0  0  0  0  0  0  0  0  0  # atno 17320 bound_to 7965
  145.1427  140.9580  143.4479 LP  0  0  0  0  0  0  0  0  0  0  0  0  # atno 17321 bound_to 7965
  140.7082  143.2484  151.4663 LP  0  0  0  0  0  0  0  0  0  0  0  0  # atno 17342 bound_to 10162
  139.5784  144.1765  152.1935 LP  0  0  0  0  0  0  0  0  0  0  0  0  # atno 17343 bound_to 10162
  156.7550  130.9129  151.3639 LP  0  0  0  0  0  0  0  0  0  0  0  0  # atno 17370 bound_to 10713
  157.6762  130.9096  150.0155 LP  0  0  0  0  0  0  0  0  0  0  0  0  # atno 17371 bound_to 10713
  140.3876  134.7469  157.4701 LP  0  0  0  0  0  0  0  0  0  0  0  0  # atno 17394 bound_to 11000
  140.0591  134.6022  155.8770 LP  0  0  0  0  0  0  0  0  0  0  0  0  # atno 17395 bound_to 11000

$$$$
