AV-unprocessed.smi:1265|AV-procd|sdf|5318|dock6
  -GOLD-   22720 4443D 1   1.00000     0.00000
 Structure written by MMmdl.
 45 47  0  0  0  0  0  0  0  0  2 V2000
  145.8155  137.3806  154.7871 O   0  0  0  0  0  0  0  0  0  0  0  0
  146.7983  137.0534  154.1221 C   0  0  0  0  0  0  0  0  0  0  0  0
  147.0211  135.8039  153.6914 N   0  0  0  0  0  0  0  0  0  0  0  0
  146.1547  134.6494  153.9287 C   0  0  0  0  0  0  0  0  0  0  0  0
  146.6318  133.3681  153.1673 C   0  0  2  0  0  0  0  0  0  0  0  0
  146.0040  133.3073  151.8109 N   0  0  0  0  0  0  0  0  0  0  0  0
  144.5399  133.4333  151.7696 C   0  0  0  0  0  0  0  0  0  0  0  0
  143.9913  133.4403  150.3324 C   0  0  0  0  0  0  0  0  0  0  0  0
  144.4077  132.2647  149.6513 O   0  0  0  0  0  0  0  0  0  0  0  0
  145.8228  132.1482  149.6008 C   0  0  0  0  0  0  0  0  0  0  0  0
  146.3917  132.1248  151.0292 C   0  0  0  0  0  0  0  0  0  0  0  0
  146.3080  132.1311  154.0550 C   0  0  0  0  0  0  0  0  0  0  0  0
  147.2357  132.1273  155.2747 C   0  0  0  0  0  0  0  0  0  0  0  0
  148.8113  132.8442  154.7529 S   0  0  0  0  0  0  0  0  0  0  0  0
  148.1818  133.3736  153.1355 C   0  0  0  0  0  0  0  0  0  0  0  0
  147.7679  137.8882  153.7099 N   0  0  0  0  0  0  0  0  0  0  0  0
  147.9068  139.2787  153.9693 C   0  0  0  0  0  0  0  0  0  0  0  0
  149.2064  139.7697  154.2252 C   0  0  0  0  0  0  0  0  0  0  0  0
  149.3902  141.1392  154.5049 C   0  0  0  0  0  0  0  0  0  0  0  0
  148.3246  141.9679  154.5373 N   0  3  0  0  0  0  0  0  0  0  0  0
  147.0624  141.5427  154.3150 C   0  0  0  0  0  0  0  0  0  0  0  0
  146.8165  140.1841  154.0291 C   0  0  0  0  0  0  0  0  0  0  0  0
  147.8478  135.6336  153.1375 H   0  0  0  0  0  0  0  0  0  0  0  0
  146.1286  134.4770  155.0037 H   0  0  0  0  0  0  0  0  0  0  0  0
  145.1208  134.9001  153.6926 H   0  0  0  0  0  0  0  0  0  0  0  0
  144.0680  132.6201  152.3197 H   0  0  0  0  0  0  0  0  0  0  0  0
  144.2144  134.3645  152.2270 H   0  0  0  0  0  0  0  0  0  0  0  0
  142.9019  133.4776  150.3443 H   0  0  0  0  0  0  0  0  0  0  0  0
  144.3351  134.3238  149.7922 H   0  0  0  0  0  0  0  0  0  0  0  0
  146.0850  131.2305  149.0744 H   0  0  0  0  0  0  0  0  0  0  0  0
  146.2452  132.9767  149.0299 H   0  0  0  0  0  0  0  0  0  0  0  0
  147.4731  132.0486  150.9424 H   0  0  0  0  0  0  0  0  0  0  0  0
  146.0520  131.2180  151.5308 H   0  0  0  0  0  0  0  0  0  0  0  0
  145.2589  132.0767  154.3441 H   0  0  0  0  0  0  0  0  0  0  0  0
  146.5276  131.2030  153.5321 H   0  0  0  0  0  0  0  0  0  0  0  0
  146.8219  132.7335  156.0807 H   0  0  0  0  0  0  0  0  0  0  0  0
  147.3818  131.1214  155.6689 H   0  0  0  0  0  0  0  0  0  0  0  0
  148.5683  132.6607  152.4092 H   0  0  0  0  0  0  0  0  0  0  0  0
  148.5934  134.3483  152.8719 H   0  0  0  0  0  0  0  0  0  0  0  0
  148.4608  137.4905  153.0927 H   0  0  0  0  0  0  0  0  0  0  0  0
  150.0590  139.1063  154.2028 H   0  0  0  0  0  0  0  0  0  0  0  0
  150.3503  141.5921  154.7049 H   0  0  0  0  0  0  0  0  0  0  0  0
  146.2901  142.2954  154.3791 H   0  0  0  0  0  0  0  0  0  0  0  0
  145.7979  139.8623  153.8752 H   0  0  0  0  0  0  0  0  0  0  0  0
  148.4789  142.9553  154.7432 H   0  0  0  0  0  0  0  0  0  0  0  0
  1  2  2  0  0  0  0
  2  3  1  0  0  0  0
  2 16  1  0  0  0  0
  3  4  1  0  0  0  0
  3 23  1  0  0  0  0
  4  5  1  0  0  0  0
  4 24  1  0  0  0  0
  4 25  1  0  0  0  0
  5 15  1  0  0  0  0
  5  6  1  0  0  0  0
  5 12  1  0  0  0  0
  6 11  1  0  0  0  0
  6  7  1  0  0  0  0
  7  8  1  0  0  0  0
  7 26  1  0  0  0  0
  7 27  1  0  0  0  0
  8  9  1  0  0  0  0
  8 28  1  0  0  0  0
  8 29  1  0  0  0  0
  9 10  1  0  0  0  0
 10 11  1  0  0  0  0
 10 30  1  0  0  0  0
 10 31  1  0  0  0  0
 11 32  1  0  0  0  0
 11 33  1  0  0  0  0
 12 13  1  0  0  0  0
 12 34  1  0  0  0  0
 12 35  1  0  0  0  0
 13 14  1  0  0  0  0
 13 36  1  0  0  0  0
 13 37  1  0  0  0  0
 14 15  1  0  0  0  0
 15 38  1  0  0  0  0
 15 39  1  0  0  0  0
 16 17  1  0  0  0  0
 16 40  1  0  0  0  0
 17 22  1  0  0  0  0
 17 18  2  0  0  0  0
 18 19  1  0  0  0  0
 18 41  1  0  0  0  0
 19 20  2  0  0  0  0
 19 42  1  0  0  0  0
 20 21  1  0  0  0  0
 20 45  1  0  0  0  0
 21 22  2  0  0  0  0
 21 43  1  0  0  0  0
 22 44  1  0  0  0  0
M  CHG  1  20   1
M  END
> <s_m_source_file>
AV-unprocessed.smi

> <i_m_source_file_index>
1265

> <i_lp_mmshare_version>
43012

> <i_f3d_flags>
0

> <s_epik_input>
W2NIXTFbY0hdbltjSF1bY0hdYzFbTkhdQyg9TylbTkhdW0NIMl1bQ0BdMihbQ0gyXVtDSDJdU1tDSDJdMilOM1tDSDJdW0NIMl1PW0NIMl1bQ0gyXTM=

> <s_epik_cmdline>
J2VwaWtfcHl0aG9uJywgJy1waCcsICc3LjAnLCAnLXRuJywgJzgnLCAnLW1hJywgJzIwMCcsICctbWV0YWxfYmluZGluZycsICctaW1hZScsICc8aW5maWxlLm1hZT4nLCAnLW9tYWUnLCAnPG91dGZpbGUubWFlPic=

> <r_epik_Ionization_Penalty>
1.06168

> <r_epik_Ionization_Penalty_Charging>
1.04215

> <r_epik_Ionization_Penalty_Neutral>
0.019527

> <r_epik_State_Penalty>
1.12733

> <r_epik_Charging_Adjusted_Penalty>
2.16948

> <i_epik_Tot_Q>
1

> <i_epik_Tot_abs_Q>
1

> <r_epik_Metal_State_Penalty>
1.22116

> <b_epik_Metal_Only>
0

> <s_lp_Force_Field>
OPLS_2005

> <r_lp_Energy>
64.854

> <b_lp_Chiralities_Consistent>
1

> <s_lp_Variant>
AV-unprocessed.smi:1265-4

> <Gold.Version>
5.8.1

> <Gold.Id.Protein>
6NUR|6NUR_protein|mol2

> <Gold.PLP.Fitness>
41.8520

> <Gold.PLP.PLP>
-31.6932

> <Gold.PLP.part.hbond>
-3.0049

> <Gold.PLP.part.metal>
0.0000

> <Gold.PLP.part.buried>
-0.5401

> <Gold.PLP.part.nonpolar>
-27.9731

> <Gold.PLP.part.repulsive>
0.5734

> <Gold.PLP.ligand.clash>
0.0009

> <Gold.PLP.ligand.torsion>
0.9067

> <Gold.PLP.Chemscore.Hbond>
3.9600

> <Gold.PLP.Chemscore.CHOScore>
0.0000

> <Gold.PLP.Chemscore.Metal>
0.0000

> <Gold.Chemscore.Hbonds>
donor molecule, donor type, donor heavy atom, donor atom, acceptor molecule, acceptor atom, score
      L1  H     3    23       P1  7948  0.96
      L1  H    16    40       P1  7948  1.00
      L1  H    20    45       P1  8028  2.00

> <Gold.PLP.Chemscore.Internal.Correction>
0.0932

> <Gold.Rescore>
     Score         DG    S(hbond)    S(metal)    S(lipo)     H(rot)  DE(clash)    DE(int)     intcor
     19.73     -21.41       2.95        0.00      84.29       1.47       0.09       1.60       ----

> <Gold.Chemscore.Fitness>
19.7298

> <Gold.Chemscore.DG>
-21.4144

> <Gold.Chemscore.ZeroCoef>
-5.4800

> <Gold.Chemscore.Hbond>
2.9480

> <Gold.Chemscore.Metal>
0.0000

> <Gold.Chemscore.Lipo>
84.2946

> <Gold.Chemscore.Internal_Hbond>
0.0000

> <Gold.Chemscore.DEClash>
0.0893

> <Gold.Chemscore.DEInternal>
1.5953

> <Gold.Chemscore.Rot>
1.4743

> <Gold.Chemscore.Internal.Correction>
   9.000000E+99

> <Gold.Chemscore.Hbonds>
donor molecule, donor type, donor heavy atom, donor atom, acceptor molecule, acceptor atom, score
      L1  H     3    23       P1  7948  0.92
      L1  H    16    40       P1  7948  0.95
      L1  H    20    45       P1  8028  0.96

> <Gold.Chemscore.Hbond.Weighted>
-9.8462

> <Gold.Chemscore.Metal.Weighted>
-0.0000

> <Gold.Chemscore.Lipo.Weighted>
-9.8625

> <Gold.Chemscore.Internal_Hbond.Weighted>
0.0000

> <Gold.Chemscore.DEClash.Weighted>
0.0893

> <Gold.Chemscore.DEInternal.Weighted>
1.5953

> <Gold.Chemscore.Rot.Weighted>
3.7742

> <Gold.Chemscore.Internal.Correction.Weighted>
   9.000000E+99

> <Gold.Protein.RotatedTorsions>
[ 6907 6896 6895 6894 ] final  -82.64 input  -60.11 | X-H torsion
[ 7974 7965 7964 7962 ] final    1.77 input  175.53 | X-H torsion
[ 8008 7997 7996 7995 ] final  -79.11 input   59.86 | X-H torsion
[ 10167 10162 10161 10158 ] final   -0.95 input  -65.29 | X-H torsion
[ 10718 10713 10712 10709 ] final  -40.31 input   66.30 | X-H torsion
[ 10763 10752 10751 10750 ] final -117.82 input  -60.55 | X-H torsion
[ 11005 11000 10999 10996 ] final   61.09 input  -57.11 | X-H torsion

> <Gold.Protein.ActiveResidues>
 VAL166  LYS551  ARG553  GLY616  TRP617  ASP618  TYR619  PRO620  LYS621  CYS622 
 ASP623  PHE694  ASN695  SER759  ASP760  ASP761  ALA762  ILE779  LEU786  VAL792 
 PHE793  MET794  SER795  GLU796  ALA797  LYS798  CYS799  TRP800  GLU811  SER814 

> <Gold.Protein.RotatedAtoms>
  150.6895  134.3635  159.4960 H   0  0  0  0  0  0  0  0  0  0  0  0  # atno 6907 bound_to 6896
  152.1460  134.9023  160.0560 H   0  0  0  0  0  0  0  0  0  0  0  0  # atno 6908 bound_to 6896
  152.0138  133.3837  159.4267 H   0  0  0  0  0  0  0  0  0  0  0  0  # atno 6909 bound_to 6896
  146.2441  140.0937  142.8351 H   0  0  0  0  0  0  0  0  0  0  0  0  # atno 7974 bound_to 7965
  154.5754  140.0683  156.9026 H   0  0  0  0  0  0  0  0  0  0  0  0  # atno 8008 bound_to 7997
  155.2559  140.3355  155.4259 H   0  0  0  0  0  0  0  0  0  0  0  0  # atno 8009 bound_to 7997
  156.2150  140.1774  156.7595 H   0  0  0  0  0  0  0  0  0  0  0  0  # atno 8010 bound_to 7997
  140.6789  143.6834  150.8087 H   0  0  0  0  0  0  0  0  0  0  0  0  # atno 10167 bound_to 10162
  156.2827  130.4219  149.8319 H   0  0  0  0  0  0  0  0  0  0  0  0  # atno 10718 bound_to 10713
  154.8567  135.4296  154.2040 H   0  0  0  0  0  0  0  0  0  0  0  0  # atno 10763 bound_to 10752
  153.3080  135.6974  153.7147 H   0  0  0  0  0  0  0  0  0  0  0  0  # atno 10764 bound_to 10752
  153.6251  135.3495  155.2998 H   0  0  0  0  0  0  0  0  0  0  0  0  # atno 10765 bound_to 10752
  140.0185  134.6188  155.9674 H   0  0  0  0  0  0  0  0  0  0  0  0  # atno 11005 bound_to 11000
  145.0628  140.9100  143.4928 LP  0  0  0  0  0  0  0  0  0  0  0  0  # atno 17320 bound_to 7965
  145.1056  139.2792  143.5664 LP  0  0  0  0  0  0  0  0  0  0  0  0  # atno 17321 bound_to 7965
  140.0531  143.5230  152.2664 LP  0  0  0  0  0  0  0  0  0  0  0  0  # atno 17342 bound_to 10162
  139.6099  144.7606  151.2976 LP  0  0  0  0  0  0  0  0  0  0  0  0  # atno 17343 bound_to 10162
  156.5761  130.8445  151.3370 LP  0  0  0  0  0  0  0  0  0  0  0  0  # atno 17370 bound_to 10713
  157.7319  130.9707  150.1904 LP  0  0  0  0  0  0  0  0  0  0  0  0  # atno 17371 bound_to 10713
  141.1759  133.6540  156.4826 LP  0  0  0  0  0  0  0  0  0  0  0  0  # atno 17394 bound_to 11000
  140.4428  134.7000  157.5000 LP  0  0  0  0  0  0  0  0  0  0  0  0  # atno 17395 bound_to 11000

$$$$
