AV-unprocessed.smi:1047|AV-procd|sdf|4596|dock9
  -GOLD-   22720 3 83D 1   1.00000     0.00000
 Structure written by MMmdl.
 57 59  0  0  0  0  0  0  0  0  3 V2000
  148.4721  131.7236  153.7481 C   0  0  0  0  0  0  0  0  0  0  0  0
  148.6644  132.9479  152.8416 C   0  0  0  0  0  0  0  0  0  0  0  0
  148.2085  134.2088  153.4785 N   0  3  1  0  0  0  0  0  0  0  0  0
  146.7362  134.2543  153.6415 C   0  0  0  0  0  0  0  0  0  0  0  0
  146.3043  135.5933  154.2603 C   0  0  0  0  0  0  0  0  0  0  0  0
  146.9733  135.7775  155.5009 O   0  0  0  0  0  0  0  0  0  0  0  0
  148.3876  135.8429  155.3474 C   0  0  1  0  0  0  0  0  0  0  0  0
  149.0023  136.1280  156.7256 C   0  0  0  0  0  0  0  0  0  0  0  0
  150.2946  136.7930  156.5972 N   0  0  0  0  0  0  0  0  0  0  0  0
  150.2697  137.9354  155.6865 C   0  0  0  0  0  0  0  0  0  0  0  0
  151.6691  138.5398  155.4721 C   0  0  2  0  0  0  0  0  0  0  0  0
  152.5798  137.5138  155.1296 O   0  0  0  0  0  0  0  0  0  0  0  0
  152.1879  139.3727  156.6631 C   0  0  0  0  0  0  0  0  0  0  0  0
  151.5479  140.6916  156.7521 N   0  0  0  0  0  0  0  0  0  0  0  0
  150.6898  141.3080  155.8945 C   0  0  0  0  0  0  0  0  0  0  0  0
  150.3781  142.5215  156.4283 N   0  3  0  0  0  0  0  0  0  0  0  0
  151.0496  142.6834  157.6423 C   0  0  0  0  0  0  0  0  0  0  0  0
  151.0544  143.7376  158.5480 C   0  0  0  0  0  0  0  0  0  0  0  0
  151.8555  143.5917  159.7032 C   0  0  0  0  0  0  0  0  0  0  0  0
  151.8860  144.7267  160.7126 C   0  0  0  0  0  0  0  0  0  0  0  0
  152.6168  142.4138  159.9202 C   0  0  0  0  0  0  0  0  0  0  0  0
  153.4744  142.2679  161.1658 C   0  0  0  0  0  0  0  0  0  0  0  0
  152.5981  141.3523  158.9872 C   0  0  0  0  0  0  0  0  0  0  0  0
  151.8041  141.5133  157.8545 C   0  0  0  0  0  0  0  0  0  0  0  0
  148.8789  134.5003  154.7704 C   0  0  0  0  0  0  0  0  0  0  0  0
  148.9066  130.8362  153.2875 H   0  0  0  0  0  0  0  0  0  0  0  0
  147.4194  131.5086  153.9293 H   0  0  0  0  0  0  0  0  0  0  0  0
  148.9600  131.8666  154.7129 H   0  0  0  0  0  0  0  0  0  0  0  0
  149.7284  133.0306  152.6149 H   0  0  0  0  0  0  0  0  0  0  0  0
  148.1556  132.8040  151.8874 H   0  0  0  0  0  0  0  0  0  0  0  0
  146.2494  134.1242  152.6743 H   0  0  0  0  0  0  0  0  0  0  0  0
  146.4133  133.4283  154.2777 H   0  0  0  0  0  0  0  0  0  0  0  0
  146.5200  136.4245  153.5870 H   0  0  0  0  0  0  0  0  0  0  0  0
  145.2283  135.5965  154.4357 H   0  0  0  0  0  0  0  0  0  0  0  0
  148.6503  136.6494  154.6596 H   0  0  0  0  0  0  0  0  0  0  0  0
  148.3159  136.7351  157.3174 H   0  0  0  0  0  0  0  0  0  0  0  0
  149.1347  135.1896  157.2655 H   0  0  0  0  0  0  0  0  0  0  0  0
  150.9900  136.1257  156.2769 H   0  0  0  0  0  0  0  0  0  0  0  0
  149.8535  137.6381  154.7228 H   0  0  0  0  0  0  0  0  0  0  0  0
  149.6054  138.7037  156.0837 H   0  0  0  0  0  0  0  0  0  0  0  0
  151.6069  139.1906  154.5994 H   0  0  0  0  0  0  0  0  0  0  0  0
  153.4577  137.8533  155.2122 H   0  0  0  0  0  0  0  0  0  0  0  0
  152.0309  138.8469  157.6058 H   0  0  0  0  0  0  0  0  0  0  0  0
  153.2621  139.5416  156.5780 H   0  0  0  0  0  0  0  0  0  0  0  0
  150.3201  140.9061  154.9620 H   0  0  0  0  0  0  0  0  0  0  0  0
  150.4716  144.6309  158.3765 H   0  0  0  0  0  0  0  0  0  0  0  0
  152.9042  145.0922  160.8480 H   0  0  0  0  0  0  0  0  0  0  0  0
  151.5066  144.3910  161.6780 H   0  0  0  0  0  0  0  0  0  0  0  0
  151.2719  145.5670  160.3871 H   0  0  0  0  0  0  0  0  0  0  0  0
  153.9680  141.2963  161.1992 H   0  0  0  0  0  0  0  0  0  0  0  0
  152.8658  142.3626  162.0651 H   0  0  0  0  0  0  0  0  0  0  0  0
  154.2480  143.0357  161.1878 H   0  0  0  0  0  0  0  0  0  0  0  0
  153.1773  140.4556  159.1509 H   0  0  0  0  0  0  0  0  0  0  0  0
  148.6782  133.6922  155.4758 H   0  0  0  0  0  0  0  0  0  0  0  0
  149.9588  134.5429  154.6328 H   0  0  0  0  0  0  0  0  0  0  0  0
  148.4476  134.9581  152.8445 H   0  0  0  0  0  0  0  0  0  0  0  0
  149.7538  143.1886  155.9929 H   0  0  0  0  0  0  0  0  0  0  0  0
  1  2  1  0  0  0  0
  1 26  1  0  0  0  0
  1 27  1  0  0  0  0
  1 28  1  0  0  0  0
  2  3  1  0  0  0  0
  2 29  1  0  0  0  0
  2 30  1  0  0  0  0
  3 25  1  0  0  0  0
  3  4  1  0  0  0  0
  3 56  1  0  0  0  0
  4  5  1  0  0  0  0
  4 31  1  0  0  0  0
  4 32  1  0  0  0  0
  5  6  1  0  0  0  0
  5 33  1  0  0  0  0
  5 34  1  0  0  0  0
  6  7  1  0  0  0  0
  7  8  1  0  0  0  0
  7 25  1  0  0  0  0
  7 35  1  0  0  0  0
  8  9  1  0  0  0  0
  8 36  1  0  0  0  0
  8 37  1  0  0  0  0
  9 10  1  0  0  0  0
  9 38  1  0  0  0  0
 10 11  1  0  0  0  0
 10 39  1  0  0  0  0
 10 40  1  0  0  0  0
 11 12  1  0  0  0  0
 11 13  1  0  0  0  0
 11 41  1  0  0  0  0
 12 42  1  0  0  0  0
 13 14  1  0  0  0  0
 13 43  1  0  0  0  0
 13 44  1  0  0  0  0
 14 24  1  0  0  0  0
 14 15  1  0  0  0  0
 15 16  2  0  0  0  0
 15 45  1  0  0  0  0
 16 17  1  0  0  0  0
 16 57  1  0  0  0  0
 17 24  2  0  0  0  0
 17 18  1  0  0  0  0
 18 19  2  0  0  0  0
 18 46  1  0  0  0  0
 19 20  1  0  0  0  0
 19 21  1  0  0  0  0
 20 47  1  0  0  0  0
 20 48  1  0  0  0  0
 20 49  1  0  0  0  0
 21 22  1  0  0  0  0
 21 23  2  0  0  0  0
 22 50  1  0  0  0  0
 22 51  1  0  0  0  0
 22 52  1  0  0  0  0
 23 24  1  0  0  0  0
 23 53  1  0  0  0  0
 25 54  1  0  0  0  0
 25 55  1  0  0  0  0
M  CHG  1   3   1
M  CHG  1  16   1
M  END
> <s_m_source_file>
AV-unprocessed.smi

> <i_m_source_file_index>
1047

> <i_lp_mmshare_version>
43012

> <i_f3d_flags>
0

> <s_epik_input>
W0NIM11bQ0gyXU4xW0NIMl1bQ0gyXU9bQ0BIXShbQ0gyXTEpW0NIMl1bTkhdW0NIMl1bQ0BIXShbT0hdKVtDSDJdbihbY0hdbjIpYyhjMjMpW2NIXWMoW0NIM10pYyhbY0hdMylbQ0gzXQ==

> <s_epik_cmdline>
J2VwaWtfcHl0aG9uJywgJy1waCcsICc3LjAnLCAnLXRuJywgJzgnLCAnLW1hJywgJzIwMCcsICctbWV0YWxfYmluZGluZycsICctaW1hZScsICc8aW5maWxlLm1hZT4nLCAnLW9tYWUnLCAnPG91dGZpbGUubWFlPic=

> <r_epik_Ionization_Penalty>
2.03028

> <r_epik_Ionization_Penalty_Charging>
1.21256

> <r_epik_Ionization_Penalty_Neutral>
0.817715

> <r_epik_State_Penalty>
2.54959

> <r_epik_Charging_Adjusted_Penalty>
3.76215

> <i_epik_Tot_Q>
2

> <i_epik_Tot_abs_Q>
2

> <r_epik_Metal_State_Penalty>
6.52811

> <b_epik_Metal_Only>
0

> <s_lp_Force_Field>
OPLS_2005

> <r_lp_Energy>
37.5009

> <b_lp_Chiralities_Consistent>
1

> <s_lp_Variant>
AV-unprocessed.smi:1047-37

> <Gold.Version>
5.8.1

> <Gold.Id.Protein>
6NUR|6NUR_protein|mol2

> <Gold.PLP.Fitness>
58.4750

> <Gold.PLP.PLP>
-45.9534

> <Gold.PLP.part.hbond>
-3.0000

> <Gold.PLP.part.metal>
0.0000

> <Gold.PLP.part.buried>
-6.2112

> <Gold.PLP.part.nonpolar>
-37.7272

> <Gold.PLP.part.repulsive>
0.1239

> <Gold.PLP.ligand.clash>
0.0000

> <Gold.PLP.ligand.torsion>
0.6375

> <Gold.PLP.Chemscore.Hbond>
4.5600

> <Gold.PLP.Chemscore.CHOScore>
0.0000

> <Gold.PLP.Chemscore.Metal>
0.0000

> <Gold.Chemscore.Hbonds>
donor molecule, donor type, donor heavy atom, donor atom, acceptor molecule, acceptor atom, score
      L1  H     3    56       P1  7948  2.00
      L1  H    16    57       P1  8028  2.00
      P1  H 10752 10765       L1    12  0.54

> <Gold.PLP.Chemscore.Internal.Correction>
0.1166

> <Gold.Rescore>
     Score         DG    S(hbond)    S(metal)    S(lipo)     H(rot)  DE(clash)    DE(int)     intcor
     19.26     -19.94       2.10        0.00     123.01       2.71       0.05       0.63       ----

> <Gold.Chemscore.Fitness>
19.2574

> <Gold.Chemscore.DG>
-19.9355

> <Gold.Chemscore.ZeroCoef>
-5.4800

> <Gold.Chemscore.Hbond>
2.0953

> <Gold.Chemscore.Metal>
0.0000

> <Gold.Chemscore.Lipo>
123.0083

> <Gold.Chemscore.Internal_Hbond>
0.0000

> <Gold.Chemscore.DEClash>
0.0529

> <Gold.Chemscore.DEInternal>
0.6252

> <Gold.Chemscore.Rot>
2.7088

> <Gold.Chemscore.Internal.Correction>
   9.000000E+99

> <Gold.Chemscore.Hbonds>
donor molecule, donor type, donor heavy atom, donor atom, acceptor molecule, acceptor atom, score
      L1  H     3    56       P1  7948  0.60
      L1  H    16    57       P1  8028  1.00
      P1  H 10752 10765       L1    12  0.13

> <Gold.Chemscore.Hbond.Weighted>
-6.9982

> <Gold.Chemscore.Metal.Weighted>
-0.0000

> <Gold.Chemscore.Lipo.Weighted>
-14.3920

> <Gold.Chemscore.Internal_Hbond.Weighted>
0.0000

> <Gold.Chemscore.DEClash.Weighted>
0.0529

> <Gold.Chemscore.DEInternal.Weighted>
0.6252

> <Gold.Chemscore.Rot.Weighted>
6.9346

> <Gold.Chemscore.Internal.Correction.Weighted>
   9.000000E+99

> <Gold.Protein.RotatedTorsions>
[ 6907 6896 6895 6894 ] final   83.58 input  -60.11 | X-H torsion
[ 7974 7965 7964 7962 ] final -175.59 input  175.53 | X-H torsion
[ 8008 7997 7996 7995 ] final -132.46 input   59.86 | X-H torsion
[ 10167 10162 10161 10158 ] final   64.29 input  -65.29 | X-H torsion
[ 10718 10713 10712 10709 ] final  167.04 input   66.30 | X-H torsion
[ 10763 10752 10751 10750 ] final  175.12 input  -60.55 | X-H torsion
[ 11005 11000 10999 10996 ] final   68.32 input  -57.11 | X-H torsion

> <Gold.Protein.ActiveResidues>
 VAL166  LYS551  ARG553  GLY616  TRP617  ASP618  TYR619  PRO620  LYS621  CYS622 
 ASP623  PHE694  ASN695  SER759  ASP760  ASP761  ALA762  ILE779  LEU786  VAL792 
 PHE793  MET794  SER795  GLU796  ALA797  LYS798  CYS799  TRP800  GLU811  SER814 

> <Gold.Protein.RotatedAtoms>
  152.5331  134.2873  159.9029 H   0  0  0  0  0  0  0  0  0  0  0  0  # atno 6907 bound_to 6896
  151.2826  133.4196  159.2635 H   0  0  0  0  0  0  0  0  0  0  0  0  # atno 6908 bound_to 6896
  151.0270  134.9527  159.8147 H   0  0  0  0  0  0  0  0  0  0  0  0  # atno 6909 bound_to 6896
  144.7128  140.1298  143.6399 H   0  0  0  0  0  0  0  0  0  0  0  0  # atno 7974 bound_to 7965
  155.3293  140.0466  157.3042 H   0  0  0  0  0  0  0  0  0  0  0  0  # atno 8008 bound_to 7997
  154.5337  140.2265  155.8726 H   0  0  0  0  0  0  0  0  0  0  0  0  # atno 8009 bound_to 7997
  156.1814  140.3073  155.9161 H   0  0  0  0  0  0  0  0  0  0  0  0  # atno 8010 bound_to 7997
  140.1238  144.4707  150.6905 H   0  0  0  0  0  0  0  0  0  0  0  0  # atno 10167 bound_to 10162
  157.0572  131.0330  151.2660 H   0  0  0  0  0  0  0  0  0  0  0  0  # atno 10718 bound_to 10713
  154.4632  135.2768  155.1697 H   0  0  0  0  0  0  0  0  0  0  0  0  # atno 10763 bound_to 10752
  154.3477  135.6156  153.5631 H   0  0  0  0  0  0  0  0  0  0  0  0  # atno 10764 bound_to 10752
  152.9857  135.5804  154.4998 H   0  0  0  0  0  0  0  0  0  0  0  0  # atno 10765 bound_to 10752
  139.9718  134.6887  156.0431 H   0  0  0  0  0  0  0  0  0  0  0  0  # atno 11005 bound_to 11000
  145.9297  139.2598  143.1332 LP  0  0  0  0  0  0  0  0  0  0  0  0  # atno 17320 bound_to 7965
  145.9536  140.8890  143.0247 LP  0  0  0  0  0  0  0  0  0  0  0  0  # atno 17321 bound_to 7965
  140.6857  143.2349  151.5267 LP  0  0  0  0  0  0  0  0  0  0  0  0  # atno 17342 bound_to 10162
  139.5555  144.2287  152.1604 LP  0  0  0  0  0  0  0  0  0  0  0  0  # atno 17343 bound_to 10162
  157.4984  130.7864  149.7579 LP  0  0  0  0  0  0  0  0  0  0  0  0  # atno 17370 bound_to 10713
  155.9989  130.3891  150.2683 LP  0  0  0  0  0  0  0  0  0  0  0  0  # atno 17371 bound_to 10713
  141.1397  133.6567  156.3695 LP  0  0  0  0  0  0  0  0  0  0  0  0  # atno 17394 bound_to 11000
  140.5277  134.6243  157.5339 LP  0  0  0  0  0  0  0  0  0  0  0  0  # atno 17395 bound_to 11000

$$$$
