AV-unprocessed.smi:1550|AV-procd|sdf|6227|dock9
  -GOLD-   22720 6403D 1   1.00000     0.00000
 Structure written by MMmdl.
 43 44  0  0  0  0  0  0  0  0  1 V2000
  157.7154  139.9387  161.3057 C   0  0  0  0  0  0  0  0  0  0  0  0
  156.2547  139.6735  161.6992 C   0  0  1  0  0  0  0  0  0  0  0  0
  155.9867  140.4264  162.8788 O   0  0  0  0  0  0  0  0  0  0  0  0
  156.0345  139.6922  164.0970 C   0  0  0  0  0  0  0  0  0  0  0  0
  156.0076  140.6826  165.2677 C   0  0  1  0  0  0  0  0  0  0  0  0
  155.0036  141.8273  165.0292 C   0  0  0  0  0  0  0  0  0  0  0  0
  154.9429  142.7526  166.2500 C   0  0  0  0  0  0  0  0  0  0  0  0
  154.6662  141.9282  167.5116 C   0  0  0  0  0  0  0  0  0  0  0  0
  155.6695  140.7693  167.6235 C   0  0  0  0  0  0  0  0  0  0  0  0
  155.6236  139.9728  166.4436 O   0  0  0  0  0  0  0  0  0  0  0  0
  155.2893  140.0863  160.5765 C   0  0  0  0  0  0  0  0  0  0  0  0
  155.5867  139.8521  159.4050 O   0  0  0  0  0  0  0  0  0  0  0  0
  154.1552  140.6929  160.9791 N   0  0  0  0  0  0  0  0  0  0  0  0
  153.1244  141.2438  160.2002 C   0  0  0  0  0  0  0  0  0  0  0  0
  152.7116  142.5364  160.2708 C   0  0  0  0  0  0  0  0  0  0  0  0
  151.6232  143.0429  159.4501 C   0  0  0  0  0  0  0  0  0  0  0  0
  151.1561  144.4886  159.5137 C   0  0  0  0  0  0  0  0  0  0  0  0
  149.8571  144.5398  159.8062 F   0  0  0  0  0  0  0  0  0  0  0  0
  151.8178  145.1441  160.4673 F   0  0  0  0  0  0  0  0  0  0  0  0
  151.3512  145.1222  158.3570 F   0  0  0  0  0  0  0  0  0  0  0  0
  151.0351  142.1610  158.6221 C   0  0  0  0  0  0  0  0  0  0  0  0
  151.4465  140.8280  158.5519 N   0  0  0  0  0  0  0  0  0  0  0  0
  152.4512  140.3035  159.2891 C   0  0  0  0  0  0  0  0  0  0  0  0
  152.7516  139.1158  159.1741 O   0  0  0  0  0  0  0  0  0  0  0  0
  150.9521  140.2282  157.9071 H   0  0  0  0  0  0  0  0  0  0  0  0
  157.9859  139.3966  160.3988 H   0  0  0  0  0  0  0  0  0  0  0  0
  158.3926  139.6151  162.0967 H   0  0  0  0  0  0  0  0  0  0  0  0
  157.8992  140.9995  161.1307 H   0  0  0  0  0  0  0  0  0  0  0  0
  156.1459  138.6087  161.9156 H   0  0  0  0  0  0  0  0  0  0  0  0
  155.1721  139.0285  164.1692 H   0  0  0  0  0  0  0  0  0  0  0  0
  156.9302  139.0706  164.1400 H   0  0  0  0  0  0  0  0  0  0  0  0
  157.0076  141.1005  165.3991 H   0  0  0  0  0  0  0  0  0  0  0  0
  155.2829  142.3989  164.1434 H   0  0  0  0  0  0  0  0  0  0  0  0
  154.0130  141.4137  164.8351 H   0  0  0  0  0  0  0  0  0  0  0  0
  155.8914  143.2803  166.3568 H   0  0  0  0  0  0  0  0  0  0  0  0
  154.1733  143.5128  166.1147 H   0  0  0  0  0  0  0  0  0  0  0  0
  154.7209  142.5624  168.3968 H   0  0  0  0  0  0  0  0  0  0  0  0
  153.6520  141.5289  167.4740 H   0  0  0  0  0  0  0  0  0  0  0  0
  156.6817  141.1439  167.7829 H   0  0  0  0  0  0  0  0  0  0  0  0
  155.4241  140.1428  168.4811 H   0  0  0  0  0  0  0  0  0  0  0  0
  153.9991  140.7343  161.9761 H   0  0  0  0  0  0  0  0  0  0  0  0
  153.1730  143.2210  160.9637 H   0  0  0  0  0  0  0  0  0  0  0  0
  150.2164  142.4056  157.9613 H   0  0  0  0  0  0  0  0  0  0  0  0
  1  2  1  0  0  0  0
  1 26  1  0  0  0  0
  1 27  1  0  0  0  0
  1 28  1  0  0  0  0
  2  3  1  0  0  0  0
  2 11  1  0  0  0  0
  2 29  1  0  0  0  0
  3  4  1  0  0  0  0
  4  5  1  0  0  0  0
  4 30  1  0  0  0  0
  4 31  1  0  0  0  0
  5 10  1  0  0  0  0
  5  6  1  0  0  0  0
  5 32  1  0  0  0  0
  6  7  1  0  0  0  0
  6 33  1  0  0  0  0
  6 34  1  0  0  0  0
  7  8  1  0  0  0  0
  7 35  1  0  0  0  0
  7 36  1  0  0  0  0
  8  9  1  0  0  0  0
  8 37  1  0  0  0  0
  8 38  1  0  0  0  0
  9 10  1  0  0  0  0
  9 39  1  0  0  0  0
  9 40  1  0  0  0  0
 11 12  2  0  0  0  0
 11 13  1  0  0  0  0
 13 14  1  0  0  0  0
 13 41  1  0  0  0  0
 14 23  1  0  0  0  0
 14 15  2  0  0  0  0
 15 16  1  0  0  0  0
 15 42  1  0  0  0  0
 16 17  1  0  0  0  0
 16 21  2  0  0  0  0
 17 18  1  0  0  0  0
 17 19  1  0  0  0  0
 17 20  1  0  0  0  0
 21 22  1  0  0  0  0
 21 43  1  0  0  0  0
 22 25  1  0  0  0  0
 22 23  1  0  0  0  0
 23 24  2  0  0  0  0
M  END
> <s_m_source_file>
AV-unprocessed.smi

> <i_m_source_file_index>
1550

> <i_lp_mmshare_version>
43012

> <i_f3d_flags>
0

> <s_epik_input>
TzFbQ0gyXVtDSDJdW0NIMl1bQ0gyXVtDQEhdMVtDSDJdT1tDQEBIXShbQ0gzXSlDKD1PKVtOSF1jMltjSF1jKEMoRikoRilGKVtjSF1bbkhdYzI9Tw==

> <s_epik_cmdline>
J2VwaWtfcHl0aG9uJywgJy1waCcsICc3LjAnLCAnLXRuJywgJzgnLCAnLW1hJywgJzIwMCcsICctbWV0YWxfYmluZGluZycsICctaW1hZScsICc8aW5maWxlLm1hZT4nLCAnLW9tYWUnLCAnPG91dGZpbGUubWFlPic=

> <r_lp_tautomer_probability>
0.999

> <r_epik_Ionization_Penalty>
0.00891333

> <r_epik_Ionization_Penalty_Charging>
0.00891323

> <r_epik_Ionization_Penalty_Neutral>
1.00146e-07

> <r_epik_State_Penalty>
0.00674197

> <r_epik_Charging_Adjusted_Penalty>
0.0156552

> <i_epik_Tot_Q>
0

> <i_epik_Tot_abs_Q>
0

> <r_epik_Metal_State_Penalty>
0.321024

> <b_epik_Metal_Only>
0

> <s_lp_Force_Field>
OPLS_2005

> <r_lp_Energy>
24.886

> <b_lp_Chiralities_Consistent>
1

> <s_lp_Variant>
AV-unprocessed.smi:1550-4

> <Gold.Version>
5.8.1

> <Gold.Id.Protein>
6NUR|6NUR_protein|mol2

> <Gold.PLP.Fitness>
46.6486

> <Gold.PLP.PLP>
-47.4342

> <Gold.PLP.part.hbond>
-2.0000

> <Gold.PLP.part.metal>
0.0000

> <Gold.PLP.part.buried>
-8.6488

> <Gold.PLP.part.nonpolar>
-37.1321

> <Gold.PLP.part.repulsive>
0.1913

> <Gold.PLP.ligand.clash>
0.0000

> <Gold.PLP.ligand.torsion>
1.9326

> <Gold.PLP.Chemscore.Hbond>
1.0000

> <Gold.PLP.Chemscore.CHOScore>
0.0000

> <Gold.PLP.Chemscore.Metal>
0.0000

> <Gold.Chemscore.Hbonds>
donor molecule, donor type, donor heavy atom, donor atom, acceptor molecule, acceptor atom, score
      P1  H  7997  8010       L1    12  0.96

> <Gold.PLP.Chemscore.Internal.Correction>
0.0795

> <Gold.Rescore>
     Score         DG    S(hbond)    S(metal)    S(lipo)     H(rot)  DE(clash)    DE(int)     intcor
     11.43     -14.75       0.97        0.00      92.02       1.86       1.33       1.98       ----

> <Gold.Chemscore.Fitness>
11.4341

> <Gold.Chemscore.DG>
-14.7476

> <Gold.Chemscore.ZeroCoef>
-5.4800

> <Gold.Chemscore.Hbond>
0.9745

> <Gold.Chemscore.Metal>
0.0000

> <Gold.Chemscore.Lipo>
92.0234

> <Gold.Chemscore.Internal_Hbond>
0.0000

> <Gold.Chemscore.DEClash>
1.3300

> <Gold.Chemscore.DEInternal>
1.9836

> <Gold.Chemscore.Rot>
1.8571

> <Gold.Chemscore.Internal.Correction>
   9.000000E+99

> <Gold.Chemscore.Hbonds>
donor molecule, donor type, donor heavy atom, donor atom, acceptor molecule, acceptor atom, score
      P1  H  7997  8010       L1    12  0.89

> <Gold.Chemscore.Hbond.Weighted>
-3.2550

> <Gold.Chemscore.Metal.Weighted>
-0.0000

> <Gold.Chemscore.Lipo.Weighted>
-10.7667

> <Gold.Chemscore.Internal_Hbond.Weighted>
0.0000

> <Gold.Chemscore.DEClash.Weighted>
1.3300

> <Gold.Chemscore.DEInternal.Weighted>
1.9836

> <Gold.Chemscore.Rot.Weighted>
4.7541

> <Gold.Chemscore.Internal.Correction.Weighted>
   9.000000E+99

> <Gold.Protein.RotatedTorsions>
[ 6907 6896 6895 6894 ] final   -4.28 input  -60.11 | X-H torsion
[ 7974 7965 7964 7962 ] final  -11.81 input  175.53 | X-H torsion
[ 8008 7997 7996 7995 ] final  -19.34 input   59.86 | X-H torsion
[ 10167 10162 10161 10158 ] final  -18.97 input  -65.29 | X-H torsion
[ 10718 10713 10712 10709 ] final   93.84 input   66.30 | X-H torsion
[ 10763 10752 10751 10750 ] final   27.73 input  -60.55 | X-H torsion
[ 11005 11000 10999 10996 ] final  142.43 input  -57.11 | X-H torsion

> <Gold.Protein.ActiveResidues>
 VAL166  LYS551  ARG553  GLY616  TRP617  ASP618  TYR619  PRO620  LYS621  CYS622 
 ASP623  PHE694  ASN695  SER759  ASP760  ASP761  ALA762  ILE779  LEU786  VAL792 
 PHE793  MET794  SER795  GLU796  ALA797  LYS798  CYS799  TRP800  GLU811  SER814 

> <Gold.Protein.RotatedAtoms>
  151.5001  135.1061  159.9826 H   0  0  0  0  0  0  0  0  0  0  0  0  # atno 6907 bound_to 6896
  152.4705  133.8015  159.6966 H   0  0  0  0  0  0  0  0  0  0  0  0  # atno 6908 bound_to 6896
  150.8712  133.7440  159.2987 H   0  0  0  0  0  0  0  0  0  0  0  0  # atno 6909 bound_to 6896
  146.2174  140.2966  142.8372 H   0  0  0  0  0  0  0  0  0  0  0  0  # atno 7974 bound_to 7965
  154.4843  140.2091  155.9691 H   0  0  0  0  0  0  0  0  0  0  0  0  # atno 8008 bound_to 7997
  156.1213  140.3213  155.8181 H   0  0  0  0  0  0  0  0  0  0  0  0  # atno 8009 bound_to 7997
  155.4463  140.0514  157.2996 H   0  0  0  0  0  0  0  0  0  0  0  0  # atno 8010 bound_to 7997
  140.7264  143.4865  151.0049 H   0  0  0  0  0  0  0  0  0  0  0  0  # atno 10167 bound_to 10162
  157.6952  131.0492  150.4095 H   0  0  0  0  0  0  0  0  0  0  0  0  # atno 10718 bound_to 10713
  153.0537  135.6530  154.0630 H   0  0  0  0  0  0  0  0  0  0  0  0  # atno 10763 bound_to 10752
  154.0313  135.2911  155.3369 H   0  0  0  0  0  0  0  0  0  0  0  0  # atno 10764 bound_to 10752
  154.6840  135.5309  153.8368 H   0  0  0  0  0  0  0  0  0  0  0  0  # atno 10765 bound_to 10752
  140.0476  134.9272  157.0959 H   0  0  0  0  0  0  0  0  0  0  0  0  # atno 11005 bound_to 11000
  144.9088  140.7732  143.5821 LP  0  0  0  0  0  0  0  0  0  0  0  0  # atno 17320 bound_to 7965
  145.2896  139.1888  143.4747 LP  0  0  0  0  0  0  0  0  0  0  0  0  # atno 17321 bound_to 7965
  139.8566  143.7368  152.3175 LP  0  0  0  0  0  0  0  0  0  0  0  0  # atno 17342 bound_to 10162
  139.7569  144.7518  151.0422 LP  0  0  0  0  0  0  0  0  0  0  0  0  # atno 17343 bound_to 10162
  156.4480  130.4005  149.6654 LP  0  0  0  0  0  0  0  0  0  0  0  0  # atno 17370 bound_to 10713
  156.3814  130.7581  151.2574 LP  0  0  0  0  0  0  0  0  0  0  0  0  # atno 17371 bound_to 10713
  140.3968  134.2125  155.7164 LP  0  0  0  0  0  0  0  0  0  0  0  0  # atno 17394 bound_to 11000
  141.1915  133.8194  157.0878 LP  0  0  0  0  0  0  0  0  0  0  0  0  # atno 17395 bound_to 11000

$$$$
