AV-unprocessed.smi:2133|AV-procd|sdf|8692|dock2
  -GOLD-   2272011443D 1   1.00000     0.00000
 Structure written by MMmdl.
 45 47  0  0  0  0  0  0  0  0  1 V2000
  143.7698  143.4572  158.5135 C   0  0  0  0  0  0  0  0  0  0  0  0
  144.1759  143.6490  157.1083 N   0  0  0  0  0  0  0  0  0  0  0  0
  145.0591  142.7555  156.5610 C   0  0  0  0  0  0  0  0  0  0  0  0
  145.5388  141.7884  157.1532 O   0  0  0  0  0  0  0  0  0  0  0  0
  145.4045  143.0419  155.1647 C   0  0  0  0  0  0  0  0  0  0  0  0
  144.8848  144.0884  154.4782 C   0  0  0  0  0  0  0  0  0  0  0  0
  145.3688  144.1321  153.1758 N   0  0  0  0  0  0  0  0  0  0  0  0
  146.1829  143.0768  153.1473 C   0  0  0  0  0  0  0  0  0  0  0  0
  146.2624  142.3707  154.2935 N   0  0  0  0  0  0  0  0  0  0  0  0
  147.0793  141.1857  154.5082 C   0  0  0  0  0  0  0  0  0  0  0  0
  148.5813  141.5149  154.6165 C   0  0  2  0  0  0  0  0  0  0  0  0
  149.2026  141.3863  153.3530 O   0  0  0  0  0  0  0  0  0  0  0  0
  149.3083  140.6022  155.6143 C   0  0  0  0  0  0  0  0  0  0  0  0
  150.4404  141.2885  156.1224 O   0  0  0  0  0  0  0  0  0  0  0  0
  150.8241  140.8461  157.4142 C   0  0  0  0  0  0  0  0  0  0  0  0
  151.5298  141.9332  158.2036 C   0  0  0  0  0  0  0  0  0  0  0  0
  152.1283  141.6410  159.4483 C   0  0  0  0  0  0  0  0  0  0  0  0
  152.7679  142.6582  160.1835 C   0  0  0  0  0  0  0  0  0  0  0  0
  152.8060  143.9733  159.6814 C   0  0  0  0  0  0  0  0  0  0  0  0
  152.2023  144.2715  158.4448 C   0  0  0  0  0  0  0  0  0  0  0  0
  151.5629  143.2544  157.7090 C   0  0  0  0  0  0  0  0  0  0  0  0
  143.9720  144.9489  155.1362 N   0  0  0  0  0  0  0  0  0  0  0  0
  143.4302  146.0683  154.3601 C   0  0  0  0  0  0  0  0  0  0  0  0
  143.6217  144.7325  156.4472 C   0  0  0  0  0  0  0  0  0  0  0  0
  142.8315  145.4874  157.0204 O   0  0  0  0  0  0  0  0  0  0  0  0
  144.2192  142.5960  159.0088 H   0  0  0  0  0  0  0  0  0  0  0  0
  142.6891  143.3234  158.5820 H   0  0  0  0  0  0  0  0  0  0  0  0
  144.0378  144.3311  159.1097 H   0  0  0  0  0  0  0  0  0  0  0  0
  146.7393  142.8057  152.2619 H   0  0  0  0  0  0  0  0  0  0  0  0
  146.7390  140.7131  155.4305 H   0  0  0  0  0  0  0  0  0  0  0  0
  146.8926  140.4591  153.7191 H   0  0  0  0  0  0  0  0  0  0  0  0
  148.7032  142.5511  154.9347 H   0  0  0  0  0  0  0  0  0  0  0  0
  148.8239  140.6446  152.9065 H   0  0  0  0  0  0  0  0  0  0  0  0
  148.6397  140.3135  156.4272 H   0  0  0  0  0  0  0  0  0  0  0  0
  149.6340  139.6879  155.1152 H   0  0  0  0  0  0  0  0  0  0  0  0
  149.9418  140.5162  157.9652 H   0  0  0  0  0  0  0  0  0  0  0  0
  151.4955  139.9904  157.3296 H   0  0  0  0  0  0  0  0  0  0  0  0
  152.1000  140.6366  159.8448 H   0  0  0  0  0  0  0  0  0  0  0  0
  153.2277  142.4294  161.1338 H   0  0  0  0  0  0  0  0  0  0  0  0
  153.2953  144.7533  160.2462 H   0  0  0  0  0  0  0  0  0  0  0  0
  152.2279  145.2807  158.0610 H   0  0  0  0  0  0  0  0  0  0  0  0
  151.0993  143.4921  156.7628 H   0  0  0  0  0  0  0  0  0  0  0  0
  142.7346  146.7037  154.9089 H   0  0  0  0  0  0  0  0  0  0  0  0
  142.9013  145.6903  153.4845 H   0  0  0  0  0  0  0  0  0  0  0  0
  144.2431  146.7054  154.0098 H   0  0  0  0  0  0  0  0  0  0  0  0
  1  2  1  0  0  0  0
  1 26  1  0  0  0  0
  1 27  1  0  0  0  0
  1 28  1  0  0  0  0
  2 24  1  0  0  0  0
  2  3  1  0  0  0  0
  3  4  2  0  0  0  0
  3  5  1  0  0  0  0
  5  9  1  0  0  0  0
  5  6  2  0  0  0  0
  6  7  1  0  0  0  0
  6 22  1  0  0  0  0
  7  8  2  0  0  0  0
  8  9  1  0  0  0  0
  8 29  1  0  0  0  0
  9 10  1  0  0  0  0
 10 11  1  0  0  0  0
 10 30  1  0  0  0  0
 10 31  1  0  0  0  0
 11 12  1  0  0  0  0
 11 13  1  0  0  0  0
 11 32  1  0  0  0  0
 12 33  1  0  0  0  0
 13 14  1  0  0  0  0
 13 34  1  0  0  0  0
 13 35  1  0  0  0  0
 14 15  1  0  0  0  0
 15 16  1  0  0  0  0
 15 36  1  0  0  0  0
 15 37  1  0  0  0  0
 16 21  1  0  0  0  0
 16 17  2  0  0  0  0
 17 18  1  0  0  0  0
 17 38  1  0  0  0  0
 18 19  2  0  0  0  0
 18 39  1  0  0  0  0
 19 20  1  0  0  0  0
 19 40  1  0  0  0  0
 20 21  2  0  0  0  0
 20 41  1  0  0  0  0
 21 42  1  0  0  0  0
 22 23  1  0  0  0  0
 22 24  1  0  0  0  0
 23 43  1  0  0  0  0
 23 44  1  0  0  0  0
 23 45  1  0  0  0  0
 24 25  2  0  0  0  0
M  END
> <s_m_source_file>
AV-unprocessed.smi

> <i_m_source_file_index>
2133

> <i_lp_mmshare_version>
43012

> <i_f3d_flags>
0

> <s_epik_input>
Tz1jMW4oW0NIM10pYyg9TyluKFtDSDNdKWMoYzEyKW5bY0hdbjJbQ0gyXVtDQEhdKFtPSF0pW0NIMl1PW0NIMl1jM1tjSF1bY0hdW2NIXVtjSF1bY0hdMw==

> <s_epik_cmdline>
J2VwaWtfcHl0aG9uJywgJy1waCcsICc3LjAnLCAnLXRuJywgJzgnLCAnLW1hJywgJzIwMCcsICctbWV0YWxfYmluZGluZycsICctaW1hZScsICc8aW5maWxlLm1hZT4nLCAnLW9tYWUnLCAnPG91dGZpbGUubWFlPic=

> <r_lp_tautomer_probability>
1

> <r_epik_Ionization_Penalty>
1.52174e-06

> <r_epik_Ionization_Penalty_Charging>
3.83535e-09

> <r_epik_Ionization_Penalty_Neutral>
1.5179e-06

> <r_epik_State_Penalty>
-0

> <r_epik_Charging_Adjusted_Penalty>
3.83535e-09

> <i_epik_Tot_Q>
0

> <i_epik_Tot_abs_Q>
0

> <r_epik_Metal_State_Penalty>
-0

> <b_epik_Metal_Only>
0

> <s_lp_Force_Field>
OPLS_2005

> <r_lp_Energy>
38.2919

> <b_lp_Chiralities_Consistent>
1

> <s_lp_Variant>
AV-unprocessed.smi:2133-1

> <Gold.Version>
5.8.1

> <Gold.Id.Protein>
6NUR|6NUR_protein|mol2

> <Gold.PLP.Fitness>
49.5087

> <Gold.PLP.PLP>
-47.7653

> <Gold.PLP.part.hbond>
-2.9026

> <Gold.PLP.part.metal>
0.0000

> <Gold.PLP.part.buried>
-7.9034

> <Gold.PLP.part.nonpolar>
-36.7459

> <Gold.PLP.part.repulsive>
0.2909

> <Gold.PLP.ligand.clash>
0.0000

> <Gold.PLP.ligand.torsion>
1.2756

> <Gold.PLP.Chemscore.Hbond>
1.3760

> <Gold.PLP.Chemscore.CHOScore>
0.0000

> <Gold.PLP.Chemscore.Metal>
0.0000

> <Gold.Chemscore.Hbonds>
donor molecule, donor type, donor heavy atom, donor atom, acceptor molecule, acceptor atom, score
      L1  H    12    33       P1  7957  0.38
      P1  H  8011  8017       L1    12  0.98

> <Gold.PLP.Chemscore.Internal.Correction>
0.1667

> <Gold.Rescore>
     Score         DG    S(hbond)    S(metal)    S(lipo)     H(rot)  DE(clash)    DE(int)     intcor
     11.80     -14.49       1.18        0.00     107.03       2.91       1.35       1.34       ----

> <Gold.Chemscore.Fitness>
11.7991

> <Gold.Chemscore.DG>
-14.4873

> <Gold.Chemscore.ZeroCoef>
-5.4800

> <Gold.Chemscore.Hbond>
1.1803

> <Gold.Chemscore.Metal>
0.0000

> <Gold.Chemscore.Lipo>
107.0331

> <Gold.Chemscore.Internal_Hbond>
0.0000

> <Gold.Chemscore.DEClash>
1.3483

> <Gold.Chemscore.DEInternal>
1.3399

> <Gold.Chemscore.Rot>
2.9132

> <Gold.Chemscore.Internal.Correction>
   9.000000E+99

> <Gold.Chemscore.Hbonds>
donor molecule, donor type, donor heavy atom, donor atom, acceptor molecule, acceptor atom, score
      L1  H    12    33       P1  7957  0.37
      P1  H  8011  8017       L1    12  0.71

> <Gold.Chemscore.Hbond.Weighted>
-3.9422

> <Gold.Chemscore.Metal.Weighted>
-0.0000

> <Gold.Chemscore.Lipo.Weighted>
-12.5229

> <Gold.Chemscore.Internal_Hbond.Weighted>
0.0000

> <Gold.Chemscore.DEClash.Weighted>
1.3483

> <Gold.Chemscore.DEInternal.Weighted>
1.3399

> <Gold.Chemscore.Rot.Weighted>
7.4578

> <Gold.Chemscore.Internal.Correction.Weighted>
   9.000000E+99

> <Gold.Protein.RotatedTorsions>
[ 6907 6896 6895 6894 ] final  -94.43 input  -60.11 | X-H torsion
[ 7974 7965 7964 7962 ] final  -78.91 input  175.53 | X-H torsion
[ 8008 7997 7996 7995 ] final  -12.85 input   59.86 | X-H torsion
[ 10167 10162 10161 10158 ] final  -49.74 input  -65.29 | X-H torsion
[ 10718 10713 10712 10709 ] final  147.72 input   66.30 | X-H torsion
[ 10763 10752 10751 10750 ] final   37.59 input  -60.55 | X-H torsion
[ 11005 11000 10999 10996 ] final   68.51 input  -57.11 | X-H torsion

> <Gold.Protein.ActiveResidues>
 VAL166  LYS551  ARG553  GLY616  TRP617  ASP618  TYR619  PRO620  LYS621  CYS622 
 ASP623  PHE694  ASN695  SER759  ASP760  ASP761  ALA762  ILE779  LEU786  VAL792 
 PHE793  MET794  SER795  GLU796  ALA797  LYS798  CYS799  TRP800  GLU811  SER814 

> <Gold.Protein.RotatedAtoms>
  150.6942  134.1813  159.4249 H   0  0  0  0  0  0  0  0  0  0  0  0  # atno 6907 bound_to 6896
  151.9788  135.0037  160.0565 H   0  0  0  0  0  0  0  0  0  0  0  0  # atno 6908 bound_to 6896
  152.1774  133.4649  159.4977 H   0  0  0  0  0  0  0  0  0  0  0  0  # atno 6909 bound_to 6896
  145.5802  140.9450  143.1348 H   0  0  0  0  0  0  0  0  0  0  0  0  # atno 7974 bound_to 7965
  154.5342  140.2265  155.8752 H   0  0  0  0  0  0  0  0  0  0  0  0  # atno 8008 bound_to 7997
  156.1794  140.3103  155.9084 H   0  0  0  0  0  0  0  0  0  0  0  0  # atno 8009 bound_to 7997
  155.3389  140.0449  157.3035 H   0  0  0  0  0  0  0  0  0  0  0  0  # atno 8010 bound_to 7997
  140.6671  143.2685  151.4258 H   0  0  0  0  0  0  0  0  0  0  0  0  # atno 10167 bound_to 10162
  157.3175  131.0898  151.1267 H   0  0  0  0  0  0  0  0  0  0  0  0  # atno 10718 bound_to 10713
  153.0032  135.6273  154.2170 H   0  0  0  0  0  0  0  0  0  0  0  0  # atno 10763 bound_to 10752
  154.1913  135.2808  155.3023 H   0  0  0  0  0  0  0  0  0  0  0  0  # atno 10764 bound_to 10752
  154.5757  135.5663  153.7197 H   0  0  0  0  0  0  0  0  0  0  0  0  # atno 10765 bound_to 10752
  139.9707  134.6904  156.0452 H   0  0  0  0  0  0  0  0  0  0  0  0  # atno 11005 bound_to 11000
  144.7397  139.7483  143.7315 LP  0  0  0  0  0  0  0  0  0  0  0  0  # atno 17320 bound_to 7965
  146.1722  139.4877  142.9920 LP  0  0  0  0  0  0  0  0  0  0  0  0  # atno 17321 bound_to 7965
  139.5924  144.1470  152.2104 LP  0  0  0  0  0  0  0  0  0  0  0  0  # atno 17342 bound_to 10162
  140.0829  144.5685  150.7109 LP  0  0  0  0  0  0  0  0  0  0  0  0  # atno 17343 bound_to 10162
  157.2565  130.6638  149.5955 LP  0  0  0  0  0  0  0  0  0  0  0  0  # atno 17370 bound_to 10713
  155.9683  130.4522  150.5765 LP  0  0  0  0  0  0  0  0  0  0  0  0  # atno 17371 bound_to 10713
  141.1387  133.6569  156.3667 LP  0  0  0  0  0  0  0  0  0  0  0  0  # atno 17394 bound_to 11000
  140.5299  134.6223  157.5346 LP  0  0  0  0  0  0  0  0  0  0  0  0  # atno 17395 bound_to 11000

$$$$
