AV-unprocessed.smi:3082|AV-procd|sdf|11743|dock6
  -GOLD-   2272017133D 1   1.00000     0.00000
 Structure written by MMmdl.
 28 29  0  0  0  0  0  0  0  0  2 V2000
  153.3350  142.2995  161.7250 C   0  0  0  0  0  0  0  0  0  0  0  0
  153.1402  141.6093  160.4058 C   0  0  0  0  0  0  0  0  0  0  0  0
  153.8156  140.4572  159.9130 C   0  0  0  0  0  0  0  0  0  0  0  0
  153.4056  140.0985  158.7077 N   0  0  0  0  0  0  0  0  0  0  0  0
  152.4573  141.0061  158.3858 N   0  0  0  0  0  0  0  0  0  0  0  0
  151.7687  140.9271  157.1062 C   0  0  1  0  0  0  0  0  0  0  0  0
  151.0335  139.5819  156.9389 C   0  0  0  0  0  0  0  0  0  0  0  0
  150.3000  139.5395  155.5896 C   0  0  0  0  0  0  0  0  0  0  0  0
  149.3589  140.7465  155.4382 C   0  0  0  0  0  0  0  0  0  0  0  0
  150.1009  142.0146  155.6110 N   0  3  0  0  0  0  0  0  0  0  0  0
  150.7906  142.1066  156.9165 C   0  0  0  0  0  0  0  0  0  0  0  0
  152.2799  141.9303  159.3944 C   0  0  0  0  0  0  0  0  0  0  0  0
  154.1138  141.8234  162.3213 H   0  0  0  0  0  0  0  0  0  0  0  0
  152.4230  142.2893  162.3222 H   0  0  0  0  0  0  0  0  0  0  0  0
  153.6239  143.3425  161.5942 H   0  0  0  0  0  0  0  0  0  0  0  0
  154.5867  139.8733  160.3938 H   0  0  0  0  0  0  0  0  0  0  0  0
  152.5317  140.9932  156.3283 H   0  0  0  0  0  0  0  0  0  0  0  0
  151.7401  138.7538  157.0056 H   0  0  0  0  0  0  0  0  0  0  0  0
  150.3119  139.4411  157.7449 H   0  0  0  0  0  0  0  0  0  0  0  0
  151.0274  139.5366  154.7768 H   0  0  0  0  0  0  0  0  0  0  0  0
  149.7342  138.6117  155.5019 H   0  0  0  0  0  0  0  0  0  0  0  0
  148.8901  140.7398  154.4539 H   0  0  0  0  0  0  0  0  0  0  0  0
  148.5559  140.6970  156.1750 H   0  0  0  0  0  0  0  0  0  0  0  0
  150.7912  142.0857  154.8772 H   0  0  0  0  0  0  0  0  0  0  0  0
  150.0400  142.1221  157.7081 H   0  0  0  0  0  0  0  0  0  0  0  0
  151.3253  143.0555  156.9662 H   0  0  0  0  0  0  0  0  0  0  0  0
  151.5618  142.7330  159.3119 H   0  0  0  0  0  0  0  0  0  0  0  0
  149.4549  142.7866  155.5272 H   0  0  0  0  0  0  0  0  0  0  0  0
  1  2  1  0  0  0  0
  1 13  1  0  0  0  0
  1 14  1  0  0  0  0
  1 15  1  0  0  0  0
  2 12  2  0  0  0  0
  2  3  1  0  0  0  0
  3  4  2  0  0  0  0
  3 16  1  0  0  0  0
  4  5  1  0  0  0  0
  5  6  1  0  0  0  0
  5 12  1  0  0  0  0
  6 11  1  0  0  0  0
  6  7  1  0  0  0  0
  6 17  1  0  0  0  0
  7  8  1  0  0  0  0
  7 18  1  0  0  0  0
  7 19  1  0  0  0  0
  8  9  1  0  0  0  0
  8 20  1  0  0  0  0
  8 21  1  0  0  0  0
  9 10  1  0  0  0  0
  9 22  1  0  0  0  0
  9 23  1  0  0  0  0
 10 11  1  0  0  0  0
 10 24  1  0  0  0  0
 10 28  1  0  0  0  0
 11 25  1  0  0  0  0
 11 26  1  0  0  0  0
 12 27  1  0  0  0  0
M  CHG  1  10   1
M  END
> <s_m_source_file>
AV-unprocessed.smi

> <i_m_source_file_index>
3082

> <i_lp_mmshare_version>
43012

> <i_f3d_flags>
0

> <s_epik_input>
W0NIM11jMVtjSF1ubihbY0hdMSlbQ0BASF0yW0NIMl1bQ0gyXVtDSDJdW05IXVtDSDJdMg==

> <s_epik_cmdline>
J2VwaWtfcHl0aG9uJywgJy1waCcsICc3LjAnLCAnLXRuJywgJzgnLCAnLW1hJywgJzIwMCcsICctbWV0YWxfYmluZGluZycsICctaW1hZScsICc8aW5maWxlLm1hZT4nLCAnLW9tYWUnLCAnPG91dGZpbGUubWFlPic=

> <r_lp_tautomer_probability>
1

> <r_epik_Ionization_Penalty>
0.000667973

> <r_epik_Ionization_Penalty_Charging>
0.000651447

> <r_epik_Ionization_Penalty_Neutral>
1.65255e-05

> <r_epik_State_Penalty>
-0

> <r_epik_Charging_Adjusted_Penalty>
0.000651447

> <i_epik_Tot_Q>
1

> <i_epik_Tot_abs_Q>
1

> <r_epik_Metal_State_Penalty>
-0

> <b_epik_Metal_Only>
0

> <s_lp_Force_Field>
OPLS_2005

> <r_lp_Energy>
15.6496

> <b_lp_Chiralities_Consistent>
1

> <s_lp_Variant>
AV-unprocessed.smi:3082-2

> <Gold.Version>
5.8.1

> <Gold.Id.Protein>
6NUR|6NUR_protein|mol2

> <Gold.PLP.Fitness>
33.9055

> <Gold.PLP.PLP>
-24.9357

> <Gold.PLP.part.hbond>
-2.0000

> <Gold.PLP.part.metal>
0.0000

> <Gold.PLP.part.buried>
-2.6031

> <Gold.PLP.part.nonpolar>
-19.4264

> <Gold.PLP.part.repulsive>
0.1642

> <Gold.PLP.ligand.clash>
0.0000

> <Gold.PLP.ligand.torsion>
0.0120

> <Gold.PLP.Chemscore.Hbond>
2.9920

> <Gold.PLP.Chemscore.CHOScore>
0.0000

> <Gold.PLP.Chemscore.Metal>
0.0000

> <Gold.Chemscore.Hbonds>
donor molecule, donor type, donor heavy atom, donor atom, acceptor molecule, acceptor atom, score
      L1  H    10    28       P1  8028  2.00
      P1  H  7997  8010       L1     4  0.97

> <Gold.PLP.Chemscore.Internal.Correction>
0.0179

> <Gold.Rescore>
     Score         DG    S(hbond)    S(metal)    S(lipo)     H(rot)  DE(clash)    DE(int)     intcor
     16.88     -16.96       1.83        0.00      67.86       1.00       0.06       0.02       ----

> <Gold.Chemscore.Fitness>
16.8774

> <Gold.Chemscore.DG>
-16.9616

> <Gold.Chemscore.ZeroCoef>
-5.4800

> <Gold.Chemscore.Hbond>
1.8271

> <Gold.Chemscore.Metal>
0.0000

> <Gold.Chemscore.Lipo>
67.8553

> <Gold.Chemscore.Internal_Hbond>
0.0000

> <Gold.Chemscore.DEClash>
0.0643

> <Gold.Chemscore.DEInternal>
0.0199

> <Gold.Chemscore.Rot>
1.0000

> <Gold.Chemscore.Internal.Correction>
   9.000000E+99

> <Gold.Chemscore.Hbonds>
donor molecule, donor type, donor heavy atom, donor atom, acceptor molecule, acceptor atom, score
      L1  H    10    28       P1  8028  0.93
      P1  H  7997  8010       L1     4  0.54

> <Gold.Chemscore.Hbond.Weighted>
-6.1025

> <Gold.Chemscore.Metal.Weighted>
-0.0000

> <Gold.Chemscore.Lipo.Weighted>
-7.9391

> <Gold.Chemscore.Internal_Hbond.Weighted>
0.0000

> <Gold.Chemscore.DEClash.Weighted>
0.0643

> <Gold.Chemscore.DEInternal.Weighted>
0.0199

> <Gold.Chemscore.Rot.Weighted>
2.5600

> <Gold.Chemscore.Internal.Correction.Weighted>
   9.000000E+99

> <Gold.Protein.RotatedTorsions>
[ 6907 6896 6895 6894 ] final  143.20 input  -60.11 | X-H torsion
[ 7974 7965 7964 7962 ] final   82.77 input  175.53 | X-H torsion
[ 8008 7997 7996 7995 ] final   21.59 input   59.86 | X-H torsion
[ 10167 10162 10161 10158 ] final   92.44 input  -65.29 | X-H torsion
[ 10718 10713 10712 10709 ] final  -29.19 input   66.30 | X-H torsion
[ 10763 10752 10751 10750 ] final  -37.77 input  -60.55 | X-H torsion
[ 11005 11000 10999 10996 ] final  -10.70 input  -57.11 | X-H torsion

> <Gold.Protein.ActiveResidues>
 VAL166  LYS551  ARG553  GLY616  TRP617  ASP618  TYR619  PRO620  LYS621  CYS622 
 ASP623  PHE694  ASN695  SER759  ASP760  ASP761  ALA762  ILE779  LEU786  VAL792 
 PHE793  MET794  SER795  GLU796  ALA797  LYS798  CYS799  TRP800  GLU811  SER814 

> <Gold.Protein.RotatedAtoms>
  152.2092  133.4898  159.5100 H   0  0  0  0  0  0  0  0  0  0  0  0  # atno 6907 bound_to 6896
  150.6986  134.1489  159.4142 H   0  0  0  0  0  0  0  0  0  0  0  0  # atno 6908 bound_to 6896
  151.9408  135.0214  160.0586 H   0  0  0  0  0  0  0  0  0  0  0  0  # atno 6909 bound_to 6896
  145.6207  139.2385  143.2140 H   0  0  0  0  0  0  0  0  0  0  0  0  # atno 7974 bound_to 7965
  154.9529  140.3068  155.5066 H   0  0  0  0  0  0  0  0  0  0  0  0  # atno 8008 bound_to 7997
  156.2985  140.2315  156.4546 H   0  0  0  0  0  0  0  0  0  0  0  0  # atno 8009 bound_to 7997
  154.8038  140.0432  157.1280 H   0  0  0  0  0  0  0  0  0  0  0  0  # atno 8010 bound_to 7997
  139.8277  144.6702  150.9439 H   0  0  0  0  0  0  0  0  0  0  0  0  # atno 10167 bound_to 10162
  156.4156  130.4416  149.7220 H   0  0  0  0  0  0  0  0  0  0  0  0  # atno 10718 bound_to 10713
  153.9018  135.6801  153.4755 H   0  0  0  0  0  0  0  0  0  0  0  0  # atno 10763 bound_to 10752
  153.1125  135.4776  154.9057 H   0  0  0  0  0  0  0  0  0  0  0  0  # atno 10764 bound_to 10752
  154.7571  135.3200  154.8403 H   0  0  0  0  0  0  0  0  0  0  0  0  # atno 10765 bound_to 10752
  140.7475  133.8619  155.9018 H   0  0  0  0  0  0  0  0  0  0  0  0  # atno 11005 bound_to 11000
  146.1433  140.7027  142.9356 LP  0  0  0  0  0  0  0  0  0  0  0  0  # atno 17320 bound_to 7965
  144.7232  140.4442  143.6992 LP  0  0  0  0  0  0  0  0  0  0  0  0  # atno 17321 bound_to 7965
  140.7809  143.4031  151.1116 LP  0  0  0  0  0  0  0  0  0  0  0  0  # atno 17342 bound_to 10162
  139.7687  143.8527  152.3116 LP  0  0  0  0  0  0  0  0  0  0  0  0  # atno 17343 bound_to 10162
  156.4182  130.7755  151.2771 LP  0  0  0  0  0  0  0  0  0  0  0  0  # atno 17370 bound_to 10713
  157.7508  131.0191  150.3653 LP  0  0  0  0  0  0  0  0  0  0  0  0  # atno 17371 bound_to 10713
  140.9781  134.1442  157.4519 LP  0  0  0  0  0  0  0  0  0  0  0  0  # atno 17394 bound_to 11000
  139.8794  135.0001  156.5992 LP  0  0  0  0  0  0  0  0  0  0  0  0  # atno 17395 bound_to 11000

$$$$
