AV-unprocessed.smi:1150|AV-procd|sdf|4894|dock10
  -GOLD-   22720 3473D 1   1.00000     0.00000
 Structure written by MMmdl.
 50 51  0  0  0  0  0  0  0  0  1 V2000
  151.6932  145.7186  160.2092 C   0  0  0  0  0  0  0  0  0  0  0  0
  151.7064  144.6950  159.0617 C   0  0  0  0  0  0  0  0  0  0  0  0
  151.8286  143.2221  159.5213 C   0  0  1  0  0  0  0  0  0  0  0  0
  152.1403  142.3961  158.3538 N   0  0  0  0  0  0  0  0  0  0  0  0
  151.2691  141.6555  157.6489 C   0  0  0  0  0  0  0  0  0  0  0  0
  150.0863  141.5114  157.9562 O   0  0  0  0  0  0  0  0  0  0  0  0
  151.8186  140.9865  156.3896 C   0  0  0  0  0  0  0  0  0  0  0  0
  150.7596  140.0882  155.7999 C   0  0  0  0  0  0  0  0  0  0  0  0
  149.5577  140.4854  155.1432 C   0  0  0  0  0  0  0  0  0  0  0  0
  149.0565  141.8775  154.8847 C   0  0  0  0  0  0  0  0  0  0  0  0
  148.8488  139.4526  154.7192 N   0  0  0  0  0  0  0  0  0  0  0  0
  149.5656  138.3706  155.0826 N   0  0  0  0  0  0  0  0  0  0  0  0
  149.0646  137.0482  154.7627 C   0  0  0  0  0  0  0  0  0  0  0  0
  150.7286  138.7200  155.7410 C   0  0  0  0  0  0  0  0  0  0  0  0
  151.6987  137.6966  156.2373 C   0  0  0  0  0  0  0  0  0  0  0  0
  152.8923  143.0036  160.6360 C   0  0  0  0  0  0  0  0  0  0  0  0
  153.4306  141.5497  160.6571 C   0  0  0  0  0  0  0  0  0  0  0  0
  154.4760  141.3257  161.7612 C   0  0  0  0  0  0  0  0  0  0  0  0
  153.9163  141.6950  163.1402 C   0  0  0  0  0  0  0  0  0  0  0  0
  153.4048  143.1407  163.1463 C   0  0  0  0  0  0  0  0  0  0  0  0
  152.3589  143.3708  162.0430 C   0  0  0  0  0  0  0  0  0  0  0  0
  151.6972  146.7360  159.8179 H   0  0  0  0  0  0  0  0  0  0  0  0
  152.5698  145.6050  160.8473 H   0  0  0  0  0  0  0  0  0  0  0  0
  150.8066  145.6161  160.8356 H   0  0  0  0  0  0  0  0  0  0  0  0
  150.8034  144.8204  158.4629 H   0  0  0  0  0  0  0  0  0  0  0  0
  152.5420  144.9513  158.4122 H   0  0  0  0  0  0  0  0  0  0  0  0
  150.8586  142.9286  159.9267 H   0  0  0  0  0  0  0  0  0  0  0  0
  153.0904  142.4414  158.0151 H   0  0  0  0  0  0  0  0  0  0  0  0
  152.1372  141.7569  155.6870 H   0  0  0  0  0  0  0  0  0  0  0  0
  152.7175  140.4247  156.6453 H   0  0  0  0  0  0  0  0  0  0  0  0
  149.5719  142.3223  154.0335 H   0  0  0  0  0  0  0  0  0  0  0  0
  149.2241  142.5222  155.7474 H   0  0  0  0  0  0  0  0  0  0  0  0
  147.9874  141.8881  154.6700 H   0  0  0  0  0  0  0  0  0  0  0  0
  149.8629  136.4441  154.3313 H   0  0  0  0  0  0  0  0  0  0  0  0
  148.2467  137.1104  154.0433 H   0  0  0  0  0  0  0  0  0  0  0  0
  148.7029  136.5660  155.6708 H   0  0  0  0  0  0  0  0  0  0  0  0
  152.5560  138.1622  156.7225 H   0  0  0  0  0  0  0  0  0  0  0  0
  152.0746  137.0889  155.4143 H   0  0  0  0  0  0  0  0  0  0  0  0
  151.2248  137.0332  156.9609 H   0  0  0  0  0  0  0  0  0  0  0  0
  153.7368  143.6610  160.4218 H   0  0  0  0  0  0  0  0  0  0  0  0
  152.6011  140.8550  160.7961 H   0  0  0  0  0  0  0  0  0  0  0  0
  153.8881  141.2916  159.7021 H   0  0  0  0  0  0  0  0  0  0  0  0
  154.7998  140.2844  161.7598 H   0  0  0  0  0  0  0  0  0  0  0  0
  155.3628  141.9256  161.5528 H   0  0  0  0  0  0  0  0  0  0  0  0
  153.1034  141.0159  163.4008 H   0  0  0  0  0  0  0  0  0  0  0  0
  154.6854  141.5671  163.9024 H   0  0  0  0  0  0  0  0  0  0  0  0
  152.9743  143.3773  164.1198 H   0  0  0  0  0  0  0  0  0  0  0  0
  154.2420  143.8254  163.0044 H   0  0  0  0  0  0  0  0  0  0  0  0
  152.0596  144.4171  162.0823 H   0  0  0  0  0  0  0  0  0  0  0  0
  151.4653  142.7845  162.2617 H   0  0  0  0  0  0  0  0  0  0  0  0
  1  2  1  0  0  0  0
  1 22  1  0  0  0  0
  1 23  1  0  0  0  0
  1 24  1  0  0  0  0
  2  3  1  0  0  0  0
  2 25  1  0  0  0  0
  2 26  1  0  0  0  0
  3  4  1  0  0  0  0
  3 16  1  0  0  0  0
  3 27  1  0  0  0  0
  4  5  1  0  0  0  0
  4 28  1  0  0  0  0
  5  6  2  0  0  0  0
  5  7  1  0  0  0  0
  7  8  1  0  0  0  0
  7 29  1  0  0  0  0
  7 30  1  0  0  0  0
  8 14  2  0  0  0  0
  8  9  1  0  0  0  0
  9 10  1  0  0  0  0
  9 11  2  0  0  0  0
 10 31  1  0  0  0  0
 10 32  1  0  0  0  0
 10 33  1  0  0  0  0
 11 12  1  0  0  0  0
 12 13  1  0  0  0  0
 12 14  1  0  0  0  0
 13 34  1  0  0  0  0
 13 35  1  0  0  0  0
 13 36  1  0  0  0  0
 14 15  1  0  0  0  0
 15 37  1  0  0  0  0
 15 38  1  0  0  0  0
 15 39  1  0  0  0  0
 16 21  1  0  0  0  0
 16 17  1  0  0  0  0
 16 40  1  0  0  0  0
 17 18  1  0  0  0  0
 17 41  1  0  0  0  0
 17 42  1  0  0  0  0
 18 19  1  0  0  0  0
 18 43  1  0  0  0  0
 18 44  1  0  0  0  0
 19 20  1  0  0  0  0
 19 45  1  0  0  0  0
 19 46  1  0  0  0  0
 20 21  1  0  0  0  0
 20 47  1  0  0  0  0
 20 48  1  0  0  0  0
 21 49  1  0  0  0  0
 21 50  1  0  0  0  0
M  END
> <s_m_source_file>
AV-unprocessed.smi

> <i_m_source_file_index>
1150

> <i_lp_mmshare_version>
43012

> <i_f3d_flags>
0

> <s_epik_input>
W0NIMl0xW0NIMl1bQ0gyXVtDSDJdW0NIMl1bQ0hdMVtDQEhdKFtDSDJdW0NIM10pW05IXUMoPU8pW0NIMl1jMmMoW0NIM10pbm4oW0NIM10pYzJbQ0gzXQ==

> <s_epik_cmdline>
J2VwaWtfcHl0aG9uJywgJy1waCcsICc3LjAnLCAnLXRuJywgJzgnLCAnLW1hJywgJzIwMCcsICctbWV0YWxfYmluZGluZycsICctaW1hZScsICc8aW5maWxlLm1hZT4nLCAnLW9tYWUnLCAnPG91dGZpbGUubWFlPic=

> <r_lp_tautomer_probability>
1

> <r_epik_Ionization_Penalty>
0.00328092

> <r_epik_Ionization_Penalty_Charging>
0

> <r_epik_Ionization_Penalty_Neutral>
0.00328092

> <r_epik_State_Penalty>
0.00231765

> <r_epik_Charging_Adjusted_Penalty>
0.00231765

> <i_epik_Tot_Q>
0

> <i_epik_Tot_abs_Q>
0

> <r_epik_Metal_State_Penalty>
-0

> <b_epik_Metal_Only>
0

> <s_lp_Force_Field>
OPLS_2005

> <r_lp_Energy>
7.94886

> <b_lp_Chiralities_Consistent>
1

> <s_lp_Variant>
AV-unprocessed.smi:1150-2

> <Gold.Version>
5.8.1

> <Gold.Id.Protein>
6NUR|6NUR_protein|mol2

> <Gold.PLP.Fitness>
42.0120

> <Gold.PLP.PLP>
-43.9315

> <Gold.PLP.part.hbond>
0.0000

> <Gold.PLP.part.metal>
0.0000

> <Gold.PLP.part.buried>
-1.2913

> <Gold.PLP.part.nonpolar>
-42.0981

> <Gold.PLP.part.repulsive>
0.2477

> <Gold.PLP.ligand.clash>
0.0000

> <Gold.PLP.ligand.torsion>
0.9815

> <Gold.PLP.Chemscore.Hbond>
0.0000

> <Gold.PLP.Chemscore.CHOScore>
0.0000

> <Gold.PLP.Chemscore.Metal>
0.0000

> <Gold.PLP.Chemscore.Internal.Correction>
0.0436

> <Gold.Rescore>
     Score         DG    S(hbond)    S(metal)    S(lipo)     H(rot)  DE(clash)    DE(int)     intcor
     16.48     -17.99       0.00        0.00     137.92       1.42       0.41       1.10       ----

> <Gold.Chemscore.Fitness>
16.4832

> <Gold.Chemscore.DG>
-17.9883

> <Gold.Chemscore.ZeroCoef>
-5.4800

> <Gold.Chemscore.Hbond>
0.0000

> <Gold.Chemscore.Metal>
0.0000

> <Gold.Chemscore.Lipo>
137.9222

> <Gold.Chemscore.Internal_Hbond>
0.0000

> <Gold.Chemscore.DEClash>
0.4074

> <Gold.Chemscore.DEInternal>
1.0978

> <Gold.Chemscore.Rot>
1.4174

> <Gold.Chemscore.Internal.Correction>
   9.000000E+99

> <Gold.Chemscore.Hbond.Weighted>
-0.0000

> <Gold.Chemscore.Metal.Weighted>
-0.0000

> <Gold.Chemscore.Lipo.Weighted>
-16.1369

> <Gold.Chemscore.Internal_Hbond.Weighted>
0.0000

> <Gold.Chemscore.DEClash.Weighted>
0.4074

> <Gold.Chemscore.DEInternal.Weighted>
1.0978

> <Gold.Chemscore.Rot.Weighted>
3.6286

> <Gold.Chemscore.Internal.Correction.Weighted>
   9.000000E+99

> <Gold.Protein.RotatedTorsions>
[ 6907 6896 6895 6894 ] final   69.85 input  -60.11 | X-H torsion
[ 7974 7965 7964 7962 ] final   76.65 input  175.53 | X-H torsion
[ 8008 7997 7996 7995 ] final  -28.94 input   59.86 | X-H torsion
[ 10167 10162 10161 10158 ] final   -6.56 input  -65.29 | X-H torsion
[ 10718 10713 10712 10709 ] final  124.03 input   66.30 | X-H torsion
[ 10763 10752 10751 10750 ] final  169.99 input  -60.55 | X-H torsion
[ 11005 11000 10999 10996 ] final  -26.75 input  -57.11 | X-H torsion

> <Gold.Protein.ActiveResidues>
 VAL166  LYS551  ARG553  GLY616  TRP617  ASP618  TYR619  PRO620  LYS621  CYS622 
 ASP623  PHE694  ASN695  SER759  ASP760  ASP761  ALA762  ILE779  LEU786  VAL792 
 PHE793  MET794  SER795  GLU796  ALA797  LYS798  CYS799  TRP800  GLU811  SER814 

> <Gold.Protein.RotatedAtoms>
  152.4712  134.4955  159.9708 H   0  0  0  0  0  0  0  0  0  0  0  0  # atno 6907 bound_to 6896
  151.4981  133.3504  159.2872 H   0  0  0  0  0  0  0  0  0  0  0  0  # atno 6908 bound_to 6896
  150.8723  134.8127  159.7226 H   0  0  0  0  0  0  0  0  0  0  0  0  # atno 6909 bound_to 6896
  145.7001  139.2580  143.1710 H   0  0  0  0  0  0  0  0  0  0  0  0  # atno 7974 bound_to 7965
  154.4310  140.1831  156.1170 H   0  0  0  0  0  0  0  0  0  0  0  0  # atno 8008 bound_to 7997
  156.0173  140.3344  155.6977 H   0  0  0  0  0  0  0  0  0  0  0  0  # atno 8009 bound_to 7997
  155.6026  140.0642  157.2719 H   0  0  0  0  0  0  0  0  0  0  0  0  # atno 8010 bound_to 7997
  140.7001  143.6181  150.8639 H   0  0  0  0  0  0  0  0  0  0  0  0  # atno 10167 bound_to 10162
  157.5617  131.1089  150.8526 H   0  0  0  0  0  0  0  0  0  0  0  0  # atno 10718 bound_to 10713
  154.3911  135.2754  155.2154 H   0  0  0  0  0  0  0  0  0  0  0  0  # atno 10763 bound_to 10752
  154.4219  135.5998  153.6019 H   0  0  0  0  0  0  0  0  0  0  0  0  # atno 10764 bound_to 10752
  152.9832  135.5974  154.4167 H   0  0  0  0  0  0  0  0  0  0  0  0  # atno 10765 bound_to 10752
  140.9057  133.7494  156.0603 H   0  0  0  0  0  0  0  0  0  0  0  0  # atno 11005 bound_to 11000
  146.0806  140.7768  142.9643 LP  0  0  0  0  0  0  0  0  0  0  0  0  # atno 17320 bound_to 7965
  144.6971  140.3482  143.7186 LP  0  0  0  0  0  0  0  0  0  0  0  0  # atno 17321 bound_to 7965
  139.9902  143.5855  152.2913 LP  0  0  0  0  0  0  0  0  0  0  0  0  # atno 17342 bound_to 10162
  139.6508  144.7660  151.2152 LP  0  0  0  0  0  0  0  0  0  0  0  0  # atno 17343 bound_to 10162
  156.9022  130.5250  149.5282 LP  0  0  0  0  0  0  0  0  0  0  0  0  # atno 17370 bound_to 10713
  156.0669  130.5710  150.9307 LP  0  0  0  0  0  0  0  0  0  0  0  0  # atno 17371 bound_to 10713
  140.8173  134.3330  157.5393 LP  0  0  0  0  0  0  0  0  0  0  0  0  # atno 17394 bound_to 11000
  139.8749  134.9289  156.3462 LP  0  0  0  0  0  0  0  0  0  0  0  0  # atno 17395 bound_to 11000

$$$$
