AV-unprocessed.smi:35|AV-procd|sdf|251|dock5
  -GOLD-   2262016 13D 1   1.00000     0.00000
 Structure written by MMmdl.
 29 30  0  0  0  0  0  0  0  0  1 V2000
  153.2867  138.1621  160.8163 O   0  0  0  0  0  0  0  0  0  0  0  0
  153.0237  138.4174  159.6433 C   0  0  0  0  0  0  0  0  0  0  0  0
  153.1905  137.4446  158.6544 N   0  0  0  0  0  0  0  0  0  0  0  0
  152.9207  137.6157  157.2954 C   0  0  0  0  0  0  0  0  0  0  0  0
  153.1277  136.6935  156.5073 O   0  0  0  0  0  0  0  0  0  0  0  0
  152.4121  138.8695  156.8848 N   0  0  0  0  0  0  0  0  0  0  0  0
  152.1368  139.0821  155.4052 C   0  0  2  0  0  0  0  0  0  0  0  0
  151.3748  140.2362  155.2229 O   0  0  0  0  0  0  0  0  0  0  0  0
  149.9959  139.8924  155.1889 C   0  0  1  0  0  0  0  0  0  0  0  0
  149.1896  141.0284  154.5436 C   0  0  0  0  0  0  0  0  0  0  0  0
  149.5622  141.1730  153.1899 O   0  0  0  0  0  0  0  0  0  0  0  0
  150.0153  138.6042  154.3653 C   0  0  2  0  0  0  0  0  0  0  0  0
  148.8912  137.8049  154.6755 O   0  0  0  0  0  0  0  0  0  0  0  0
  151.3055  137.9196  154.8121 C   0  0  1  0  0  0  0  0  0  0  0  0
  151.9516  137.3232  153.7057 O   0  0  0  0  0  0  0  0  0  0  0  0
  152.2658  139.8794  157.8312 C   0  0  0  0  0  0  0  0  0  0  0  0
  152.5382  139.6990  159.1450 C   0  0  0  0  0  0  0  0  0  0  0  0
  152.2598  141.2624  160.3297 Br  0  0  0  0  0  0  0  0  0  0  0  0
  153.5424  136.5444  158.9469 H   0  0  0  0  0  0  0  0  0  0  0  0
  153.1226  139.2169  154.9550 H   0  0  0  0  0  0  0  0  0  0  0  0
  149.6365  139.6798  156.1979 H   0  0  0  0  0  0  0  0  0  0  0  0
  148.1168  140.8518  154.6269 H   0  0  0  0  0  0  0  0  0  0  0  0
  149.4037  141.9726  155.0451 H   0  0  0  0  0  0  0  0  0  0  0  0
  149.4522  140.3399  152.7575 H   0  0  0  0  0  0  0  0  0  0  0  0
  150.0398  138.8371  153.2992 H   0  0  0  0  0  0  0  0  0  0  0  0
  149.0948  137.2878  155.4400 H   0  0  0  0  0  0  0  0  0  0  0  0
  151.1080  137.1669  155.5773 H   0  0  0  0  0  0  0  0  0  0  0  0
  151.2906  137.0444  153.0899 H   0  0  0  0  0  0  0  0  0  0  0  0
  151.9283  140.8609  157.5355 H   0  0  0  0  0  0  0  0  0  0  0  0
  1  2  2  0  0  0  0
  2 17  1  0  0  0  0
  2  3  1  0  0  0  0
  3 19  1  0  0  0  0
  3  4  1  0  0  0  0
  4  5  2  0  0  0  0
  4  6  1  0  0  0  0
  6  7  1  0  0  0  0
  6 16  1  0  0  0  0
  7 14  1  0  0  0  0
  7  8  1  0  0  0  0
  7 20  1  0  0  0  0
  8  9  1  0  0  0  0
  9 10  1  0  0  0  0
  9 12  1  0  0  0  0
  9 21  1  0  0  0  0
 10 11  1  0  0  0  0
 10 22  1  0  0  0  0
 10 23  1  0  0  0  0
 11 24  1  0  0  0  0
 12 13  1  0  0  0  0
 12 14  1  0  0  0  0
 12 25  1  0  0  0  0
 13 26  1  0  0  0  0
 14 15  1  0  0  0  0
 14 27  1  0  0  0  0
 15 28  1  0  0  0  0
 16 17  2  0  0  0  0
 16 29  1  0  0  0  0
 17 18  1  0  0  0  0
M  END
> <s_m_source_file>
AV-unprocessed.smi

> <i_m_source_file_index>
35

> <i_lp_mmshare_version>
43012

> <i_f3d_flags>
0

> <s_epik_input>
Tz1jMVtuSF1jKD1PKW4oW2NIXWMxQnIpW0NAQEhdMk9bQ0BASF0oW0NIMl1bT0hdKVtDQEBIXShbT0hdKVtDQEhdMltPSF0=

> <s_epik_cmdline>
J2VwaWtfcHl0aG9uJywgJy1waCcsICc3LjAnLCAnLXRuJywgJzgnLCAnLW1hJywgJzIwMCcsICctbWV0YWxfYmluZGluZycsICctaW1hZScsICc8aW5maWxlLm1hZT4nLCAnLW9tYWUnLCAnPG91dGZpbGUubWFlPic=

> <r_lp_tautomer_probability>
0.999537

> <r_epik_Ionization_Penalty>
0.10812

> <r_epik_Ionization_Penalty_Charging>
0.108119

> <r_epik_Ionization_Penalty_Neutral>
4.93006e-07

> <r_epik_State_Penalty>
0.0979238

> <r_epik_Charging_Adjusted_Penalty>
0.206043

> <i_epik_Tot_Q>
0

> <i_epik_Tot_abs_Q>
0

> <r_epik_Metal_State_Penalty>
3.07911

> <b_epik_Metal_Only>
0

> <s_epik_Chemistry_Notes>
This compound contains an acetal/aminal-like group ( X-CH(R)-Y where X, Y are N, S, or O) that may be acid/base labile, releasing an aldehyde.

> <s_lp_Force_Field>
OPLS_2005

> <r_lp_Energy>
25.602

> <b_lp_Chiralities_Consistent>
1

> <s_lp_Variant>
AV-unprocessed.smi:35-5

> <Gold.Version>
5.8.1

> <Gold.Id.Protein>
6NUR|6NUR_protein|mol2

> <Gold.PLP.Fitness>
44.5849

> <Gold.PLP.PLP>
-30.8230

> <Gold.PLP.part.hbond>
-6.1813

> <Gold.PLP.part.metal>
0.0000

> <Gold.PLP.part.buried>
-2.5483

> <Gold.PLP.part.nonpolar>
-21.0875

> <Gold.PLP.part.repulsive>
0.1324

> <Gold.PLP.ligand.clash>
0.0000

> <Gold.PLP.ligand.torsion>
0.3730

> <Gold.PLP.Chemscore.Hbond>
4.8240

> <Gold.PLP.Chemscore.CHOScore>
0.0000

> <Gold.PLP.Chemscore.Metal>
0.0000

> <Gold.Chemscore.Hbonds>
donor molecule, donor type, donor heavy atom, donor atom, acceptor molecule, acceptor atom, score
      L1  H    11    24       P1  7957  0.53
      L1  H    15    28       P1  7949  0.77
      P1  H  7989  7998       L1     8  1.00
      P1  H  8011  8017       L1    11  0.99
      P1  H 10752 10763       L1     5  0.75
      P1  H 10752 10765       L1    15  1.00

> <Gold.PLP.Chemscore.Internal.Correction>
0.0359

> <Gold.Rescore>
     Score         DG    S(hbond)    S(metal)    S(lipo)     H(rot)  DE(clash)    DE(int)     intcor
     12.71     -13.98       3.76        0.00      45.54       3.67       0.00       1.27       ----

> <Gold.Chemscore.Fitness>
12.7122

> <Gold.Chemscore.DG>
-13.9775

> <Gold.Chemscore.ZeroCoef>
-5.4800

> <Gold.Chemscore.Hbond>
3.7618

> <Gold.Chemscore.Metal>
0.0000

> <Gold.Chemscore.Lipo>
45.5419

> <Gold.Chemscore.Internal_Hbond>
0.0000

> <Gold.Chemscore.DEClash>
0.0000

> <Gold.Chemscore.DEInternal>
1.2653

> <Gold.Chemscore.Rot>
3.6701

> <Gold.Chemscore.Internal.Correction>
   9.000000E+99

> <Gold.Chemscore.Hbonds>
donor molecule, donor type, donor heavy atom, donor atom, acceptor molecule, acceptor atom, score
      L1  H    11    24       P1  7957  0.52
      L1  H    15    28       P1  7949  0.53
      P1  H  7989  7998       L1     8  0.23
      P1  H  8011  8017       L1    11  0.88
      P1  H 10752 10763       L1     5  0.76
      P1  H 10752 10765       L1    15  0.36

> <Gold.Chemscore.Hbond.Weighted>
-12.5645

> <Gold.Chemscore.Metal.Weighted>
-0.0000

> <Gold.Chemscore.Lipo.Weighted>
-5.3284

> <Gold.Chemscore.Internal_Hbond.Weighted>
0.0000

> <Gold.Chemscore.DEClash.Weighted>
0.0000

> <Gold.Chemscore.DEInternal.Weighted>
1.2653

> <Gold.Chemscore.Rot.Weighted>
9.3955

> <Gold.Chemscore.Internal.Correction.Weighted>
   9.000000E+99

> <Gold.Protein.RotatedTorsions>
[ 6907 6896 6895 6894 ] final   72.94 input  -60.11 | X-H torsion
[ 7974 7965 7964 7962 ] final  -87.21 input  175.53 | X-H torsion
[ 8008 7997 7996 7995 ] final   20.89 input   59.86 | X-H torsion
[ 10167 10162 10161 10158 ] final  131.00 input  -65.29 | X-H torsion
[ 10718 10713 10712 10709 ] final  112.89 input   66.30 | X-H torsion
[ 10763 10752 10751 10750 ] final  132.64 input  -60.55 | X-H torsion
[ 11005 11000 10999 10996 ] final   25.90 input  -57.11 | X-H torsion

> <Gold.Protein.ActiveResidues>
 VAL166  LYS551  ARG553  GLY616  TRP617  ASP618  TYR619  PRO620  LYS621  CYS622 
 ASP623  PHE694  ASN695  SER759  ASP760  ASP761  ALA762  ILE779  LEU786  VAL792 
 PHE793  MET794  SER795  GLU796  ALA797  LYS798  CYS799  TRP800  GLU811  SER814 

> <Gold.Protein.RotatedAtoms>
  152.4896  134.4496  159.9569 H   0  0  0  0  0  0  0  0  0  0  0  0  # atno 6907 bound_to 6896
  151.4486  133.3617  159.2800 H   0  0  0  0  0  0  0  0  0  0  0  0  # atno 6908 bound_to 6896
  150.9037  134.8475  159.7438 H   0  0  0  0  0  0  0  0  0  0  0  0  # atno 6909 bound_to 6896
  145.4696  140.9560  143.1924 H   0  0  0  0  0  0  0  0  0  0  0  0  # atno 7974 bound_to 7965
  154.9424  140.3055  155.5114 H   0  0  0  0  0  0  0  0  0  0  0  0  # atno 8008 bound_to 7997
  156.2995  140.2334  156.4431 H   0  0  0  0  0  0  0  0  0  0  0  0  # atno 8009 bound_to 7997
  154.8133  140.0427  157.1347 H   0  0  0  0  0  0  0  0  0  0  0  0  # atno 8010 bound_to 7997
  139.5404  144.6724  151.4645 H   0  0  0  0  0  0  0  0  0  0  0  0  # atno 10167 bound_to 10162
  157.6368  131.0975  150.6961 H   0  0  0  0  0  0  0  0  0  0  0  0  # atno 10718 bound_to 10713
  153.7941  135.3151  155.3382 H   0  0  0  0  0  0  0  0  0  0  0  0  # atno 10763 bound_to 10752
  154.8114  135.4664  154.0531 H   0  0  0  0  0  0  0  0  0  0  0  0  # atno 10764 bound_to 10752
  153.1858  135.6901  153.8504 H   0  0  0  0  0  0  0  0  0  0  0  0  # atno 10765 bound_to 10752
  140.3428  134.2314  155.7688 H   0  0  0  0  0  0  0  0  0  0  0  0  # atno 11005 bound_to 11000
  144.7953  139.6246  143.7095 LP  0  0  0  0  0  0  0  0  0  0  0  0  # atno 17320 bound_to 7965
  146.2404  139.5991  142.9495 LP  0  0  0  0  0  0  0  0  0  0  0  0  # atno 17321 bound_to 7965
  140.6631  143.8457  150.6910 LP  0  0  0  0  0  0  0  0  0  0  0  0  # atno 17342 bound_to 10162
  140.1857  143.4077  152.1900 LP  0  0  0  0  0  0  0  0  0  0  0  0  # atno 17343 bound_to 10162
  156.7291  130.4704  149.5504 LP  0  0  0  0  0  0  0  0  0  0  0  0  # atno 17370 bound_to 10713
  156.1614  130.6376  151.0723 LP  0  0  0  0  0  0  0  0  0  0  0  0  # atno 17371 bound_to 10713
  141.2034  133.7914  157.0343 LP  0  0  0  0  0  0  0  0  0  0  0  0  # atno 17394 bound_to 11000
  140.0767  134.9672  157.1556 LP  0  0  0  0  0  0  0  0  0  0  0  0  # atno 17395 bound_to 11000

$$$$
