AV-unprocessed.smi:1767|AV-procd|sdf|7142|dock1
  -GOLD-   22720 8383D 1   1.00000     0.00000
 Structure written by MMmdl.
 33 35  0  0  0  0  0  0  0  0  2 V2000
  150.2080  139.4711  157.6298 O   0  0  0  0  0  0  0  0  0  0  0  0
  151.4325  140.1385  157.3922 C   0  0  1  0  0  0  0  0  0  0  0  0
  151.5831  140.4245  155.8850 C   0  0  0  0  0  0  0  0  0  0  0  0
  150.6189  139.6802  155.0646 N   0  0  0  0  0  0  0  0  0  0  0  0
  150.6403  138.3849  154.6486 C   0  0  0  0  0  0  0  0  0  0  0  0
  149.5173  138.1732  153.9074 N   0  3  0  0  0  0  0  0  0  0  0  0
  148.7687  139.3509  153.8477 C   0  0  0  0  0  0  0  0  0  0  0  0
  147.5603  139.6332  153.2178 C   0  0  0  0  0  0  0  0  0  0  0  0
  147.0679  140.9482  153.3537 C   0  0  0  0  0  0  0  0  0  0  0  0
  147.7698  141.9233  154.0920 C   0  0  0  0  0  0  0  0  0  0  0  0
  148.9939  141.6260  154.7271 C   0  0  0  0  0  0  0  0  0  0  0  0
  149.4724  140.3239  154.5884 C   0  0  0  0  0  0  0  0  0  0  0  0
  151.5633  141.4133  158.2107 C   0  0  0  0  0  0  0  0  0  0  0  0
  150.7115  142.5080  157.9490 C   0  0  0  0  0  0  0  0  0  0  0  0
  150.8195  143.6893  158.7084 C   0  0  0  0  0  0  0  0  0  0  0  0
  151.7783  143.7820  159.7355 C   0  0  0  0  0  0  0  0  0  0  0  0
  151.8811  144.9177  160.4654 F   0  0  0  0  0  0  0  0  0  0  0  0
  152.6285  142.6921  160.0039 C   0  0  0  0  0  0  0  0  0  0  0  0
  152.5212  141.5106  159.2445 C   0  0  0  0  0  0  0  0  0  0  0  0
  150.1956  139.1799  158.5290 H   0  0  0  0  0  0  0  0  0  0  0  0
  152.2227  139.4536  157.7023 H   0  0  0  0  0  0  0  0  0  0  0  0
  151.4351  141.4862  155.6815 H   0  0  0  0  0  0  0  0  0  0  0  0
  152.5891  140.1814  155.5401 H   0  0  0  0  0  0  0  0  0  0  0  0
  151.4106  137.6584  154.8645 H   0  0  0  0  0  0  0  0  0  0  0  0
  147.0207  138.8884  152.6512 H   0  0  0  0  0  0  0  0  0  0  0  0
  146.1334  141.2144  152.8814 H   0  0  0  0  0  0  0  0  0  0  0  0
  147.3610  142.9202  154.1730 H   0  0  0  0  0  0  0  0  0  0  0  0
  149.5249  142.3794  155.2899 H   0  0  0  0  0  0  0  0  0  0  0  0
  149.9703  142.4461  157.1656 H   0  0  0  0  0  0  0  0  0  0  0  0
  150.1656  144.5243  158.5036 H   0  0  0  0  0  0  0  0  0  0  0  0
  153.3625  142.7614  160.7932 H   0  0  0  0  0  0  0  0  0  0  0  0
  153.1755  140.6787  159.4609 H   0  0  0  0  0  0  0  0  0  0  0  0
  149.2830  137.2889  153.4745 H   0  0  0  0  0  0  0  0  0  0  0  0
  1  2  1  0  0  0  0
  1 20  1  0  0  0  0
  2  3  1  0  0  0  0
  2 13  1  0  0  0  0
  2 21  1  0  0  0  0
  3  4  1  0  0  0  0
  3 22  1  0  0  0  0
  3 23  1  0  0  0  0
  4 12  1  0  0  0  0
  4  5  1  0  0  0  0
  5  6  2  0  0  0  0
  5 24  1  0  0  0  0
  6  7  1  0  0  0  0
  6 33  1  0  0  0  0
  7 12  2  0  0  0  0
  7  8  1  0  0  0  0
  8  9  2  0  0  0  0
  8 25  1  0  0  0  0
  9 10  1  0  0  0  0
  9 26  1  0  0  0  0
 10 11  2  0  0  0  0
 10 27  1  0  0  0  0
 11 12  1  0  0  0  0
 11 28  1  0  0  0  0
 13 19  1  0  0  0  0
 13 14  2  0  0  0  0
 14 15  1  0  0  0  0
 14 29  1  0  0  0  0
 15 16  2  0  0  0  0
 15 30  1  0  0  0  0
 16 17  1  0  0  0  0
 16 18  1  0  0  0  0
 18 19  2  0  0  0  0
 18 31  1  0  0  0  0
 19 32  1  0  0  0  0
M  CHG  1   6   1
M  END
> <s_m_source_file>
AV-unprocessed.smi

> <i_m_source_file_index>
1767

> <i_lp_mmshare_version>
43012

> <i_f3d_flags>
0

> <s_epik_input>
W2NIXTFbY0hdYyhGKVtjSF1bY0hdYzFbQ0BIXShbT0hdKVtDSDJdbihbY0hdbjIpYyhjMjMpW2NIXVtjSF1bY0hdW2NIXTM=

> <s_epik_cmdline>
J2VwaWtfcHl0aG9uJywgJy1waCcsICc3LjAnLCAnLXRuJywgJzgnLCAnLW1hJywgJzIwMCcsICctbWV0YWxfYmluZGluZycsICctaW1hZScsICc8aW5maWxlLm1hZT4nLCAnLW9tYWUnLCAnPG91dGZpbGUubWFlPic=

> <r_epik_Ionization_Penalty>
1.3029

> <r_epik_Ionization_Penalty_Charging>
1.3029

> <r_epik_Ionization_Penalty_Neutral>
1.79538e-06

> <r_epik_State_Penalty>
1.377

> <r_epik_Charging_Adjusted_Penalty>
2.6799

> <i_epik_Tot_Q>
1

> <i_epik_Tot_abs_Q>
1

> <r_epik_Metal_State_Penalty>
5.40879

> <b_epik_Metal_Only>
0

> <s_lp_Force_Field>
OPLS_2005

> <r_lp_Energy>
16.37

> <b_lp_Chiralities_Consistent>
1

> <s_lp_Variant>
AV-unprocessed.smi:1767-4

> <Gold.Version>
5.8.1

> <Gold.Id.Protein>
6NUR|6NUR_protein|mol2

> <Gold.PLP.Fitness>
49.0282

> <Gold.PLP.PLP>
-44.9738

> <Gold.PLP.part.hbond>
-1.0688

> <Gold.PLP.part.metal>
0.0000

> <Gold.PLP.part.buried>
-0.0538

> <Gold.PLP.part.nonpolar>
-43.6891

> <Gold.PLP.part.repulsive>
0.0378

> <Gold.PLP.ligand.clash>
0.0000

> <Gold.PLP.ligand.torsion>
0.9701

> <Gold.PLP.Chemscore.Hbond>
1.9840

> <Gold.PLP.Chemscore.CHOScore>
0.0000

> <Gold.PLP.Chemscore.Metal>
0.0000

> <Gold.Chemscore.Hbonds>
donor molecule, donor type, donor heavy atom, donor atom, acceptor molecule, acceptor atom, score
      L1  H     6    33       P1  7948  1.95

> <Gold.PLP.Chemscore.Internal.Correction>
0.0426

> <Gold.Rescore>
     Score         DG    S(hbond)    S(metal)    S(lipo)     H(rot)  DE(clash)    DE(int)     intcor
     15.11     -16.25       0.93        0.00     108.52       1.97       0.19       0.95       ----

> <Gold.Chemscore.Fitness>
15.1070

> <Gold.Chemscore.DG>
-16.2499

> <Gold.Chemscore.ZeroCoef>
-5.4800

> <Gold.Chemscore.Hbond>
0.9311

> <Gold.Chemscore.Metal>
0.0000

> <Gold.Chemscore.Lipo>
108.5244

> <Gold.Chemscore.Internal_Hbond>
0.0000

> <Gold.Chemscore.DEClash>
0.1933

> <Gold.Chemscore.DEInternal>
0.9497

> <Gold.Chemscore.Rot>
1.9677

> <Gold.Chemscore.Internal.Correction>
   9.000000E+99

> <Gold.Chemscore.Hbonds>
donor molecule, donor type, donor heavy atom, donor atom, acceptor molecule, acceptor atom, score
      L1  H     6    33       P1  7948  0.91

> <Gold.Chemscore.Hbond.Weighted>
-3.1098

> <Gold.Chemscore.Metal.Weighted>
-0.0000

> <Gold.Chemscore.Lipo.Weighted>
-12.6974

> <Gold.Chemscore.Internal_Hbond.Weighted>
0.0000

> <Gold.Chemscore.DEClash.Weighted>
0.1933

> <Gold.Chemscore.DEInternal.Weighted>
0.9497

> <Gold.Chemscore.Rot.Weighted>
5.0372

> <Gold.Chemscore.Internal.Correction.Weighted>
   9.000000E+99

> <Gold.Protein.RotatedTorsions>
[ 6907 6896 6895 6894 ] final   84.30 input  -60.11 | X-H torsion
[ 7974 7965 7964 7962 ] final  109.62 input  175.53 | X-H torsion
[ 8008 7997 7996 7995 ] final   87.00 input   59.86 | X-H torsion
[ 10167 10162 10161 10158 ] final  -72.59 input  -65.29 | X-H torsion
[ 10718 10713 10712 10709 ] final  -95.25 input   66.30 | X-H torsion
[ 10763 10752 10751 10750 ] final  100.81 input  -60.55 | X-H torsion
[ 11005 11000 10999 10996 ] final   99.09 input  -57.11 | X-H torsion

> <Gold.Protein.ActiveResidues>
 VAL166  LYS551  ARG553  GLY616  TRP617  ASP618  TYR619  PRO620  LYS621  CYS622 
 ASP623  PHE694  ASN695  SER759  ASP760  ASP761  ALA762  ILE779  LEU786  VAL792 
 PHE793  MET794  SER795  GLU796  ALA797  LYS798  CYS799  TRP800  GLU811  SER814 

> <Gold.Protein.RotatedAtoms>
  152.5349  134.2762  159.8989 H   0  0  0  0  0  0  0  0  0  0  0  0  # atno 6907 bound_to 6896
  151.2717  133.4245  159.2629 H   0  0  0  0  0  0  0  0  0  0  0  0  # atno 6908 bound_to 6896
  151.0361  134.9589  159.8194 H   0  0  0  0  0  0  0  0  0  0  0  0  # atno 6909 bound_to 6896
  145.2654  139.2686  143.3994 H   0  0  0  0  0  0  0  0  0  0  0  0  # atno 7974 bound_to 7965
  155.9698  140.3386  155.6565 H   0  0  0  0  0  0  0  0  0  0  0  0  # atno 8008 bound_to 7997
  155.6689  140.0724  157.2545 H   0  0  0  0  0  0  0  0  0  0  0  0  # atno 8009 bound_to 7997
  154.4163  140.1695  156.1845 H   0  0  0  0  0  0  0  0  0  0  0  0  # atno 8010 bound_to 7997
  140.5179  143.2335  151.7480 H   0  0  0  0  0  0  0  0  0  0  0  0  # atno 10167 bound_to 10162
  156.0040  130.5101  150.6049 H   0  0  0  0  0  0  0  0  0  0  0  0  # atno 10718 bound_to 10713
  153.3186  135.4066  155.1397 H   0  0  0  0  0  0  0  0  0  0  0  0  # atno 10763 bound_to 10752
  154.8595  135.3582  154.5627 H   0  0  0  0  0  0  0  0  0  0  0  0  # atno 10764 bound_to 10752
  153.6059  135.7069  153.5425 H   0  0  0  0  0  0  0  0  0  0  0  0  # atno 10765 bound_to 10752
  139.8771  134.9079  156.4554 H   0  0  0  0  0  0  0  0  0  0  0  0  # atno 11005 bound_to 11000
  146.3262  140.3083  142.8625 LP  0  0  0  0  0  0  0  0  0  0  0  0  # atno 17320 bound_to 7965
  144.9381  140.8049  143.5647 LP  0  0  0  0  0  0  0  0  0  0  0  0  # atno 17321 bound_to 7965
  139.4915  144.4297  151.9886 LP  0  0  0  0  0  0  0  0  0  0  0  0  # atno 17342 bound_to 10162
  140.3392  144.3224  150.5971 LP  0  0  0  0  0  0  0  0  0  0  0  0  # atno 17343 bound_to 10162
  157.3891  131.0793  151.1409 LP  0  0  0  0  0  0  0  0  0  0  0  0  # atno 17370 bound_to 10713
  157.2107  130.6436  149.5773 LP  0  0  0  0  0  0  0  0  0  0  0  0  # atno 17371 bound_to 10713
  140.8902  133.7854  155.9563 LP  0  0  0  0  0  0  0  0  0  0  0  0  # atno 17394 bound_to 11000
  140.8761  134.2667  157.5167 LP  0  0  0  0  0  0  0  0  0  0  0  0  # atno 17395 bound_to 11000

$$$$
