AV-unprocessed.smi:3181|AV-procd|sdf|12145|dock1
  -GOLD-   2272017583D 1   1.00000     0.00000
 Structure written by MMmdl.
 42 43  0  0  0  0  0  0  0  0  2 V2000
  149.1065  141.3167  155.8706 C   0  0  0  0  0  0  0  0  0  0  0  0
  150.5565  141.7173  156.1930 C   0  0  2  0  0  0  0  0  0  0  0  0
  151.3944  140.5405  156.7335 C   0  0  0  0  0  0  0  0  0  0  0  0
  151.4984  139.4382  155.7945 N   0  0  0  0  0  0  0  0  0  0  0  0
  152.2682  138.3489  155.8146 C   0  0  0  0  0  0  0  0  0  0  0  0
  152.0964  137.5534  154.7682 N   0  0  0  0  0  0  0  0  0  0  0  0
  151.1466  138.2660  154.0923 C   0  0  0  0  0  0  0  0  0  0  0  0
  150.7560  139.4061  154.6630 N   0  0  0  0  0  0  0  0  0  0  0  0
  150.5663  142.8248  157.1757 N   0  3  0  0  0  0  0  0  0  0  0  0
  151.8481  143.5551  157.3222 C   0  0  1  0  0  0  0  0  0  0  0  0
  151.6591  144.9642  157.9175 C   0  0  0  0  0  0  0  0  0  0  0  0
  151.2474  144.9118  159.3963 C   0  0  0  0  0  0  0  0  0  0  0  0
  152.2503  144.1104  160.2498 C   0  0  1  0  0  0  0  0  0  0  0  0
  151.7966  144.1086  161.7205 C   0  0  0  0  0  0  0  0  0  0  0  0
  152.4435  142.6830  159.6727 C   0  0  2  0  0  0  0  0  0  0  0  0
  153.4859  141.8596  160.4506 C   0  0  0  0  0  0  0  0  0  0  0  0
  152.8362  142.7430  158.1791 C   0  0  0  0  0  0  0  0  0  0  0  0
  149.0649  140.5555  155.0912 H   0  0  0  0  0  0  0  0  0  0  0  0
  148.5300  142.1708  155.5150 H   0  0  0  0  0  0  0  0  0  0  0  0
  148.6005  140.9183  156.7507 H   0  0  0  0  0  0  0  0  0  0  0  0
  151.0218  142.0567  155.2660 H   0  0  0  0  0  0  0  0  0  0  0  0
  152.4042  140.8751  156.9765 H   0  0  0  0  0  0  0  0  0  0  0  0
  150.9598  140.1610  157.6597 H   0  0  0  0  0  0  0  0  0  0  0  0
  152.9653  138.1308  156.6107 H   0  0  0  0  0  0  0  0  0  0  0  0
  150.7315  137.9353  153.1516 H   0  0  0  0  0  0  0  0  0  0  0  0
  149.8408  143.4849  156.9350 H   0  0  0  0  0  0  0  0  0  0  0  0
  152.2805  143.6493  156.3248 H   0  0  0  0  0  0  0  0  0  0  0  0
  152.5987  145.5121  157.8344 H   0  0  0  0  0  0  0  0  0  0  0  0
  150.9306  145.5390  157.3461 H   0  0  0  0  0  0  0  0  0  0  0  0
  151.1656  145.9295  159.7798 H   0  0  0  0  0  0  0  0  0  0  0  0
  150.2529  144.4731  159.4856 H   0  0  0  0  0  0  0  0  0  0  0  0
  153.2104  144.6271  160.2046 H   0  0  0  0  0  0  0  0  0  0  0  0
  150.8733  143.5435  161.8517 H   0  0  0  0  0  0  0  0  0  0  0  0
  151.6155  145.1239  162.0743 H   0  0  0  0  0  0  0  0  0  0  0  0
  152.5514  143.6776  162.3774 H   0  0  0  0  0  0  0  0  0  0  0  0
  151.4920  142.1549  159.7489 H   0  0  0  0  0  0  0  0  0  0  0  0
  154.4509  142.3666  160.4806 H   0  0  0  0  0  0  0  0  0  0  0  0
  153.6394  140.8846  159.9875 H   0  0  0  0  0  0  0  0  0  0  0  0
  153.1719  141.6739  161.4771 H   0  0  0  0  0  0  0  0  0  0  0  0
  152.9291  141.7341  157.7748 H   0  0  0  0  0  0  0  0  0  0  0  0
  153.8269  143.1916  158.0911 H   0  0  0  0  0  0  0  0  0  0  0  0
  150.3431  142.4262  158.0764 H   0  0  0  0  0  0  0  0  0  0  0  0
  1  2  1  0  0  0  0
  1 18  1  0  0  0  0
  1 19  1  0  0  0  0
  1 20  1  0  0  0  0
  2  3  1  0  0  0  0
  2  9  1  0  0  0  0
  2 21  1  0  0  0  0
  3  4  1  0  0  0  0
  3 22  1  0  0  0  0
  3 23  1  0  0  0  0
  4  8  1  0  0  0  0
  4  5  1  0  0  0  0
  5  6  2  0  0  0  0
  5 24  1  0  0  0  0
  6  7  1  0  0  0  0
  7  8  2  0  0  0  0
  7 25  1  0  0  0  0
  9 10  1  0  0  0  0
  9 26  1  0  0  0  0
  9 42  1  0  0  0  0
 10 17  1  0  0  0  0
 10 11  1  0  0  0  0
 10 27  1  0  0  0  0
 11 12  1  0  0  0  0
 11 28  1  0  0  0  0
 11 29  1  0  0  0  0
 12 13  1  0  0  0  0
 12 30  1  0  0  0  0
 12 31  1  0  0  0  0
 13 14  1  0  0  0  0
 13 15  1  0  0  0  0
 13 32  1  0  0  0  0
 14 33  1  0  0  0  0
 14 34  1  0  0  0  0
 14 35  1  0  0  0  0
 15 16  1  0  0  0  0
 15 17  1  0  0  0  0
 15 36  1  0  0  0  0
 16 37  1  0  0  0  0
 16 38  1  0  0  0  0
 16 39  1  0  0  0  0
 17 40  1  0  0  0  0
 17 41  1  0  0  0  0
M  CHG  1   9   1
M  END
> <s_m_source_file>
AV-unprocessed.smi

> <i_m_source_file_index>
3181

> <i_lp_mmshare_version>
43012

> <i_f3d_flags>
0

> <s_epik_input>
bjFbY0hdbltjSF1uMVtDSDJdW0NAQEhdKFtDSDNdKVtOSF1bQ0BASF0yW0NIMl1bQ0gyXVtDQEBIXShbQ0gzXSlbQ0BASF0oW0NIM10pW0NIMl0y

> <s_epik_cmdline>
J2VwaWtfcHl0aG9uJywgJy1waCcsICc3LjAnLCAnLXRuJywgJzgnLCAnLW1hJywgJzIwMCcsICctbWV0YWxfYmluZGluZycsICctaW1hZScsICc8aW5maWxlLm1hZT4nLCAnLW9tYWUnLCAnPG91dGZpbGUubWFlPic=

> <r_lp_tautomer_probability>
1

> <r_epik_Ionization_Penalty>
0.000617007

> <r_epik_Ionization_Penalty_Charging>
0.000616215

> <r_epik_Ionization_Penalty_Neutral>
7.92544e-07

> <r_epik_State_Penalty>
0.000388807

> <r_epik_Charging_Adjusted_Penalty>
0.00100502

> <i_epik_Tot_Q>
1

> <i_epik_Tot_abs_Q>
1

> <r_epik_Metal_State_Penalty>
-0

> <b_epik_Metal_Only>
0

> <s_lp_Force_Field>
OPLS_2005

> <r_lp_Energy>
23.0816

> <b_lp_Chiralities_Consistent>
1

> <s_lp_Variant>
AV-unprocessed.smi:3181-11

> <Gold.Version>
5.8.1

> <Gold.Id.Protein>
6NUR|6NUR_protein|mol2

> <Gold.PLP.Fitness>
50.3647

> <Gold.PLP.PLP>
-36.7731

> <Gold.PLP.part.hbond>
-3.0000

> <Gold.PLP.part.metal>
0.0000

> <Gold.PLP.part.buried>
-5.2649

> <Gold.PLP.part.nonpolar>
-29.2968

> <Gold.PLP.part.repulsive>
0.1994

> <Gold.PLP.ligand.clash>
0.0000

> <Gold.PLP.ligand.torsion>
0.3670

> <Gold.PLP.Chemscore.Hbond>
3.6978

> <Gold.PLP.Chemscore.CHOScore>
1.0707

> <Gold.PLP.Chemscore.Metal>
0.0000

> <Gold.Chemscore.Hbonds>
donor molecule, donor type, donor heavy atom, donor atom, acceptor molecule, acceptor atom, score
      L1  H     9    26       P1  8028  2.00
      P1  H  7989  7998       L1     8  0.93
      P1  H 10752 10765       L1     6  0.65
      L1  C     7    25       P1  7948  0.25
      L1  C     7    25       P1  7949  0.66

> <Gold.PLP.Chemscore.Internal.Correction>
0.0202

> <Gold.Rescore>
     Score         DG    S(hbond)    S(metal)    S(lipo)     H(rot)  DE(clash)    DE(int)     intcor
     16.05     -22.33       2.70        0.00     113.12       2.11       4.26       2.03       ----

> <Gold.Chemscore.Fitness>
16.0520

> <Gold.Chemscore.DG>
-22.3341

> <Gold.Chemscore.ZeroCoef>
-5.4800

> <Gold.Chemscore.Hbond>
2.7003

> <Gold.Chemscore.Metal>
0.0000

> <Gold.Chemscore.Lipo>
113.1233

> <Gold.Chemscore.Internal_Hbond>
0.0000

> <Gold.Chemscore.DEClash>
4.2570

> <Gold.Chemscore.DEInternal>
2.0251

> <Gold.Chemscore.Rot>
2.1095

> <Gold.Chemscore.Internal.Correction>
   9.000000E+99

> <Gold.Chemscore.Hbonds>
donor molecule, donor type, donor heavy atom, donor atom, acceptor molecule, acceptor atom, score
      L1  H     9    26       P1  8028  0.92
      P1  H  7989  7998       L1     8  0.14
      P1  H 10752 10765       L1     6  0.63

> <Gold.Chemscore.Hbond.Weighted>
-9.0190

> <Gold.Chemscore.Metal.Weighted>
-0.0000

> <Gold.Chemscore.Lipo.Weighted>
-13.2354

> <Gold.Chemscore.Internal_Hbond.Weighted>
0.0000

> <Gold.Chemscore.DEClash.Weighted>
4.2570

> <Gold.Chemscore.DEInternal.Weighted>
2.0251

> <Gold.Chemscore.Rot.Weighted>
5.4003

> <Gold.Chemscore.Internal.Correction.Weighted>
   9.000000E+99

> <Gold.Protein.RotatedTorsions>
[ 6907 6896 6895 6894 ] final  104.01 input  -60.11 | X-H torsion
[ 7974 7965 7964 7962 ] final -141.51 input  175.53 | X-H torsion
[ 8008 7997 7996 7995 ] final   30.26 input   59.86 | X-H torsion
[ 10167 10162 10161 10158 ] final  134.46 input  -65.29 | X-H torsion
[ 10718 10713 10712 10709 ] final  108.26 input   66.30 | X-H torsion
[ 10763 10752 10751 10750 ] final  166.05 input  -60.55 | X-H torsion
[ 11005 11000 10999 10996 ] final  -66.25 input  -57.11 | X-H torsion

> <Gold.Protein.ActiveResidues>
 VAL166  LYS551  ARG553  GLY616  TRP617  ASP618  TYR619  PRO620  LYS621  CYS622 
 ASP623  PHE694  ASN695  SER759  ASP760  ASP761  ALA762  ILE779  LEU786  VAL792 
 PHE793  MET794  SER795  GLU796  ALA797  LYS798  CYS799  TRP800  GLU811  SER814 

> <Gold.Protein.RotatedAtoms>
  152.5278  133.9740  159.7775 H   0  0  0  0  0  0  0  0  0  0  0  0  # atno 6907 bound_to 6896
  151.0007  133.6051  159.2702 H   0  0  0  0  0  0  0  0  0  0  0  0  # atno 6908 bound_to 6896
  151.3161  135.0813  159.9343 H   0  0  0  0  0  0  0  0  0  0  0  0  # atno 6909 bound_to 6896
  144.8514  140.6071  143.5388 H   0  0  0  0  0  0  0  0  0  0  0  0  # atno 7974 bound_to 7965
  155.0875  140.3216  155.4583 H   0  0  0  0  0  0  0  0  0  0  0  0  # atno 8008 bound_to 7997
  156.2751  140.2084  156.5949 H   0  0  0  0  0  0  0  0  0  0  0  0  # atno 8009 bound_to 7997
  154.6929  140.0514  157.0369 H   0  0  0  0  0  0  0  0  0  0  0  0  # atno 8010 bound_to 7997
  139.5255  144.6566  151.5142 H   0  0  0  0  0  0  0  0  0  0  0  0  # atno 10167 bound_to 10162
  157.6593  131.0890  150.6279 H   0  0  0  0  0  0  0  0  0  0  0  0  # atno 10718 bound_to 10713
  154.3332  135.2754  155.2461 H   0  0  0  0  0  0  0  0  0  0  0  0  # atno 10763 bound_to 10752
  154.4763  135.5870  153.6361 H   0  0  0  0  0  0  0  0  0  0  0  0  # atno 10764 bound_to 10752
  152.9864  135.6100  154.3527 H   0  0  0  0  0  0  0  0  0  0  0  0  # atno 10765 bound_to 10752
  141.1477  133.6696  156.6111 H   0  0  0  0  0  0  0  0  0  0  0  0  # atno 11005 bound_to 11000
  145.4493  139.1525  143.3927 LP  0  0  0  0  0  0  0  0  0  0  0  0  # atno 17320 bound_to 7965
  146.2788  140.4618  142.8785 LP  0  0  0  0  0  0  0  0  0  0  0  0  # atno 17321 bound_to 7965
  140.6395  143.8918  150.6678 LP  0  0  0  0  0  0  0  0  0  0  0  0  # atno 17342 bound_to 10162
  140.2247  143.3781  152.1614 LP  0  0  0  0  0  0  0  0  0  0  0  0  # atno 17343 bound_to 10162
  156.6583  130.4505  149.5696 LP  0  0  0  0  0  0  0  0  0  0  0  0  # atno 17370 bound_to 10713
  156.2086  130.6664  151.1245 LP  0  0  0  0  0  0  0  0  0  0  0  0  # atno 17371 bound_to 10713
  140.3614  134.7684  157.4536 LP  0  0  0  0  0  0  0  0  0  0  0  0  # atno 17394 bound_to 11000
  140.0782  134.5768  155.8568 LP  0  0  0  0  0  0  0  0  0  0  0  0  # atno 17395 bound_to 11000

$$$$
