AV-unprocessed.smi:166|AV-procd|sdf|1388|dock5
  -GOLD-   2262019123D 1   1.00000     0.00000
 Structure written by MMmdl.
 54 58  0  0  0  0  0  0  0  0  1 V2000
  145.0639  146.1956  157.6168 O   0  0  0  0  0  0  0  0  0  0  0  0
  144.1320  145.3395  156.9776 C   0  0  1  0  0  0  0  0  0  0  0  0
  144.1738  143.9507  157.6590 C   0  0  0  0  0  0  0  0  0  0  0  0
  145.4627  143.2836  157.5479 N   0  0  0  0  0  0  0  0  0  0  0  0
  146.4147  143.1549  158.5343 C   0  0  0  0  0  0  0  0  0  0  0  0
  147.4948  142.5110  158.1860 N   0  0  0  0  0  0  0  0  0  0  0  0
  147.2659  142.1532  156.8626 C   0  0  0  0  0  0  0  0  0  0  0  0
  148.0198  141.4495  155.8812 C   0  0  0  0  0  0  0  0  0  0  0  0
  149.2508  140.9350  156.1314 N   0  0  0  0  0  0  0  0  0  0  0  0
  149.9016  140.3174  154.9762 C   0  0  0  0  0  0  0  0  0  0  0  0
  151.0705  139.4233  155.4199 C   0  0  0  0  0  0  0  0  0  0  0  0
  152.0511  140.2041  156.3073 C   0  0  0  0  0  0  0  0  0  0  0  0
  151.3124  140.8239  157.5045 C   0  0  1  0  0  0  0  0  0  0  0  0
  152.2534  141.6017  158.2317 O   0  0  0  0  0  0  0  0  0  0  0  0
  151.6907  142.3769  159.2820 C   0  0  0  0  0  0  0  0  0  0  0  0
  151.4675  143.8131  158.8446 C   0  0  0  0  0  0  0  0  0  0  0  0
  152.6299  144.6861  158.4183 C   0  0  0  0  0  0  0  0  0  0  0  0
  151.9146  144.9732  159.7107 C   0  0  0  0  0  0  0  0  0  0  0  0
  150.1376  141.6957  157.0141 C   0  0  0  0  0  0  0  0  0  0  0  0
  147.4594  141.3022  154.6505 N   0  0  0  0  0  0  0  0  0  0  0  0
  146.2449  141.7982  154.3971 C   0  0  0  0  0  0  0  0  0  0  0  0
  145.4310  142.4693  155.2137 N   0  0  0  0  0  0  0  0  0  0  0  0
  145.9904  142.6305  156.4470 C   0  0  0  0  0  0  0  0  0  0  0  0
  142.7572  145.9943  157.0504 C   0  0  0  0  0  0  0  0  0  0  0  0
  142.7202  146.8453  155.7883 C   0  0  0  0  0  0  0  0  0  0  0  0
  143.3509  146.0115  154.8323 O   0  0  0  0  0  0  0  0  0  0  0  0
  144.4322  145.3319  155.4629 C   0  0  0  0  0  0  0  0  0  0  0  0
  145.9250  145.8144  157.5385 H   0  0  0  0  0  0  0  0  0  0  0  0
  143.9253  144.0397  158.7174 H   0  0  0  0  0  0  0  0  0  0  0  0
  143.4156  143.2991  157.2229 H   0  0  0  0  0  0  0  0  0  0  0  0
  146.2852  143.5624  159.5264 H   0  0  0  0  0  0  0  0  0  0  0  0
  149.1993  139.7257  154.3902 H   0  0  0  0  0  0  0  0  0  0  0  0
  150.2677  141.1072  154.3188 H   0  0  0  0  0  0  0  0  0  0  0  0
  150.6844  138.5639  155.9696 H   0  0  0  0  0  0  0  0  0  0  0  0
  151.5896  139.0265  154.5472 H   0  0  0  0  0  0  0  0  0  0  0  0
  152.8475  139.5461  156.6561 H   0  0  0  0  0  0  0  0  0  0  0  0
  152.5291  140.9898  155.7204 H   0  0  0  0  0  0  0  0  0  0  0  0
  150.9355  140.0136  158.1319 H   0  0  0  0  0  0  0  0  0  0  0  0
  150.7342  141.9634  159.6008 H   0  0  0  0  0  0  0  0  0  0  0  0
  152.3561  142.3765  160.1462 H   0  0  0  0  0  0  0  0  0  0  0  0
  150.5393  143.9605  158.2958 H   0  0  0  0  0  0  0  0  0  0  0  0
  153.6337  144.2703  158.4819 H   0  0  0  0  0  0  0  0  0  0  0  0
  152.4637  145.3716  157.5897 H   0  0  0  0  0  0  0  0  0  0  0  0
  151.2717  145.8503  159.7440 H   0  0  0  0  0  0  0  0  0  0  0  0
  152.4413  144.7495  160.6362 H   0  0  0  0  0  0  0  0  0  0  0  0
  150.5192  142.5646  156.4761 H   0  0  0  0  0  0  0  0  0  0  0  0
  149.5685  142.0674  157.8666 H   0  0  0  0  0  0  0  0  0  0  0  0
  145.8721  141.6344  153.3967 H   0  0  0  0  0  0  0  0  0  0  0  0
  141.9730  145.2384  156.9885 H   0  0  0  0  0  0  0  0  0  0  0  0
  142.5900  146.5706  157.9612 H   0  0  0  0  0  0  0  0  0  0  0  0
  141.7074  147.1114  155.4858 H   0  0  0  0  0  0  0  0  0  0  0  0
  143.2971  147.7627  155.9153 H   0  0  0  0  0  0  0  0  0  0  0  0
  145.3734  145.8311  155.2267 H   0  0  0  0  0  0  0  0  0  0  0  0
  144.4857  144.3249  155.0512 H   0  0  0  0  0  0  0  0  0  0  0  0
  1  2  1  0  0  0  0
  1 28  1  0  0  0  0
  2 27  1  0  0  0  0
  2  3  1  0  0  0  0
  2 24  1  0  0  0  0
  3  4  1  0  0  0  0
  3 29  1  0  0  0  0
  3 30  1  0  0  0  0
  4 23  1  0  0  0  0
  4  5  1  0  0  0  0
  5  6  2  0  0  0  0
  5 31  1  0  0  0  0
  6  7  1  0  0  0  0
  7 23  2  0  0  0  0
  7  8  1  0  0  0  0
  8  9  1  0  0  0  0
  8 20  2  0  0  0  0
  9 19  1  0  0  0  0
  9 10  1  0  0  0  0
 10 11  1  0  0  0  0
 10 32  1  0  0  0  0
 10 33  1  0  0  0  0
 11 12  1  0  0  0  0
 11 34  1  0  0  0  0
 11 35  1  0  0  0  0
 12 13  1  0  0  0  0
 12 36  1  0  0  0  0
 12 37  1  0  0  0  0
 13 14  1  0  0  0  0
 13 19  1  0  0  0  0
 13 38  1  0  0  0  0
 14 15  1  0  0  0  0
 15 16  1  0  0  0  0
 15 39  1  0  0  0  0
 15 40  1  0  0  0  0
 16 18  1  0  0  0  0
 16 17  1  0  0  0  0
 16 41  1  0  0  0  0
 17 18  1  0  0  0  0
 17 42  1  0  0  0  0
 17 43  1  0  0  0  0
 18 44  1  0  0  0  0
 18 45  1  0  0  0  0
 19 46  1  0  0  0  0
 19 47  1  0  0  0  0
 20 21  1  0  0  0  0
 21 22  2  0  0  0  0
 21 48  1  0  0  0  0
 22 23  1  0  0  0  0
 24 25  1  0  0  0  0
 24 49  1  0  0  0  0
 24 50  1  0  0  0  0
 25 26  1  0  0  0  0
 25 51  1  0  0  0  0
 25 52  1  0  0  0  0
 26 27  1  0  0  0  0
 27 53  1  0  0  0  0
 27 54  1  0  0  0  0
M  END
> <s_m_source_file>
AV-unprocessed.smi

> <i_m_source_file_index>
166

> <i_lp_mmshare_version>
43012

> <i_f3d_flags>
0

> <s_epik_input>
W0NIMl0xT1tDSDJdW0NIMl1bQ0BAXTEoW09IXSlbQ0gyXW4oW2NIXW4yKWMoYzIzKW5bY0hdbmMzTjRbQ0gyXVtDSDJdW0NIMl1bQ0BIXShbQ0gyXTQpT1tDSDJdW0NIXTVbQ0gyXVtDSDJdNQ==

> <s_epik_cmdline>
J2VwaWtfcHl0aG9uJywgJy1waCcsICc3LjAnLCAnLXRuJywgJzgnLCAnLW1hJywgJzIwMCcsICctbWV0YWxfYmluZGluZycsICctaW1hZScsICc8aW5maWxlLm1hZT4nLCAnLW9tYWUnLCAnPG91dGZpbGUubWFlPic=

> <r_lp_tautomer_probability>
1

> <r_epik_Ionization_Penalty>
0.00342552

> <r_epik_Ionization_Penalty_Charging>
0

> <r_epik_Ionization_Penalty_Neutral>
0.00342552

> <r_epik_State_Penalty>
0.0022204

> <r_epik_Charging_Adjusted_Penalty>
0.0022204

> <i_epik_Tot_Q>
0

> <i_epik_Tot_abs_Q>
0

> <r_epik_Metal_State_Penalty>
-0

> <b_epik_Metal_Only>
0

> <s_lp_Force_Field>
OPLS_2005

> <r_lp_Energy>
44.5811

> <b_lp_Chiralities_Consistent>
1

> <s_lp_Variant>
AV-unprocessed.smi:166-1

> <Gold.Version>
5.8.1

> <Gold.Id.Protein>
6NUR|6NUR_protein|mol2

> <Gold.PLP.Fitness>
44.8772

> <Gold.PLP.PLP>
-40.7406

> <Gold.PLP.part.hbond>
-1.0000

> <Gold.PLP.part.metal>
0.0000

> <Gold.PLP.part.buried>
-6.2520

> <Gold.PLP.part.nonpolar>
-34.3590

> <Gold.PLP.part.repulsive>
0.5435

> <Gold.PLP.ligand.clash>
0.0000

> <Gold.PLP.ligand.torsion>
1.2030

> <Gold.PLP.Chemscore.Hbond>
1.0000

> <Gold.PLP.Chemscore.CHOScore>
0.8430

> <Gold.PLP.Chemscore.Metal>
0.0000

> <Gold.Chemscore.Hbonds>
donor molecule, donor type, donor heavy atom, donor atom, acceptor molecule, acceptor atom, score
      L1  H     1    28       P1  8029  1.00
      L1  C    21    48       P1 10175  0.56

> <Gold.PLP.Chemscore.Internal.Correction>
1.0138

> <Gold.Rescore>
     Score         DG    S(hbond)    S(metal)    S(lipo)     H(rot)  DE(clash)    DE(int)     intcor
     10.56     -12.56       0.53        0.00     104.07       2.68       0.14       1.86       ----

> <Gold.Chemscore.Fitness>
10.5643

> <Gold.Chemscore.DG>
-12.5592

> <Gold.Chemscore.ZeroCoef>
-5.4800

> <Gold.Chemscore.Hbond>
0.5294

> <Gold.Chemscore.Metal>
0.0000

> <Gold.Chemscore.Lipo>
104.0700

> <Gold.Chemscore.Internal_Hbond>
0.0000

> <Gold.Chemscore.DEClash>
0.1381

> <Gold.Chemscore.DEInternal>
1.8569

> <Gold.Chemscore.Rot>
2.6817

> <Gold.Chemscore.Internal.Correction>
   9.000000E+99

> <Gold.Chemscore.Hbonds>
donor molecule, donor type, donor heavy atom, donor atom, acceptor molecule, acceptor atom, score
      L1  H     1    28       P1  8029  0.52

> <Gold.Chemscore.Hbond.Weighted>
-1.7681

> <Gold.Chemscore.Metal.Weighted>
-0.0000

> <Gold.Chemscore.Lipo.Weighted>
-12.1762

> <Gold.Chemscore.Internal_Hbond.Weighted>
0.0000

> <Gold.Chemscore.DEClash.Weighted>
0.1381

> <Gold.Chemscore.DEInternal.Weighted>
1.8569

> <Gold.Chemscore.Rot.Weighted>
6.8651

> <Gold.Chemscore.Internal.Correction.Weighted>
   9.000000E+99

> <Gold.Protein.RotatedTorsions>
[ 6907 6896 6895 6894 ] final  -14.09 input  -60.11 | X-H torsion
[ 7974 7965 7964 7962 ] final   16.87 input  175.53 | X-H torsion
[ 8008 7997 7996 7995 ] final  -63.96 input   59.86 | X-H torsion
[ 10167 10162 10161 10158 ] final   44.91 input  -65.29 | X-H torsion
[ 10718 10713 10712 10709 ] final -114.19 input   66.30 | X-H torsion
[ 10763 10752 10751 10750 ] final   65.94 input  -60.55 | X-H torsion
[ 11005 11000 10999 10996 ] final   60.49 input  -57.11 | X-H torsion

> <Gold.Protein.ActiveResidues>
 VAL166  LYS551  ARG553  GLY616  TRP617  ASP618  TYR619  PRO620  LYS621  CYS622 
 ASP623  PHE694  ASN695  SER759  ASP760  ASP761  ALA762  ILE779  LEU786  VAL792 
 PHE793  MET794  SER795  GLU796  ALA797  LYS798  CYS799  TRP800  GLU811  SER814 

> <Gold.Protein.RotatedAtoms>
  151.3448  135.0871  159.9382 H   0  0  0  0  0  0  0  0  0  0  0  0  # atno 6907 bound_to 6896
  152.5202  133.9411  159.7637 H   0  0  0  0  0  0  0  0  0  0  0  0  # atno 6908 bound_to 6896
  150.9775  133.6226  159.2757 H   0  0  0  0  0  0  0  0  0  0  0  0  # atno 6909 bound_to 6896
  146.2236  139.8684  142.8592 H   0  0  0  0  0  0  0  0  0  0  0  0  # atno 7974 bound_to 7965
  154.4584  140.0964  156.6822 H   0  0  0  0  0  0  0  0  0  0  0  0  # atno 8008 bound_to 7997
  155.5069  140.3475  155.4363 H   0  0  0  0  0  0  0  0  0  0  0  0  # atno 8009 bound_to 7997
  156.0822  140.1376  156.9686 H   0  0  0  0  0  0  0  0  0  0  0  0  # atno 8010 bound_to 7997
  140.3295  144.2607  150.6170 H   0  0  0  0  0  0  0  0  0  0  0  0  # atno 10167 bound_to 10162
  156.0814  130.6013  150.8741 H   0  0  0  0  0  0  0  0  0  0  0  0  # atno 10718 bound_to 10713
  153.0118  135.5338  154.6746 H   0  0  0  0  0  0  0  0  0  0  0  0  # atno 10763 bound_to 10752
  154.5922  135.2860  155.0626 H   0  0  0  0  0  0  0  0  0  0  0  0  # atno 10764 bound_to 10752
  154.1714  135.6531  153.5063 H   0  0  0  0  0  0  0  0  0  0  0  0  # atno 10765 bound_to 10752
  140.0228  134.6128  155.9615 H   0  0  0  0  0  0  0  0  0  0  0  0  # atno 11005 bound_to 11000
  145.2633  141.0084  143.3814 LP  0  0  0  0  0  0  0  0  0  0  0  0  # atno 17320 bound_to 7965
  144.9281  139.4331  143.6508 LP  0  0  0  0  0  0  0  0  0  0  0  0  # atno 17321 bound_to 7965
  140.5410  143.2223  151.8084 LP  0  0  0  0  0  0  0  0  0  0  0  0  # atno 17342 bound_to 10162
  139.4859  144.4600  151.9553 LP  0  0  0  0  0  0  0  0  0  0  0  0  # atno 17343 bound_to 10162
  157.5932  131.0944  150.9084 LP  0  0  0  0  0  0  0  0  0  0  0  0  # atno 17370 bound_to 10713
  156.9256  130.5331  149.5279 LP  0  0  0  0  0  0  0  0  0  0  0  0  # atno 17371 bound_to 10713
  141.1784  133.6543  156.4921 LP  0  0  0  0  0  0  0  0  0  0  0  0  # atno 17394 bound_to 11000
  140.4358  134.7060  157.4966 LP  0  0  0  0  0  0  0  0  0  0  0  0  # atno 17395 bound_to 11000

$$$$
