AV-unprocessed.smi:21|AV-procd|sdf|160|dock10
  -GOLD-   2262015393D 1   1.00000     0.00000
 Structure written by MMmdl.
 61 64  0  0  0  0  0  0  0  0  1 V2000
  154.7783  140.6934  161.5250 C   0  0  0  0  0  0  0  0  0  0  0  0
  154.5337  141.7985  160.6692 O   0  0  0  0  0  0  0  0  0  0  0  0
  153.1519  142.0768  160.4923 C   0  0  2  0  0  0  0  0  0  0  0  0
  152.4906  141.0999  159.5057 C   0  0  0  0  0  0  0  0  0  0  0  0
  151.7302  142.0087  158.5302 C   0  0  2  0  0  0  0  0  0  0  0  0
  151.4381  141.3512  157.1617 C   0  0  0  0  0  0  0  0  0  0  0  0
  150.2948  140.4376  157.1848 N   0  0  0  0  0  0  0  0  0  0  0  0
  148.9574  141.0224  157.1726 C   0  0  0  0  0  0  0  0  0  0  0  0
  150.4600  139.2276  157.7827 C   0  0  0  0  0  0  0  0  0  0  0  0
  151.7122  138.7064  157.8880 N   0  0  0  0  0  0  0  0  0  0  0  0
  151.9019  137.4985  158.4260 C   0  0  0  0  0  0  0  0  0  0  0  0
  150.9950  136.6528  158.9159 N   0  0  0  0  0  0  0  0  0  0  0  0
  149.7387  137.1754  158.8348 C   0  0  0  0  0  0  0  0  0  0  0  0
  149.3850  138.4469  158.2995 C   0  0  0  0  0  0  0  0  0  0  0  0
  148.0132  138.6395  158.4213 N   0  0  0  0  0  0  0  0  0  0  0  0
  147.5798  137.5404  158.9741 C   0  0  0  0  0  0  0  0  0  0  0  0
  148.5459  136.5940  159.2279 N   0  0  0  0  0  0  0  0  0  0  0  0
  148.3437  135.2845  159.8214 C   0  0  0  0  0  0  0  0  0  0  0  0
  148.4863  135.2443  161.3692 C   0  0  1  0  0  0  0  0  0  0  0  0
  147.7151  136.4397  161.9805 C   0  0  0  0  0  0  0  0  0  0  0  0
  148.4536  137.0551  163.0160 O   0  0  0  0  0  0  0  0  0  0  0  0
  148.0271  133.8919  161.9945 C   0  0  2  0  0  0  0  0  0  0  0  0
  148.4249  132.6515  161.2073 C   0  0  0  0  0  0  0  0  0  0  0  0
  147.4872  131.5925  161.7677 C   0  0  0  0  0  0  0  0  0  0  0  0
  146.2636  132.2770  161.9777 O   0  0  0  0  0  0  0  0  0  0  0  0
  146.5063  133.6755  162.0895 C   0  0  0  0  0  0  0  0  0  0  0  0
  152.5572  143.2023  158.4555 N   0  0  0  0  0  0  0  0  0  0  0  0
  151.8863  144.3553  157.8698 C   0  0  0  0  0  0  0  0  0  0  0  0
  152.9686  143.4468  159.8267 C   0  0  0  0  0  0  0  0  0  0  0  0
  152.6360  142.0791  161.4544 H   0  0  0  0  0  0  0  0  0  0  0  0
  150.7821  142.2794  158.9984 H   0  0  0  0  0  0  0  0  0  0  0  0
  155.8526  140.5378  161.6220 H   0  0  0  0  0  0  0  0  0  0  0  0
  154.3413  139.7751  161.1312 H   0  0  0  0  0  0  0  0  0  0  0  0
  154.3754  140.8708  162.5228 H   0  0  0  0  0  0  0  0  0  0  0  0
  153.2530  140.5328  158.9687 H   0  0  0  0  0  0  0  0  0  0  0  0
  151.8381  140.3883  160.0112 H   0  0  0  0  0  0  0  0  0  0  0  0
  151.2091  142.1217  156.4262 H   0  0  0  0  0  0  0  0  0  0  0  0
  152.3382  140.8640  156.7934 H   0  0  0  0  0  0  0  0  0  0  0  0
  148.2221  140.3004  156.8158 H   0  0  0  0  0  0  0  0  0  0  0  0
  148.9245  141.8866  156.5088 H   0  0  0  0  0  0  0  0  0  0  0  0
  148.6663  141.3510  158.1708 H   0  0  0  0  0  0  0  0  0  0  0  0
  152.9263  137.1585  158.4622 H   0  0  0  0  0  0  0  0  0  0  0  0
  146.5343  137.3823  159.1947 H   0  0  0  0  0  0  0  0  0  0  0  0
  147.3495  134.9554  159.5185 H   0  0  0  0  0  0  0  0  0  0  0  0
  149.0457  134.5845  159.3664 H   0  0  0  0  0  0  0  0  0  0  0  0
  149.5375  135.3827  161.6252 H   0  0  0  0  0  0  0  0  0  0  0  0
  147.4777  137.1801  161.2158 H   0  0  0  0  0  0  0  0  0  0  0  0
  146.7722  136.1233  162.4240 H   0  0  0  0  0  0  0  0  0  0  0  0
  148.4545  136.4817  163.7674 H   0  0  0  0  0  0  0  0  0  0  0  0
  148.4530  133.8006  162.9951 H   0  0  0  0  0  0  0  0  0  0  0  0
  148.2322  132.7945  160.1431 H   0  0  0  0  0  0  0  0  0  0  0  0
  149.4719  132.3756  161.3343 H   0  0  0  0  0  0  0  0  0  0  0  0
  147.3608  130.7415  161.0981 H   0  0  0  0  0  0  0  0  0  0  0  0
  147.8555  131.2242  162.7260 H   0  0  0  0  0  0  0  0  0  0  0  0
  146.0949  134.0421  163.0286 H   0  0  0  0  0  0  0  0  0  0  0  0
  145.9835  134.1732  161.2725 H   0  0  0  0  0  0  0  0  0  0  0  0
  152.5352  145.2313  157.8999 H   0  0  0  0  0  0  0  0  0  0  0  0
  150.9683  144.5952  158.4080 H   0  0  0  0  0  0  0  0  0  0  0  0
  151.6316  144.1732  156.8260 H   0  0  0  0  0  0  0  0  0  0  0  0
  152.1849  143.9901  160.3575 H   0  0  0  0  0  0  0  0  0  0  0  0
  153.8712  144.0572  159.8674 H   0  0  0  0  0  0  0  0  0  0  0  0
  1  2  1  0  0  0  0
  1 32  1  0  0  0  0
  1 33  1  0  0  0  0
  1 34  1  0  0  0  0
  2  3  1  0  0  0  0
  3 30  1  0  0  0  0
  3 29  1  0  0  0  0
  3  4  1  0  0  0  0
  4  5  1  0  0  0  0
  4 35  1  0  0  0  0
  4 36  1  0  0  0  0
  5 31  1  0  0  0  0
  5  6  1  0  0  0  0
  5 27  1  0  0  0  0
  6  7  1  0  0  0  0
  6 37  1  0  0  0  0
  6 38  1  0  0  0  0
  7  8  1  0  0  0  0
  7  9  1  0  0  0  0
  8 39  1  0  0  0  0
  8 40  1  0  0  0  0
  8 41  1  0  0  0  0
  9 14  1  0  0  0  0
  9 10  2  0  0  0  0
 10 11  1  0  0  0  0
 11 12  2  0  0  0  0
 11 42  1  0  0  0  0
 12 13  1  0  0  0  0
 13 17  1  0  0  0  0
 13 14  2  0  0  0  0
 14 15  1  0  0  0  0
 15 16  2  0  0  0  0
 16 17  1  0  0  0  0
 16 43  1  0  0  0  0
 17 18  1  0  0  0  0
 18 19  1  0  0  0  0
 18 44  1  0  0  0  0
 18 45  1  0  0  0  0
 19 20  1  0  0  0  0
 19 22  1  0  0  0  0
 19 46  1  0  0  0  0
 20 21  1  0  0  0  0
 20 47  1  0  0  0  0
 20 48  1  0  0  0  0
 21 49  1  0  0  0  0
 22 26  1  0  0  0  0
 22 23  1  0  0  0  0
 22 50  1  0  0  0  0
 23 24  1  0  0  0  0
 23 51  1  0  0  0  0
 23 52  1  0  0  0  0
 24 25  1  0  0  0  0
 24 53  1  0  0  0  0
 24 54  1  0  0  0  0
 25 26  1  0  0  0  0
 26 55  1  0  0  0  0
 26 56  1  0  0  0  0
 27 28  1  0  0  0  0
 27 29  1  0  0  0  0
 28 57  1  0  0  0  0
 28 58  1  0  0  0  0
 28 59  1  0  0  0  0
 29 60  1  0  0  0  0
 29 61  1  0  0  0  0
M  END
> <s_m_source_file>
AV-unprocessed.smi

> <i_m_source_file_index>
21

> <i_lp_mmshare_version>
43012

> <i_f3d_flags>
0

> <s_epik_input>
W0NIM11PW0NASF0xW0NIMl1bQ0BIXShOKFtDSDNdKVtDSDJdMSlbQ0gyXU4oW0NIM10pYyhuW2NIXW4yKWMoYzIzKW5bY0hdbjNbQ0gyXVtDQEhdKFtDSDJdW09IXSlbQ0BASF00W0NIMl1bQ0gyXU9bQ0gyXTQ=

> <s_epik_cmdline>
J2VwaWtfcHl0aG9uJywgJy1waCcsICc3LjAnLCAnLXRuJywgJzgnLCAnLW1hJywgJzIwMCcsICctbWV0YWxfYmluZGluZycsICctaW1hZScsICc8aW5maWxlLm1hZT4nLCAnLW9tYWUnLCAnPG91dGZpbGUubWFlPic=

> <r_lp_tautomer_probability>
1

> <r_epik_Ionization_Penalty>
2.17574

> <r_epik_Ionization_Penalty_Charging>
0

> <r_epik_Ionization_Penalty_Neutral>
2.17574

> <r_epik_State_Penalty>
2.31336

> <r_epik_Charging_Adjusted_Penalty>
2.31336

> <i_epik_Tot_Q>
0

> <i_epik_Tot_abs_Q>
0

> <r_epik_Metal_State_Penalty>
2.31025

> <b_epik_Metal_Only>
0

> <s_lp_Force_Field>
OPLS_2005

> <r_lp_Energy>
69.8382

> <b_lp_Chiralities_Consistent>
1

> <s_lp_Variant>
AV-unprocessed.smi:21-40

> <Gold.Version>
5.8.1

> <Gold.Id.Protein>
6NUR|6NUR_protein|mol2

> <Gold.PLP.Fitness>
53.5460

> <Gold.PLP.PLP>
-51.6258

> <Gold.PLP.part.hbond>
-3.9587

> <Gold.PLP.part.metal>
0.0000

> <Gold.PLP.part.buried>
-7.5825

> <Gold.PLP.part.nonpolar>
-40.8094

> <Gold.PLP.part.repulsive>
0.0682

> <Gold.PLP.ligand.clash>
0.0000

> <Gold.PLP.ligand.torsion>
1.8739

> <Gold.PLP.Chemscore.Hbond>
1.6296

> <Gold.PLP.Chemscore.CHOScore>
0.0000

> <Gold.PLP.Chemscore.Metal>
0.0000

> <Gold.Chemscore.Hbonds>
donor molecule, donor type, donor heavy atom, donor atom, acceptor molecule, acceptor atom, score
      P1  H  6896  6909       L1    12  0.75
      P1  H  6931  6943       L1    21  0.43

> <Gold.PLP.Chemscore.Internal.Correction>
0.7794

> <Gold.Rescore>
     Score         DG    S(hbond)    S(metal)    S(lipo)     H(rot)  DE(clash)    DE(int)     intcor
     12.41     -15.10       0.96        0.00     120.60       3.00       0.09       2.59       ----

> <Gold.Chemscore.Fitness>
12.4074

> <Gold.Chemscore.DG>
-15.0957

> <Gold.Chemscore.ZeroCoef>
-5.4800

> <Gold.Chemscore.Hbond>
0.9562

> <Gold.Chemscore.Metal>
0.0000

> <Gold.Chemscore.Lipo>
120.5978

> <Gold.Chemscore.Internal_Hbond>
0.0000

> <Gold.Chemscore.DEClash>
0.0939

> <Gold.Chemscore.DEInternal>
2.5944

> <Gold.Chemscore.Rot>
3.0031

> <Gold.Chemscore.Internal.Correction>
   9.000000E+99

> <Gold.Chemscore.Hbonds>
donor molecule, donor type, donor heavy atom, donor atom, acceptor molecule, acceptor atom, score
      P1  H  6896  6909       L1    12  0.53
      P1  H  6931  6943       L1    21  0.03

> <Gold.Chemscore.Hbond.Weighted>
-3.1937

> <Gold.Chemscore.Metal.Weighted>
-0.0000

> <Gold.Chemscore.Lipo.Weighted>
-14.1099

> <Gold.Chemscore.Internal_Hbond.Weighted>
0.0000

> <Gold.Chemscore.DEClash.Weighted>
0.0939

> <Gold.Chemscore.DEInternal.Weighted>
2.5944

> <Gold.Chemscore.Rot.Weighted>
7.6880

> <Gold.Chemscore.Internal.Correction.Weighted>
   9.000000E+99

> <Gold.Protein.RotatedTorsions>
[ 6907 6896 6895 6894 ] final   73.30 input  -60.11 | X-H torsion
[ 7974 7965 7964 7962 ] final  -72.13 input  175.53 | X-H torsion
[ 8008 7997 7996 7995 ] final   80.49 input   59.86 | X-H torsion
[ 10167 10162 10161 10158 ] final  172.79 input  -65.29 | X-H torsion
[ 10718 10713 10712 10709 ] final   -8.67 input   66.30 | X-H torsion
[ 10763 10752 10751 10750 ] final -158.41 input  -60.55 | X-H torsion
[ 11005 11000 10999 10996 ] final -119.87 input  -57.11 | X-H torsion

> <Gold.Protein.ActiveResidues>
 VAL166  LYS551  ARG553  GLY616  TRP617  ASP618  TYR619  PRO620  LYS621  CYS622 
 ASP623  PHE694  ASN695  SER759  ASP760  ASP761  ALA762  ILE779  LEU786  VAL792 
 PHE793  MET794  SER795  GLU796  ALA797  LYS798  CYS799  TRP800  GLU811  SER814 

> <Gold.Protein.RotatedAtoms>
  152.4916  134.4442  159.9553 H   0  0  0  0  0  0  0  0  0  0  0  0  # atno 6907 bound_to 6896
  151.4428  133.3632  159.2792 H   0  0  0  0  0  0  0  0  0  0  0  0  # atno 6908 bound_to 6896
  150.9075  134.8515  159.7463 H   0  0  0  0  0  0  0  0  0  0  0  0  # atno 6909 bound_to 6896
  145.6691  140.9227  143.0892 H   0  0  0  0  0  0  0  0  0  0  0  0  # atno 7974 bound_to 7965
  155.8842  140.3442  155.5909 H   0  0  0  0  0  0  0  0  0  0  0  0  # atno 8008 bound_to 7997
  155.7685  140.0842  157.2139 H   0  0  0  0  0  0  0  0  0  0  0  0  # atno 8009 bound_to 7997
  154.4027  140.1523  156.2901 H   0  0  0  0  0  0  0  0  0  0  0  0  # atno 8010 bound_to 7997
  139.5088  144.3334  152.0089 H   0  0  0  0  0  0  0  0  0  0  0  0  # atno 10167 bound_to 10162
  156.6993  130.5088  149.5922 H   0  0  0  0  0  0  0  0  0  0  0  0  # atno 10718 bound_to 10713
  154.7559  135.3104  154.8471 H   0  0  0  0  0  0  0  0  0  0  0  0  # atno 10763 bound_to 10752
  153.9245  135.6792  153.4751 H   0  0  0  0  0  0  0  0  0  0  0  0  # atno 10764 bound_to 10752
  153.1156  135.4846  154.9040 H   0  0  0  0  0  0  0  0  0  0  0  0  # atno 10765 bound_to 10752
  141.0184  134.0161  157.3317 H   0  0  0  0  0  0  0  0  0  0  0  0  # atno 11005 bound_to 11000
  144.7063  139.8549  143.7429 LP  0  0  0  0  0  0  0  0  0  0  0  0  # atno 17320 bound_to 7965
  146.1060  139.4060  143.0317 LP  0  0  0  0  0  0  0  0  0  0  0  0  # atno 17321 bound_to 7965
  140.2773  144.3898  150.6131 LP  0  0  0  0  0  0  0  0  0  0  0  0  # atno 17342 bound_to 10162
  140.6044  143.2167  151.7009 LP  0  0  0  0  0  0  0  0  0  0  0  0  # atno 17343 bound_to 10162
  156.1741  130.6456  151.0872 LP  0  0  0  0  0  0  0  0  0  0  0  0  # atno 17370 bound_to 10713
  157.6979  131.0787  150.6911 LP  0  0  0  0  0  0  0  0  0  0  0  0  # atno 17371 bound_to 10713
  139.9131  135.0193  156.7772 LP  0  0  0  0  0  0  0  0  0  0  0  0  # atno 17394 bound_to 11000
  140.6615  133.9641  155.7807 LP  0  0  0  0  0  0  0  0  0  0  0  0  # atno 17395 bound_to 11000

$$$$
