AV-unprocessed.smi:2754|AV-procd|sdf|10615|dock2
  -GOLD-   2272015 63D 1   1.00000     0.00000
 Structure written by MMmdl.
 28 29  0  0  0  0  0  0  0  0  2 V2000
  150.5737  138.1674  153.3402 N   0  0  0  0  0  0  0  0  0  0  0  0
  151.2239  138.3199  154.5396 C   0  0  0  0  0  0  0  0  0  0  0  0
  151.8607  137.2479  155.0148 N   0  0  0  0  0  0  0  0  0  0  0  0
  152.4997  137.3938  156.1958 C   0  0  0  0  0  0  0  0  0  0  0  0
  152.4983  138.6185  156.8945 C   0  0  0  0  0  0  0  0  0  0  0  0
  151.7918  139.6820  156.2917 C   0  0  0  0  0  0  0  0  0  0  0  0
  151.7183  141.0547  156.9454 C   0  0  2  0  0  0  0  0  0  0  0  0
  151.4187  140.9670  158.4548 C   0  0  0  0  0  0  0  0  0  0  0  0
  151.3459  142.3726  159.0713 C   0  0  0  0  0  0  0  0  0  0  0  0
  150.3367  143.2530  158.3155 C   0  0  0  0  0  0  0  0  0  0  0  0
  150.6728  143.3159  156.8763 N   0  3  0  0  0  0  0  0  0  0  0  0
  150.7133  141.9842  156.2324 C   0  0  0  0  0  0  0  0  0  0  0  0
  151.1538  139.5256  155.1082 N   0  0  0  0  0  0  0  0  0  0  0  0
  150.0749  138.9439  152.9303 H   0  0  0  0  0  0  0  0  0  0  0  0
  150.6793  137.3170  152.8065 H   0  0  0  0  0  0  0  0  0  0  0  0
  153.0163  136.5289  156.5849 H   0  0  0  0  0  0  0  0  0  0  0  0
  153.0116  138.7275  157.8386 H   0  0  0  0  0  0  0  0  0  0  0  0
  152.7057  141.5076  156.8401 H   0  0  0  0  0  0  0  0  0  0  0  0
  150.4717  140.4514  158.6206 H   0  0  0  0  0  0  0  0  0  0  0  0
  152.1861  140.3787  158.9590 H   0  0  0  0  0  0  0  0  0  0  0  0
  151.0669  142.3039  160.1232 H   0  0  0  0  0  0  0  0  0  0  0  0
  152.3323  142.8376  159.0430 H   0  0  0  0  0  0  0  0  0  0  0  0
  149.3259  142.8596  158.4324 H   0  0  0  0  0  0  0  0  0  0  0  0
  150.3351  144.2636  158.7248 H   0  0  0  0  0  0  0  0  0  0  0  0
  149.9864  143.8869  156.4039 H   0  0  0  0  0  0  0  0  0  0  0  0
  150.9890  142.1089  155.1848 H   0  0  0  0  0  0  0  0  0  0  0  0
  149.7104  141.5552  156.2494 H   0  0  0  0  0  0  0  0  0  0  0  0
  151.5798  143.7490  156.7776 H   0  0  0  0  0  0  0  0  0  0  0  0
  1  2  1  0  0  0  0
  1 14  1  0  0  0  0
  1 15  1  0  0  0  0
  2 13  1  0  0  0  0
  2  3  2  0  0  0  0
  3  4  1  0  0  0  0
  4  5  2  0  0  0  0
  4 16  1  0  0  0  0
  5  6  1  0  0  0  0
  5 17  1  0  0  0  0
  6  7  1  0  0  0  0
  6 13  2  0  0  0  0
  7 12  1  0  0  0  0
  7  8  1  0  0  0  0
  7 18  1  0  0  0  0
  8  9  1  0  0  0  0
  8 19  1  0  0  0  0
  8 20  1  0  0  0  0
  9 10  1  0  0  0  0
  9 21  1  0  0  0  0
  9 22  1  0  0  0  0
 10 11  1  0  0  0  0
 10 23  1  0  0  0  0
 10 24  1  0  0  0  0
 11 12  1  0  0  0  0
 11 25  1  0  0  0  0
 11 28  1  0  0  0  0
 12 26  1  0  0  0  0
 12 27  1  0  0  0  0
M  CHG  1  11   1
M  END
> <s_m_source_file>
AV-unprocessed.smi

> <i_m_source_file_index>
2754

> <i_lp_mmshare_version>
43012

> <i_f3d_flags>
0

> <s_epik_input>
W05IMl1jMW5bY0hdW2NIXWMobjEpW0NAQEhdMltDSDJdW0NIMl1bQ0gyXVtOSF1bQ0gyXTI=

> <s_epik_cmdline>
J2VwaWtfcHl0aG9uJywgJy1waCcsICc3LjAnLCAnLXRuJywgJzgnLCAnLW1hJywgJzIwMCcsICctbWV0YWxfYmluZGluZycsICctaW1hZScsICc8aW5maWxlLm1hZT4nLCAnLW9tYWUnLCAnPG91dGZpbGUubWFlPic=

> <r_lp_tautomer_probability>
1

> <r_epik_Ionization_Penalty>
0.000528025

> <r_epik_Ionization_Penalty_Charging>
0.000372054

> <r_epik_Ionization_Penalty_Neutral>
0.000155972

> <r_epik_State_Penalty>
-0

> <r_epik_Charging_Adjusted_Penalty>
0.000372054

> <i_epik_Tot_Q>
1

> <i_epik_Tot_abs_Q>
1

> <r_epik_Metal_State_Penalty>
-0

> <b_epik_Metal_Only>
0

> <s_lp_Force_Field>
OPLS_2005

> <r_lp_Energy>
4.9837

> <b_lp_Chiralities_Consistent>
1

> <s_lp_Variant>
AV-unprocessed.smi:2754-1

> <Gold.Version>
5.8.1

> <Gold.Id.Protein>
6NUR|6NUR_protein|mol2

> <Gold.PLP.Fitness>
35.0801

> <Gold.PLP.PLP>
-19.4076

> <Gold.PLP.part.hbond>
-6.0000

> <Gold.PLP.part.metal>
0.0000

> <Gold.PLP.part.buried>
1.1788

> <Gold.PLP.part.nonpolar>
-13.6288

> <Gold.PLP.part.repulsive>
0.2883

> <Gold.PLP.ligand.clash>
0.0000

> <Gold.PLP.ligand.torsion>
0.2783

> <Gold.PLP.Chemscore.Hbond>
5.3980

> <Gold.PLP.Chemscore.CHOScore>
0.0000

> <Gold.PLP.Chemscore.Metal>
0.0000

> <Gold.Chemscore.Hbonds>
donor molecule, donor type, donor heavy atom, donor atom, acceptor molecule, acceptor atom, score
      L1  H     1    14       P1  7957  0.71
      L1  H     1    15       P1  7949  0.55
      L1  H    11    25       P1  8028  2.00
      P1  H  7989  7998       L1    13  0.70
      P1  H 10752 10763       L1     3  0.46

> <Gold.PLP.Chemscore.Internal.Correction>
0.0351

> <Gold.Rescore>
     Score         DG    S(hbond)    S(metal)    S(lipo)     H(rot)  DE(clash)    DE(int)     intcor
     16.51     -17.32       2.23        0.00      59.43       1.00       0.63       0.18       ----

> <Gold.Chemscore.Fitness>
16.5115

> <Gold.Chemscore.DG>
-17.3204

> <Gold.Chemscore.ZeroCoef>
-5.4800

> <Gold.Chemscore.Hbond>
2.2298

> <Gold.Chemscore.Metal>
0.0000

> <Gold.Chemscore.Lipo>
59.4259

> <Gold.Chemscore.Internal_Hbond>
0.0000

> <Gold.Chemscore.DEClash>
0.6290

> <Gold.Chemscore.DEInternal>
0.1798

> <Gold.Chemscore.Rot>
1.0000

> <Gold.Chemscore.Internal.Correction>
   9.000000E+99

> <Gold.Chemscore.Hbonds>
donor molecule, donor type, donor heavy atom, donor atom, acceptor molecule, acceptor atom, score
      L1  H     1    14       P1  7957  0.54
      L1  H     1    15       P1  7949  0.03
      L1  H    11    25       P1  8028  0.96
      P1  H  7989  7998       L1    13  0.27
      P1  H 10752 10763       L1     3  0.16

> <Gold.Chemscore.Hbond.Weighted>
-7.4475

> <Gold.Chemscore.Metal.Weighted>
-0.0000

> <Gold.Chemscore.Lipo.Weighted>
-6.9528

> <Gold.Chemscore.Internal_Hbond.Weighted>
0.0000

> <Gold.Chemscore.DEClash.Weighted>
0.6290

> <Gold.Chemscore.DEInternal.Weighted>
0.1798

> <Gold.Chemscore.Rot.Weighted>
2.5600

> <Gold.Chemscore.Internal.Correction.Weighted>
   9.000000E+99

> <Gold.Protein.RotatedTorsions>
[ 6907 6896 6895 6894 ] final   57.67 input  -60.11 | X-H torsion
[ 7974 7965 7964 7962 ] final   72.69 input  175.53 | X-H torsion
[ 8008 7997 7996 7995 ] final  103.90 input   59.86 | X-H torsion
[ 10167 10162 10161 10158 ] final -116.40 input  -65.29 | X-H torsion
[ 10718 10713 10712 10709 ] final  166.17 input   66.30 | X-H torsion
[ 10763 10752 10751 10750 ] final   26.82 input  -60.55 | X-H torsion
[ 11005 11000 10999 10996 ] final    5.33 input  -57.11 | X-H torsion

> <Gold.Protein.ActiveResidues>
 VAL166  LYS551  ARG553  GLY616  TRP617  ASP618  TYR619  PRO620  LYS621  CYS622 
 ASP623  PHE694  ASN695  SER759  ASP760  ASP761  ALA762  ILE779  LEU786  VAL792 
 PHE793  MET794  SER795  GLU796  ALA797  LYS798  CYS799  TRP800  GLU811  SER814 

> <Gold.Protein.RotatedAtoms>
  152.3753  134.6673  160.0161 H   0  0  0  0  0  0  0  0  0  0  0  0  # atno 6907 bound_to 6896
  151.6953  133.3305  159.3261 H   0  0  0  0  0  0  0  0  0  0  0  0  # atno 6908 bound_to 6896
  150.7705  134.6598  159.6378 H   0  0  0  0  0  0  0  0  0  0  0  0  # atno 6909 bound_to 6896
  145.7502  139.2757  143.1435 H   0  0  0  0  0  0  0  0  0  0  0  0  # atno 7974 bound_to 7965
  156.1525  140.3157  155.8671 H   0  0  0  0  0  0  0  0  0  0  0  0  # atno 8008 bound_to 7997
  155.3943  140.0495  157.3056 H   0  0  0  0  0  0  0  0  0  0  0  0  # atno 8009 bound_to 7997
  154.5071  140.2151  155.9240 H   0  0  0  0  0  0  0  0  0  0  0  0  # atno 8010 bound_to 7997
  140.0796  143.4800  152.1933 H   0  0  0  0  0  0  0  0  0  0  0  0  # atno 10167 bound_to 10162
  157.0697  131.0363  151.2616 H   0  0  0  0  0  0  0  0  0  0  0  0  # atno 10718 bound_to 10713
  153.0597  135.6551  154.0492 H   0  0  0  0  0  0  0  0  0  0  0  0  # atno 10763 bound_to 10752
  154.0163  135.2924  155.3388 H   0  0  0  0  0  0  0  0  0  0  0  0  # atno 10764 bound_to 10752
  154.6929  135.5275  153.8486 H   0  0  0  0  0  0  0  0  0  0  0  0  # atno 10765 bound_to 10752
  140.5719  134.0094  155.8012 H   0  0  0  0  0  0  0  0  0  0  0  0  # atno 11005 bound_to 11000
  146.0364  140.8208  142.9850 LP  0  0  0  0  0  0  0  0  0  0  0  0  # atno 17320 bound_to 7965
  144.6851  140.2844  143.7287 LP  0  0  0  0  0  0  0  0  0  0  0  0  # atno 17321 bound_to 7965
  139.5787  144.7500  151.3696 LP  0  0  0  0  0  0  0  0  0  0  0  0  # atno 17342 bound_to 10162
  140.7084  143.7453  150.7523 LP  0  0  0  0  0  0  0  0  0  0  0  0  # atno 17343 bound_to 10162
  157.4888  130.7809  149.7487 LP  0  0  0  0  0  0  0  0  0  0  0  0  # atno 17370 bound_to 10713
  155.9954  130.3912  150.2820 LP  0  0  0  0  0  0  0  0  0  0  0  0  # atno 17371 bound_to 10713
  141.1051  133.9707  157.3011 LP  0  0  0  0  0  0  0  0  0  0  0  0  # atno 17394 bound_to 11000
  139.9358  135.0196  156.8550 LP  0  0  0  0  0  0  0  0  0  0  0  0  # atno 17395 bound_to 11000

$$$$
