AV-unprocessed.smi:1744|AV-procd|sdf|7026|dock1
  -GOLD-   22720 8243D 1   1.00000     0.00000
 Structure written by MMmdl.
 44 45  0  0  0  0  0  0  0  0  2 V2000
  151.2812  144.9154  158.6517 C   0  0  0  0  0  0  0  0  0  0  0  0
  152.3798  144.3027  159.5294 C   0  0  0  0  0  0  0  0  0  0  0  0
  152.4500  142.8623  159.3770 N   0  0  0  0  0  0  0  0  0  0  0  0
  151.7288  142.0582  158.5170 C   0  0  0  0  0  0  0  0  0  0  0  0
  152.1555  140.7858  158.7516 C   0  0  0  0  0  0  0  0  0  0  0  0
  151.6718  139.6341  158.0823 N   0  0  0  0  0  0  0  0  0  0  0  0
  151.8344  139.3194  156.7872 C   0  0  0  0  0  0  0  0  0  0  0  0
  152.4337  140.0066  155.9607 O   0  0  0  0  0  0  0  0  0  0  0  0
  151.2505  138.1485  156.4936 N   0  0  0  0  0  0  0  0  0  0  0  0
  151.2473  137.5121  155.1767 C   0  0  2  0  0  0  0  0  0  0  0  0
  150.6826  138.4469  154.0886 C   0  0  0  0  0  0  0  0  0  0  0  0
  149.1667  138.6607  154.2432 C   0  0  0  0  0  0  0  0  0  0  0  0
  148.4402  137.3628  154.2464 N   0  3  2  0  0  0  0  0  0  0  0  0
  146.9629  137.5219  154.2560 C   0  0  0  0  0  0  0  0  0  0  0  0
  146.4384  138.3321  153.0657 C   0  0  0  0  0  0  0  0  0  0  0  0
  145.4857  137.7634  152.3236 N   0  0  0  0  0  0  0  0  0  0  0  0
  146.8933  139.4450  152.8075 O   0  0  0  0  0  0  0  0  0  0  0  0
  148.9205  136.4703  155.3320 C   0  0  0  0  0  0  0  0  0  0  0  0
  150.4332  136.2072  155.2116 C   0  0  0  0  0  0  0  0  0  0  0  0
  153.1401  140.8885  159.7750 C   0  0  0  0  0  0  0  0  0  0  0  0
  153.3100  142.1489  160.1454 N   0  0  0  0  0  0  0  0  0  0  0  0
  151.2343  145.9958  158.7880 H   0  0  0  0  0  0  0  0  0  0  0  0
  150.3025  144.5049  158.9021 H   0  0  0  0  0  0  0  0  0  0  0  0
  151.4660  144.7223  157.5943 H   0  0  0  0  0  0  0  0  0  0  0  0
  153.3514  144.7300  159.2771 H   0  0  0  0  0  0  0  0  0  0  0  0
  152.1947  144.5342  160.5791 H   0  0  0  0  0  0  0  0  0  0  0  0
  150.9952  142.4538  157.8298 H   0  0  0  0  0  0  0  0  0  0  0  0
  151.1476  138.9838  158.6490 H   0  0  0  0  0  0  0  0  0  0  0  0
  150.7871  137.6530  157.2411 H   0  0  0  0  0  0  0  0  0  0  0  0
  152.2788  137.2597  154.9234 H   0  0  0  0  0  0  0  0  0  0  0  0
  151.1992  139.4074  154.0990 H   0  0  0  0  0  0  0  0  0  0  0  0
  150.8801  138.0122  153.1077 H   0  0  0  0  0  0  0  0  0  0  0  0
  148.9543  139.2026  155.1661 H   0  0  0  0  0  0  0  0  0  0  0  0
  148.8118  139.2877  153.4248 H   0  0  0  0  0  0  0  0  0  0  0  0
  146.4874  136.5418  154.1974 H   0  0  0  0  0  0  0  0  0  0  0  0
  146.6399  137.9706  155.1971 H   0  0  0  0  0  0  0  0  0  0  0  0
  145.0983  138.2532  151.5300 H   0  0  0  0  0  0  0  0  0  0  0  0
  145.1485  136.8413  152.5624 H   0  0  0  0  0  0  0  0  0  0  0  0
  148.6860  136.9143  156.3007 H   0  0  0  0  0  0  0  0  0  0  0  0
  148.3910  135.5178  155.2856 H   0  0  0  0  0  0  0  0  0  0  0  0
  150.6229  135.6442  154.2967 H   0  0  0  0  0  0  0  0  0  0  0  0
  150.7706  135.5719  156.0316 H   0  0  0  0  0  0  0  0  0  0  0  0
  153.7259  140.1195  160.2560 H   0  0  0  0  0  0  0  0  0  0  0  0
  148.6640  136.8982  153.3773 H   0  0  0  0  0  0  0  0  0  0  0  0
  1  2  1  0  0  0  0
  1 22  1  0  0  0  0
  1 23  1  0  0  0  0
  1 24  1  0  0  0  0
  2  3  1  0  0  0  0
  2 25  1  0  0  0  0
  2 26  1  0  0  0  0
  3 21  1  0  0  0  0
  3  4  1  0  0  0  0
  4  5  2  0  0  0  0
  4 27  1  0  0  0  0
  5  6  1  0  0  0  0
  5 20  1  0  0  0  0
  6  7  1  0  0  0  0
  6 28  1  0  0  0  0
  7  8  2  0  0  0  0
  7  9  1  0  0  0  0
  9 10  1  0  0  0  0
  9 29  1  0  0  0  0
 10 19  1  0  0  0  0
 10 11  1  0  0  0  0
 10 30  1  0  0  0  0
 11 12  1  0  0  0  0
 11 31  1  0  0  0  0
 11 32  1  0  0  0  0
 12 13  1  0  0  0  0
 12 33  1  0  0  0  0
 12 34  1  0  0  0  0
 13 14  1  0  0  0  0
 13 18  1  0  0  0  0
 13 44  1  0  0  0  0
 14 15  1  0  0  0  0
 14 35  1  0  0  0  0
 14 36  1  0  0  0  0
 15 16  1  0  0  0  0
 15 17  2  0  0  0  0
 16 37  1  0  0  0  0
 16 38  1  0  0  0  0
 18 19  1  0  0  0  0
 18 39  1  0  0  0  0
 18 40  1  0  0  0  0
 19 41  1  0  0  0  0
 19 42  1  0  0  0  0
 20 21  2  0  0  0  0
 20 43  1  0  0  0  0
M  CHG  1  13   1
M  END
> <s_m_source_file>
AV-unprocessed.smi

> <i_m_source_file_index>
1744

> <i_lp_mmshare_version>
43012

> <i_f3d_flags>
0

> <s_epik_input>
W0NIM11bQ0gyXW4xW2NIXWMoW2NIXW4xKVtOSF1DKD1PKVtOSF1bQ0hdMltDSDJdW0NIMl1OKFtDSDJdW0NIMl0yKVtDSDJdQyg9TylbTkgyXQ==

> <s_epik_cmdline>
J2VwaWtfcHl0aG9uJywgJy1waCcsICc3LjAnLCAnLXRuJywgJzgnLCAnLW1hJywgJzIwMCcsICctbWV0YWxfYmluZGluZycsICctaW1hZScsICc8aW5maWxlLm1hZT4nLCAnLW9tYWUnLCAnPG91dGZpbGUubWFlPic=

> <r_lp_tautomer_probability>
1

> <r_epik_Ionization_Penalty>
0.839033

> <r_epik_Ionization_Penalty_Charging>
0.838844

> <r_epik_Ionization_Penalty_Neutral>
0.000189439

> <r_epik_State_Penalty>
0.8734

> <r_epik_Charging_Adjusted_Penalty>
1.71224

> <i_epik_Tot_Q>
1

> <i_epik_Tot_abs_Q>
1

> <r_epik_Metal_State_Penalty>
0.89072

> <b_epik_Metal_Only>
0

> <s_lp_Force_Field>
OPLS_2005

> <r_lp_Energy>
17.546

> <b_lp_Chiralities_Consistent>
1

> <s_lp_Variant>
AV-unprocessed.smi:1744-3

> <Gold.Version>
5.8.1

> <Gold.Id.Protein>
6NUR|6NUR_protein|mol2

> <Gold.PLP.Fitness>
47.4485

> <Gold.PLP.PLP>
-36.8382

> <Gold.PLP.part.hbond>
-3.6021

> <Gold.PLP.part.metal>
0.0000

> <Gold.PLP.part.buried>
-7.1690

> <Gold.PLP.part.nonpolar>
-27.4364

> <Gold.PLP.part.repulsive>
1.5236

> <Gold.PLP.ligand.clash>
0.0000

> <Gold.PLP.ligand.torsion>
0.7160

> <Gold.PLP.Chemscore.Hbond>
3.9760

> <Gold.PLP.Chemscore.CHOScore>
0.0000

> <Gold.PLP.Chemscore.Metal>
0.0000

> <Gold.Chemscore.Hbonds>
donor molecule, donor type, donor heavy atom, donor atom, acceptor molecule, acceptor atom, score
      L1  H    13    44       P1  7948  2.00
      L1  H    16    37       P1 10171  0.75
      P1  H  7997  8008       L1     8  1.00

> <Gold.PLP.Chemscore.Internal.Correction>
0.1144

> <Gold.Rescore>
     Score         DG    S(hbond)    S(metal)    S(lipo)     H(rot)  DE(clash)    DE(int)     intcor
     17.31     -19.26       2.98        0.00      81.32       2.22       0.04       1.91       ----

> <Gold.Chemscore.Fitness>
17.3085

> <Gold.Chemscore.DG>
-19.2568

> <Gold.Chemscore.ZeroCoef>
-5.4800

> <Gold.Chemscore.Hbond>
2.9787

> <Gold.Chemscore.Metal>
0.0000

> <Gold.Chemscore.Lipo>
81.3167

> <Gold.Chemscore.Internal_Hbond>
0.0000

> <Gold.Chemscore.DEClash>
0.0417

> <Gold.Chemscore.DEInternal>
1.9066

> <Gold.Chemscore.Rot>
2.2211

> <Gold.Chemscore.Internal.Correction>
   9.000000E+99

> <Gold.Chemscore.Hbonds>
donor molecule, donor type, donor heavy atom, donor atom, acceptor molecule, acceptor atom, score
      L1  H    13    44       P1  7948  1.00
      L1  H    16    37       P1 10171  0.72
      P1  H  7997  8008       L1     8  0.81

> <Gold.Chemscore.Hbond.Weighted>
-9.9488

> <Gold.Chemscore.Metal.Weighted>
-0.0000

> <Gold.Chemscore.Lipo.Weighted>
-9.5141

> <Gold.Chemscore.Internal_Hbond.Weighted>
0.0000

> <Gold.Chemscore.DEClash.Weighted>
0.0417

> <Gold.Chemscore.DEInternal.Weighted>
1.9066

> <Gold.Chemscore.Rot.Weighted>
5.6860

> <Gold.Chemscore.Internal.Correction.Weighted>
   9.000000E+99

> <Gold.Protein.RotatedTorsions>
[ 6907 6896 6895 6894 ] final  -56.44 input  -60.11 | X-H torsion
[ 7974 7965 7964 7962 ] final  126.91 input  175.53 | X-H torsion
[ 8008 7997 7996 7995 ] final  -44.99 input   59.86 | X-H torsion
[ 10167 10162 10161 10158 ] final -166.73 input  -65.29 | X-H torsion
[ 10718 10713 10712 10709 ] final  127.86 input   66.30 | X-H torsion
[ 10763 10752 10751 10750 ] final  113.39 input  -60.55 | X-H torsion
[ 11005 11000 10999 10996 ] final   46.34 input  -57.11 | X-H torsion

> <Gold.Protein.ActiveResidues>
 VAL166  LYS551  ARG553  GLY616  TRP617  ASP618  TYR619  PRO620  LYS621  CYS622 
 ASP623  PHE694  ASN695  SER759  ASP760  ASP761  ALA762  ILE779  LEU786  VAL792 
 PHE793  MET794  SER795  GLU796  ALA797  LYS798  CYS799  TRP800  GLU811  SER814 

> <Gold.Protein.RotatedAtoms>
  150.8168  134.7354  159.6736 H   0  0  0  0  0  0  0  0  0  0  0  0  # atno 6907 bound_to 6896
  152.4286  134.5818  159.9960 H   0  0  0  0  0  0  0  0  0  0  0  0  # atno 6908 bound_to 6896
  151.6013  133.3319  159.3084 H   0  0  0  0  0  0  0  0  0  0  0  0  # atno 6909 bound_to 6896
  145.0564  139.3840  143.5028 H   0  0  0  0  0  0  0  0  0  0  0  0  # atno 7974 bound_to 7965
  154.3999  140.1408  156.3773 H   0  0  0  0  0  0  0  0  0  0  0  0  # atno 8008 bound_to 7997
  155.8037  140.3475  155.5396 H   0  0  0  0  0  0  0  0  0  0  0  0  # atno 8009 bound_to 7997
  155.8458  140.0933  157.1696 H   0  0  0  0  0  0  0  0  0  0  0  0  # atno 8010 bound_to 7997
  139.6096  144.0843  152.1828 H   0  0  0  0  0  0  0  0  0  0  0  0  # atno 10167 bound_to 10162
  157.5296  131.1098  150.9029 H   0  0  0  0  0  0  0  0  0  0  0  0  # atno 10718 bound_to 10713
  153.4918  135.3657  155.2495 H   0  0  0  0  0  0  0  0  0  0  0  0  # atno 10763 bound_to 10752
  154.8752  135.3979  154.3580 H   0  0  0  0  0  0  0  0  0  0  0  0  # atno 10764 bound_to 10752
  153.4201  135.7080  153.6366 H   0  0  0  0  0  0  0  0  0  0  0  0  # atno 10765 bound_to 10752
  140.1378  134.4622  155.8472 H   0  0  0  0  0  0  0  0  0  0  0  0  # atno 11005 bound_to 11000
  146.3521  140.0241  142.8656 LP  0  0  0  0  0  0  0  0  0  0  0  0  # atno 17320 bound_to 7965
  145.1463  140.9598  143.4459 LP  0  0  0  0  0  0  0  0  0  0  0  0  # atno 17321 bound_to 7965
  140.0458  144.5971  150.7375 LP  0  0  0  0  0  0  0  0  0  0  0  0  # atno 17342 bound_to 10162
  140.7309  143.2689  151.3954 LP  0  0  0  0  0  0  0  0  0  0  0  0  # atno 17343 bound_to 10162
  156.9615  130.5457  149.5286 LP  0  0  0  0  0  0  0  0  0  0  0  0  # atno 17370 bound_to 10713
  156.0412  130.5495  150.8776 LP  0  0  0  0  0  0  0  0  0  0  0  0  # atno 17371 bound_to 10713
  141.2181  133.6821  156.7190 LP  0  0  0  0  0  0  0  0  0  0  0  0  # atno 17394 bound_to 11000
  140.2761  134.8354  157.3891 LP  0  0  0  0  0  0  0  0  0  0  0  0  # atno 17395 bound_to 11000

$$$$
