AV-unprocessed.smi:2805|AV-procd|sdf|10813|dock3
  -GOLD-   2272015253D 1   1.00000     0.00000
 Structure written by MMmdl.
 43 44  0  0  0  0  0  0  0  0  1 V2000
  152.0324  145.8648  160.2598 C   0  0  0  0  0  0  0  0  0  0  0  0
  152.0288  144.5076  159.5884 C   0  0  0  0  0  0  0  0  0  0  0  0
  152.8669  143.4734  160.0470 C   0  0  0  0  0  0  0  0  0  0  0  0
  152.8172  142.2329  159.3813 C   0  0  0  0  0  0  0  0  0  0  0  0
  153.6894  141.0763  159.8227 C   0  0  0  0  0  0  0  0  0  0  0  0
  152.0045  141.9930  158.3301 N   0  0  0  0  0  0  0  0  0  0  0  0
  151.1916  142.9812  157.8808 C   0  0  0  0  0  0  0  0  0  0  0  0
  150.3012  142.8320  156.7845 N   0  0  0  0  0  0  0  0  0  0  0  0
  150.0860  141.7394  156.0307 C   0  0  0  0  0  0  0  0  0  0  0  0
  150.6433  140.6510  156.1769 O   0  0  0  0  0  0  0  0  0  0  0  0
  149.1703  141.9793  155.0806 N   0  0  0  0  0  0  0  0  0  0  0  0
  148.7033  141.0096  154.0943 C   0  0  1  0  0  0  0  0  0  0  0  0
  148.5435  139.6160  154.7333 C   0  0  0  0  0  0  0  0  0  0  0  0
  147.9762  138.5999  153.7294 C   0  0  0  0  0  0  0  0  0  0  0  0
  146.6329  139.0692  153.1365 C   0  0  2  0  0  0  0  0  0  0  0  0
  146.0815  138.0337  152.1388 C   0  0  0  0  0  0  0  0  0  0  0  0
  146.5642  138.2839  150.8354 O   0  0  0  0  0  0  0  0  0  0  0  0
  146.8017  140.4634  152.4955 C   0  0  0  0  0  0  0  0  0  0  0  0
  147.3676  141.4851  153.4951 C   0  0  0  0  0  0  0  0  0  0  0  0
  151.1802  144.2553  158.4918 C   0  0  0  0  0  0  0  0  0  0  0  0
  149.4340  140.9462  153.2853 H   0  0  0  0  0  0  0  0  0  0  0  0
  145.9214  139.1548  153.9596 H   0  0  0  0  0  0  0  0  0  0  0  0
  152.9194  145.9945  160.8804 H   0  0  0  0  0  0  0  0  0  0  0  0
  151.1514  145.9736  160.8926 H   0  0  0  0  0  0  0  0  0  0  0  0
  152.0216  146.6603  159.5142 H   0  0  0  0  0  0  0  0  0  0  0  0
  153.5292  143.6261  160.8868 H   0  0  0  0  0  0  0  0  0  0  0  0
  154.4270  141.3961  160.5592 H   0  0  0  0  0  0  0  0  0  0  0  0
  154.2229  140.6536  158.9707 H   0  0  0  0  0  0  0  0  0  0  0  0
  153.0778  140.2922  160.2695 H   0  0  0  0  0  0  0  0  0  0  0  0
  149.7668  143.6539  156.5451 H   0  0  0  0  0  0  0  0  0  0  0  0
  148.7651  142.9026  155.0340 H   0  0  0  0  0  0  0  0  0  0  0  0
  149.5044  139.2596  155.1066 H   0  0  0  0  0  0  0  0  0  0  0  0
  147.8811  139.6787  155.5979 H   0  0  0  0  0  0  0  0  0  0  0  0
  148.6986  138.4419  152.9273 H   0  0  0  0  0  0  0  0  0  0  0  0
  147.8492  137.6358  154.2228 H   0  0  0  0  0  0  0  0  0  0  0  0
  146.3540  137.0211  152.4379 H   0  0  0  0  0  0  0  0  0  0  0  0
  144.9924  138.0775  152.1090 H   0  0  0  0  0  0  0  0  0  0  0  0
  145.8251  138.4086  150.2598 H   0  0  0  0  0  0  0  0  0  0  0  0
  147.4652  140.3948  151.6324 H   0  0  0  0  0  0  0  0  0  0  0  0
  145.8443  140.8244  152.1190 H   0  0  0  0  0  0  0  0  0  0  0  0
  146.6405  141.6492  154.2919 H   0  0  0  0  0  0  0  0  0  0  0  0
  147.5031  142.4464  152.9978 H   0  0  0  0  0  0  0  0  0  0  0  0
  150.5269  145.0339  158.1249 H   0  0  0  0  0  0  0  0  0  0  0  0
  1  2  1  0  0  0  0
  1 23  1  0  0  0  0
  1 24  1  0  0  0  0
  1 25  1  0  0  0  0
  2 20  1  0  0  0  0
  2  3  2  0  0  0  0
  3  4  1  0  0  0  0
  3 26  1  0  0  0  0
  4  5  1  0  0  0  0
  4  6  2  0  0  0  0
  5 27  1  0  0  0  0
  5 28  1  0  0  0  0
  5 29  1  0  0  0  0
  6  7  1  0  0  0  0
  7  8  1  0  0  0  0
  7 20  2  0  0  0  0
  8  9  1  0  0  0  0
  8 30  1  0  0  0  0
  9 10  2  0  0  0  0
  9 11  1  0  0  0  0
 11 12  1  0  0  0  0
 11 31  1  0  0  0  0
 12 21  1  0  0  0  0
 12 19  1  0  0  0  0
 12 13  1  0  0  0  0
 13 14  1  0  0  0  0
 13 32  1  0  0  0  0
 13 33  1  0  0  0  0
 14 15  1  0  0  0  0
 14 34  1  0  0  0  0
 14 35  1  0  0  0  0
 15 22  1  0  0  0  0
 15 16  1  0  0  0  0
 15 18  1  0  0  0  0
 16 17  1  0  0  0  0
 16 36  1  0  0  0  0
 16 37  1  0  0  0  0
 17 38  1  0  0  0  0
 18 19  1  0  0  0  0
 18 39  1  0  0  0  0
 18 40  1  0  0  0  0
 19 41  1  0  0  0  0
 19 42  1  0  0  0  0
 20 43  1  0  0  0  0
M  END
> <s_m_source_file>
AV-unprocessed.smi

> <i_m_source_file_index>
2805

> <i_lp_mmshare_version>
43012

> <i_f3d_flags>
0

> <s_epik_input>
W0NIM11jMVtjSF1jKFtDSDNdKW5jKFtjSF0xKVtOSF1DKD1PKVtOSF1bQ0BIXTJbQ0gyXVtDSDJdW0NASF0oW0NIMl1bT0hdKVtDSDJdW0NIMl0y

> <s_epik_cmdline>
J2VwaWtfcHl0aG9uJywgJy1waCcsICc3LjAnLCAnLXRuJywgJzgnLCAnLW1hJywgJzIwMCcsICctbWV0YWxfYmluZGluZycsICctaW1hZScsICc8aW5maWxlLm1hZT4nLCAnLW9tYWUnLCAnPG91dGZpbGUubWFlPic=

> <r_lp_tautomer_probability>
1

> <r_epik_Ionization_Penalty>
0.000279533

> <r_epik_Ionization_Penalty_Charging>
0

> <r_epik_Ionization_Penalty_Neutral>
0.000279533

> <r_epik_State_Penalty>
-0

> <r_epik_Charging_Adjusted_Penalty>
0

> <i_epik_Tot_Q>
0

> <i_epik_Tot_abs_Q>
0

> <r_epik_Metal_State_Penalty>
-0

> <b_epik_Metal_Only>
0

> <s_lp_Force_Field>
OPLS_2005

> <r_lp_Energy>
12.7112

> <b_lp_Chiralities_Consistent>
1

> <s_lp_Variant>
AV-unprocessed.smi:2805-1

> <Gold.Version>
5.8.1

> <Gold.Id.Protein>
6NUR|6NUR_protein|mol2

> <Gold.PLP.Fitness>
56.6523

> <Gold.PLP.PLP>
-46.1282

> <Gold.PLP.part.hbond>
-4.4743

> <Gold.PLP.part.metal>
0.0000

> <Gold.PLP.part.buried>
-4.2335

> <Gold.PLP.part.nonpolar>
-39.1442

> <Gold.PLP.part.repulsive>
0.2601

> <Gold.PLP.ligand.clash>
0.0000

> <Gold.PLP.ligand.torsion>
0.5952

> <Gold.PLP.Chemscore.Hbond>
3.9028

> <Gold.PLP.Chemscore.CHOScore>
0.0000

> <Gold.PLP.Chemscore.Metal>
0.0000

> <Gold.Chemscore.Hbonds>
donor molecule, donor type, donor heavy atom, donor atom, acceptor molecule, acceptor atom, score
      L1  H     8    30       P1  8028  1.00
      L1  H    11    31       P1  8028  0.93
      L1  H    17    38       P1 10171  1.00
      P1  H  7954  7966       L1    17  1.00

> <Gold.PLP.Chemscore.Internal.Correction>
0.0062

> <Gold.Rescore>
     Score         DG    S(hbond)    S(metal)    S(lipo)     H(rot)  DE(clash)    DE(int)     intcor
     23.71     -27.26       3.77        0.00     116.84       1.75       0.23       3.33       ----

> <Gold.Chemscore.Fitness>
23.7086

> <Gold.Chemscore.DG>
-27.2631

> <Gold.Chemscore.ZeroCoef>
-5.4800

> <Gold.Chemscore.Hbond>
3.7739

> <Gold.Chemscore.Metal>
0.0000

> <Gold.Chemscore.Lipo>
116.8446

> <Gold.Chemscore.Internal_Hbond>
0.0000

> <Gold.Chemscore.DEClash>
0.2252

> <Gold.Chemscore.DEInternal>
3.3293

> <Gold.Chemscore.Rot>
1.7548

> <Gold.Chemscore.Internal.Correction>
   9.000000E+99

> <Gold.Chemscore.Hbonds>
donor molecule, donor type, donor heavy atom, donor atom, acceptor molecule, acceptor atom, score
      L1  H     8    30       P1  8028  0.99
      L1  H    11    31       P1  8028  0.91
      L1  H    17    38       P1 10171  0.95
      P1  H  7954  7966       L1    17  0.79

> <Gold.Chemscore.Hbond.Weighted>
-12.6047

> <Gold.Chemscore.Metal.Weighted>
-0.0000

> <Gold.Chemscore.Lipo.Weighted>
-13.6708

> <Gold.Chemscore.Internal_Hbond.Weighted>
0.0000

> <Gold.Chemscore.DEClash.Weighted>
0.2252

> <Gold.Chemscore.DEInternal.Weighted>
3.3293

> <Gold.Chemscore.Rot.Weighted>
4.4924

> <Gold.Chemscore.Internal.Correction.Weighted>
   9.000000E+99

> <Gold.Protein.RotatedTorsions>
[ 6907 6896 6895 6894 ] final   46.23 input  -60.11 | X-H torsion
[ 7974 7965 7964 7962 ] final -156.19 input  175.53 | X-H torsion
[ 8008 7997 7996 7995 ] final  -46.72 input   59.86 | X-H torsion
[ 10167 10162 10161 10158 ] final  168.34 input  -65.29 | X-H torsion
[ 10718 10713 10712 10709 ] final   -4.82 input   66.30 | X-H torsion
[ 10763 10752 10751 10750 ] final  113.92 input  -60.55 | X-H torsion
[ 11005 11000 10999 10996 ] final -133.18 input  -57.11 | X-H torsion

> <Gold.Protein.ActiveResidues>
 VAL166  LYS551  ARG553  GLY616  TRP617  ASP618  TYR619  PRO620  LYS621  CYS622 
 ASP623  PHE694  ASN695  SER759  ASP760  ASP761  ALA762  ILE779  LEU786  VAL792 
 PHE793  MET794  SER795  GLU796  ALA797  LYS798  CYS799  TRP800  GLU811  SER814 

> <Gold.Protein.RotatedAtoms>
  152.2539  134.8104  160.0441 H   0  0  0  0  0  0  0  0  0  0  0  0  # atno 6907 bound_to 6896
  151.8774  133.3483  159.3763 H   0  0  0  0  0  0  0  0  0  0  0  0  # atno 6908 bound_to 6896
  150.7093  134.4979  159.5591 H   0  0  0  0  0  0  0  0  0  0  0  0  # atno 6909 bound_to 6896
  144.7604  140.4144  143.5980 H   0  0  0  0  0  0  0  0  0  0  0  0  # atno 7974 bound_to 7965
  154.4010  140.1364  156.4058 H   0  0  0  0  0  0  0  0  0  0  0  0  # atno 8008 bound_to 7997
  155.7781  140.3482  155.5262 H   0  0  0  0  0  0  0  0  0  0  0  0  # atno 8009 bound_to 7997
  155.8701  140.0970  157.1546 H   0  0  0  0  0  0  0  0  0  0  0  0  # atno 8010 bound_to 7997
  139.4965  144.3825  151.9606 H   0  0  0  0  0  0  0  0  0  0  0  0  # atno 10167 bound_to 10162
  156.7556  130.5253  149.5795 H   0  0  0  0  0  0  0  0  0  0  0  0  # atno 10718 bound_to 10713
  153.4996  135.3641  155.2533 H   0  0  0  0  0  0  0  0  0  0  0  0  # atno 10763 bound_to 10752
  154.8748  135.3996  154.3494 H   0  0  0  0  0  0  0  0  0  0  0  0  # atno 10764 bound_to 10752
  153.4128  135.7078  153.6414 H   0  0  0  0  0  0  0  0  0  0  0  0  # atno 10765 bound_to 10752
  140.9103  134.1576  157.4394 H   0  0  0  0  0  0  0  0  0  0  0  0  # atno 11005 bound_to 11000
  145.6637  139.1586  143.2793 LP  0  0  0  0  0  0  0  0  0  0  0  0  # atno 17320 bound_to 7965
  146.1661  140.6715  142.9255 LP  0  0  0  0  0  0  0  0  0  0  0  0  # atno 17321 bound_to 7965
  140.3262  144.3370  150.5998 LP  0  0  0  0  0  0  0  0  0  0  0  0  # atno 17342 bound_to 10162
  140.5682  143.2184  151.7645 LP  0  0  0  0  0  0  0  0  0  0  0  0  # atno 17343 bound_to 10162
  156.1372  130.6219  151.0417 LP  0  0  0  0  0  0  0  0  0  0  0  0  # atno 17370 bound_to 10713
  157.6757  131.0851  150.7499 LP  0  0  0  0  0  0  0  0  0  0  0  0  # atno 17371 bound_to 10713
  139.8756  134.9933  156.5638 LP  0  0  0  0  0  0  0  0  0  0  0  0  # atno 17394 bound_to 11000
  140.8118  133.8423  155.8817 LP  0  0  0  0  0  0  0  0  0  0  0  0  # atno 17395 bound_to 11000

$$$$
