#       Name:                AV-unprocessed.smi:2451
#       Creating user name   scv26
#       Creation time:       Fri Mar 27 13:31:59 2020


#       File generated by GOLD software.
#

@<TRIPOS>MOLECULE
AV-unprocessed.smi:2451
    41    42     1
SMALL
NO_CHARGES


@<TRIPOS>ATOM
      1 ****        -3.6357  -0.4624  -1.2616 C.3            1 S1                 0.0000
      2 ****        -2.6572  -1.6302  -0.9930 C.3            1 S1                 0.0000
      3 ****        -3.0478  -2.4078   0.2877 C.3            1 S1                 0.0000
      4 ****        -2.6183  -1.6287   1.5474 C.3            1 S1                 0.0000
      5 ****        -1.1114  -1.2814   1.5373 C.3            1 S1                 0.0000
      6 ****        -0.6645  -0.4944   0.2815 C.3            1 S1                 0.0000
      7 ****         0.7857  -0.3578   0.2956 N.pl3          1 S1                -1.0000
      8 ****         1.4470   1.1173   0.4129 S.o2           1 S1                 0.0000
      9 ****         1.1630   1.9625  -0.7587 O.2            1 S1                 0.0000
     10 ****         1.2401   1.7234   1.7385 O.2            1 S1                 0.0000
     11 ****         3.2382   0.6931   0.3145 C.3            1 S1                 0.0000
     12 ****         4.0679   1.9458   0.3353 C.2            1 S1                 0.0000
     13 ****         4.3585   2.7963   1.4381 C.2            1 S1                 0.0000
     14 ****         5.1464   3.7682   0.8928 C.2            1 S1                 0.0000
     15 ****         5.3389   3.5378  -0.4303 O.3            1 S1                 0.0000
     16 ****         4.6494   2.3702  -0.7764 N.2            1 S1                 0.0000
     17 ****        -1.1373  -1.2433  -1.0086 C.3            1 S1                 0.0000
     18 ****        -0.7532  -0.5194  -2.3221 C.3            1 S1                 0.0000
     19 ****        -3.5572   0.3246  -0.5118 H              1 S1                 0.0000
     20 ****        -4.6677  -0.8132  -1.2569 H              1 S1                 0.0000
     21 ****        -3.4627  -0.0088  -2.2370 H              1 S1                 0.0000
     22 ****        -2.8072  -2.3243  -1.8211 H              1 S1                 0.0000
     23 ****        -4.1190  -2.6102   0.3093 H              1 S1                 0.0000
     24 ****        -2.5526  -3.3797   0.2844 H              1 S1                 0.0000
     25 ****        -3.2162  -0.7209   1.6461 H              1 S1                 0.0000
     26 ****        -2.8429  -2.2251   2.4320 H              1 S1                 0.0000
     27 ****        -0.8664  -0.7115   2.4345 H              1 S1                 0.0000
     28 ****        -0.5437  -2.2109   1.6054 H              1 S1                 0.0000
     29 ****        -1.1621   0.4759   0.3037 H              1 S1                 0.0000
     30 ****         3.4829   0.0478   1.1576 H              1 S1                 0.0000
     31 ****         3.4017   0.1221  -0.5998 H              1 S1                 0.0000
     32 ****         4.0323   2.7086   2.4637 H              1 S1                 0.0000
     33 ****         5.6270   4.6470   1.2964 H              1 S1                 0.0000
     34 ****        -0.5986  -2.1928  -1.0254 H              1 S1                 0.0000
     35 ****        -1.1635   0.4902  -2.3792 H              1 S1                 0.0000
     36 ****        -1.1236  -1.0699  -3.1870 H              1 S1                 0.0000
     37 ****         0.3280  -0.4383  -2.4471 H              1 S1                 0.0000
     38 ****         1.3688  -1.1679   0.2334 LP             1 S1                 0.0000
     39 ****         6.3149   3.4219  -0.6151 LP             1 S1                 0.0000
     40 ****         4.9881   4.3083  -0.9625 LP             1 S1                 0.0000
     41 ****         4.6049   1.9431  -1.6795 LP             1 S1                 0.0000
@<TRIPOS>BOND
    1    1    2 1     
    2    1   19 1     
    3    1   20 1     
    4    1   21 1     
    5    2   17 1     
    6    2    3 1     
    7    2   22 1     
    8    3    4 1     
    9    3   23 1     
   10    3   24 1     
   11    4    5 1     
   12    4   25 1     
   13    4   26 1     
   14    5    6 1     
   15    5   27 1     
   16    5   28 1     
   17    6    7 1     
   18    6   17 1     
   19    6   29 1     
   20    7    8 1     
   21    8    9 2     
   22    8   10 2     
   23    8   11 1     
   24   11   12 1     
   25   11   30 1     
   26   11   31 1     
   27   12   16 2     
   28   12   13 1     
   29   13   14 2     
   30   13   32 1     
   31   14   15 1     
   32   14   33 1     
   33   15   16 1     
   34   17   18 1     
   35   17   34 1     
   36   18   35 1     
   37   18   36 1     
   38   18   37 1     
   39    7   38 1     
   40   15   39 1     
   41   15   40 1     
   42   16   41 1     
@<TRIPOS>SUBSTRUCTURE
      1 S1             1
@<TRIPOS>SET
LONE_PAIRS      STATIC     ATOMS    <user>   **** ""
6 38 9 10 39 40 41
ATOM$BLUE        STATIC     ATOMS    COLORGROUP SYSTEM
6 38 9 10 39 40 41
