AV-unprocessed.smi:27|AV-procd|sdf|187|dock9
  -GOLD-   2262015453D 1   1.00000     0.00000
 Structure written by MMmdl.
 53 56  0  0  0  0  0  0  0  0  1 V2000
  147.1792  140.3659  156.3116 O   0  0  0  0  0  0  0  0  0  0  0  0
  147.5782  141.4418  155.8683 C   0  0  0  0  0  0  0  0  0  0  0  0
  148.8871  141.4912  155.0573 C   0  0  0  0  0  0  0  0  0  0  0  0
  150.0867  141.0522  155.8108 N   0  0  0  0  0  0  0  0  0  0  0  0
  150.8658  139.9906  155.2891 C   0  0  0  0  0  0  0  0  0  0  0  0
  150.5806  139.4547  154.2174 O   0  0  0  0  0  0  0  0  0  0  0  0
  151.9970  139.5784  156.1112 C   0  0  0  0  0  0  0  0  0  0  0  0
  152.8050  138.5936  155.6833 F   0  0  0  0  0  0  0  0  0  0  0  0
  152.2452  140.1652  157.3005 C   0  0  0  0  0  0  0  0  0  0  0  0
  151.4636  141.1881  157.8111 N   0  0  0  0  0  0  0  0  0  0  0  0
  151.6822  141.7949  159.1827 C   0  0  2  0  0  0  0  0  0  0  0  0
  152.0294  143.2859  159.2050 C   0  0  0  0  0  0  0  0  0  0  0  0
  152.6763  143.3775  160.5674 C   0  0  0  0  0  0  0  0  0  0  0  0
  153.4718  142.0731  160.6157 C   0  0  0  0  0  0  0  0  0  0  0  0
  152.7731  141.1550  159.7756 O   0  0  0  0  0  0  0  0  0  0  0  0
  150.3667  141.6617  157.0575 C   0  0  0  0  0  0  0  0  0  0  0  0
  149.6557  142.5732  157.4867 O   0  0  0  0  0  0  0  0  0  0  0  0
  146.9254  142.5996  156.0566 N   0  0  0  0  0  0  0  0  0  0  0  0
  145.6670  142.7998  156.7672 C   0  0  0  0  0  0  0  0  0  0  0  0
  144.8443  143.9163  156.1315 C   0  0  0  0  0  0  0  0  0  0  0  0
  144.3852  145.0179  156.8928 C   0  0  0  0  0  0  0  0  0  0  0  0
  143.6285  146.0377  156.2846 C   0  0  0  0  0  0  0  0  0  0  0  0
  143.3196  145.9642  154.9134 C   0  0  0  0  0  0  0  0  0  0  0  0
  143.7646  144.8675  154.1514 C   0  0  0  0  0  0  0  0  0  0  0  0
  144.5225  143.8474  154.7586 C   0  0  0  0  0  0  0  0  0  0  0  0
  145.8769  143.0592  158.2552 C   0  0  0  0  0  0  0  0  0  0  0  0
  144.7877  143.0573  159.1571 C   0  0  0  0  0  0  0  0  0  0  0  0
  145.0003  143.2940  160.5289 C   0  0  0  0  0  0  0  0  0  0  0  0
  146.3022  143.5293  161.0105 C   0  0  0  0  0  0  0  0  0  0  0  0
  147.3922  143.5248  160.1195 C   0  0  0  0  0  0  0  0  0  0  0  0
  147.1800  143.2895  158.7472 C   0  0  0  0  0  0  0  0  0  0  0  0
  148.7496  140.8985  154.1517 H   0  0  0  0  0  0  0  0  0  0  0  0
  149.0182  142.5088  154.6863 H   0  0  0  0  0  0  0  0  0  0  0  0
  153.1052  139.8068  157.8414 H   0  0  0  0  0  0  0  0  0  0  0  0
  150.7685  141.5871  159.7441 H   0  0  0  0  0  0  0  0  0  0  0  0
  152.7801  143.5310  158.4542 H   0  0  0  0  0  0  0  0  0  0  0  0
  151.1456  143.9118  159.0794 H   0  0  0  0  0  0  0  0  0  0  0  0
  153.3011  144.2628  160.6896 H   0  0  0  0  0  0  0  0  0  0  0  0
  151.9129  143.3858  161.3467 H   0  0  0  0  0  0  0  0  0  0  0  0
  154.4741  142.2187  160.2121 H   0  0  0  0  0  0  0  0  0  0  0  0
  153.5680  141.6873  161.6308 H   0  0  0  0  0  0  0  0  0  0  0  0
  147.3361  143.4269  155.6494 H   0  0  0  0  0  0  0  0  0  0  0  0
  145.0838  141.8822  156.6664 H   0  0  0  0  0  0  0  0  0  0  0  0
  144.6051  145.0917  157.9479 H   0  0  0  0  0  0  0  0  0  0  0  0
  143.2835  146.8757  156.8718 H   0  0  0  0  0  0  0  0  0  0  0  0
  142.7390  146.7464  154.4472 H   0  0  0  0  0  0  0  0  0  0  0  0
  143.5242  144.8080  153.1000 H   0  0  0  0  0  0  0  0  0  0  0  0
  144.8584  143.0097  154.1650 H   0  0  0  0  0  0  0  0  0  0  0  0
  143.7838  142.8717  158.8039 H   0  0  0  0  0  0  0  0  0  0  0  0
  144.1639  143.2936  161.2121 H   0  0  0  0  0  0  0  0  0  0  0  0
  146.4648  143.7106  162.0626 H   0  0  0  0  0  0  0  0  0  0  0  0
  148.3917  143.7015  160.4887 H   0  0  0  0  0  0  0  0  0  0  0  0
  148.0231  143.2873  158.0716 H   0  0  0  0  0  0  0  0  0  0  0  0
  1  2  2  0  0  0  0
  2  3  1  0  0  0  0
  2 18  1  0  0  0  0
  3  4  1  0  0  0  0
  3 32  1  0  0  0  0
  3 33  1  0  0  0  0
  4 16  1  0  0  0  0
  4  5  1  0  0  0  0
  5  6  2  0  0  0  0
  5  7  1  0  0  0  0
  7  8  1  0  0  0  0
  7  9  2  0  0  0  0
  9 10  1  0  0  0  0
  9 34  1  0  0  0  0
 10 11  1  0  0  0  0
 10 16  1  0  0  0  0
 11 15  1  0  0  0  0
 11 12  1  0  0  0  0
 11 35  1  0  0  0  0
 12 13  1  0  0  0  0
 12 36  1  0  0  0  0
 12 37  1  0  0  0  0
 13 14  1  0  0  0  0
 13 38  1  0  0  0  0
 13 39  1  0  0  0  0
 14 15  1  0  0  0  0
 14 40  1  0  0  0  0
 14 41  1  0  0  0  0
 16 17  2  0  0  0  0
 18 19  1  0  0  0  0
 18 42  1  0  0  0  0
 19 20  1  0  0  0  0
 19 26  1  0  0  0  0
 19 43  1  0  0  0  0
 20 25  1  0  0  0  0
 20 21  2  0  0  0  0
 21 22  1  0  0  0  0
 21 44  1  0  0  0  0
 22 23  2  0  0  0  0
 22 45  1  0  0  0  0
 23 24  1  0  0  0  0
 23 46  1  0  0  0  0
 24 25  2  0  0  0  0
 24 47  1  0  0  0  0
 25 48  1  0  0  0  0
 26 31  1  0  0  0  0
 26 27  2  0  0  0  0
 27 28  1  0  0  0  0
 27 49  1  0  0  0  0
 28 29  2  0  0  0  0
 28 50  1  0  0  0  0
 29 30  1  0  0  0  0
 29 51  1  0  0  0  0
 30 31  2  0  0  0  0
 30 52  1  0  0  0  0
 31 53  1  0  0  0  0
M  END
> <s_m_source_file>
AV-unprocessed.smi

> <i_m_source_file_index>
27

> <i_lp_mmshare_version>
43012

> <i_f3d_flags>
0

> <s_epik_input>
W2NIXTFbY0hdW2NIXVtjSF1bY0hdYzFbQ0hdKGMyW2NIXVtjSF1bY0hdW2NIXVtjSF0yKVtOSF1DKD1PKVtDSDJdbjNjKD1PKWMoRilbY0hdbihjMz1PKVtDQEBIXTRbQ0gyXVtDSDJdW0NIMl1PNA==

> <s_epik_cmdline>
J2VwaWtfcHl0aG9uJywgJy1waCcsICc3LjAnLCAnLXRuJywgJzgnLCAnLW1hJywgJzIwMCcsICctbWV0YWxfYmluZGluZycsICctaW1hZScsICc8aW5maWxlLm1hZT4nLCAnLW9tYWUnLCAnPG91dGZpbGUubWFlPic=

> <r_lp_tautomer_probability>
1

> <r_epik_Ionization_Penalty>
5.29953e-08

> <r_epik_Ionization_Penalty_Charging>
3.6115e-09

> <r_epik_Ionization_Penalty_Neutral>
4.93838e-08

> <r_epik_State_Penalty>
-0

> <r_epik_Charging_Adjusted_Penalty>
3.6115e-09

> <i_epik_Tot_Q>
0

> <i_epik_Tot_abs_Q>
0

> <r_epik_Metal_State_Penalty>
-0

> <b_epik_Metal_Only>
0

> <s_epik_Chemistry_Notes>
This compound contains an acetal/aminal-like group ( X-CH(R)-Y where X, Y are N, S, or O) that may be acid/base labile, releasing an aldehyde.

> <s_lp_Force_Field>
OPLS_2005

> <r_lp_Energy>
32.38

> <b_lp_Chiralities_Consistent>
1

> <s_lp_Variant>
AV-unprocessed.smi:27-1

> <Gold.Version>
5.8.1

> <Gold.Id.Protein>
6NUR|6NUR_protein|mol2

> <Gold.PLP.Fitness>
52.2406

> <Gold.PLP.PLP>
-50.9325

> <Gold.PLP.part.hbond>
-2.0000

> <Gold.PLP.part.metal>
0.0000

> <Gold.PLP.part.buried>
-1.4613

> <Gold.PLP.part.nonpolar>
-48.0530

> <Gold.PLP.part.repulsive>
1.7122

> <Gold.PLP.ligand.clash>
0.0000

> <Gold.PLP.ligand.torsion>
0.5595

> <Gold.PLP.Chemscore.Hbond>
0.7468

> <Gold.PLP.Chemscore.CHOScore>
0.0000

> <Gold.PLP.Chemscore.Metal>
0.0000

> <Gold.Chemscore.Hbonds>
donor molecule, donor type, donor heavy atom, donor atom, acceptor molecule, acceptor atom, score
      L1  H    18    42       P1  8028  0.43
      P1  H  7989  7998       L1     6  0.20

> <Gold.PLP.Chemscore.Internal.Correction>
0.1867

> <Gold.Rescore>
     Score         DG    S(hbond)    S(metal)    S(lipo)     H(rot)  DE(clash)    DE(int)     intcor
      9.07     -13.41       0.37        0.00     104.70       2.16       0.29       4.06       ----

> <Gold.Chemscore.Fitness>
9.0659

> <Gold.Chemscore.DG>
-13.4140

> <Gold.Chemscore.ZeroCoef>
-5.4800

> <Gold.Chemscore.Hbond>
0.3667

> <Gold.Chemscore.Metal>
0.0000

> <Gold.Chemscore.Lipo>
104.6989

> <Gold.Chemscore.Internal_Hbond>
0.0000

> <Gold.Chemscore.DEClash>
0.2856

> <Gold.Chemscore.DEInternal>
4.0625

> <Gold.Chemscore.Rot>
2.1642

> <Gold.Chemscore.Internal.Correction>
   9.000000E+99

> <Gold.Chemscore.Hbonds>
donor molecule, donor type, donor heavy atom, donor atom, acceptor molecule, acceptor atom, score
      L1  H    18    42       P1  8028  0.01

> <Gold.Chemscore.Hbond.Weighted>
-1.2247

> <Gold.Chemscore.Metal.Weighted>
-0.0000

> <Gold.Chemscore.Lipo.Weighted>
-12.2498

> <Gold.Chemscore.Internal_Hbond.Weighted>
0.0000

> <Gold.Chemscore.DEClash.Weighted>
0.2856

> <Gold.Chemscore.DEInternal.Weighted>
4.0625

> <Gold.Chemscore.Rot.Weighted>
5.5404

> <Gold.Chemscore.Internal.Correction.Weighted>
   9.000000E+99

> <Gold.Protein.RotatedTorsions>
[ 6907 6896 6895 6894 ] final  -49.75 input  -60.11 | X-H torsion
[ 7974 7965 7964 7962 ] final  -75.76 input  175.53 | X-H torsion
[ 8008 7997 7996 7995 ] final -108.01 input   59.86 | X-H torsion
[ 10167 10162 10161 10158 ] final  178.60 input  -65.29 | X-H torsion
[ 10718 10713 10712 10709 ] final   50.06 input   66.30 | X-H torsion
[ 10763 10752 10751 10750 ] final -174.35 input  -60.55 | X-H torsion
[ 11005 11000 10999 10996 ] final  -97.10 input  -57.11 | X-H torsion

> <Gold.Protein.ActiveResidues>
 VAL166  LYS551  ARG553  GLY616  TRP617  ASP618  TYR619  PRO620  LYS621  CYS622 
 ASP623  PHE694  ASN695  SER759  ASP760  ASP761  ALA762  ILE779  LEU786  VAL792 
 PHE793  MET794  SER795  GLU796  ALA797  LYS798  CYS799  TRP800  GLU811  SER814 

> <Gold.Protein.RotatedAtoms>
  150.8774  134.8159  159.7199 H   0  0  0  0  0  0  0  0  0  0  0  0  # atno 6907 bound_to 6896
  152.4755  134.4850  159.9687 H   0  0  0  0  0  0  0  0  0  0  0  0  # atno 6908 bound_to 6896
  151.4930  133.3482  159.2892 H   0  0  0  0  0  0  0  0  0  0  0  0  # atno 6909 bound_to 6896
  145.6218  140.9361  143.1134 H   0  0  0  0  0  0  0  0  0  0  0  0  # atno 7974 bound_to 7965
  154.9378  140.0403  157.2081 H   0  0  0  0  0  0  0  0  0  0  0  0  # atno 8008 bound_to 7997
  154.8098  140.2866  155.5839 H   0  0  0  0  0  0  0  0  0  0  0  0  # atno 8009 bound_to 7997
  156.2970  140.2539  156.2984 H   0  0  0  0  0  0  0  0  0  0  0  0  # atno 8010 bound_to 7997
  139.5301  144.2661  152.0667 H   0  0  0  0  0  0  0  0  0  0  0  0  # atno 10167 bound_to 10162
  157.4848  130.8338  149.8134 H   0  0  0  0  0  0  0  0  0  0  0  0  # atno 10718 bound_to 10713
  154.5973  135.2851  155.0573 H   0  0  0  0  0  0  0  0  0  0  0  0  # atno 10763 bound_to 10752
  154.1851  135.6450  153.5048 H   0  0  0  0  0  0  0  0  0  0  0  0  # atno 10764 bound_to 10752
  153.0143  135.5433  154.6679 H   0  0  0  0  0  0  0  0  0  0  0  0  # atno 10765 bound_to 10752
  141.1390  133.8146  157.0660 H   0  0  0  0  0  0  0  0  0  0  0  0  # atno 11005 bound_to 11000
  144.7228  139.7974  143.7376 LP  0  0  0  0  0  0  0  0  0  0  0  0  # atno 17320 bound_to 7965
  146.1425  139.4486  143.0100 LP  0  0  0  0  0  0  0  0  0  0  0  0  # atno 17321 bound_to 7965
  140.2123  144.4550  150.6380 LP  0  0  0  0  0  0  0  0  0  0  0  0  # atno 17342 bound_to 10162
  140.6472  143.2216  151.6158 LP  0  0  0  0  0  0  0  0  0  0  0  0  # atno 17343 bound_to 10162
  156.0141  130.3821  150.2168 LP  0  0  0  0  0  0  0  0  0  0  0  0  # atno 17370 bound_to 10713
  157.0356  131.0020  151.3299 LP  0  0  0  0  0  0  0  0  0  0  0  0  # atno 17371 bound_to 10713
  140.0541  134.9790  157.1189 LP  0  0  0  0  0  0  0  0  0  0  0  0  # atno 17394 bound_to 11000
  140.3946  134.2148  155.7165 LP  0  0  0  0  0  0  0  0  0  0  0  0  # atno 17395 bound_to 11000

$$$$
