#       Name:                AV-unprocessed.smi:245
#       Creating user name   scv26
#       Creation time:       Thu Mar 26 20:52:22 2020


#       File generated by GOLD software.
#

@<TRIPOS>MOLECULE
AV-unprocessed.smi:245
    64    68     1
SMALL
NO_CHARGES


@<TRIPOS>ATOM
      1 ****        -5.0073   1.0239  -3.7538 O.2            1 S1                 0.0000
      2 ****        -4.6096   0.9751  -2.5922 C.2            1 S1                 0.0000
      3 ****        -3.0982   1.0109  -2.3088 C.3            1 S1                 0.0000
      4 ****        -2.7281   0.9453  -0.8873 N.3            1 S1                 0.0000
      5 ****        -1.4243   1.2577  -0.7067 C.ar           1 S1                 0.0000
      6 ****        -1.0625   2.5380  -0.4295 N.ar           1 S1                 0.0000
      7 ****         0.2278   2.8439  -0.2621 C.ar           1 S1                 0.0000
      8 ****         1.2920   2.0404  -0.3279 N.ar           1 S1                 0.0000
      9 ****         0.9282   0.7567  -0.6129 C.ar           1 S1                 0.0000
     10 ****        -0.3969   0.2864  -0.8260 C.ar           1 S1                 0.0000
     11 ****        -0.3835  -1.0727  -1.1106 N.2            1 S1                 0.0000
     12 ****         0.8825  -1.3889  -1.0715 C.2            1 S1                 0.0000
     13 ****         1.7368  -0.3578  -0.7482 N.pl3          1 S1                 0.0000
     14 ****         3.1662  -0.4187  -0.6654 C.3            1 S1                 0.0000
     15 ****         3.8819  -1.7017  -0.2386 C.3            1 S1                 0.0000
     16 ****         4.9906  -0.8537   0.4262 C.3            1 S1                 0.0000
     17 ****         5.4823  -1.3345   1.8023 C.3            1 S1                 0.0000
     18 ****         6.0639  -2.6204   1.7360 O.3            1 S1                 0.0000
     19 ****         6.2080  -0.4989  -0.4527 C.3            1 S1                 0.0000
     20 ****         6.8693  -1.6521  -0.9301 O.3            1 S1                 0.0000
     21 ****         3.9171   0.2557   0.4850 C.3            1 S1                 0.0000
     22 ****        -3.6956   1.4330   0.1048 C.3            1 S1                 0.0000
     23 ****        -3.2718   1.1962   1.5783 C.3            1 S1                 0.0000
     24 ****        -3.2849  -0.2919   1.9601 C.3            1 S1                 0.0000
     25 ****        -4.6692  -0.9051   1.7123 C.3            1 S1                 0.0000
     26 ****        -5.1056  -0.7046   0.2544 C.3            1 S1                 0.0000
     27 ****        -5.0772   0.7841  -0.1580 C.3            1 S1                 0.0000
     28 ****        -5.4652   0.9081  -1.5596 N.am           1 S1                 0.0000
     29 ****        -2.6366   0.1718  -2.8314 H              1 S1                 0.0000
     30 ****        -2.6984   1.9219  -2.7586 H              1 S1                 0.0000
     31 ****         0.4377   3.8804  -0.0430 H              1 S1                 0.0000
     32 ****         1.2277  -2.3934  -1.2695 H              1 S1                 0.0000
     33 ****         3.5401  -0.0705  -1.6299 H              1 S1                 0.0000
     34 ****         3.3055  -2.2821   0.4845 H              1 S1                 0.0000
     35 ****         4.2100  -2.3298  -1.0673 H              1 S1                 0.0000
     36 ****         6.2061  -0.6399   2.2297 H              1 S1                 0.0000
     37 ****         4.6551  -1.3883   2.5107 H              1 S1                 0.0000
     38 ****         6.3203  -2.8791   2.6082 H              1 S1                 0.0000
     39 ****         5.9115   0.0912  -1.3200 H              1 S1                 0.0000
     40 ****         6.9245   0.1124   0.0969 H              1 S1                 0.0000
     41 ****         7.0970  -2.1921  -0.1881 H              1 S1                 0.0000
     42 ****         4.2788   1.2595   0.2595 H              1 S1                 0.0000
     43 ****         3.3416   0.2506   1.4128 H              1 S1                 0.0000
     44 ****        -3.7933   2.5096  -0.0470 H              1 S1                 0.0000
     45 ****        -2.2938   1.6256   1.7930 H              1 S1                 0.0000
     46 ****        -3.9662   1.7279   2.2301 H              1 S1                 0.0000
     47 ****        -2.5324  -0.8302   1.3822 H              1 S1                 0.0000
     48 ****        -3.0100  -0.4085   3.0089 H              1 S1                 0.0000
     49 ****        -4.6535  -1.9684   1.9534 H              1 S1                 0.0000
     50 ****        -5.3990  -0.4461   2.3804 H              1 S1                 0.0000
     51 ****        -4.4493  -1.2842  -0.3966 H              1 S1                 0.0000
     52 ****        -6.1084  -1.1102   0.1160 H              1 S1                 0.0000
     53 ****        -5.8253   1.3164   0.4307 H              1 S1                 0.0000
     54 ****        -6.4541   0.9034  -1.7638 H              1 S1                 0.0000
     55 ****        -5.9884   1.0141  -3.9472 LP             1 S1                 0.0000
     56 ****        -4.3499   1.0733  -4.5057 LP             1 S1                 0.0000
     57 ****        -2.8130  -0.0191  -0.6366 LP             1 S1                 0.0000
     58 ****        -1.7604   3.2499  -0.3509 LP             1 S1                 0.0000
     59 ****         2.2351   2.3410  -0.1864 LP             1 S1                 0.0000
     60 ****        -1.1624  -1.6702  -1.3012 LP             1 S1                 0.0000
     61 ****         6.8674  -2.5969   1.1413 LP             1 S1                 0.0000
     62 ****         5.3990  -3.2730   1.3724 LP             1 S1                 0.0000
     63 ****         7.6983  -1.3871  -1.4226 LP             1 S1                 0.0000
     64 ****         6.2644  -2.1590  -1.5443 LP             1 S1                 0.0000
@<TRIPOS>BOND
    1    1    2 2     
    2    2   28 am    
    3    2    3 1     
    4    3    4 1     
    5    3   29 1     
    6    3   30 1     
    7    4    5 1     
    8    4   22 1     
    9    5   10 ar    
   10    5    6 ar    
   11    6    7 ar    
   12    7    8 ar    
   13    7   31 1     
   14    8    9 ar    
   15    9   13 1     
   16    9   10 ar    
   17   10   11 1     
   18   11   12 2     
   19   12   13 1     
   20   12   32 1     
   21   13   14 1     
   22   14   21 1     
   23   14   15 1     
   24   14   33 1     
   25   15   16 1     
   26   15   34 1     
   27   15   35 1     
   28   16   17 1     
   29   16   19 1     
   30   16   21 1     
   31   17   18 1     
   32   17   36 1     
   33   17   37 1     
   34   18   38 1     
   35   19   20 1     
   36   19   39 1     
   37   19   40 1     
   38   20   41 1     
   39   21   42 1     
   40   21   43 1     
   41   22   27 1     
   42   22   23 1     
   43   22   44 1     
   44   23   24 1     
   45   23   45 1     
   46   23   46 1     
   47   24   25 1     
   48   24   47 1     
   49   24   48 1     
   50   25   26 1     
   51   25   49 1     
   52   25   50 1     
   53   26   27 1     
   54   26   51 1     
   55   26   52 1     
   56   27   28 1     
   57   27   53 1     
   58   28   54 1     
   59    1   55 1     
   60    1   56 1     
   61    4   57 1     
   62    6   58 1     
   63    8   59 1     
   64   11   60 1     
   65   18   61 1     
   66   18   62 1     
   67   20   63 1     
   68   20   64 1     
@<TRIPOS>SUBSTRUCTURE
      1 S1             1
@<TRIPOS>SET
LONE_PAIRS      STATIC     ATOMS    <user>   **** ""
10 55 56 57 58 59 60 61 62 63 64
DONOR_HYDROGENS      STATIC     ATOMS    <user>   **** ""
3 38 41 54
ATOM$BLUE        STATIC     ATOMS    COLORGROUP SYSTEM
10 55 56 57 58 59 60 61 62 63 64
ATOM$RED        STATIC     ATOMS    COLORGROUP SYSTEM
3 38 41 54
