AV-unprocessed.smi:1272|AV-procd|sdf|5334|dock9
  -GOLD-   22720 4463D 1   1.00000     0.00000
 Structure written by MMmdl.
 45 47  0  0  0  0  0  0  0  0  1 V2000
  154.9191  141.1027  160.4523 C   0  0  0  0  0  0  0  0  0  0  0  0
  153.5239  140.5028  160.2373 C   0  0  0  0  0  0  0  0  0  0  0  0
  152.7235  141.3330  159.3406 N   0  0  0  0  0  0  0  0  0  0  0  0
  152.3118  141.0084  158.0924 C   0  0  0  0  0  0  0  0  0  0  0  0
  152.5444  139.9515  157.5055 O   0  0  0  0  0  0  0  0  0  0  0  0
  151.6113  142.0550  157.5952 N   0  0  0  0  0  0  0  0  0  0  0  0
  150.9892  142.1356  156.2745 C   0  0  0  0  0  0  0  0  0  0  0  0
  150.4163  140.7756  155.8281 C   0  0  2  0  0  0  0  0  0  0  0  0
  151.4640  140.0311  155.2396 O   0  0  0  0  0  0  0  0  0  0  0  0
  149.3230  140.9522  154.7545 C   0  0  0  0  0  0  0  0  0  0  0  0
  148.1345  141.6962  155.1771 N   0  0  0  0  0  0  0  0  0  0  0  0
  147.2012  141.9476  154.0800 C   0  0  0  0  0  0  0  0  0  0  0  0
  145.9466  142.7014  154.5552 C   0  0  0  0  0  0  0  0  0  0  0  0
  145.3154  141.9719  155.6020 O   0  0  0  0  0  0  0  0  0  0  0  0
  146.1791  141.7479  156.7113 C   0  0  0  0  0  0  0  0  0  0  0  0
  147.4310  140.9875  156.2413 C   0  0  0  0  0  0  0  0  0  0  0  0
  151.5959  143.0887  158.5428 C   0  0  0  0  0  0  0  0  0  0  0  0
  151.0306  144.3753  158.5010 C   0  0  0  0  0  0  0  0  0  0  0  0
  151.2052  145.1959  159.6399 C   0  0  0  0  0  0  0  0  0  0  0  0
  151.9243  144.7276  160.7702 C   0  0  0  0  0  0  0  0  0  0  0  0
  152.4850  143.4289  160.7849 C   0  0  0  0  0  0  0  0  0  0  0  0
  152.2958  142.6341  159.6409 C   0  0  0  0  0  0  0  0  0  0  0  0
  155.5034  140.4880  161.1371 H   0  0  0  0  0  0  0  0  0  0  0  0
  154.8562  142.1053  160.8765 H   0  0  0  0  0  0  0  0  0  0  0  0
  155.4688  141.1690  159.5130 H   0  0  0  0  0  0  0  0  0  0  0  0
  153.6130  139.4943  159.8305 H   0  0  0  0  0  0  0  0  0  0  0  0
  153.0105  140.3982  161.1932 H   0  0  0  0  0  0  0  0  0  0  0  0
  150.1830  142.8684  156.3359 H   0  0  0  0  0  0  0  0  0  0  0  0
  151.6866  142.5343  155.5367 H   0  0  0  0  0  0  0  0  0  0  0  0
  150.0250  140.2397  156.6921 H   0  0  0  0  0  0  0  0  0  0  0  0
  151.3077  139.1146  155.4105 H   0  0  0  0  0  0  0  0  0  0  0  0
  149.7550  141.4450  153.8821 H   0  0  0  0  0  0  0  0  0  0  0  0
  149.0233  139.9602  154.4128 H   0  0  0  0  0  0  0  0  0  0  0  0
  147.6786  142.5367  153.2985 H   0  0  0  0  0  0  0  0  0  0  0  0
  146.9032  141.0027  153.6229 H   0  0  0  0  0  0  0  0  0  0  0  0
  146.2072  143.7012  154.9057 H   0  0  0  0  0  0  0  0  0  0  0  0
  145.2432  142.8240  153.7316 H   0  0  0  0  0  0  0  0  0  0  0  0
  146.4533  142.7005  157.1671 H   0  0  0  0  0  0  0  0  0  0  0  0
  145.6464  141.1715  157.4676 H   0  0  0  0  0  0  0  0  0  0  0  0
  147.1394  139.9946  155.8948 H   0  0  0  0  0  0  0  0  0  0  0  0
  148.0987  140.8370  157.0902 H   0  0  0  0  0  0  0  0  0  0  0  0
  150.4894  144.7292  157.6361 H   0  0  0  0  0  0  0  0  0  0  0  0
  150.7881  146.1921  159.6479 H   0  0  0  0  0  0  0  0  0  0  0  0
  152.0472  145.3712  161.6287 H   0  0  0  0  0  0  0  0  0  0  0  0
  153.0377  143.0693  161.6401 H   0  0  0  0  0  0  0  0  0  0  0  0
  1  2  1  0  0  0  0
  1 23  1  0  0  0  0
  1 24  1  0  0  0  0
  1 25  1  0  0  0  0
  2  3  1  0  0  0  0
  2 26  1  0  0  0  0
  2 27  1  0  0  0  0
  3 22  1  0  0  0  0
  3  4  1  0  0  0  0
  4  5  2  0  0  0  0
  4  6  1  0  0  0  0
  6  7  1  0  0  0  0
  6 17  1  0  0  0  0
  7  8  1  0  0  0  0
  7 28  1  0  0  0  0
  7 29  1  0  0  0  0
  8  9  1  0  0  0  0
  8 10  1  0  0  0  0
  8 30  1  0  0  0  0
  9 31  1  0  0  0  0
 10 11  1  0  0  0  0
 10 32  1  0  0  0  0
 10 33  1  0  0  0  0
 11 16  1  0  0  0  0
 11 12  1  0  0  0  0
 12 13  1  0  0  0  0
 12 34  1  0  0  0  0
 12 35  1  0  0  0  0
 13 14  1  0  0  0  0
 13 36  1  0  0  0  0
 13 37  1  0  0  0  0
 14 15  1  0  0  0  0
 15 16  1  0  0  0  0
 15 38  1  0  0  0  0
 15 39  1  0  0  0  0
 16 40  1  0  0  0  0
 16 41  1  0  0  0  0
 17 22  2  0  0  0  0
 17 18  1  0  0  0  0
 18 19  2  0  0  0  0
 18 42  1  0  0  0  0
 19 20  1  0  0  0  0
 19 43  1  0  0  0  0
 20 21  2  0  0  0  0
 20 44  1  0  0  0  0
 21 22  1  0  0  0  0
 21 45  1  0  0  0  0
M  END
> <s_m_source_file>
AV-unprocessed.smi

> <i_m_source_file_index>
1272

> <i_lp_mmshare_version>
43012

> <i_f3d_flags>
0

> <s_epik_input>
W2NIXTFbY0hdW2NIXVtjSF1jKGMxMiluKFtDSDJdW0NIM10pYyg9TyluMltDSDJdW0NASF0oW09IXSlbQ0gyXU4zW0NIMl1bQ0gyXU9bQ0gyXVtDSDJdMw==

> <s_epik_cmdline>
J2VwaWtfcHl0aG9uJywgJy1waCcsICc3LjAnLCAnLXRuJywgJzgnLCAnLW1hJywgJzIwMCcsICctbWV0YWxfYmluZGluZycsICctaW1hZScsICc8aW5maWxlLm1hZT4nLCAnLW9tYWUnLCAnPG91dGZpbGUubWFlPic=

> <r_epik_Ionization_Penalty>
0.214359

> <r_epik_Ionization_Penalty_Charging>
2.31431e-09

> <r_epik_Ionization_Penalty_Neutral>
0.214359

> <r_epik_State_Penalty>
0.204533

> <r_epik_Charging_Adjusted_Penalty>
0.204533

> <i_epik_Tot_Q>
0

> <i_epik_Tot_abs_Q>
0

> <r_epik_Metal_State_Penalty>
0.204533

> <b_epik_Metal_Only>
0

> <s_lp_Force_Field>
OPLS_2005

> <r_lp_Energy>
61.4886

> <b_lp_Chiralities_Consistent>
1

> <s_lp_Variant>
AV-unprocessed.smi:1272-1

> <Gold.Version>
5.8.1

> <Gold.Id.Protein>
6NUR|6NUR_protein|mol2

> <Gold.PLP.Fitness>
54.6628

> <Gold.PLP.PLP>
-49.8727

> <Gold.PLP.part.hbond>
-2.0000

> <Gold.PLP.part.metal>
0.0000

> <Gold.PLP.part.buried>
-8.3279

> <Gold.PLP.part.nonpolar>
-40.1297

> <Gold.PLP.part.repulsive>
1.0345

> <Gold.PLP.ligand.clash>
0.0000

> <Gold.PLP.ligand.torsion>
0.6527

> <Gold.PLP.Chemscore.Hbond>
2.0000

> <Gold.PLP.Chemscore.CHOScore>
0.0000

> <Gold.PLP.Chemscore.Metal>
0.0000

> <Gold.Chemscore.Hbonds>
donor molecule, donor type, donor heavy atom, donor atom, acceptor molecule, acceptor atom, score
      P1  H  7989  7998       L1     9  1.00
      P1  H  7997  8008       L1     5  1.00

> <Gold.PLP.Chemscore.Internal.Correction>
0.0955

> <Gold.Rescore>
     Score         DG    S(hbond)    S(metal)    S(lipo)     H(rot)  DE(clash)    DE(int)     intcor
     17.61     -19.76       1.74        0.00     119.27       2.14       0.15       2.01       ----

> <Gold.Chemscore.Fitness>
17.6066

> <Gold.Chemscore.DG>
-19.7637

> <Gold.Chemscore.ZeroCoef>
-5.4800

> <Gold.Chemscore.Hbond>
1.7376

> <Gold.Chemscore.Metal>
0.0000

> <Gold.Chemscore.Lipo>
119.2727

> <Gold.Chemscore.Internal_Hbond>
0.0000

> <Gold.Chemscore.DEClash>
0.1450

> <Gold.Chemscore.DEInternal>
2.0122

> <Gold.Chemscore.Rot>
2.1386

> <Gold.Chemscore.Internal.Correction>
   9.000000E+99

> <Gold.Chemscore.Hbonds>
donor molecule, donor type, donor heavy atom, donor atom, acceptor molecule, acceptor atom, score
      P1  H  7989  7998       L1     9  0.38
      P1  H  7997  8008       L1     5  0.60

> <Gold.Chemscore.Hbond.Weighted>
-5.8037

> <Gold.Chemscore.Metal.Weighted>
-0.0000

> <Gold.Chemscore.Lipo.Weighted>
-13.9549

> <Gold.Chemscore.Internal_Hbond.Weighted>
0.0000

> <Gold.Chemscore.DEClash.Weighted>
0.1450

> <Gold.Chemscore.DEInternal.Weighted>
2.0122

> <Gold.Chemscore.Rot.Weighted>
5.4749

> <Gold.Chemscore.Internal.Correction.Weighted>
   9.000000E+99

> <Gold.Protein.RotatedTorsions>
[ 6907 6896 6895 6894 ] final  133.99 input  -60.11 | X-H torsion
[ 7974 7965 7964 7962 ] final -125.62 input  175.53 | X-H torsion
[ 8008 7997 7996 7995 ] final  -60.00 input   59.86 | X-H torsion
[ 10167 10162 10161 10158 ] final -117.20 input  -65.29 | X-H torsion
[ 10718 10713 10712 10709 ] final   15.79 input   66.30 | X-H torsion
[ 10763 10752 10751 10750 ] final -121.20 input  -60.55 | X-H torsion
[ 11005 11000 10999 10996 ] final  167.43 input  -57.11 | X-H torsion

> <Gold.Protein.ActiveResidues>
 VAL166  LYS551  ARG553  GLY616  TRP617  ASP618  TYR619  PRO620  LYS621  CYS622 
 ASP623  PHE694  ASN695  SER759  ASP760  ASP761  ALA762  ILE779  LEU786  VAL792 
 PHE793  MET794  SER795  GLU796  ALA797  LYS798  CYS799  TRP800  GLU811  SER814 

> <Gold.Protein.RotatedAtoms>
  152.3160  133.5803  159.5712 H   0  0  0  0  0  0  0  0  0  0  0  0  # atno 6907 bound_to 6896
  150.7347  134.0081  159.3669 H   0  0  0  0  0  0  0  0  0  0  0  0  # atno 6908 bound_to 6896
  151.7970  135.0720  160.0446 H   0  0  0  0  0  0  0  0  0  0  0  0  # atno 6909 bound_to 6896
  144.9957  140.7774  143.4527 H   0  0  0  0  0  0  0  0  0  0  0  0  # atno 7974 bound_to 7965
  154.4378  140.1049  156.6205 H   0  0  0  0  0  0  0  0  0  0  0  0  # atno 8008 bound_to 7997
  155.5713  140.3489  155.4497 H   0  0  0  0  0  0  0  0  0  0  0  0  # atno 8009 bound_to 7997
  156.0387  140.1277  157.0168 H   0  0  0  0  0  0  0  0  0  0  0  0  # atno 8010 bound_to 7997
  140.0710  143.4878  152.1980 H   0  0  0  0  0  0  0  0  0  0  0  0  # atno 10167 bound_to 10162
  157.0585  130.6299  149.5781 H   0  0  0  0  0  0  0  0  0  0  0  0  # atno 10718 bound_to 10713
  154.8662  135.4176  154.2581 H   0  0  0  0  0  0  0  0  0  0  0  0  # atno 10763 bound_to 10752
  153.3515  135.6999  153.6791 H   0  0  0  0  0  0  0  0  0  0  0  0  # atno 10764 bound_to 10752
  153.5728  135.3588  155.2817 H   0  0  0  0  0  0  0  0  0  0  0  0  # atno 10765 bound_to 10752
  140.2767  134.7783  157.3723 H   0  0  0  0  0  0  0  0  0  0  0  0  # atno 11005 bound_to 11000
  145.2223  139.2153  143.5086 LP  0  0  0  0  0  0  0  0  0  0  0  0  # atno 17320 bound_to 7965
  146.3441  140.2083  142.8590 LP  0  0  0  0  0  0  0  0  0  0  0  0  # atno 17321 bound_to 7965
  139.5836  144.7521  151.3576 LP  0  0  0  0  0  0  0  0  0  0  0  0  # atno 17342 bound_to 10162
  140.7126  143.7351  150.7594 LP  0  0  0  0  0  0  0  0  0  0  0  0  # atno 17343 bound_to 10162
  155.9985  130.5060  150.7575 LP  0  0  0  0  0  0  0  0  0  0  0  0  # atno 17370 bound_to 10713
  157.4973  131.0916  151.0356 LP  0  0  0  0  0  0  0  0  0  0  0  0  # atno 17371 bound_to 10713
  140.1322  134.5081  155.8097 LP  0  0  0  0  0  0  0  0  0  0  0  0  # atno 17394 bound_to 11000
  141.2169  133.6794  156.7059 LP  0  0  0  0  0  0  0  0  0  0  0  0  # atno 17395 bound_to 11000

$$$$
