AV-unprocessed.smi:2813|AV-procd|sdf|10837|dock1
  -GOLD-   2272015273D 1   1.00000     0.00000
 Structure written by MMmdl.
 41 42  0  0  0  0  0  0  0  0  1 V2000
  149.8474  136.0240  155.9319 C   0  0  0  0  0  0  0  0  0  0  0  0
  149.8305  137.5360  156.0698 C   0  0  0  0  0  0  0  0  0  0  0  0
  148.9221  138.0474  157.0013 N   0  0  0  0  0  0  0  0  0  0  0  0
  148.8320  139.3248  157.1798 C   0  0  0  0  0  0  0  0  0  0  0  0
  149.6259  140.2284  156.4555 N   0  0  0  0  0  0  0  0  0  0  0  0
  149.4209  141.6563  156.7475 C   0  0  0  0  0  0  0  0  0  0  0  0
  149.9751  142.0489  158.1362 C   0  0  2  0  0  0  0  0  0  0  0  0
  148.9538  142.7004  158.8647 O   0  0  0  0  0  0  0  0  0  0  0  0
  151.1585  143.0238  158.0384 C   0  0  0  0  0  0  0  0  0  0  0  0
  151.2675  143.7283  159.2683 O   0  0  0  0  0  0  0  0  0  0  0  0
  152.0949  143.2191  160.2453 C   0  0  0  0  0  0  0  0  0  0  0  0
  152.0696  143.8605  161.4998 C   0  0  0  0  0  0  0  0  0  0  0  0
  152.8800  143.4058  162.5563 C   0  0  0  0  0  0  0  0  0  0  0  0
  153.7302  142.3008  162.3670 C   0  0  0  0  0  0  0  0  0  0  0  0
  153.7742  141.6469  161.1167 C   0  0  0  0  0  0  0  0  0  0  0  0
  154.6838  140.4491  160.8871 C   0  0  0  0  0  0  0  0  0  0  0  0
  155.5700  140.7337  159.9328 F   0  0  0  0  0  0  0  0  0  0  0  0
  155.3500  140.1093  161.9912 F   0  0  0  0  0  0  0  0  0  0  0  0
  153.9515  139.4069  160.4951 F   0  0  0  0  0  0  0  0  0  0  0  0
  152.9553  142.1072  160.0632 C   0  0  0  0  0  0  0  0  0  0  0  0
  150.5520  139.8138  155.5429 C   0  0  0  0  0  0  0  0  0  0  0  0
  151.2625  140.6152  154.9327 O   0  0  0  0  0  0  0  0  0  0  0  0
  150.6378  138.3577  155.3447 C   0  0  0  0  0  0  0  0  0  0  0  0
  151.6467  137.8576  154.3182 C   0  0  0  0  0  0  0  0  0  0  0  0
  149.5764  135.7313  154.9174 H   0  0  0  0  0  0  0  0  0  0  0  0
  149.1391  135.5540  156.6157 H   0  0  0  0  0  0  0  0  0  0  0  0
  150.8390  135.6303  156.1561 H   0  0  0  0  0  0  0  0  0  0  0  0
  148.1439  139.7746  157.8978 H   0  0  0  0  0  0  0  0  0  0  0  0
  149.9261  142.2359  155.9725 H   0  0  0  0  0  0  0  0  0  0  0  0
  148.3738  141.9514  156.6510 H   0  0  0  0  0  0  0  0  0  0  0  0
  150.2922  141.1689  158.6977 H   0  0  0  0  0  0  0  0  0  0  0  0
  148.4401  142.0467  159.3139 H   0  0  0  0  0  0  0  0  0  0  0  0
  152.0788  142.4789  157.8197 H   0  0  0  0  0  0  0  0  0  0  0  0
  150.9840  143.7356  157.2295 H   0  0  0  0  0  0  0  0  0  0  0  0
  151.4193  144.7092  161.6541 H   0  0  0  0  0  0  0  0  0  0  0  0
  152.8489  143.9051  163.5135 H   0  0  0  0  0  0  0  0  0  0  0  0
  154.3443  141.9624  163.1884 H   0  0  0  0  0  0  0  0  0  0  0  0
  153.0063  141.5875  159.1186 H   0  0  0  0  0  0  0  0  0  0  0  0
  152.6567  138.1432  154.6141 H   0  0  0  0  0  0  0  0  0  0  0  0
  151.4418  138.3000  153.3427 H   0  0  0  0  0  0  0  0  0  0  0  0
  151.6340  136.7759  154.1947 H   0  0  0  0  0  0  0  0  0  0  0  0
  1  2  1  0  0  0  0
  1 25  1  0  0  0  0
  1 26  1  0  0  0  0
  1 27  1  0  0  0  0
  2 23  2  0  0  0  0
  2  3  1  0  0  0  0
  3  4  2  0  0  0  0
  4  5  1  0  0  0  0
  4 28  1  0  0  0  0
  5  6  1  0  0  0  0
  5 21  1  0  0  0  0
  6  7  1  0  0  0  0
  6 29  1  0  0  0  0
  6 30  1  0  0  0  0
  7  8  1  0  0  0  0
  7  9  1  0  0  0  0
  7 31  1  0  0  0  0
  8 32  1  0  0  0  0
  9 10  1  0  0  0  0
  9 33  1  0  0  0  0
  9 34  1  0  0  0  0
 10 11  1  0  0  0  0
 11 20  1  0  0  0  0
 11 12  2  0  0  0  0
 12 13  1  0  0  0  0
 12 35  1  0  0  0  0
 13 14  2  0  0  0  0
 13 36  1  0  0  0  0
 14 15  1  0  0  0  0
 14 37  1  0  0  0  0
 15 16  1  0  0  0  0
 15 20  2  0  0  0  0
 16 17  1  0  0  0  0
 16 18  1  0  0  0  0
 16 19  1  0  0  0  0
 20 38  1  0  0  0  0
 21 22  2  0  0  0  0
 21 23  1  0  0  0  0
 23 24  1  0  0  0  0
 24 39  1  0  0  0  0
 24 40  1  0  0  0  0
 24 41  1  0  0  0  0
M  END
> <s_m_source_file>
AV-unprocessed.smi

> <i_m_source_file_index>
2813

> <i_lp_mmshare_version>
43012

> <i_f3d_flags>
0

> <s_epik_input>
W0NIM11jMW5bY0hdbihjKD1PKWMxW0NIM10pW0NIMl1bQ0BIXShbT0hdKVtDSDJdT2MyW2NIXVtjSF1bY0hdYyhDKEYpKEYpRilbY0hdMg==

> <s_epik_cmdline>
J2VwaWtfcHl0aG9uJywgJy1waCcsICc3LjAnLCAnLXRuJywgJzgnLCAnLW1hJywgJzIwMCcsICctbWV0YWxfYmluZGluZycsICctaW1hZScsICc8aW5maWxlLm1hZT4nLCAnLW9tYWUnLCAnPG91dGZpbGUubWFlPic=

> <r_lp_tautomer_probability>
1

> <r_epik_Ionization_Penalty>
3.72236e-05

> <r_epik_Ionization_Penalty_Charging>
8.38864e-08

> <r_epik_Ionization_Penalty_Neutral>
3.71397e-05

> <r_epik_State_Penalty>
-0

> <r_epik_Charging_Adjusted_Penalty>
8.38864e-08

> <i_epik_Tot_Q>
0

> <i_epik_Tot_abs_Q>
0

> <r_epik_Metal_State_Penalty>
-0

> <b_epik_Metal_Only>
0

> <s_lp_Force_Field>
OPLS_2005

> <r_lp_Energy>
22.8491

> <b_lp_Chiralities_Consistent>
1

> <s_lp_Variant>
AV-unprocessed.smi:2813-1

> <Gold.Version>
5.8.1

> <Gold.Id.Protein>
6NUR|6NUR_protein|mol2

> <Gold.PLP.Fitness>
47.2208

> <Gold.PLP.PLP>
-46.7833

> <Gold.PLP.part.hbond>
-1.4701

> <Gold.PLP.part.metal>
0.0000

> <Gold.PLP.part.buried>
-4.7481

> <Gold.PLP.part.nonpolar>
-40.9369

> <Gold.PLP.part.repulsive>
0.1138

> <Gold.PLP.ligand.clash>
0.0000

> <Gold.PLP.ligand.torsion>
1.3544

> <Gold.PLP.Chemscore.Hbond>
0.9600

> <Gold.PLP.Chemscore.CHOScore>
0.0000

> <Gold.PLP.Chemscore.Metal>
0.0000

> <Gold.Chemscore.Hbonds>
donor molecule, donor type, donor heavy atom, donor atom, acceptor molecule, acceptor atom, score
      P1  H  7989  7998       L1    22  0.83

> <Gold.PLP.Chemscore.Internal.Correction>
0.2661

> <Gold.Rescore>
     Score         DG    S(hbond)    S(metal)    S(lipo)     H(rot)  DE(clash)    DE(int)     intcor
     13.71     -14.95       0.96        0.00     113.39       2.73       0.05       1.19       ----

> <Gold.Chemscore.Fitness>
13.7097

> <Gold.Chemscore.DG>
-14.9513

> <Gold.Chemscore.ZeroCoef>
-5.4800

> <Gold.Chemscore.Hbond>
0.9560

> <Gold.Chemscore.Metal>
0.0000

> <Gold.Chemscore.Lipo>
113.3924

> <Gold.Chemscore.Internal_Hbond>
0.0000

> <Gold.Chemscore.DEClash>
0.0480

> <Gold.Chemscore.DEInternal>
1.1936

> <Gold.Chemscore.Rot>
2.7300

> <Gold.Chemscore.Internal.Correction>
   9.000000E+99

> <Gold.Chemscore.Hbonds>
donor molecule, donor type, donor heavy atom, donor atom, acceptor molecule, acceptor atom, score
      P1  H  7989  7998       L1    22  0.79

> <Gold.Chemscore.Hbond.Weighted>
-3.1931

> <Gold.Chemscore.Metal.Weighted>
-0.0000

> <Gold.Chemscore.Lipo.Weighted>
-13.2669

> <Gold.Chemscore.Internal_Hbond.Weighted>
0.0000

> <Gold.Chemscore.DEClash.Weighted>
0.0480

> <Gold.Chemscore.DEInternal.Weighted>
1.1936

> <Gold.Chemscore.Rot.Weighted>
6.9888

> <Gold.Chemscore.Internal.Correction.Weighted>
   9.000000E+99

> <Gold.Protein.RotatedTorsions>
[ 6907 6896 6895 6894 ] final  -19.75 input  -60.11 | X-H torsion
[ 7974 7965 7964 7962 ] final -135.98 input  175.53 | X-H torsion
[ 8008 7997 7996 7995 ] final -109.97 input   59.86 | X-H torsion
[ 10167 10162 10161 10158 ] final -179.06 input  -65.29 | X-H torsion
[ 10718 10713 10712 10709 ] final  -93.44 input   66.30 | X-H torsion
[ 10763 10752 10751 10750 ] final -149.45 input  -60.55 | X-H torsion
[ 11005 11000 10999 10996 ] final -162.15 input  -57.11 | X-H torsion

> <Gold.Protein.ActiveResidues>
 VAL166  LYS551  ARG553  GLY616  TRP617  ASP618  TYR619  PRO620  LYS621  CYS622 
 ASP623  PHE694  ASN695  SER759  ASP760  ASP761  ALA762  ILE779  LEU786  VAL792 
 PHE793  MET794  SER795  GLU796  ALA797  LYS798  CYS799  TRP800  GLU811  SER814 

> <Gold.Protein.RotatedAtoms>
  151.2584  135.0646  159.9088 H   0  0  0  0  0  0  0  0  0  0  0  0  # atno 6907 bound_to 6896
  152.5370  134.0257  159.8012 H   0  0  0  0  0  0  0  0  0  0  0  0  # atno 6908 bound_to 6896
  151.0476  133.5602  159.2676 H   0  0  0  0  0  0  0  0  0  0  0  0  # atno 6909 bound_to 6896
  144.8967  140.6716  143.5111 H   0  0  0  0  0  0  0  0  0  0  0  0  # atno 7974 bound_to 7965
  154.9674  140.0398  157.2218 H   0  0  0  0  0  0  0  0  0  0  0  0  # atno 8008 bound_to 7997
  154.7833  140.2822  155.6025 H   0  0  0  0  0  0  0  0  0  0  0  0  # atno 8009 bound_to 7997
  156.2939  140.2587  156.2663 H   0  0  0  0  0  0  0  0  0  0  0  0  # atno 8010 bound_to 7997
  139.5403  144.2380  152.0882 H   0  0  0  0  0  0  0  0  0  0  0  0  # atno 10167 bound_to 10162
  156.0013  130.5027  150.5776 H   0  0  0  0  0  0  0  0  0  0  0  0  # atno 10718 bound_to 10713
  154.8176  135.3309  154.7131 H   0  0  0  0  0  0  0  0  0  0  0  0  # atno 10763 bound_to 10752
  153.7769  135.6921  153.4900 H   0  0  0  0  0  0  0  0  0  0  0  0  # atno 10764 bound_to 10752
  153.2006  135.4517  155.0210 H   0  0  0  0  0  0  0  0  0  0  0  0  # atno 10765 bound_to 10752
  140.6125  134.4835  157.5216 H   0  0  0  0  0  0  0  0  0  0  0  0  # atno 11005 bound_to 11000
  145.3688  139.1663  143.4343 LP  0  0  0  0  0  0  0  0  0  0  0  0  # atno 17320 bound_to 7965
  146.3085  140.3758  142.8679 LP  0  0  0  0  0  0  0  0  0  0  0  0  # atno 17321 bound_to 7965
  140.1858  144.4800  150.6504 LP  0  0  0  0  0  0  0  0  0  0  0  0  # atno 17342 bound_to 10162
  140.6630  143.2258  151.5809 LP  0  0  0  0  0  0  0  0  0  0  0  0  # atno 17343 bound_to 10162
  157.3661  131.0758  151.1596 LP  0  0  0  0  0  0  0  0  0  0  0  0  # atno 17370 bound_to 10713
  157.2365  130.6549  149.5871 LP  0  0  0  0  0  0  0  0  0  0  0  0  # atno 17371 bound_to 10713
  139.9186  134.8194  156.1283 LP  0  0  0  0  0  0  0  0  0  0  0  0  # atno 17394 bound_to 11000
  141.0798  133.6759  156.2313 LP  0  0  0  0  0  0  0  0  0  0  0  0  # atno 17395 bound_to 11000

$$$$
