AV-unprocessed.smi:1010|AV-procd|sdf|4415|dock2
  -GOLD-   22720 2363D 1   1.00000     0.00000
 Structure written by MMmdl.
 55 57  0  0  0  0  0  0  0  0  2 V2000
  147.4127  139.0532  155.8774 C   0  0  0  0  0  0  0  0  0  0  0  0
  148.4817  139.3174  154.8812 N   0  3  0  0  0  0  0  0  0  0  0  0
  148.4210  140.7321  154.4280 C   0  0  0  0  0  0  0  0  0  0  0  0
  149.8647  138.8056  155.2135 C   0  0  0  0  0  0  0  0  0  0  0  0
  149.7267  137.3577  155.7897 C   0  0  0  0  0  0  0  0  0  0  0  0
  149.1660  136.3984  154.8389 N   0  0  0  0  0  0  0  0  0  0  0  0
  149.0588  135.0753  155.0198 C   0  0  0  0  0  0  0  0  0  0  0  0
  149.4333  134.4944  156.0379 O   0  0  0  0  0  0  0  0  0  0  0  0
  148.5255  134.4836  153.9395 N   0  0  0  0  0  0  0  0  0  0  0  0
  148.3792  133.0912  153.6886 C   0  0  0  0  0  0  0  0  0  0  0  0
  149.2260  132.1349  154.3000 C   0  0  0  0  0  0  0  0  0  0  0  0
  148.9969  130.7669  154.0730 C   0  0  0  0  0  0  0  0  0  0  0  0
  147.9164  130.4010  153.2532 C   0  0  0  0  0  0  0  0  0  0  0  0
  147.0931  131.2988  152.6758 N   0  0  0  0  0  0  0  0  0  0  0  0
  147.3088  132.6222  152.8746 C   0  0  0  0  0  0  0  0  0  0  0  0
  146.4240  133.5188  152.2326 N   0  0  0  0  0  0  0  0  0  0  0  0
  145.6657  134.4933  153.0100 C   0  0  0  0  0  0  0  0  0  0  0  0
  144.5718  134.9850  152.0665 C   0  0  0  0  0  0  0  0  0  0  0  0
  144.2349  133.7244  151.2761 C   0  0  0  0  0  0  0  0  0  0  0  0
  145.5796  132.9977  151.1612 C   0  0  0  0  0  0  0  0  0  0  0  0
  150.7726  138.7941  153.9520 C   0  0  0  0  0  0  0  0  0  0  0  0
  152.2505  138.4887  154.2698 C   0  0  0  0  0  0  0  0  0  0  0  0
  152.7513  139.3949  155.2438 O   0  0  0  0  0  0  0  0  0  0  0  0
  152.0561  139.3222  156.4813 C   0  0  0  0  0  0  0  0  0  0  0  0
  150.5854  139.7150  156.2583 C   0  0  0  0  0  0  0  0  0  0  0  0
  147.6686  139.4643  156.8544 H   0  0  0  0  0  0  0  0  0  0  0  0
  147.2142  137.9866  155.9795 H   0  0  0  0  0  0  0  0  0  0  0  0
  146.4718  139.5063  155.5628 H   0  0  0  0  0  0  0  0  0  0  0  0
  148.5651  141.4234  155.2590 H   0  0  0  0  0  0  0  0  0  0  0  0
  147.4444  140.9436  153.9915 H   0  0  0  0  0  0  0  0  0  0  0  0
  149.1604  140.9601  153.6626 H   0  0  0  0  0  0  0  0  0  0  0  0
  150.6761  136.9852  156.1737 H   0  0  0  0  0  0  0  0  0  0  0  0
  149.0674  137.3389  156.6547 H   0  0  0  0  0  0  0  0  0  0  0  0
  148.8255  136.7794  153.9676 H   0  0  0  0  0  0  0  0  0  0  0  0
  148.3342  135.0843  153.1507 H   0  0  0  0  0  0  0  0  0  0  0  0
  150.0313  132.4276  154.9564 H   0  0  0  0  0  0  0  0  0  0  0  0
  149.6261  130.0163  154.5278 H   0  0  0  0  0  0  0  0  0  0  0  0
  147.7027  129.3602  153.0602 H   0  0  0  0  0  0  0  0  0  0  0  0
  145.2073  134.0231  153.8808 H   0  0  0  0  0  0  0  0  0  0  0  0
  146.3018  135.3090  153.3549 H   0  0  0  0  0  0  0  0  0  0  0  0
  143.7135  135.4039  152.5922 H   0  0  0  0  0  0  0  0  0  0  0  0
  144.9690  135.7497  151.3976 H   0  0  0  0  0  0  0  0  0  0  0  0
  143.5346  133.1130  151.8470 H   0  0  0  0  0  0  0  0  0  0  0  0
  143.7826  133.9363  150.3070 H   0  0  0  0  0  0  0  0  0  0  0  0
  146.0452  133.2294  150.2030 H   0  0  0  0  0  0  0  0  0  0  0  0
  145.4543  131.9159  151.2255 H   0  0  0  0  0  0  0  0  0  0  0  0
  150.4196  138.0647  153.2227 H   0  0  0  0  0  0  0  0  0  0  0  0
  150.7270  139.7661  153.4594 H   0  0  0  0  0  0  0  0  0  0  0  0
  152.3858  137.4618  154.6097 H   0  0  0  0  0  0  0  0  0  0  0  0
  152.8491  138.5916  153.3647 H   0  0  0  0  0  0  0  0  0  0  0  0
  152.1578  138.3319  156.9249 H   0  0  0  0  0  0  0  0  0  0  0  0
  152.5218  140.0203  157.1771 H   0  0  0  0  0  0  0  0  0  0  0  0
  150.6181  140.7488  155.9165 H   0  0  0  0  0  0  0  0  0  0  0  0
  150.0516  139.7283  157.2090 H   0  0  0  0  0  0  0  0  0  0  0  0
  148.2063  138.7784  154.0720 H   0  0  0  0  0  0  0  0  0  0  0  0
  1  2  1  0  0  0  0
  1 26  1  0  0  0  0
  1 27  1  0  0  0  0
  1 28  1  0  0  0  0
  2  3  1  0  0  0  0
  2  4  1  0  0  0  0
  2 55  1  0  0  0  0
  3 29  1  0  0  0  0
  3 30  1  0  0  0  0
  3 31  1  0  0  0  0
  4 25  1  0  0  0  0
  4  5  1  0  0  0  0
  4 21  1  0  0  0  0
  5  6  1  0  0  0  0
  5 32  1  0  0  0  0
  5 33  1  0  0  0  0
  6  7  1  0  0  0  0
  6 34  1  0  0  0  0
  7  8  2  0  0  0  0
  7  9  1  0  0  0  0
  9 10  1  0  0  0  0
  9 35  1  0  0  0  0
 10 15  1  0  0  0  0
 10 11  2  0  0  0  0
 11 12  1  0  0  0  0
 11 36  1  0  0  0  0
 12 13  2  0  0  0  0
 12 37  1  0  0  0  0
 13 14  1  0  0  0  0
 13 38  1  0  0  0  0
 14 15  2  0  0  0  0
 15 16  1  0  0  0  0
 16 20  1  0  0  0  0
 16 17  1  0  0  0  0
 17 18  1  0  0  0  0
 17 39  1  0  0  0  0
 17 40  1  0  0  0  0
 18 19  1  0  0  0  0
 18 41  1  0  0  0  0
 18 42  1  0  0  0  0
 19 20  1  0  0  0  0
 19 43  1  0  0  0  0
 19 44  1  0  0  0  0
 20 45  1  0  0  0  0
 20 46  1  0  0  0  0
 21 22  1  0  0  0  0
 21 47  1  0  0  0  0
 21 48  1  0  0  0  0
 22 23  1  0  0  0  0
 22 49  1  0  0  0  0
 22 50  1  0  0  0  0
 23 24  1  0  0  0  0
 24 25  1  0  0  0  0
 24 51  1  0  0  0  0
 24 52  1  0  0  0  0
 25 53  1  0  0  0  0
 25 54  1  0  0  0  0
M  CHG  1   2   1
M  END
> <s_m_source_file>
AV-unprocessed.smi

> <i_m_source_file_index>
1010

> <i_lp_mmshare_version>
43012

> <i_f3d_flags>
0

> <s_epik_input>
W0NIMl0xW0NIMl1PW0NIMl1bQ0gyXUMxKE4oW0NIM10pW0NIM10pW0NIMl1bTkhdQyg9TylbTkhdYzJbY0hdW2NIXVtjSF1uYzJOM1tDSDJdW0NIMl1bQ0gyXVtDSDJdMw==

> <s_epik_cmdline>
J2VwaWtfcHl0aG9uJywgJy1waCcsICc3LjAnLCAnLXRuJywgJzgnLCAnLW1hJywgJzIwMCcsICctbWV0YWxfYmluZGluZycsICctaW1hZScsICc8aW5maWxlLm1hZT4nLCAnLW9tYWUnLCAnPG91dGZpbGUubWFlPic=

> <r_lp_tautomer_probability>
1

> <r_epik_Ionization_Penalty>
0.0977718

> <r_epik_Ionization_Penalty_Charging>
0.0128317

> <r_epik_Ionization_Penalty_Neutral>
0.0849401

> <r_epik_State_Penalty>
0.0837778

> <r_epik_Charging_Adjusted_Penalty>
0.0966095

> <i_epik_Tot_Q>
1

> <i_epik_Tot_abs_Q>
1

> <r_epik_Metal_State_Penalty>
0.0755623

> <b_epik_Metal_Only>
0

> <s_lp_Force_Field>
OPLS_2005

> <r_lp_Energy>
58.4563

> <b_lp_Chiralities_Consistent>
1

> <s_lp_Variant>
AV-unprocessed.smi:1010-1

> <Gold.Version>
5.8.1

> <Gold.Id.Protein>
6NUR|6NUR_protein|mol2

> <Gold.PLP.Fitness>
44.4967

> <Gold.PLP.PLP>
-36.8597

> <Gold.PLP.part.hbond>
-3.0000

> <Gold.PLP.part.metal>
0.0000

> <Gold.PLP.part.buried>
-4.5325

> <Gold.PLP.part.nonpolar>
-30.4362

> <Gold.PLP.part.repulsive>
1.8494

> <Gold.PLP.ligand.clash>
0.0000

> <Gold.PLP.ligand.torsion>
0.6073

> <Gold.PLP.Chemscore.Hbond>
2.7977

> <Gold.PLP.Chemscore.CHOScore>
0.0000

> <Gold.PLP.Chemscore.Metal>
0.0000

> <Gold.Chemscore.Hbonds>
donor molecule, donor type, donor heavy atom, donor atom, acceptor molecule, acceptor atom, score
      L1  H     6    34       P1  7948  0.46
      L1  H     9    35       P1  7948  0.96
      P1  H  7997  8008       L1    23  0.25

> <Gold.PLP.Chemscore.Internal.Correction>
0.4586

> <Gold.Rescore>
     Score         DG    S(hbond)    S(metal)    S(lipo)     H(rot)  DE(clash)    DE(int)     intcor
     16.07     -20.20       2.54        0.00      88.38       1.60       1.77       2.36       ----

> <Gold.Chemscore.Fitness>
16.0691

> <Gold.Chemscore.DG>
-20.1987

> <Gold.Chemscore.ZeroCoef>
-5.4800

> <Gold.Chemscore.Hbond>
2.5399

> <Gold.Chemscore.Metal>
0.0000

> <Gold.Chemscore.Lipo>
88.3752

> <Gold.Chemscore.Internal_Hbond>
0.0000

> <Gold.Chemscore.DEClash>
1.7657

> <Gold.Chemscore.DEInternal>
2.3640

> <Gold.Chemscore.Rot>
1.6033

> <Gold.Chemscore.Internal.Correction>
   9.000000E+99

> <Gold.Chemscore.Hbonds>
donor molecule, donor type, donor heavy atom, donor atom, acceptor molecule, acceptor atom, score
      L1  H     6    34       P1  7948  0.45
      L1  H     9    35       P1  7948  0.84

> <Gold.Chemscore.Hbond.Weighted>
-8.4834

> <Gold.Chemscore.Metal.Weighted>
-0.0000

> <Gold.Chemscore.Lipo.Weighted>
-10.3399

> <Gold.Chemscore.Internal_Hbond.Weighted>
0.0000

> <Gold.Chemscore.DEClash.Weighted>
1.7657

> <Gold.Chemscore.DEInternal.Weighted>
2.3640

> <Gold.Chemscore.Rot.Weighted>
4.1046

> <Gold.Chemscore.Internal.Correction.Weighted>
   9.000000E+99

> <Gold.Protein.RotatedTorsions>
[ 6907 6896 6895 6894 ] final   25.45 input  -60.11 | X-H torsion
[ 7974 7965 7964 7962 ] final -111.69 input  175.53 | X-H torsion
[ 8008 7997 7996 7995 ] final  -46.81 input   59.86 | X-H torsion
[ 10167 10162 10161 10158 ] final    4.73 input  -65.29 | X-H torsion
[ 10718 10713 10712 10709 ] final  147.22 input   66.30 | X-H torsion
[ 10763 10752 10751 10750 ] final -171.44 input  -60.55 | X-H torsion
[ 11005 11000 10999 10996 ] final -158.02 input  -57.11 | X-H torsion

> <Gold.Protein.ActiveResidues>
 VAL166  LYS551  ARG553  GLY616  TRP617  ASP618  TYR619  PRO620  LYS621  CYS622 
 ASP623  PHE694  ASN695  SER759  ASP760  ASP761  ALA762  ILE779  LEU786  VAL792 
 PHE793  MET794  SER795  GLU796  ALA797  LYS798  CYS799  TRP800  GLU811  SER814 

> <Gold.Protein.RotatedAtoms>
  151.9728  135.0068  160.0553 H   0  0  0  0  0  0  0  0  0  0  0  0  # atno 6907 bound_to 6896
  152.1768  133.4675  159.4945 H   0  0  0  0  0  0  0  0  0  0  0  0  # atno 6908 bound_to 6896
  150.6910  134.1801  159.4288 H   0  0  0  0  0  0  0  0  0  0  0  0  # atno 6909 bound_to 6896
  145.1530  140.8839  143.3635 H   0  0  0  0  0  0  0  0  0  0  0  0  # atno 7974 bound_to 7965
  154.4010  140.1362  156.4073 H   0  0  0  0  0  0  0  0  0  0  0  0  # atno 8008 bound_to 7997
  155.7768  140.3482  155.5255 H   0  0  0  0  0  0  0  0  0  0  0  0  # atno 8009 bound_to 7997
  155.8713  140.0972  157.1538 H   0  0  0  0  0  0  0  0  0  0  0  0  # atno 8010 bound_to 7997
  140.6519  143.7523  150.7589 H   0  0  0  0  0  0  0  0  0  0  0  0  # atno 10167 bound_to 10162
  157.3236  131.0908  151.1220 H   0  0  0  0  0  0  0  0  0  0  0  0  # atno 10718 bound_to 10713
  154.6304  135.2886  155.0222 H   0  0  0  0  0  0  0  0  0  0  0  0  # atno 10763 bound_to 10752
  154.1385  135.6522  153.4941 H   0  0  0  0  0  0  0  0  0  0  0  0  # atno 10764 bound_to 10752
  153.0277  135.5327  154.7130 H   0  0  0  0  0  0  0  0  0  0  0  0  # atno 10765 bound_to 10752
  140.6582  134.4378  157.5234 H   0  0  0  0  0  0  0  0  0  0  0  0  # atno 11005 bound_to 11000
  145.0410  139.3260  143.5976 LP  0  0  0  0  0  0  0  0  0  0  0  0  # atno 17320 bound_to 7965
  146.3492  139.9784  142.8698 LP  0  0  0  0  0  0  0  0  0  0  0  0  # atno 17321 bound_to 7965
  140.1175  143.4642  152.2333 LP  0  0  0  0  0  0  0  0  0  0  0  0  # atno 17342 bound_to 10162
  139.5735  144.7475  151.3826 LP  0  0  0  0  0  0  0  0  0  0  0  0  # atno 17343 bound_to 10162
  157.2495  130.6607  149.5925 LP  0  0  0  0  0  0  0  0  0  0  0  0  # atno 17370 bound_to 10713
  155.9688  130.4543  150.5843 LP  0  0  0  0  0  0  0  0  0  0  0  0  # atno 17371 bound_to 10713
  139.9022  134.8530  156.1849 LP  0  0  0  0  0  0  0  0  0  0  0  0  # atno 17394 bound_to 11000
  141.0485  133.6901  156.1728 LP  0  0  0  0  0  0  0  0  0  0  0  0  # atno 17395 bound_to 11000

$$$$
