#       Name:                AV-unprocessed.smi:946
#       Creating user name   scv26
#       Creation time:       Fri Mar 27 02:14:32 2020


#       File generated by GOLD software.
#

@<TRIPOS>MOLECULE
AV-unprocessed.smi:946
    49    50     1
SMALL
NO_CHARGES


@<TRIPOS>ATOM
      1 ****        -1.5225  -2.6383  -2.3139 C.3            1 S1                 0.0000
      2 ****        -1.0878  -1.9032  -1.0376 C.3            1 S1                 0.0000
      3 ****         0.3367  -1.9101  -1.0022 O.3            1 S1                 0.0000
      4 ****         0.9186  -1.5495   0.2455 C.3            1 S1                 0.0000
      5 ****         2.4449  -1.6489   0.1232 C.3            1 S1                 0.0000
      6 ****         3.1386  -1.6036   1.4988 C.3            1 S1                 0.0000
      7 ****         4.6627  -1.6202   1.3340 C.3            1 S1                 0.0000
      8 ****         5.0918  -0.5007   0.3796 C.3            1 S1                 0.0000
      9 ****         4.2951  -0.5809  -0.9323 C.3            1 S1                 0.0000
     10 ****         2.8986  -0.5432  -0.6551 O.3            1 S1                 0.0000
     11 ****        -1.6123  -0.4586  -1.0212 C.2            1 S1                 0.0000
     12 ****        -1.3428   0.2976  -1.9550 O.2            1 S1                 0.0000
     13 ****        -2.3434  -0.1152   0.0559 N.am           1 S1                 0.0000
     14 ****        -2.9311   1.1420   0.3551 C.ar           1 S1                 0.0000
     15 ****        -3.7052   1.1766   1.5358 C.ar           1 S1                 0.0000
     16 ****        -4.3257   2.3801   1.9208 C.ar           1 S1                 0.0000
     17 ****        -4.1539   3.5211   1.1173 C.ar           1 S1                 0.0000
     18 ****        -3.3632   3.4070  -0.0460 C.ar           1 S1                 0.0000
     19 ****        -3.1206   4.5946  -0.9669 C.3            1 S1                 0.0000
     20 ****        -3.5643   4.3123  -2.1922 F              1 S1                 0.0000
     21 ****        -3.7456   5.6904  -0.5338 F              1 S1                 0.0000
     22 ****        -1.8142   4.8530  -1.0310 F              1 S1                 0.0000
     23 ****        -2.7718   2.2476  -0.4129 N.ar           1 S1                 0.0000
     24 ****        -2.6090  -2.6641  -2.4056 H              1 S1                 0.0000
     25 ****        -1.1693  -3.6696  -2.3047 H              1 S1                 0.0000
     26 ****        -1.1214  -2.1621  -3.2096 H              1 S1                 0.0000
     27 ****        -1.4750  -2.4525  -0.1772 H              1 S1                 0.0000
     28 ****         0.6318  -0.5443   0.5569 H              1 S1                 0.0000
     29 ****         0.5638  -2.2420   1.0101 H              1 S1                 0.0000
     30 ****         2.7002  -2.5838  -0.3794 H              1 S1                 0.0000
     31 ****         2.8390  -0.7008   2.0331 H              1 S1                 0.0000
     32 ****         2.8226  -2.4487   2.1111 H              1 S1                 0.0000
     33 ****         5.1523  -1.5049   2.3013 H              1 S1                 0.0000
     34 ****         4.9781  -2.5850   0.9347 H              1 S1                 0.0000
     35 ****         4.9195   0.4679   0.8505 H              1 S1                 0.0000
     36 ****         6.1613  -0.5655   0.1774 H              1 S1                 0.0000
     37 ****         4.5490   0.2609  -1.5766 H              1 S1                 0.0000
     38 ****         4.5421  -1.4892  -1.4841 H              1 S1                 0.0000
     39 ****        -2.4979  -0.8415   0.7396 H              1 S1                 0.0000
     40 ****        -3.8262   0.2915   2.1436 H              1 S1                 0.0000
     41 ****        -4.9227   2.4265   2.8195 H              1 S1                 0.0000
     42 ****        -4.6189   4.4555   1.3947 H              1 S1                 0.0000
     43 ****         0.6655  -1.2665  -1.6934 LP             1 S1                 0.0000
     44 ****         0.6464  -2.8327  -1.2318 LP             1 S1                 0.0000
     45 ****         2.6972   0.2996  -0.1559 LP             1 S1                 0.0000
     46 ****         2.4030  -0.5425  -1.5237 LP             1 S1                 0.0000
     47 ****        -0.7856  -0.0293  -2.7183 LP             1 S1                 0.0000
     48 ****        -1.6812   1.2386  -1.9500 LP             1 S1                 0.0000
     49 ****        -2.2202   2.2061  -1.2460 LP             1 S1                 0.0000
@<TRIPOS>BOND
    1    1    2 1     
    2    1   24 1     
    3    1   25 1     
    4    1   26 1     
    5    2    3 1     
    6    2   11 1     
    7    2   27 1     
    8    3    4 1     
    9    4    5 1     
   10    4   28 1     
   11    4   29 1     
   12    5   10 1     
   13    5    6 1     
   14    5   30 1     
   15    6    7 1     
   16    6   31 1     
   17    6   32 1     
   18    7    8 1     
   19    7   33 1     
   20    7   34 1     
   21    8    9 1     
   22    8   35 1     
   23    8   36 1     
   24    9   10 1     
   25    9   37 1     
   26    9   38 1     
   27   11   12 2     
   28   11   13 am    
   29   13   14 1     
   30   13   39 1     
   31   14   23 ar    
   32   14   15 ar    
   33   15   16 ar    
   34   15   40 1     
   35   16   17 ar    
   36   16   41 1     
   37   17   18 ar    
   38   17   42 1     
   39   18   19 1     
   40   18   23 ar    
   41   19   20 1     
   42   19   21 1     
   43   19   22 1     
   44    3   43 1     
   45    3   44 1     
   46   10   45 1     
   47   10   46 1     
   48   12   47 1     
   49   12   48 1     
   50   23   49 1     
@<TRIPOS>SUBSTRUCTURE
      1 S1             1
@<TRIPOS>SET
LONE_PAIRS      STATIC     ATOMS    <user>   **** ""
7 43 44 45 46 47 48 49
DONOR_HYDROGENS      STATIC     ATOMS    <user>   **** ""
1 39
ATOM$BLUE        STATIC     ATOMS    COLORGROUP SYSTEM
7 43 44 45 46 47 48 49
ATOM$RED        STATIC     ATOMS    COLORGROUP SYSTEM
1 39
