AV-unprocessed.smi:3054|AV-procd|sdf|11639|dock6
  -GOLD-   2272017 33D 1   1.00000     0.00000
 Structure written by MMmdl.
 40 41  0  0  0  0  0  0  0  0  2 V2000
  147.4291  141.8742  154.4085 C   0  0  0  0  0  0  0  0  0  0  0  0
  148.4224  140.7183  154.6055 C   0  0  0  0  0  0  0  0  0  0  0  0
  148.4129  139.6554  153.4729 C   0  0  2  0  0  0  0  0  0  0  0  0
  146.9769  139.2125  153.0928 C   0  0  0  0  0  0  0  0  0  0  0  0
  146.9664  137.9262  152.4030 N   0  0  0  0  0  0  0  0  0  0  0  0
  145.8929  137.1361  152.2676 C   0  0  0  0  0  0  0  0  0  0  0  0
  144.7834  137.4117  152.7237 O   0  0  0  0  0  0  0  0  0  0  0  0
  146.1905  136.0237  151.5770 N   0  0  0  0  0  0  0  0  0  0  0  0
  145.3131  134.9631  151.2397 C   0  0  0  0  0  0  0  0  0  0  0  0
  145.5239  133.5553  151.3238 C   0  0  0  0  0  0  0  0  0  0  0  0
  144.4570  132.8853  150.9115 N   0  0  0  0  0  0  0  0  0  0  0  0
  143.5714  133.8468  150.5667 N   0  0  0  0  0  0  0  0  0  0  0  0
  144.0513  135.1247  150.7504 C   0  0  0  0  0  0  0  0  0  0  0  0
  149.2795  138.4892  153.8170 N   0  3  0  0  0  0  0  0  0  0  0  0
  150.6918  138.8017  154.1267 C   0  0  0  0  0  0  0  0  0  0  0  0
  151.2083  137.5844  154.8846 C   0  0  0  0  0  0  0  0  0  0  0  0
  150.0078  137.1693  155.7269 C   0  0  0  0  0  0  0  0  0  0  0  0
  148.7839  137.6324  154.9246 C   0  0  0  0  0  0  0  0  0  0  0  0
  142.6542  133.6170  150.2115 H   0  0  0  0  0  0  0  0  0  0  0  0
  147.4670  142.5599  155.2553 H   0  0  0  0  0  0  0  0  0  0  0  0
  146.4042  141.5127  154.3250 H   0  0  0  0  0  0  0  0  0  0  0  0
  147.6575  142.4529  153.5135 H   0  0  0  0  0  0  0  0  0  0  0  0
  149.4241  141.1362  154.7093 H   0  0  0  0  0  0  0  0  0  0  0  0
  148.2238  140.2472  155.5678 H   0  0  0  0  0  0  0  0  0  0  0  0
  148.8492  140.1216  152.5877 H   0  0  0  0  0  0  0  0  0  0  0  0
  146.3575  139.0940  153.9819 H   0  0  0  0  0  0  0  0  0  0  0  0
  146.5007  139.9841  152.4855 H   0  0  0  0  0  0  0  0  0  0  0  0
  147.8377  137.6167  151.9978 H   0  0  0  0  0  0  0  0  0  0  0  0
  147.1437  135.9236  151.2600 H   0  0  0  0  0  0  0  0  0  0  0  0
  146.3883  133.0021  151.6592 H   0  0  0  0  0  0  0  0  0  0  0  0
  143.4704  136.0065  150.5234 H   0  0  0  0  0  0  0  0  0  0  0  0
  151.2751  138.9974  153.2263 H   0  0  0  0  0  0  0  0  0  0  0  0
  150.7433  139.6834  154.7681 H   0  0  0  0  0  0  0  0  0  0  0  0
  151.4618  136.7895  154.1818 H   0  0  0  0  0  0  0  0  0  0  0  0
  152.0935  137.8009  155.4836 H   0  0  0  0  0  0  0  0  0  0  0  0
  149.9949  136.0981  155.9311 H   0  0  0  0  0  0  0  0  0  0  0  0
  150.0356  137.6887  156.6859 H   0  0  0  0  0  0  0  0  0  0  0  0
  148.1024  138.1749  155.5815 H   0  0  0  0  0  0  0  0  0  0  0  0
  148.2390  136.7855  154.5064 H   0  0  0  0  0  0  0  0  0  0  0  0
  149.3073  137.8951  153.0004 H   0  0  0  0  0  0  0  0  0  0  0  0
  1  2  1  0  0  0  0
  1 20  1  0  0  0  0
  1 21  1  0  0  0  0
  1 22  1  0  0  0  0
  2  3  1  0  0  0  0
  2 23  1  0  0  0  0
  2 24  1  0  0  0  0
  3  4  1  0  0  0  0
  3 14  1  0  0  0  0
  3 25  1  0  0  0  0
  4  5  1  0  0  0  0
  4 26  1  0  0  0  0
  4 27  1  0  0  0  0
  5  6  1  0  0  0  0
  5 28  1  0  0  0  0
  6  7  2  0  0  0  0
  6  8  1  0  0  0  0
  8  9  1  0  0  0  0
  8 29  1  0  0  0  0
  9 13  2  0  0  0  0
  9 10  1  0  0  0  0
 10 11  2  0  0  0  0
 10 30  1  0  0  0  0
 11 12  1  0  0  0  0
 12 19  1  0  0  0  0
 12 13  1  0  0  0  0
 13 31  1  0  0  0  0
 14 18  1  0  0  0  0
 14 15  1  0  0  0  0
 14 40  1  0  0  0  0
 15 16  1  0  0  0  0
 15 32  1  0  0  0  0
 15 33  1  0  0  0  0
 16 17  1  0  0  0  0
 16 34  1  0  0  0  0
 16 35  1  0  0  0  0
 17 18  1  0  0  0  0
 17 36  1  0  0  0  0
 17 37  1  0  0  0  0
 18 38  1  0  0  0  0
 18 39  1  0  0  0  0
M  CHG  1  14   1
M  END
> <s_m_source_file>
AV-unprocessed.smi

> <i_m_source_file_index>
3054

> <i_lp_mmshare_version>
43012

> <i_f3d_flags>
0

> <s_epik_input>
W0NIMl0xW0NIMl1bQ0gyXVtDSDJdTjFbQ0BIXShbQ0gyXVtDSDNdKVtDSDJdW05IXUMoPU8pW05IXWMyW2NIXW5bbkhdW2NIXTI=

> <s_epik_cmdline>
J2VwaWtfcHl0aG9uJywgJy1waCcsICc3LjAnLCAnLXRuJywgJzgnLCAnLW1hJywgJzIwMCcsICctbWV0YWxfYmluZGluZycsICctaW1hZScsICc8aW5maWxlLm1hZT4nLCAnLW9tYWUnLCAnPG91dGZpbGUubWFlPic=

> <r_lp_tautomer_probability>
0.5

> <r_epik_Ionization_Penalty>
0.00108132

> <r_epik_Ionization_Penalty_Charging>
0.00104139

> <r_epik_Ionization_Penalty_Neutral>
3.99244e-05

> <r_epik_State_Penalty>
0.00068071

> <r_epik_Charging_Adjusted_Penalty>
0.0017221

> <i_epik_Tot_Q>
1

> <i_epik_Tot_abs_Q>
1

> <r_epik_Metal_State_Penalty>
-0

> <b_epik_Metal_Only>
0

> <s_lp_Force_Field>
OPLS_2005

> <r_lp_Energy>
36.476

> <b_lp_Chiralities_Consistent>
1

> <s_lp_Variant>
AV-unprocessed.smi:3054-1

> <Gold.Version>
5.8.1

> <Gold.Id.Protein>
6NUR|6NUR_protein|mol2

> <Gold.PLP.Fitness>
44.8754

> <Gold.PLP.PLP>
-29.1747

> <Gold.PLP.part.hbond>
-4.9941

> <Gold.PLP.part.metal>
0.0000

> <Gold.PLP.part.buried>
-0.8385

> <Gold.PLP.part.nonpolar>
-24.9854

> <Gold.PLP.part.repulsive>
1.1786

> <Gold.PLP.ligand.clash>
0.0000

> <Gold.PLP.ligand.torsion>
0.8238

> <Gold.PLP.Chemscore.Hbond>
4.7520

> <Gold.PLP.Chemscore.CHOScore>
1.0000

> <Gold.PLP.Chemscore.Metal>
0.0000

> <Gold.Chemscore.Hbonds>
donor molecule, donor type, donor heavy atom, donor atom, acceptor molecule, acceptor atom, score
      L1  H     5    28       P1  7948  0.91
      L1  H     8    29       P1  7948  0.85
      L1  H    12    19       P1 10186  0.85
      L1  H    14    40       P1  7948  2.00
      L1  C    13    31       P1 10171  0.62

> <Gold.PLP.Chemscore.Internal.Correction>
0.0924

> <Gold.Rescore>
     Score         DG    S(hbond)    S(metal)    S(lipo)     H(rot)  DE(clash)    DE(int)     intcor
     18.09     -20.84       3.71        0.00      65.07       1.81       1.58       1.17       ----

> <Gold.Chemscore.Fitness>
18.0935

> <Gold.Chemscore.DG>
-20.8449

> <Gold.Chemscore.ZeroCoef>
-5.4800

> <Gold.Chemscore.Hbond>
3.7078

> <Gold.Chemscore.Metal>
0.0000

> <Gold.Chemscore.Lipo>
65.0695

> <Gold.Chemscore.Internal_Hbond>
0.0000

> <Gold.Chemscore.DEClash>
1.5777

> <Gold.Chemscore.DEInternal>
1.1737

> <Gold.Chemscore.Rot>
1.8094

> <Gold.Chemscore.Internal.Correction>
   9.000000E+99

> <Gold.Chemscore.Hbonds>
donor molecule, donor type, donor heavy atom, donor atom, acceptor molecule, acceptor atom, score
      L1  H     5    28       P1  7948  0.88
      L1  H     8    29       P1  7948  0.82
      L1  H    12    19       P1 10186  0.82
      L1  H    14    40       P1  7948  0.91

> <Gold.Chemscore.Hbond.Weighted>
-12.3840

> <Gold.Chemscore.Metal.Weighted>
-0.0000

> <Gold.Chemscore.Lipo.Weighted>
-7.6131

> <Gold.Chemscore.Internal_Hbond.Weighted>
0.0000

> <Gold.Chemscore.DEClash.Weighted>
1.5777

> <Gold.Chemscore.DEInternal.Weighted>
1.1737

> <Gold.Chemscore.Rot.Weighted>
4.6322

> <Gold.Chemscore.Internal.Correction.Weighted>
   9.000000E+99

> <Gold.Protein.RotatedTorsions>
[ 6907 6896 6895 6894 ] final   20.54 input  -60.11 | X-H torsion
[ 7974 7965 7964 7962 ] final  -23.27 input  175.53 | X-H torsion
[ 8008 7997 7996 7995 ] final   60.07 input   59.86 | X-H torsion
[ 10167 10162 10161 10158 ] final  -19.26 input  -65.29 | X-H torsion
[ 10718 10713 10712 10709 ] final  -99.02 input   66.30 | X-H torsion
[ 10763 10752 10751 10750 ] final  152.17 input  -60.55 | X-H torsion
[ 11005 11000 10999 10996 ] final  177.61 input  -57.11 | X-H torsion

> <Gold.Protein.ActiveResidues>
 VAL166  LYS551  ARG553  GLY616  TRP617  ASP618  TYR619  PRO620  LYS621  CYS622 
 ASP623  PHE694  ASN695  SER759  ASP760  ASP761  ALA762  ILE779  LEU786  VAL792 
 PHE793  MET794  SER795  GLU796  ALA797  LYS798  CYS799  TRP800  GLU811  SER814 

> <Gold.Protein.RotatedAtoms>
  151.8979  135.0390  160.0503 H   0  0  0  0  0  0  0  0  0  0  0  0  # atno 6907 bound_to 6896
  152.2382  133.5109  159.5263 H   0  0  0  0  0  0  0  0  0  0  0  0  # atno 6908 bound_to 6896
  150.7045  134.1041  159.4019 H   0  0  0  0  0  0  0  0  0  0  0  0  # atno 6909 bound_to 6896
  146.1626  140.4593  142.8565 H   0  0  0  0  0  0  0  0  0  0  0  0  # atno 7974 bound_to 7965
  155.5764  140.3491  155.4529 H   0  0  0  0  0  0  0  0  0  0  0  0  # atno 8008 bound_to 7997
  156.0406  140.1295  157.0185 H   0  0  0  0  0  0  0  0  0  0  0  0  # atno 8009 bound_to 7997
  154.4390  140.1025  156.6216 H   0  0  0  0  0  0  0  0  0  0  0  0  # atno 8010 bound_to 7997
  140.7267  143.4835  151.0085 H   0  0  0  0  0  0  0  0  0  0  0  0  # atno 10167 bound_to 10162
  156.0123  130.5264  150.6609 H   0  0  0  0  0  0  0  0  0  0  0  0  # atno 10718 bound_to 10713
  154.1156  135.2836  155.3220 H   0  0  0  0  0  0  0  0  0  0  0  0  # atno 10763 bound_to 10752
  154.6459  135.5386  153.7847 H   0  0  0  0  0  0  0  0  0  0  0  0  # atno 10764 bound_to 10752
  153.0330  135.6498  154.1313 H   0  0  0  0  0  0  0  0  0  0  0  0  # atno 10765 bound_to 10752
  140.3859  134.6905  157.4479 H   0  0  0  0  0  0  0  0  0  0  0  0  # atno 11005 bound_to 11000
  144.8048  140.6279  143.6454 LP  0  0  0  0  0  0  0  0  0  0  0  0  # atno 17320 bound_to 7965
  145.4549  139.1519  143.3898 LP  0  0  0  0  0  0  0  0  0  0  0  0  # atno 17321 bound_to 7965
  139.8535  143.7407  152.3177 LP  0  0  0  0  0  0  0  0  0  0  0  0  # atno 17342 bound_to 10162
  139.7597  144.7510  151.0382 LP  0  0  0  0  0  0  0  0  0  0  0  0  # atno 17343 bound_to 10162
  157.4351  131.0854  151.0999 LP  0  0  0  0  0  0  0  0  0  0  0  0  # atno 17370 bound_to 10713
  157.1560  130.6205  149.5596 LP  0  0  0  0  0  0  0  0  0  0  0  0  # atno 17371 bound_to 10713
  140.0443  134.6222  155.8941 LP  0  0  0  0  0  0  0  0  0  0  0  0  # atno 17394 bound_to 11000
  141.1907  133.6569  156.5425 LP  0  0  0  0  0  0  0  0  0  0  0  0  # atno 17395 bound_to 11000

$$$$
