#       Name:                AV-unprocessed.smi:3118
#       Creating user name   scv26
#       Creation time:       Fri Mar 27 17:27:39 2020


#       File generated by GOLD software.
#

@<TRIPOS>MOLECULE
AV-unprocessed.smi:3118
    35    36     1
SMALL
NO_CHARGES


@<TRIPOS>ATOM
      1 ****         0.9236  -2.5452   2.2577 C.3            1 S1                 0.0000
      2 ****         0.6598  -1.8010   0.9418 C.3            1 S1                 0.0000
      3 ****         1.9604  -1.6258   0.1281 C.3            1 S1                 0.0000
      4 ****         1.7229  -1.1129  -1.2255 N.pl3          1 S1                 0.0000
      5 ****         1.2194  -1.8039  -2.2975 C.2            1 S1                 0.0000
      6 ****         1.1608  -0.9171  -3.3415 C.2            1 S1                 0.0000
      7 ****         1.6356   0.2752  -2.8646 N.pl3          1 S1                 1.0000
      8 ****         1.9817   0.1530  -1.5791 C.2            1 S1                 0.0000
      9 ****         0.0496  -0.5070   1.2459 N.am           1 S1                 0.0000
     10 ****        -0.9015   0.1028   0.5210 C.2            1 S1                 0.0000
     11 ****        -1.3752  -0.3754  -0.5105 O.2            1 S1                 0.0000
     12 ****        -1.3716   1.4665   1.0421 C.3            1 S1                 0.0000
     13 ****        -2.8928   1.6954   0.9868 C.3            1 S1                 0.0000
     14 ****        -2.6198   3.0951   0.4282 C.3            1 S1                 0.0000
     15 ****        -1.2232   2.6122   0.0261 C.3            1 S1                 0.0000
     16 ****         1.3475  -3.5325   2.0719 H              1 S1                 0.0000
     17 ****         0.0008  -2.6864   2.8216 H              1 S1                 0.0000
     18 ****         1.6218  -1.9980   2.8921 H              1 S1                 0.0000
     19 ****        -0.0385  -2.4097   0.3641 H              1 S1                 0.0000
     20 ****         2.6555  -0.9582   0.6402 H              1 S1                 0.0000
     21 ****         2.4685  -2.5847   0.0185 H              1 S1                 0.0000
     22 ****         0.9400  -2.8458  -2.2371 H              1 S1                 0.0000
     23 ****         0.8243  -1.0417  -4.3605 H              1 S1                 0.0000
     24 ****         2.3793   0.9281  -0.9485 H              1 S1                 0.0000
     25 ****         0.3730  -0.0401   2.0809 H              1 S1                 0.0000
     26 ****        -0.9555   1.7281   2.0172 H              1 S1                 0.0000
     27 ****        -3.4227   1.0563   0.2783 H              1 S1                 0.0000
     28 ****        -3.3824   1.6962   1.9610 H              1 S1                 0.0000
     29 ****        -3.2594   3.3852  -0.4058 H              1 S1                 0.0000
     30 ****        -2.5937   3.8609   1.2050 H              1 S1                 0.0000
     31 ****        -0.4260   3.3184   0.2591 H              1 S1                 0.0000
     32 ****        -1.1736   2.2851  -1.0143 H              1 S1                 0.0000
     33 ****         1.7123   1.1282  -3.4043 H              1 S1                 0.0000
     34 ****        -1.0522  -1.2605  -0.8455 LP             1 S1                 0.0000
     35 ****        -2.0829   0.1214  -1.0128 LP             1 S1                 0.0000
@<TRIPOS>BOND
    1    1    2 1     
    2    1   16 1     
    3    1   17 1     
    4    1   18 1     
    5    2    3 1     
    6    2    9 1     
    7    2   19 1     
    8    3    4 1     
    9    3   20 1     
   10    3   21 1     
   11    4    8 1     
   12    4    5 1     
   13    5    6 2     
   14    5   22 1     
   15    6    7 1     
   16    6   23 1     
   17    7    8 2     
   18    7   33 1     
   19    8   24 1     
   20    9   10 am    
   21    9   25 1     
   22   10   11 2     
   23   10   12 1     
   24   12   15 1     
   25   12   13 1     
   26   12   26 1     
   27   13   14 1     
   28   13   27 1     
   29   13   28 1     
   30   14   15 1     
   31   14   29 1     
   32   14   30 1     
   33   15   31 1     
   34   15   32 1     
   35   11   34 1     
   36   11   35 1     
@<TRIPOS>SUBSTRUCTURE
      1 S1             1
@<TRIPOS>SET
LONE_PAIRS      STATIC     ATOMS    <user>   **** ""
2 34 35
DONOR_HYDROGENS      STATIC     ATOMS    <user>   **** ""
2 33 25
ATOM$BLUE        STATIC     ATOMS    COLORGROUP SYSTEM
2 34 35
ATOM$RED        STATIC     ATOMS    COLORGROUP SYSTEM
2 33 25
