AV-unprocessed.smi:754|AV-procd|sdf|3608|dock1
  -GOLD-   22720 1 03D 1   1.00000     0.00000
 Structure written by MMmdl.
 37 38  0  0  0  0  0  0  0  0  1 V2000
  152.6869  143.5637  160.4660 C   0  0  0  0  0  0  0  0  0  0  0  0
  152.5525  142.0466  160.6130 C   0  0  0  0  0  0  0  0  0  0  0  0
  151.5601  141.5877  159.7110 O   0  0  0  0  0  0  0  0  0  0  0  0
  151.8711  141.8688  158.3557 C   0  0  1  0  0  0  0  0  0  0  0  0
  151.1658  140.9669  157.3381 C   0  0  0  0  0  0  0  0  0  0  0  0
  151.0234  142.2275  156.4837 C   0  0  1  0  0  0  0  0  0  0  0  0
  149.7534  142.2782  155.7670 N   0  0  0  0  0  0  0  0  0  0  0  0
  149.3519  141.3679  154.8677 C   0  0  0  0  0  0  0  0  0  0  0  0
  150.0289  140.3897  154.5494 O   0  0  0  0  0  0  0  0  0  0  0  0
  147.9827  141.6022  154.2246 C   0  0  0  0  0  0  0  0  0  0  0  0
  146.9442  141.7579  155.2262 N   0  0  0  0  0  0  0  0  0  0  0  0
  145.6159  141.8149  155.1114 C   0  0  0  0  0  0  0  0  0  0  0  0
  145.0287  141.9556  156.2900 N   0  0  0  0  0  0  0  0  0  0  0  0
  146.0963  141.9823  157.1721 N   0  0  0  0  0  0  0  0  0  0  0  0
  147.2356  141.8650  156.5465 N   0  0  0  0  0  0  0  0  0  0  0  0
  151.0767  143.0706  157.7871 C   0  0  0  0  0  0  0  0  0  0  0  0
  149.7392  143.3826  158.4813 C   0  0  0  0  0  0  0  0  0  0  0  0
  151.8478  144.3873  157.6972 C   0  0  0  0  0  0  0  0  0  0  0  0
  153.4457  143.9555  161.1435 H   0  0  0  0  0  0  0  0  0  0  0  0
  151.7446  144.0628  160.6933 H   0  0  0  0  0  0  0  0  0  0  0  0
  152.9733  143.8339  159.4494 H   0  0  0  0  0  0  0  0  0  0  0  0
  153.5077  141.5655  160.3977 H   0  0  0  0  0  0  0  0  0  0  0  0
  152.2793  141.7955  161.6387 H   0  0  0  0  0  0  0  0  0  0  0  0
  152.9444  141.9559  158.1695 H   0  0  0  0  0  0  0  0  0  0  0  0
  151.7961  140.1898  156.9050 H   0  0  0  0  0  0  0  0  0  0  0  0
  150.2180  140.5655  157.7013 H   0  0  0  0  0  0  0  0  0  0  0  0
  151.8976  142.3794  155.8459 H   0  0  0  0  0  0  0  0  0  0  0  0
  149.1407  143.0546  155.9709 H   0  0  0  0  0  0  0  0  0  0  0  0
  147.9974  142.4881  153.5873 H   0  0  0  0  0  0  0  0  0  0  0  0
  147.7330  140.7516  153.5897 H   0  0  0  0  0  0  0  0  0  0  0  0
  145.0846  141.7506  154.1731 H   0  0  0  0  0  0  0  0  0  0  0  0
  149.1588  144.1185  157.9241 H   0  0  0  0  0  0  0  0  0  0  0  0
  149.8954  143.7856  159.4824 H   0  0  0  0  0  0  0  0  0  0  0  0
  149.1153  142.4953  158.5902 H   0  0  0  0  0  0  0  0  0  0  0  0
  151.2982  145.1354  157.1252 H   0  0  0  0  0  0  0  0  0  0  0  0
  152.8125  144.2538  157.2071 H   0  0  0  0  0  0  0  0  0  0  0  0
  152.0430  144.8045  158.6854 H   0  0  0  0  0  0  0  0  0  0  0  0
  1  2  1  0  0  0  0
  1 19  1  0  0  0  0
  1 20  1  0  0  0  0
  1 21  1  0  0  0  0
  2  3  1  0  0  0  0
  2 22  1  0  0  0  0
  2 23  1  0  0  0  0
  3  4  1  0  0  0  0
  4 16  1  0  0  0  0
  4  5  1  0  0  0  0
  4 24  1  0  0  0  0
  5  6  1  0  0  0  0
  5 25  1  0  0  0  0
  5 26  1  0  0  0  0
  6  7  1  0  0  0  0
  6 16  1  0  0  0  0
  6 27  1  0  0  0  0
  7  8  1  0  0  0  0
  7 28  1  0  0  0  0
  8  9  2  0  0  0  0
  8 10  1  0  0  0  0
 10 11  1  0  0  0  0
 10 29  1  0  0  0  0
 10 30  1  0  0  0  0
 11 15  1  0  0  0  0
 11 12  1  0  0  0  0
 12 13  2  0  0  0  0
 12 31  1  0  0  0  0
 13 14  1  0  0  0  0
 14 15  2  0  0  0  0
 16 17  1  0  0  0  0
 16 18  1  0  0  0  0
 17 32  1  0  0  0  0
 17 33  1  0  0  0  0
 17 34  1  0  0  0  0
 18 35  1  0  0  0  0
 18 36  1  0  0  0  0
 18 37  1  0  0  0  0
M  END
> <s_m_source_file>
AV-unprocessed.smi

> <i_m_source_file_index>
754

> <i_lp_mmshare_version>
43012

> <i_f3d_flags>
0

> <s_epik_input>
W0NIM11bQ0gyXU9bQ0BASF0oQzEoW0NIM10pW0NIM10pW0NIMl1bQ0BIXTFbTkhdQyg9TylbQ0gyXW4yW2NIXW5ubjI=

> <s_epik_cmdline>
J2VwaWtfcHl0aG9uJywgJy1waCcsICc3LjAnLCAnLXRuJywgJzgnLCAnLW1hJywgJzIwMCcsICctbWV0YWxfYmluZGluZycsICctaW1hZScsICc8aW5maWxlLm1hZT4nLCAnLW9tYWUnLCAnPG91dGZpbGUubWFlPic=

> <r_lp_tautomer_probability>
1

> <r_epik_Ionization_Penalty>
8.28422e-07

> <r_epik_Ionization_Penalty_Charging>
0

> <r_epik_Ionization_Penalty_Neutral>
8.28422e-07

> <r_epik_State_Penalty>
-0

> <r_epik_Charging_Adjusted_Penalty>
0

> <i_epik_Tot_Q>
0

> <i_epik_Tot_abs_Q>
0

> <r_epik_Metal_State_Penalty>
-0

> <b_epik_Metal_Only>
0

> <s_lp_Force_Field>
OPLS_2005

> <r_lp_Energy>
20.8169

> <b_lp_Chiralities_Consistent>
1

> <s_lp_Variant>
AV-unprocessed.smi:754-2

> <Gold.Version>
5.8.1

> <Gold.Id.Protein>
6NUR|6NUR_protein|mol2

> <Gold.PLP.Fitness>
43.0764

> <Gold.PLP.PLP>
-35.8748

> <Gold.PLP.part.hbond>
-2.3779

> <Gold.PLP.part.metal>
0.0000

> <Gold.PLP.part.buried>
-6.1947

> <Gold.PLP.part.nonpolar>
-28.2288

> <Gold.PLP.part.repulsive>
0.5024

> <Gold.PLP.ligand.clash>
0.0000

> <Gold.PLP.ligand.torsion>
0.6684

> <Gold.PLP.Chemscore.Hbond>
1.7280

> <Gold.PLP.Chemscore.CHOScore>
0.9946

> <Gold.PLP.Chemscore.Metal>
0.0000

> <Gold.Chemscore.Hbonds>
donor molecule, donor type, donor heavy atom, donor atom, acceptor molecule, acceptor atom, score
      L1  H     7    28       P1  8028  0.86
      P1  H  7989  7998       L1     9  0.93
      L1  C    12    31       P1 10175  0.92

> <Gold.PLP.Chemscore.Internal.Correction>
0.3707

> <Gold.Rescore>
     Score         DG    S(hbond)    S(metal)    S(lipo)     H(rot)  DE(clash)    DE(int)     intcor
     11.84     -13.97       1.64        0.00      79.67       2.46       0.01       2.12       ----

> <Gold.Chemscore.Fitness>
11.8366

> <Gold.Chemscore.DG>
-13.9695

> <Gold.Chemscore.ZeroCoef>
-5.4800

> <Gold.Chemscore.Hbond>
1.6375

> <Gold.Chemscore.Metal>
0.0000

> <Gold.Chemscore.Lipo>
79.6735

> <Gold.Chemscore.Internal_Hbond>
0.0000

> <Gold.Chemscore.DEClash>
0.0106

> <Gold.Chemscore.DEInternal>
2.1223

> <Gold.Chemscore.Rot>
2.4616

> <Gold.Chemscore.Internal.Correction>
   9.000000E+99

> <Gold.Chemscore.Hbonds>
donor molecule, donor type, donor heavy atom, donor atom, acceptor molecule, acceptor atom, score
      L1  H     7    28       P1  8028  0.85
      P1  H  7989  7998       L1     9  0.73

> <Gold.Chemscore.Hbond.Weighted>
-5.4693

> <Gold.Chemscore.Metal.Weighted>
-0.0000

> <Gold.Chemscore.Lipo.Weighted>
-9.3218

> <Gold.Chemscore.Internal_Hbond.Weighted>
0.0000

> <Gold.Chemscore.DEClash.Weighted>
0.0106

> <Gold.Chemscore.DEInternal.Weighted>
2.1223

> <Gold.Chemscore.Rot.Weighted>
6.3016

> <Gold.Chemscore.Internal.Correction.Weighted>
   9.000000E+99

> <Gold.Protein.RotatedTorsions>
[ 6907 6896 6895 6894 ] final   92.26 input  -60.11 | X-H torsion
[ 7974 7965 7964 7962 ] final  159.87 input  175.53 | X-H torsion
[ 8008 7997 7996 7995 ] final  -14.21 input   59.86 | X-H torsion
[ 10167 10162 10161 10158 ] final  -12.34 input  -65.29 | X-H torsion
[ 10718 10713 10712 10709 ] final  -80.71 input   66.30 | X-H torsion
[ 10763 10752 10751 10750 ] final  -39.66 input  -60.55 | X-H torsion
[ 11005 11000 10999 10996 ] final -157.76 input  -57.11 | X-H torsion

> <Gold.Protein.ActiveResidues>
 VAL166  LYS551  ARG553  GLY616  TRP617  ASP618  TYR619  PRO620  LYS621  CYS622 
 ASP623  PHE694  ASN695  SER759  ASP760  ASP761  ALA762  ILE779  LEU786  VAL792 
 PHE793  MET794  SER795  GLU796  ALA797  LYS798  CYS799  TRP800  GLU811  SER814 

> <Gold.Protein.RotatedAtoms>
  152.5452  134.1530  159.8525 H   0  0  0  0  0  0  0  0  0  0  0  0  # atno 6907 bound_to 6896
  151.1555  133.4872  159.2602 H   0  0  0  0  0  0  0  0  0  0  0  0  # atno 6908 bound_to 6896
  151.1427  135.0198  159.8688 H   0  0  0  0  0  0  0  0  0  0  0  0  # atno 6909 bound_to 6896
  144.7767  139.7677  143.6276 H   0  0  0  0  0  0  0  0  0  0  0  0  # atno 7974 bound_to 7965
  154.5228  140.2229  155.8944 H   0  0  0  0  0  0  0  0  0  0  0  0  # atno 8008 bound_to 7997
  156.1681  140.3128  155.8889 H   0  0  0  0  0  0  0  0  0  0  0  0  # atno 8009 bound_to 7997
  155.3614  140.0461  157.3037 H   0  0  0  0  0  0  0  0  0  0  0  0  # atno 8010 bound_to 7997
  140.7159  143.5543  150.9266 H   0  0  0  0  0  0  0  0  0  0  0  0  # atno 10167 bound_to 10162
  156.0064  130.4582  150.3842 H   0  0  0  0  0  0  0  0  0  0  0  0  # atno 10718 bound_to 10713
  153.9331  135.6770  153.4745 H   0  0  0  0  0  0  0  0  0  0  0  0  # atno 10763 bound_to 10752
  153.0970  135.4846  154.8793 H   0  0  0  0  0  0  0  0  0  0  0  0  # atno 10764 bound_to 10752
  154.7417  135.3162  154.8673 H   0  0  0  0  0  0  0  0  0  0  0  0  # atno 10765 bound_to 10752
  140.6611  134.4348  157.5234 H   0  0  0  0  0  0  0  0  0  0  0  0  # atno 11005 bound_to 11000
  146.1951  139.5212  142.9780 LP  0  0  0  0  0  0  0  0  0  0  0  0  # atno 17320 bound_to 7965
  145.6166  141.0330  143.1938 LP  0  0  0  0  0  0  0  0  0  0  0  0  # atno 17321 bound_to 7965
  139.9268  143.6541  152.3085 LP  0  0  0  0  0  0  0  0  0  0  0  0  # atno 17342 bound_to 10162
  139.6977  144.7639  151.1327 LP  0  0  0  0  0  0  0  0  0  0  0  0  # atno 17343 bound_to 10162
  157.1920  131.0417  151.2695 LP  0  0  0  0  0  0  0  0  0  0  0  0  # atno 17370 bound_to 10713
  157.4052  130.7355  149.6797 LP  0  0  0  0  0  0  0  0  0  0  0  0  # atno 17371 bound_to 10713
  139.9013  134.8550  156.1886 LP  0  0  0  0  0  0  0  0  0  0  0  0  # atno 17394 bound_to 11000
  141.0464  133.6911  156.1691 LP  0  0  0  0  0  0  0  0  0  0  0  0  # atno 17395 bound_to 11000

$$$$
