AV-unprocessed.smi:196|AV-procd|sdf|1531|dock10
  -GOLD-   2262019383D 1   1.00000     0.00000
 Structure written by MMmdl.
 47 50  0  0  0  0  0  0  0  0  1 V2000
  146.8644  139.4819  156.0645 C   0  0  0  0  0  0  0  0  0  0  0  0
  147.3320  138.6050  154.8922 C   0  0  1  0  0  0  0  0  0  0  0  0
  146.1910  137.9075  154.3973 O   0  0  0  0  0  0  0  0  0  0  0  0
  146.3367  137.7100  153.0021 C   0  0  0  0  0  0  0  0  0  0  0  0
  146.9546  139.0230  152.5469 C   0  0  0  0  0  0  0  0  0  0  0  0
  147.9413  139.3425  153.6662 C   0  0  2  0  0  0  0  0  0  0  0  0
  149.1715  138.7094  153.3541 O   0  0  0  0  0  0  0  0  0  0  0  0
  148.2172  140.8594  153.8390 C   0  0  0  0  0  0  0  0  0  0  0  0
  148.9187  141.1827  155.0725 N   0  0  0  0  0  0  0  0  0  0  0  0
  148.5072  142.0639  156.0461 C   0  0  0  0  0  0  0  0  0  0  0  0
  149.3111  142.1793  157.0673 N   0  0  0  0  0  0  0  0  0  0  0  0
  150.3674  141.3248  156.7708 C   0  0  0  0  0  0  0  0  0  0  0  0
  151.5738  140.9642  157.4394 C   0  0  0  0  0  0  0  0  0  0  0  0
  151.9442  141.4775  158.6445 N   0  0  0  0  0  0  0  0  0  0  0  0
  151.1773  142.5885  159.1989 C   0  0  0  0  0  0  0  0  0  0  0  0
  152.1972  143.4971  159.8839 C   0  0  2  0  0  0  0  0  0  0  0  0
  152.6361  144.4073  159.0131 F   0  0  0  0  0  0  0  0  0  0  0  0
  153.3314  142.5427  160.2397 C   0  0  0  0  0  0  0  0  0  0  0  0
  153.3484  141.5380  159.0758 C   0  0  1  0  0  0  0  0  0  0  0  0
  153.9514  140.1910  159.5216 C   0  0  0  0  0  0  0  0  0  0  0  0
  154.3228  140.0407  160.7974 N   0  0  0  0  0  0  0  0  0  0  0  0
  154.0771  139.2815  158.7047 O   0  0  0  0  0  0  0  0  0  0  0  0
  152.3701  140.0469  156.8288 N   0  0  0  0  0  0  0  0  0  0  0  0
  152.0282  139.5295  155.6458 C   0  0  0  0  0  0  0  0  0  0  0  0
  150.9454  139.7795  154.9086 N   0  0  0  0  0  0  0  0  0  0  0  0
  150.1321  140.6882  155.5183 C   0  0  0  0  0  0  0  0  0  0  0  0
  151.7921  144.0319  160.7433 H   0  0  0  0  0  0  0  0  0  0  0  0
  153.9573  141.9504  158.2693 H   0  0  0  0  0  0  0  0  0  0  0  0
  147.6935  140.0379  156.5025 H   0  0  0  0  0  0  0  0  0  0  0  0
  146.4324  138.8674  156.8545 H   0  0  0  0  0  0  0  0  0  0  0  0
  146.1004  140.1944  155.7521 H   0  0  0  0  0  0  0  0  0  0  0  0
  148.0334  137.8626  155.2782 H   0  0  0  0  0  0  0  0  0  0  0  0
  147.0082  136.8709  152.8144 H   0  0  0  0  0  0  0  0  0  0  0  0
  145.3798  137.5036  152.5225 H   0  0  0  0  0  0  0  0  0  0  0  0
  147.4100  138.9660  151.5572 H   0  0  0  0  0  0  0  0  0  0  0  0
  146.1717  139.7811  152.5092 H   0  0  0  0  0  0  0  0  0  0  0  0
  149.4556  139.0109  152.5047 H   0  0  0  0  0  0  0  0  0  0  0  0
  148.8157  141.2370  153.0097 H   0  0  0  0  0  0  0  0  0  0  0  0
  147.2816  141.4201  153.8250 H   0  0  0  0  0  0  0  0  0  0  0  0
  147.5808  142.6157  155.9776 H   0  0  0  0  0  0  0  0  0  0  0  0
  150.6080  143.1373  158.4469 H   0  0  0  0  0  0  0  0  0  0  0  0
  150.4735  142.1883  159.9295 H   0  0  0  0  0  0  0  0  0  0  0  0
  154.2858  143.0549  160.3680 H   0  0  0  0  0  0  0  0  0  0  0  0
  153.0948  142.0426  161.1807 H   0  0  0  0  0  0  0  0  0  0  0  0
  154.7222  139.1656  161.1045 H   0  0  0  0  0  0  0  0  0  0  0  0
  154.2049  140.8041  161.4472 H   0  0  0  0  0  0  0  0  0  0  0  0
  152.7213  138.8124  155.2313 H   0  0  0  0  0  0  0  0  0  0  0  0
  1  2  1  0  0  0  0
  1 29  1  0  0  0  0
  1 30  1  0  0  0  0
  1 31  1  0  0  0  0
  2  6  1  0  0  0  0
  2  3  1  0  0  0  0
  2 32  1  0  0  0  0
  3  4  1  0  0  0  0
  4  5  1  0  0  0  0
  4 33  1  0  0  0  0
  4 34  1  0  0  0  0
  5  6  1  0  0  0  0
  5 35  1  0  0  0  0
  5 36  1  0  0  0  0
  6  7  1  0  0  0  0
  6  8  1  0  0  0  0
  7 37  1  0  0  0  0
  8  9  1  0  0  0  0
  8 38  1  0  0  0  0
  8 39  1  0  0  0  0
  9 26  1  0  0  0  0
  9 10  1  0  0  0  0
 10 11  2  0  0  0  0
 10 40  1  0  0  0  0
 11 12  1  0  0  0  0
 12 26  2  0  0  0  0
 12 13  1  0  0  0  0
 13 14  1  0  0  0  0
 13 23  2  0  0  0  0
 14 19  1  0  0  0  0
 14 15  1  0  0  0  0
 15 16  1  0  0  0  0
 15 41  1  0  0  0  0
 15 42  1  0  0  0  0
 16 27  1  0  0  0  0
 16 17  1  0  0  0  0
 16 18  1  0  0  0  0
 18 19  1  0  0  0  0
 18 43  1  0  0  0  0
 18 44  1  0  0  0  0
 19 28  1  0  0  0  0
 19 20  1  0  0  0  0
 20 21  1  0  0  0  0
 20 22  2  0  0  0  0
 21 45  1  0  0  0  0
 21 46  1  0  0  0  0
 23 24  1  0  0  0  0
 24 25  2  0  0  0  0
 24 47  1  0  0  0  0
 25 26  1  0  0  0  0
M  END
> <s_m_source_file>
AV-unprocessed.smi

> <i_m_source_file_index>
196

> <i_lp_mmshare_version>
43012

> <i_f3d_flags>
0

> <s_epik_input>
W0NIMl0xW0NIMl1PW0NAQEhdKFtDSDNdKVtDQEBdMShbT0hdKVtDSDJdbihbY0hdbjIpYyhjMjMpbltjSF1uYzNONFtDSDJdW0NASF0oRilbQ0gyXVtDQEhdNEMoPU8pW05IMl0=

> <s_epik_cmdline>
J2VwaWtfcHl0aG9uJywgJy1waCcsICc3LjAnLCAnLXRuJywgJzgnLCAnLW1hJywgJzIwMCcsICctbWV0YWxfYmluZGluZycsICctaW1hZScsICc8aW5maWxlLm1hZT4nLCAnLW9tYWUnLCAnPG91dGZpbGUubWFlPic=

> <r_lp_tautomer_probability>
1

> <r_epik_Ionization_Penalty>
0.000857933

> <r_epik_Ionization_Penalty_Charging>
0

> <r_epik_Ionization_Penalty_Neutral>
0.000857933

> <r_epik_State_Penalty>
0.000462053

> <r_epik_Charging_Adjusted_Penalty>
0.000462053

> <i_epik_Tot_Q>
0

> <i_epik_Tot_abs_Q>
0

> <r_epik_Metal_State_Penalty>
-0

> <b_epik_Metal_Only>
0

> <s_lp_Force_Field>
OPLS_2005

> <r_lp_Energy>
43.6884

> <b_lp_Chiralities_Consistent>
1

> <s_lp_Variant>
AV-unprocessed.smi:196-4

> <Gold.Version>
5.8.1

> <Gold.Id.Protein>
6NUR|6NUR_protein|mol2

> <Gold.PLP.Fitness>
51.4766

> <Gold.PLP.PLP>
-42.4790

> <Gold.PLP.part.hbond>
-5.0000

> <Gold.PLP.part.metal>
0.0000

> <Gold.PLP.part.buried>
-1.1150

> <Gold.PLP.part.nonpolar>
-38.3398

> <Gold.PLP.part.repulsive>
1.8217

> <Gold.PLP.ligand.clash>
0.0557

> <Gold.PLP.ligand.torsion>
0.3123

> <Gold.PLP.Chemscore.Hbond>
2.9588

> <Gold.PLP.Chemscore.CHOScore>
0.1772

> <Gold.PLP.Chemscore.Metal>
0.0000

> <Gold.Chemscore.Hbonds>
donor molecule, donor type, donor heavy atom, donor atom, acceptor molecule, acceptor atom, score
      L1  H     7    37       P1  7957  1.00
      P1  H  7989  7998       L1    25  1.00
      P1  H  7997  8010       L1    23  0.95
      L1  C    10    40       P1  8028  0.21

> <Gold.PLP.Chemscore.Internal.Correction>
0.2699

> <Gold.Rescore>
     Score         DG    S(hbond)    S(metal)    S(lipo)     H(rot)  DE(clash)    DE(int)     intcor
      3.50     -11.29       1.23        0.00      71.46       2.60       1.43       6.37       ----

> <Gold.Chemscore.Fitness>
3.4964

> <Gold.Chemscore.DG>
-11.2907

> <Gold.Chemscore.ZeroCoef>
-5.4800

> <Gold.Chemscore.Hbond>
1.2269

> <Gold.Chemscore.Metal>
0.0000

> <Gold.Chemscore.Lipo>
71.4587

> <Gold.Chemscore.Internal_Hbond>
0.0000

> <Gold.Chemscore.DEClash>
1.4265

> <Gold.Chemscore.DEInternal>
6.3679

> <Gold.Chemscore.Rot>
2.5968

> <Gold.Chemscore.Internal.Correction>
   9.000000E+99

> <Gold.Chemscore.Hbonds>
donor molecule, donor type, donor heavy atom, donor atom, acceptor molecule, acceptor atom, score
      L1  H     7    37       P1  7957  0.92
      P1  H  7989  7998       L1    25  0.10
      P1  H  7997  8010       L1    23  0.20

> <Gold.Chemscore.Hbond.Weighted>
-4.0978

> <Gold.Chemscore.Metal.Weighted>
-0.0000

> <Gold.Chemscore.Lipo.Weighted>
-8.3607

> <Gold.Chemscore.Internal_Hbond.Weighted>
0.0000

> <Gold.Chemscore.DEClash.Weighted>
1.4265

> <Gold.Chemscore.DEInternal.Weighted>
6.3679

> <Gold.Chemscore.Rot.Weighted>
6.6477

> <Gold.Chemscore.Internal.Correction.Weighted>
   9.000000E+99

> <Gold.Protein.RotatedTorsions>
[ 6907 6896 6895 6894 ] final  -10.33 input  -60.11 | X-H torsion
[ 7974 7965 7964 7962 ] final -131.11 input  175.53 | X-H torsion
[ 8008 7997 7996 7995 ] final   63.55 input   59.86 | X-H torsion
[ 10167 10162 10161 10158 ] final   51.99 input  -65.29 | X-H torsion
[ 10718 10713 10712 10709 ] final   67.69 input   66.30 | X-H torsion
[ 10763 10752 10751 10750 ] final  104.98 input  -60.55 | X-H torsion
[ 11005 11000 10999 10996 ] final   46.43 input  -57.11 | X-H torsion

> <Gold.Protein.ActiveResidues>
 VAL166  LYS551  ARG553  GLY616  TRP617  ASP618  TYR619  PRO620  LYS621  CYS622 
 ASP623  PHE694  ASN695  SER759  ASP760  ASP761  ALA762  ILE779  LEU786  VAL792 
 PHE793  MET794  SER795  GLU796  ALA797  LYS798  CYS799  TRP800  GLU811  SER814 

> <Gold.Protein.RotatedAtoms>
  151.4037  135.0975  159.9563 H   0  0  0  0  0  0  0  0  0  0  0  0  # atno 6907 bound_to 6896
  152.5042  133.8863  159.7382 H   0  0  0  0  0  0  0  0  0  0  0  0  # atno 6908 bound_to 6896
  150.9343  133.6673  159.2832 H   0  0  0  0  0  0  0  0  0  0  0  0  # atno 6909 bound_to 6896
  144.9411  140.7239  143.4846 H   0  0  0  0  0  0  0  0  0  0  0  0  # atno 7974 bound_to 7965
  155.6321  140.3496  155.4686 H   0  0  0  0  0  0  0  0  0  0  0  0  # atno 8008 bound_to 7997
  155.9995  140.1210  157.0585 H   0  0  0  0  0  0  0  0  0  0  0  0  # atno 8009 bound_to 7997
  154.4244  140.1103  156.5663 H   0  0  0  0  0  0  0  0  0  0  0  0  # atno 8010 bound_to 7997
  140.2561  144.3425  150.6332 H   0  0  0  0  0  0  0  0  0  0  0  0  # atno 10167 bound_to 10162
  157.6245  130.9334  150.0276 H   0  0  0  0  0  0  0  0  0  0  0  0  # atno 10718 bound_to 10713
  153.3732  135.3925  155.1803 H   0  0  0  0  0  0  0  0  0  0  0  0  # atno 10763 bound_to 10752
  154.8697  135.3707  154.4951 H   0  0  0  0  0  0  0  0  0  0  0  0  # atno 10764 bound_to 10752
  153.5421  135.7084  153.5692 H   0  0  0  0  0  0  0  0  0  0  0  0  # atno 10765 bound_to 10752
  140.1369  134.4633  155.8478 H   0  0  0  0  0  0  0  0  0  0  0  0  # atno 11005 bound_to 11000
  145.2990  139.1857  143.4700 LP  0  0  0  0  0  0  0  0  0  0  0  0  # atno 17320 bound_to 7965
  146.3286  140.2978  142.8619 LP  0  0  0  0  0  0  0  0  0  0  0  0  # atno 17321 bound_to 7965
  140.6002  143.2167  151.7086 LP  0  0  0  0  0  0  0  0  0  0  0  0  # atno 17342 bound_to 10162
  139.5031  144.3804  152.0382 LP  0  0  0  0  0  0  0  0  0  0  0  0  # atno 17343 bound_to 10162
  156.1409  130.3642  149.9584 LP  0  0  0  0  0  0  0  0  0  0  0  0  # atno 17370 bound_to 10713
  156.7625  130.9156  151.3642 LP  0  0  0  0  0  0  0  0  0  0  0  0  # atno 17371 bound_to 10713
  141.2180  133.6818  156.7175 LP  0  0  0  0  0  0  0  0  0  0  0  0  # atno 17394 bound_to 11000
  140.2771  134.8346  157.3899 LP  0  0  0  0  0  0  0  0  0  0  0  0  # atno 17395 bound_to 11000

$$$$
