#       Name:                AV-unprocessed.smi:2068
#       Creating user name   scv26
#       Creation time:       Fri Mar 27 11:12:26 2020


#       File generated by GOLD software.
#

@<TRIPOS>MOLECULE
AV-unprocessed.smi:2068
    38    39     1
SMALL
NO_CHARGES


@<TRIPOS>ATOM
      1 ****        -4.0234   2.3857   0.7395 N.am           1 S1                 0.0000
      2 ****        -4.9141   1.4856   0.3141 C.2            1 S1                 0.0000
      3 ****        -5.9148   1.1915   0.9649 O.2            1 S1                 0.0000
      4 ****        -4.6448   0.8213  -1.0374 C.3            1 S1                 0.0000
      5 ****        -3.6715  -0.3100  -0.8762 C.2            1 S1                 0.0000
      6 ****        -3.9719  -1.6270  -0.6234 C.2            1 S1                 0.0000
      7 ****        -2.5402  -2.6150  -0.5081 S.3            1 S1                 0.0000
      8 ****        -1.5731  -1.1805  -0.8122 C.2            1 S1                 0.0000
      9 ****        -0.1553  -1.2252  -0.8586 N.am           1 S1                 0.0000
     10 ****         0.7062  -0.2042  -1.0255 C.2            1 S1                 0.0000
     11 ****         0.3757   0.9704  -1.1917 O.2            1 S1                 0.0000
     12 ****         2.1935  -0.5751  -1.0037 C.3            1 S1                 0.0000
     13 ****         3.0306   0.2859  -0.0326 C.3            1 S1                 0.0000
     14 ****         2.5971   0.1651   1.4087 C.2            1 S1                 0.0000
     15 ****         3.5946  -0.1799   2.2192 C.2            1 S1                 0.0000
     16 ****         4.8951  -0.3618   1.4873 C.3            1 S1                 0.0000
     17 ****         4.5262  -0.1212   0.0061 C.3            1 S1                 0.0000
     18 ****        -2.2978  -0.0702  -0.9882 N.2            1 S1                 0.0000
     19 ****        -4.1552   2.8399   1.6315 H              1 S1                 0.0000
     20 ****        -3.2150   2.6002   0.1734 H              1 S1                 0.0000
     21 ****        -5.5867   0.4601  -1.4524 H              1 S1                 0.0000
     22 ****        -4.2659   1.5653  -1.7398 H              1 S1                 0.0000
     23 ****        -4.9471  -2.0728  -0.4949 H              1 S1                 0.0000
     24 ****         0.2544  -2.1391  -0.7308 H              1 S1                 0.0000
     25 ****         2.3047  -1.6300  -0.7467 H              1 S1                 0.0000
     26 ****         2.5815  -0.4642  -2.0168 H              1 S1                 0.0000
     27 ****         2.9522   1.3381  -0.3108 H              1 S1                 0.0000
     28 ****         1.5826   0.3588   1.7254 H              1 S1                 0.0000
     29 ****         3.5115  -0.3119   3.2878 H              1 S1                 0.0000
     30 ****         5.6287   0.3616   1.8442 H              1 S1                 0.0000
     31 ****         5.2873  -1.3663   1.6492 H              1 S1                 0.0000
     32 ****         4.7011  -1.0305  -0.5704 H              1 S1                 0.0000
     33 ****         5.1533   0.6564  -0.4318 H              1 S1                 0.0000
     34 ****        -6.0849   1.6314   1.8467 LP             1 S1                 0.0000
     35 ****        -6.5586   0.5123   0.6125 LP             1 S1                 0.0000
     36 ****        -0.5926   1.2196  -1.2094 LP             1 S1                 0.0000
     37 ****         1.0756   1.6749  -1.3089 LP             1 S1                 0.0000
     38 ****        -1.9028   0.8286  -1.1781 LP             1 S1                 0.0000
@<TRIPOS>BOND
    1    1    2 am    
    2    1   19 1     
    3    1   20 1     
    4    2    3 2     
    5    2    4 1     
    6    4    5 1     
    7    4   21 1     
    8    4   22 1     
    9    5   18 1     
   10    5    6 2     
   11    6    7 1     
   12    6   23 1     
   13    7    8 1     
   14    8    9 1     
   15    8   18 2     
   16    9   10 am    
   17    9   24 1     
   18   10   11 2     
   19   10   12 1     
   20   12   13 1     
   21   12   25 1     
   22   12   26 1     
   23   13   17 1     
   24   13   14 1     
   25   13   27 1     
   26   14   15 2     
   27   14   28 1     
   28   15   16 1     
   29   15   29 1     
   30   16   17 1     
   31   16   30 1     
   32   16   31 1     
   33   17   32 1     
   34   17   33 1     
   35    3   34 1     
   36    3   35 1     
   37   11   36 1     
   38   11   37 1     
   39   18   38 1     
@<TRIPOS>SUBSTRUCTURE
      1 S1             1
@<TRIPOS>SET
LONE_PAIRS      STATIC     ATOMS    <user>   **** ""
5 34 35 36 37 38
DONOR_HYDROGENS      STATIC     ATOMS    <user>   **** ""
3 19 20 24
ATOM$BLUE        STATIC     ATOMS    COLORGROUP SYSTEM
5 34 35 36 37 38
ATOM$RED        STATIC     ATOMS    COLORGROUP SYSTEM
3 19 20 24
