AV-unprocessed.smi:3199|AV-procd|sdf|12231|dock7
  -GOLD-   2272018 63D 1   1.00000     0.00000
 Structure written by MMmdl.
 35 36  0  0  0  0  0  0  0  0  1 V2000
  153.4737  142.8530  163.5528 C   0  0  0  0  0  0  0  0  0  0  0  0
  153.0426  143.0553  162.1153 C   0  0  0  0  0  0  0  0  0  0  0  0
  153.4553  142.1633  161.1031 C   0  0  0  0  0  0  0  0  0  0  0  0
  153.0223  142.3993  159.7840 C   0  0  0  0  0  0  0  0  0  0  0  0
  152.1980  143.5142  159.5281 C   0  0  0  0  0  0  0  0  0  0  0  0
  151.6982  143.8092  158.1276 C   0  0  0  0  0  0  0  0  0  0  0  0
  150.6169  142.8127  157.6790 C   0  0  0  0  0  0  0  0  0  0  0  0
  151.0400  142.0460  156.5134 N   0  0  0  0  0  0  0  0  0  0  0  0
  151.2828  140.7262  156.5002 C   0  0  0  0  0  0  0  0  0  0  0  0
  151.1590  140.0127  157.4962 O   0  0  0  0  0  0  0  0  0  0  0  0
  151.7224  140.1434  155.1489 C   0  0  2  0  0  0  0  0  0  0  0  0
  150.8378  139.0159  154.5754 C   0  0  0  0  0  0  0  0  0  0  0  0
  151.7388  137.7964  154.6104 C   0  0  0  0  0  0  0  0  0  0  0  0
  153.1212  138.4198  154.4862 C   0  0  0  0  0  0  0  0  0  0  0  0
  153.0202  139.5715  155.3074 O   0  0  0  0  0  0  0  0  0  0  0  0
  151.8432  144.3452  160.6116 C   0  0  0  0  0  0  0  0  0  0  0  0
  152.2529  144.1264  161.8796 N   0  0  0  0  0  0  0  0  0  0  0  0
  154.0703  141.9469  163.6634 H   0  0  0  0  0  0  0  0  0  0  0  0
  152.6022  142.7671  164.2026 H   0  0  0  0  0  0  0  0  0  0  0  0
  154.0732  143.6987  163.8910 H   0  0  0  0  0  0  0  0  0  0  0  0
  154.0872  141.3169  161.3291 H   0  0  0  0  0  0  0  0  0  0  0  0
  153.3172  141.7340  158.9858 H   0  0  0  0  0  0  0  0  0  0  0  0
  151.3090  144.8280  158.1038 H   0  0  0  0  0  0  0  0  0  0  0  0
  152.5406  143.7851  157.4349 H   0  0  0  0  0  0  0  0  0  0  0  0
  150.4048  142.1084  158.4840 H   0  0  0  0  0  0  0  0  0  0  0  0
  149.6808  143.3314  157.4655 H   0  0  0  0  0  0  0  0  0  0  0  0
  151.1690  142.5575  155.6522 H   0  0  0  0  0  0  0  0  0  0  0  0
  151.7853  140.9558  154.4230 H   0  0  0  0  0  0  0  0  0  0  0  0
  149.9035  138.8406  155.1090 H   0  0  0  0  0  0  0  0  0  0  0  0
  150.5748  139.2514  153.5433 H   0  0  0  0  0  0  0  0  0  0  0  0
  151.6444  137.2881  155.5709 H   0  0  0  0  0  0  0  0  0  0  0  0
  151.5204  137.0793  153.8184 H   0  0  0  0  0  0  0  0  0  0  0  0
  153.9174  137.7549  154.8211 H   0  0  0  0  0  0  0  0  0  0  0  0
  153.3260  138.7187  153.4571 H   0  0  0  0  0  0  0  0  0  0  0  0
  151.2106  145.2073  160.4583 H   0  0  0  0  0  0  0  0  0  0  0  0
  1  2  1  0  0  0  0
  1 18  1  0  0  0  0
  1 19  1  0  0  0  0
  1 20  1  0  0  0  0
  2 17  1  0  0  0  0
  2  3  2  0  0  0  0
  3  4  1  0  0  0  0
  3 21  1  0  0  0  0
  4  5  2  0  0  0  0
  4 22  1  0  0  0  0
  5  6  1  0  0  0  0
  5 16  1  0  0  0  0
  6  7  1  0  0  0  0
  6 23  1  0  0  0  0
  6 24  1  0  0  0  0
  7  8  1  0  0  0  0
  7 25  1  0  0  0  0
  7 26  1  0  0  0  0
  8  9  1  0  0  0  0
  8 27  1  0  0  0  0
  9 10  2  0  0  0  0
  9 11  1  0  0  0  0
 11 15  1  0  0  0  0
 11 12  1  0  0  0  0
 11 28  1  0  0  0  0
 12 13  1  0  0  0  0
 12 29  1  0  0  0  0
 12 30  1  0  0  0  0
 13 14  1  0  0  0  0
 13 31  1  0  0  0  0
 13 32  1  0  0  0  0
 14 15  1  0  0  0  0
 14 33  1  0  0  0  0
 14 34  1  0  0  0  0
 16 17  2  0  0  0  0
 16 35  1  0  0  0  0
M  END
> <s_m_source_file>
AV-unprocessed.smi

> <i_m_source_file_index>
3199

> <i_lp_mmshare_version>
43012

> <i_f3d_flags>
0

> <s_epik_input>
W0NIM11jMVtjSF1bY0hdYyhbY0hdbjEpW0NIMl1bQ0gyXVtOSF1DKD1PKVtDQEBIXTJbQ0gyXVtDSDJdW0NIMl1PMg==

> <s_epik_cmdline>
J2VwaWtfcHl0aG9uJywgJy1waCcsICc3LjAnLCAnLXRuJywgJzgnLCAnLW1hJywgJzIwMCcsICctbWV0YWxfYmluZGluZycsICctaW1hZScsICc8aW5maWxlLm1hZT4nLCAnLW9tYWUnLCAnPG91dGZpbGUubWFlPic=

> <r_epik_Ionization_Penalty>
0.0519155

> <r_epik_Ionization_Penalty_Charging>
0

> <r_epik_Ionization_Penalty_Neutral>
0.0519155

> <r_epik_State_Penalty>
0.0445047

> <r_epik_Charging_Adjusted_Penalty>
0.0445047

> <i_epik_Tot_Q>
0

> <i_epik_Tot_abs_Q>
0

> <r_epik_Metal_State_Penalty>
0.0408967

> <b_epik_Metal_Only>
0

> <s_lp_Force_Field>
OPLS_2005

> <r_lp_Energy>
17.3487

> <b_lp_Chiralities_Consistent>
1

> <s_lp_Variant>
AV-unprocessed.smi:3199-1

> <Gold.Version>
5.8.1

> <Gold.Id.Protein>
6NUR|6NUR_protein|mol2

> <Gold.PLP.Fitness>
46.2839

> <Gold.PLP.PLP>
-44.3513

> <Gold.PLP.part.hbond>
-1.4864

> <Gold.PLP.part.metal>
0.0000

> <Gold.PLP.part.buried>
-2.4870

> <Gold.PLP.part.nonpolar>
-40.5327

> <Gold.PLP.part.repulsive>
0.2684

> <Gold.PLP.ligand.clash>
0.0000

> <Gold.PLP.ligand.torsion>
0.5418

> <Gold.PLP.Chemscore.Hbond>
1.0000

> <Gold.PLP.Chemscore.CHOScore>
0.0000

> <Gold.PLP.Chemscore.Metal>
0.0000

> <Gold.Chemscore.Hbonds>
donor molecule, donor type, donor heavy atom, donor atom, acceptor molecule, acceptor atom, score
      P1  H  7997  8010       L1    15  1.00

> <Gold.PLP.Chemscore.Internal.Correction>
0.0164

> <Gold.Rescore>
     Score         DG    S(hbond)    S(metal)    S(lipo)     H(rot)  DE(clash)    DE(int)     intcor
     18.38     -19.13       0.99        0.00     120.97       1.49       0.09       0.65       ----

> <Gold.Chemscore.Fitness>
18.3848

> <Gold.Chemscore.DG>
-19.1264

> <Gold.Chemscore.ZeroCoef>
-5.4800

> <Gold.Chemscore.Hbond>
0.9871

> <Gold.Chemscore.Metal>
0.0000

> <Gold.Chemscore.Lipo>
120.9702

> <Gold.Chemscore.Internal_Hbond>
0.0000

> <Gold.Chemscore.DEClash>
0.0900

> <Gold.Chemscore.DEInternal>
0.6516

> <Gold.Chemscore.Rot>
1.4859

> <Gold.Chemscore.Internal.Correction>
   9.000000E+99

> <Gold.Chemscore.Hbonds>
donor molecule, donor type, donor heavy atom, donor atom, acceptor molecule, acceptor atom, score
      P1  H  7997  8010       L1    15  0.96

> <Gold.Chemscore.Hbond.Weighted>
-3.2968

> <Gold.Chemscore.Metal.Weighted>
-0.0000

> <Gold.Chemscore.Lipo.Weighted>
-14.1535

> <Gold.Chemscore.Internal_Hbond.Weighted>
0.0000

> <Gold.Chemscore.DEClash.Weighted>
0.0900

> <Gold.Chemscore.DEInternal.Weighted>
0.6516

> <Gold.Chemscore.Rot.Weighted>
3.8039

> <Gold.Chemscore.Internal.Correction.Weighted>
   9.000000E+99

> <Gold.Protein.RotatedTorsions>
[ 6907 6896 6895 6894 ] final  141.03 input  -60.11 | X-H torsion
[ 7974 7965 7964 7962 ] final -163.58 input  175.53 | X-H torsion
[ 8008 7997 7996 7995 ] final   97.76 input   59.86 | X-H torsion
[ 10167 10162 10161 10158 ] final   82.21 input  -65.29 | X-H torsion
[ 10718 10713 10712 10709 ] final  -49.87 input   66.30 | X-H torsion
[ 10763 10752 10751 10750 ] final   61.27 input  -60.55 | X-H torsion
[ 11005 11000 10999 10996 ] final -147.48 input  -57.11 | X-H torsion

> <Gold.Protein.ActiveResidues>
 VAL166  LYS551  ARG553  GLY616  TRP617  ASP618  TYR619  PRO620  LYS621  CYS622 
 ASP623  PHE694  ASN695  SER759  ASP760  ASP761  ALA762  ILE779  LEU786  VAL792 
 PHE793  MET794  SER795  GLU796  ALA797  LYS798  CYS799  TRP800  GLU811  SER814 

> <Gold.Protein.RotatedAtoms>
  152.2359  133.5096  159.5242 H   0  0  0  0  0  0  0  0  0  0  0  0  # atno 6907 bound_to 6896
  150.7050  134.1154  159.4024 H   0  0  0  0  0  0  0  0  0  0  0  0  # atno 6908 bound_to 6896
  151.9075  135.0353  160.0562 H   0  0  0  0  0  0  0  0  0  0  0  0  # atno 6909 bound_to 6896
  144.7322  140.3086  143.6192 H   0  0  0  0  0  0  0  0  0  0  0  0  # atno 7974 bound_to 7965
  156.0934  140.3254  155.7846 H   0  0  0  0  0  0  0  0  0  0  0  0  # atno 8008 bound_to 7997
  155.4958  140.0565  157.2964 H   0  0  0  0  0  0  0  0  0  0  0  0  # atno 8009 bound_to 7997
  154.4652  140.1985  156.0154 H   0  0  0  0  0  0  0  0  0  0  0  0  # atno 8010 bound_to 7997
  139.9312  144.6151  150.8343 H   0  0  0  0  0  0  0  0  0  0  0  0  # atno 10167 bound_to 10162
  156.1853  130.4151  149.9448 H   0  0  0  0  0  0  0  0  0  0  0  0  # atno 10718 bound_to 10713
  152.9945  135.5507  154.6007 H   0  0  0  0  0  0  0  0  0  0  0  0  # atno 10763 bound_to 10752
  154.5349  135.2816  155.1150 H   0  0  0  0  0  0  0  0  0  0  0  0  # atno 10764 bound_to 10752
  154.2450  135.6409  153.5273 H   0  0  0  0  0  0  0  0  0  0  0  0  # atno 10765 bound_to 10752
  140.7712  134.3187  157.5074 H   0  0  0  0  0  0  0  0  0  0  0  0  # atno 11005 bound_to 11000
  145.7687  139.1850  143.2225 LP  0  0  0  0  0  0  0  0  0  0  0  0  # atno 17320 bound_to 7965
  146.0928  140.7636  142.9587 LP  0  0  0  0  0  0  0  0  0  0  0  0  # atno 17321 bound_to 7965
  140.7637  143.3229  151.2581 LP  0  0  0  0  0  0  0  0  0  0  0  0  # atno 17342 bound_to 10162
  139.6781  143.9903  152.2792 LP  0  0  0  0  0  0  0  0  0  0  0  0  # atno 17343 bound_to 10162
  156.7206  130.9005  151.3618 LP  0  0  0  0  0  0  0  0  0  0  0  0  # atno 17370 bound_to 10713
  157.6894  130.9218  150.0474 LP  0  0  0  0  0  0  0  0  0  0  0  0  # atno 17371 bound_to 10713
  139.8755  134.9262  156.3393 LP  0  0  0  0  0  0  0  0  0  0  0  0  # atno 17394 bound_to 11000
  140.9572  133.7412  156.0352 LP  0  0  0  0  0  0  0  0  0  0  0  0  # atno 17395 bound_to 11000

$$$$
