AV-unprocessed.smi:1208|AV-procd|sdf|5061|dock9
  -GOLD-   22720 4103D 1   1.00000     0.00000
 Structure written by MMmdl.
 35 36  0  0  0  0  0  0  0  0  2 V2000
  150.3104  139.0496  154.2726 C   0  0  0  0  0  0  0  0  0  0  0  0
  149.7852  140.3049  154.9864 C   0  0  2  0  0  0  0  0  0  0  0  0
  150.1568  140.2273  156.3976 N   0  0  0  0  0  0  0  0  0  0  0  0
  151.3960  140.0473  156.8812 C   0  0  0  0  0  0  0  0  0  0  0  0
  152.3901  139.9206  156.1641 O   0  0  0  0  0  0  0  0  0  0  0  0
  151.5043  140.0071  158.4143 C   0  0  0  0  0  0  0  0  0  0  0  0
  151.9839  141.2571  159.0226 N   0  0  0  0  0  0  0  0  0  0  0  0
  151.2962  142.4507  158.5368 N   0  5  0  0  0  0  0  0  0  0  0  0
  151.6462  143.6659  159.0358 C   0  0  0  0  0  0  0  0  0  0  0  0
  151.1046  144.7118  158.6848 O   0  0  0  0  0  0  0  0  0  0  0  0
  152.7110  143.7192  160.0238 C   0  0  0  0  0  0  0  0  0  0  0  0
  153.3430  142.6034  160.4382 C   0  0  0  0  0  0  0  0  0  0  0  0
  153.0005  141.2800  159.9312 C   0  0  0  0  0  0  0  0  0  0  0  0
  153.5818  140.2578  160.2963 O   0  0  0  0  0  0  0  0  0  0  0  0
  148.2556  140.4565  154.8611 C   0  0  2  0  0  0  0  0  0  0  0  0
  147.7842  141.1007  153.5551 C   0  0  0  0  0  0  0  0  0  0  0  0
  146.4488  141.6796  153.9597 C   0  0  0  0  0  0  0  0  0  0  0  0
  146.7498  142.1828  155.3668 C   0  0  0  0  0  0  0  0  0  0  0  0
  147.7482  141.3095  155.8870 O   0  0  0  0  0  0  0  0  0  0  0  0
  150.0984  139.0803  153.2039 H   0  0  0  0  0  0  0  0  0  0  0  0
  149.8567  138.1438  154.6763 H   0  0  0  0  0  0  0  0  0  0  0  0
  151.3913  138.9593  154.3853 H   0  0  0  0  0  0  0  0  0  0  0  0
  150.2563  141.1723  154.5206 H   0  0  0  0  0  0  0  0  0  0  0  0
  149.4074  140.3237  157.0670 H   0  0  0  0  0  0  0  0  0  0  0  0
  150.5279  139.7486  158.8276 H   0  0  0  0  0  0  0  0  0  0  0  0
  152.1634  139.1807  158.6875 H   0  0  0  0  0  0  0  0  0  0  0  0
  153.0031  144.6751  160.4330 H   0  0  0  0  0  0  0  0  0  0  0  0
  154.1294  142.6902  161.1731 H   0  0  0  0  0  0  0  0  0  0  0  0
  147.7698  139.4856  154.9732 H   0  0  0  0  0  0  0  0  0  0  0  0
  148.4603  141.9024  153.2537 H   0  0  0  0  0  0  0  0  0  0  0  0
  147.7077  140.3897  152.7321 H   0  0  0  0  0  0  0  0  0  0  0  0
  146.0986  142.4655  153.2901 H   0  0  0  0  0  0  0  0  0  0  0  0
  145.6936  140.8931  153.9930 H   0  0  0  0  0  0  0  0  0  0  0  0
  147.1605  143.1925  155.3299 H   0  0  0  0  0  0  0  0  0  0  0  0
  145.8640  142.2000  156.0018 H   0  0  0  0  0  0  0  0  0  0  0  0
  1  2  1  0  0  0  0
  1 20  1  0  0  0  0
  1 21  1  0  0  0  0
  1 22  1  0  0  0  0
  2  3  1  0  0  0  0
  2 15  1  0  0  0  0
  2 23  1  0  0  0  0
  3  4  1  0  0  0  0
  3 24  1  0  0  0  0
  4  5  2  0  0  0  0
  4  6  1  0  0  0  0
  6 25  1  0  0  0  0
  6 26  1  0  0  0  0
  6  7  1  0  0  0  0
  7  8  1  0  0  0  0
  7 13  1  0  0  0  0
  8  9  1  0  0  0  0
  9 10  2  0  0  0  0
  9 11  1  0  0  0  0
 11 27  1  0  0  0  0
 11 12  2  0  0  0  0
 12 28  1  0  0  0  0
 12 13  1  0  0  0  0
 13 14  2  0  0  0  0
 15 19  1  0  0  0  0
 15 16  1  0  0  0  0
 15 29  1  0  0  0  0
 16 17  1  0  0  0  0
 16 30  1  0  0  0  0
 16 31  1  0  0  0  0
 17 18  1  0  0  0  0
 17 32  1  0  0  0  0
 17 33  1  0  0  0  0
 18 19  1  0  0  0  0
 18 34  1  0  0  0  0
 18 35  1  0  0  0  0
M  CHG  1   8  -1
M  END
> <s_m_source_file>
AV-unprocessed.smi

> <i_m_source_file_index>
1208

> <i_lp_mmshare_version>
43012

> <i_f3d_flags>
0

> <s_epik_input>
TzFbQ0gyXVtDSDJdW0NIMl1bQ0BIXTFbQ0BIXShbQ0gzXSlbTkhdQyg9TylbQ0gyXW4yW25IXWMoPU8pW2NIXVtjSF1jMj1P

> <s_epik_cmdline>
J2VwaWtfcHl0aG9uJywgJy1waCcsICc3LjAnLCAnLXRuJywgJzgnLCAnLW1hJywgJzIwMCcsICctbWV0YWxfYmluZGluZycsICctaW1hZScsICc8aW5maWxlLm1hZT4nLCAnLW9tYWUnLCAnPG91dGZpbGUubWFlPic=

> <r_lp_tautomer_probability>
1

> <r_epik_Ionization_Penalty>
0.0975494

> <r_epik_Ionization_Penalty_Charging>
0.0975494

> <r_epik_Ionization_Penalty_Neutral>
2.30132e-08

> <r_epik_State_Penalty>
0.034345

> <r_epik_Charging_Adjusted_Penalty>
0.131894

> <i_epik_Tot_Q>
-1

> <i_epik_Tot_abs_Q>
1

> <r_epik_Metal_State_Penalty>
0.034345

> <b_epik_Metal_Only>
0

> <s_lp_Force_Field>
OPLS_2005

> <r_lp_Energy>
34.668

> <b_lp_Chiralities_Consistent>
1

> <s_lp_Variant>
AV-unprocessed.smi:1208-1

> <Gold.Version>
5.8.1

> <Gold.Id.Protein>
6NUR|6NUR_protein|mol2

> <Gold.PLP.Fitness>
37.3324

> <Gold.PLP.PLP>
-35.9993

> <Gold.PLP.part.hbond>
-1.0000

> <Gold.PLP.part.metal>
0.0000

> <Gold.PLP.part.buried>
-4.1513

> <Gold.PLP.part.nonpolar>
-30.9730

> <Gold.PLP.part.repulsive>
0.2981

> <Gold.PLP.ligand.clash>
0.0000

> <Gold.PLP.ligand.torsion>
0.8391

> <Gold.PLP.Chemscore.Hbond>
1.0000

> <Gold.PLP.Chemscore.CHOScore>
0.0000

> <Gold.PLP.Chemscore.Metal>
0.0000

> <Gold.Chemscore.Hbonds>
donor molecule, donor type, donor heavy atom, donor atom, acceptor molecule, acceptor atom, score
      P1  H  7997  8008       L1     5  1.00

> <Gold.PLP.Chemscore.Internal.Correction>
0.0112

> <Gold.Rescore>
     Score         DG    S(hbond)    S(metal)    S(lipo)     H(rot)  DE(clash)    DE(int)     intcor
      9.91     -11.86       1.00        0.00      69.73       1.99       0.04       1.91       ----

> <Gold.Chemscore.Fitness>
9.9130

> <Gold.Chemscore.DG>
-11.8612

> <Gold.Chemscore.ZeroCoef>
-5.4800

> <Gold.Chemscore.Hbond>
0.9961

> <Gold.Chemscore.Metal>
0.0000

> <Gold.Chemscore.Lipo>
69.7344

> <Gold.Chemscore.Internal_Hbond>
0.0000

> <Gold.Chemscore.DEClash>
0.0363

> <Gold.Chemscore.DEInternal>
1.9119

> <Gold.Chemscore.Rot>
1.9940

> <Gold.Chemscore.Internal.Correction>
   9.000000E+99

> <Gold.Chemscore.Hbonds>
donor molecule, donor type, donor heavy atom, donor atom, acceptor molecule, acceptor atom, score
      P1  H  7997  8008       L1     5  0.97

> <Gold.Chemscore.Hbond.Weighted>
-3.3270

> <Gold.Chemscore.Metal.Weighted>
-0.0000

> <Gold.Chemscore.Lipo.Weighted>
-8.1589

> <Gold.Chemscore.Internal_Hbond.Weighted>
0.0000

> <Gold.Chemscore.DEClash.Weighted>
0.0363

> <Gold.Chemscore.DEInternal.Weighted>
1.9119

> <Gold.Chemscore.Rot.Weighted>
5.1047

> <Gold.Chemscore.Internal.Correction.Weighted>
   9.000000E+99

> <Gold.Protein.RotatedTorsions>
[ 6907 6896 6895 6894 ] final  136.44 input  -60.11 | X-H torsion
[ 7974 7965 7964 7962 ] final -179.06 input  175.53 | X-H torsion
[ 8008 7997 7996 7995 ] final  -31.84 input   59.86 | X-H torsion
[ 10167 10162 10161 10158 ] final   22.55 input  -65.29 | X-H torsion
[ 10718 10713 10712 10709 ] final  -65.80 input   66.30 | X-H torsion
[ 10763 10752 10751 10750 ] final -157.91 input  -60.55 | X-H torsion
[ 11005 11000 10999 10996 ] final -139.77 input  -57.11 | X-H torsion

> <Gold.Protein.ActiveResidues>
 VAL166  LYS551  ARG553  GLY616  TRP617  ASP618  TYR619  PRO620  LYS621  CYS622 
 ASP623  PHE694  ASN695  SER759  ASP760  ASP761  ALA762  ILE779  LEU786  VAL792 
 PHE793  MET794  SER795  GLU796  ALA797  LYS798  CYS799  TRP800  GLU811  SER814 

> <Gold.Protein.RotatedAtoms>
  152.2894  133.5546  159.5547 H   0  0  0  0  0  0  0  0  0  0  0  0  # atno 6907 bound_to 6896
  150.7229  134.0451  159.3788 H   0  0  0  0  0  0  0  0  0  0  0  0  # atno 6908 bound_to 6896
  151.8357  135.0607  160.0493 H   0  0  0  0  0  0  0  0  0  0  0  0  # atno 6909 bound_to 6896
  144.7134  140.0775  143.6427 H   0  0  0  0  0  0  0  0  0  0  0  0  # atno 7974 bound_to 7965
  154.4200  140.1753  156.1631 H   0  0  0  0  0  0  0  0  0  0  0  0  # atno 8008 bound_to 7997
  155.9822  140.3376  155.6649 H   0  0  0  0  0  0  0  0  0  0  0  0  # atno 8009 bound_to 7997
  155.6485  140.0688  157.2585 H   0  0  0  0  0  0  0  0  0  0  0  0  # atno 8010 bound_to 7997
  140.5339  143.9793  150.6481 H   0  0  0  0  0  0  0  0  0  0  0  0  # atno 10167 bound_to 10162
  156.0649  130.4252  150.1616 H   0  0  0  0  0  0  0  0  0  0  0  0  # atno 10718 bound_to 10713
  154.7599  135.3115  154.8398 H   0  0  0  0  0  0  0  0  0  0  0  0  # atno 10763 bound_to 10752
  153.9162  135.6800  153.4753 H   0  0  0  0  0  0  0  0  0  0  0  0  # atno 10764 bound_to 10752
  153.1199  135.4827  154.9109 H   0  0  0  0  0  0  0  0  0  0  0  0  # atno 10765 bound_to 10752
  140.8487  134.2313  157.4772 H   0  0  0  0  0  0  0  0  0  0  0  0  # atno 11005 bound_to 11000
  145.9731  139.2884  143.1087 LP  0  0  0  0  0  0  0  0  0  0  0  0  # atno 17320 bound_to 7965
  145.9095  140.9190  143.0461 LP  0  0  0  0  0  0  0  0  0  0  0  0  # atno 17321 bound_to 7965
  140.3176  143.3158  152.0817 LP  0  0  0  0  0  0  0  0  0  0  0  0  # atno 17342 bound_to 10162
  139.4964  144.6595  151.6496 LP  0  0  0  0  0  0  0  0  0  0  0  0  # atno 17343 bound_to 10162
  156.9678  130.9825  151.3465 LP  0  0  0  0  0  0  0  0  0  0  0  0  # atno 17370 bound_to 10713
  157.5683  130.8293  149.8357 LP  0  0  0  0  0  0  0  0  0  0  0  0  # atno 17371 bound_to 10713
  139.8704  134.9672  156.4589 LP  0  0  0  0  0  0  0  0  0  0  0  0  # atno 17394 bound_to 11000
  140.8814  133.7915  155.9471 LP  0  0  0  0  0  0  0  0  0  0  0  0  # atno 17395 bound_to 11000

$$$$
