#       Name:                AV-unprocessed.smi:3237
#       Creating user name   scv26
#       Creation time:       Fri Mar 27 18:23:20 2020


#       File generated by GOLD software.
#

@<TRIPOS>MOLECULE
AV-unprocessed.smi:3237
    42    44     1
SMALL
NO_CHARGES


@<TRIPOS>ATOM
      1 ****        -6.0602  -3.4507   0.3335 C.3            1 S1                 0.0000
      2 ****        -4.8703  -2.5979   0.6119 C.2            1 S1                 0.0000
      3 ****        -3.5400  -2.7371   0.3322 C.2            1 S1                 0.0000
      4 ****        -2.9704  -1.5597   0.8865 C.2            1 S1                 0.0000
      5 ****        -1.5726  -1.3239   0.8038 N.am           1 S1                 0.0000
      6 ****        -0.8601  -0.2990   1.3061 C.2            1 S1                 0.0000
      7 ****        -1.4228   0.6074   1.9313 O.2            1 S1                 0.0000
      8 ****         0.4691  -0.4112   1.0311 N.pl3          1 S1                -1.0000
      9 ****         1.5031   0.5196   1.5000 C.3            1 S1                 0.0000
     10 ****         2.8904  -0.1012   1.2989 C.3            1 S1                 0.0000
     11 ****         3.3336   0.3246  -0.1104 C.3            1 S1                 0.0000
     12 ****         2.3503   1.3261  -0.5799 N.4            1 S1                 1.0000
     13 ****         2.9308   2.4366  -1.3641 C.3            1 S1                 0.0000
     14 ****         1.9750   3.0254  -2.3737 C.3            1 S1                 0.0000
     15 ****         3.0962   2.1167  -2.8303 C.3            1 S1                 0.0000
     16 ****         1.5671   1.7538   0.5946 C.3            1 S1                 0.0000
     17 ****        -3.8741  -0.7708   1.4491 N.2            1 S1                 0.0000
     18 ****        -5.0958  -1.4321   1.2763 O.3            1 S1                 0.0000
     19 ****        -5.7610  -4.4142  -0.0794 H              1 S1                 0.0000
     20 ****        -6.7230  -2.9661  -0.3833 H              1 S1                 0.0000
     21 ****        -6.6252  -3.6360   1.2471 H              1 S1                 0.0000
     22 ****        -3.0538  -3.5521  -0.1833 H              1 S1                 0.0000
     23 ****        -1.0412  -2.0277   0.3131 H              1 S1                 0.0000
     24 ****         1.3577   0.8060   2.5423 H              1 S1                 0.0000
     25 ****         3.5800   0.3193   2.0319 H              1 S1                 0.0000
     26 ****         2.9038  -1.1838   1.4344 H              1 S1                 0.0000
     27 ****         4.3431   0.7383  -0.0807 H              1 S1                 0.0000
     28 ****         3.3430  -0.5194  -0.8017 H              1 S1                 0.0000
     29 ****         3.6517   3.0699  -0.8500 H              1 S1                 0.0000
     30 ****         0.9607   2.6319  -2.4123 H              1 S1                 0.0000
     31 ****         2.0709   4.0862  -2.5965 H              1 S1                 0.0000
     32 ****         3.9304   2.5794  -3.3540 H              1 S1                 0.0000
     33 ****         2.8267   1.1195  -3.1734 H              1 S1                 0.0000
     34 ****         0.5872   2.1397   0.3100 H              1 S1                 0.0000
     35 ****         2.0992   2.5543   1.1115 H              1 S1                 0.0000
     36 ****         1.7018   0.8268  -1.1719 H              1 S1                 0.0000
     37 ****        -2.4134   0.5816   2.0662 LP             1 S1                 0.0000
     38 ****        -0.8874   1.3663   2.3020 LP             1 S1                 0.0000
     39 ****         0.7622  -1.1842   0.4685 LP             1 S1                 0.0000
     40 ****        -3.7173   0.1079   1.9000 LP             1 S1                 0.0000
     41 ****        -5.5024  -1.6266   2.1689 LP             1 S1                 0.0000
     42 ****        -5.7177  -0.8568   0.7450 LP             1 S1                 0.0000
@<TRIPOS>BOND
    1    1    2 1     
    2    1   19 1     
    3    1   20 1     
    4    1   21 1     
    5    2   18 1     
    6    2    3 2     
    7    3    4 1     
    8    3   22 1     
    9    4    5 1     
   10    4   17 2     
   11    5    6 am    
   12    5   23 1     
   13    6    7 2     
   14    6    8 1     
   15    8    9 1     
   16    9   16 1     
   17    9   10 1     
   18    9   24 1     
   19   10   11 1     
   20   10   25 1     
   21   10   26 1     
   22   11   12 1     
   23   11   27 1     
   24   11   28 1     
   25   12   13 1     
   26   12   16 1     
   27   12   36 1     
   28   13   15 1     
   29   13   14 1     
   30   13   29 1     
   31   14   15 1     
   32   14   30 1     
   33   14   31 1     
   34   15   32 1     
   35   15   33 1     
   36   16   34 1     
   37   16   35 1     
   38   17   18 1     
   39    7   37 1     
   40    7   38 1     
   41    8   39 1     
   42   17   40 1     
   43   18   41 1     
   44   18   42 1     
@<TRIPOS>SUBSTRUCTURE
      1 S1             1
@<TRIPOS>SET
LONE_PAIRS      STATIC     ATOMS    <user>   **** ""
6 37 38 39 40 41 42
DONOR_HYDROGENS      STATIC     ATOMS    <user>   **** ""
2 23 36
ATOM$BLUE        STATIC     ATOMS    COLORGROUP SYSTEM
6 37 38 39 40 41 42
ATOM$RED        STATIC     ATOMS    COLORGROUP SYSTEM
2 23 36
