AV-unprocessed.smi:2148|AV-procd|sdf|8746|dock8
  -GOLD-   2272011523D 1   1.00000     0.00000
 Structure written by MMmdl.
 44 45  0  0  0  0  0  0  0  0  1 V2000
  148.0346  132.9391  152.8806 C   0  0  0  0  0  0  0  0  0  0  0  0
  147.9743  134.1900  154.1926 S   0  0  0  0  0  0  0  0  0  0  0  0
  149.7343  134.3206  154.6307 C   0  0  2  0  0  0  0  0  0  0  0  0
  150.2362  132.9901  155.2143 C   0  0  0  0  0  0  0  0  0  0  0  0
  150.0012  135.4852  155.5937 C   0  0  0  0  0  0  0  0  0  0  0  0
  149.5100  135.4691  156.7225 O   0  0  0  0  0  0  0  0  0  0  0  0
  150.7556  136.4868  155.1041 N   0  0  0  0  0  0  0  0  0  0  0  0
  151.1676  137.6854  155.7469 C   0  0  0  0  0  0  0  0  0  0  0  0
  151.5822  138.8543  155.0680 C   0  0  0  0  0  0  0  0  0  0  0  0
  151.9471  139.9869  155.8206 C   0  0  0  0  0  0  0  0  0  0  0  0
  151.8812  139.9321  157.2328 C   0  0  0  0  0  0  0  0  0  0  0  0
  152.2409  141.0585  158.0042 N   0  0  0  0  0  0  0  0  0  0  0  0
  151.5089  142.2867  157.7070 C   0  0  0  0  0  0  0  0  0  0  0  0
  152.1933  143.4965  158.3718 C   0  0  1  0  0  0  0  0  0  0  0  0
  151.3858  144.7856  158.1890 C   0  0  0  0  0  0  0  0  0  0  0  0
  152.3311  143.2501  159.7686 O   0  0  0  0  0  0  0  0  0  0  0  0
  153.1434  142.1120  160.0426 C   0  0  1  0  0  0  0  0  0  0  0  0
  153.3089  141.9922  161.5612 C   0  0  0  0  0  0  0  0  0  0  0  0
  152.4822  140.8624  159.4322 C   0  0  0  0  0  0  0  0  0  0  0  0
  151.4771  138.8113  157.8795 N   0  0  0  0  0  0  0  0  0  0  0  0
  151.1266  137.7287  157.1545 C   0  0  0  0  0  0  0  0  0  0  0  0
  147.0255  132.7035  152.5433 H   0  0  0  0  0  0  0  0  0  0  0  0
  148.4987  132.0232  153.2464 H   0  0  0  0  0  0  0  0  0  0  0  0
  148.6040  133.3026  152.0253 H   0  0  0  0  0  0  0  0  0  0  0  0
  150.2838  134.4987  153.7049 H   0  0  0  0  0  0  0  0  0  0  0  0
  151.2882  133.0504  155.4961 H   0  0  0  0  0  0  0  0  0  0  0  0
  150.1397  132.1856  154.4846 H   0  0  0  0  0  0  0  0  0  0  0  0
  149.6689  132.6997  156.0997 H   0  0  0  0  0  0  0  0  0  0  0  0
  151.0171  136.4058  154.1321 H   0  0  0  0  0  0  0  0  0  0  0  0
  151.6172  138.9115  153.9913 H   0  0  0  0  0  0  0  0  0  0  0  0
  152.2808  140.8764  155.3077 H   0  0  0  0  0  0  0  0  0  0  0  0
  151.4395  142.4634  156.6345 H   0  0  0  0  0  0  0  0  0  0  0  0
  150.4881  142.1823  158.0769 H   0  0  0  0  0  0  0  0  0  0  0  0
  153.1829  143.6432  157.9353 H   0  0  0  0  0  0  0  0  0  0  0  0
  151.2643  145.0261  157.1326 H   0  0  0  0  0  0  0  0  0  0  0  0
  151.8848  145.6290  158.6668 H   0  0  0  0  0  0  0  0  0  0  0  0
  150.3921  144.6942  158.6282 H   0  0  0  0  0  0  0  0  0  0  0  0
  154.1290  142.2606  159.5978 H   0  0  0  0  0  0  0  0  0  0  0  0
  153.9376  141.1402  161.8210 H   0  0  0  0  0  0  0  0  0  0  0  0
  152.3453  141.8604  162.0541 H   0  0  0  0  0  0  0  0  0  0  0  0
  153.7751  142.8873  161.9736 H   0  0  0  0  0  0  0  0  0  0  0  0
  151.5345  140.6556  159.9318 H   0  0  0  0  0  0  0  0  0  0  0  0
  153.1295  139.9982  159.5878 H   0  0  0  0  0  0  0  0  0  0  0  0
  150.8070  136.8659  157.7206 H   0  0  0  0  0  0  0  0  0  0  0  0
  1  2  1  0  0  0  0
  1 22  1  0  0  0  0
  1 23  1  0  0  0  0
  1 24  1  0  0  0  0
  2  3  1  0  0  0  0
  3  4  1  0  0  0  0
  3  5  1  0  0  0  0
  3 25  1  0  0  0  0
  4 26  1  0  0  0  0
  4 27  1  0  0  0  0
  4 28  1  0  0  0  0
  5  6  2  0  0  0  0
  5  7  1  0  0  0  0
  7  8  1  0  0  0  0
  7 29  1  0  0  0  0
  8 21  1  0  0  0  0
  8  9  2  0  0  0  0
  9 10  1  0  0  0  0
  9 30  1  0  0  0  0
 10 11  2  0  0  0  0
 10 31  1  0  0  0  0
 11 12  1  0  0  0  0
 11 20  1  0  0  0  0
 12 19  1  0  0  0  0
 12 13  1  0  0  0  0
 13 14  1  0  0  0  0
 13 32  1  0  0  0  0
 13 33  1  0  0  0  0
 14 15  1  0  0  0  0
 14 16  1  0  0  0  0
 14 34  1  0  0  0  0
 15 35  1  0  0  0  0
 15 36  1  0  0  0  0
 15 37  1  0  0  0  0
 16 17  1  0  0  0  0
 17 18  1  0  0  0  0
 17 19  1  0  0  0  0
 17 38  1  0  0  0  0
 18 39  1  0  0  0  0
 18 40  1  0  0  0  0
 18 41  1  0  0  0  0
 19 42  1  0  0  0  0
 19 43  1  0  0  0  0
 20 21  2  0  0  0  0
 21 44  1  0  0  0  0
M  END
> <s_m_source_file>
AV-unprocessed.smi

> <i_m_source_file_index>
2148

> <i_lp_mmshare_version>
43012

> <i_f3d_flags>
0

> <s_epik_input>
W0NIM11TW0NASF0oW0NIM10pQyg9TylbTkhdYzFbY0hdW2NIXWMobltjSF0xKU4yW0NIMl1bQ0BASF0oW0NIM10pT1tDQEBIXShbQ0gzXSlbQ0gyXTI=

> <s_epik_cmdline>
J2VwaWtfcHl0aG9uJywgJy1waCcsICc3LjAnLCAnLXRuJywgJzgnLCAnLW1hJywgJzIwMCcsICctbWV0YWxfYmluZGluZycsICctaW1hZScsICc8aW5maWxlLm1hZT4nLCAnLW9tYWUnLCAnPG91dGZpbGUubWFlPic=

> <r_lp_tautomer_probability>
1

> <r_epik_Ionization_Penalty>
0.000646494

> <r_epik_Ionization_Penalty_Charging>
0

> <r_epik_Ionization_Penalty_Neutral>
0.000646494

> <r_epik_State_Penalty>
0.000408447

> <r_epik_Charging_Adjusted_Penalty>
0.000408447

> <i_epik_Tot_Q>
0

> <i_epik_Tot_abs_Q>
0

> <r_epik_Metal_State_Penalty>
-0

> <b_epik_Metal_Only>
0

> <s_lp_Force_Field>
OPLS_2005

> <r_lp_Energy>
22.6119

> <b_lp_Chiralities_Consistent>
1

> <s_lp_Variant>
AV-unprocessed.smi:2148-1

> <Gold.Version>
5.8.1

> <Gold.Id.Protein>
6NUR|6NUR_protein|mol2

> <Gold.PLP.Fitness>
39.6728

> <Gold.PLP.PLP>
-40.0003

> <Gold.PLP.part.hbond>
0.0000

> <Gold.PLP.part.metal>
0.0000

> <Gold.PLP.part.buried>
-6.1948

> <Gold.PLP.part.nonpolar>
-34.3947

> <Gold.PLP.part.repulsive>
0.0880

> <Gold.PLP.ligand.clash>
0.0000

> <Gold.PLP.ligand.torsion>
0.3397

> <Gold.PLP.Chemscore.Hbond>
0.0000

> <Gold.PLP.Chemscore.CHOScore>
0.0000

> <Gold.PLP.Chemscore.Metal>
0.0000

> <Gold.PLP.Chemscore.Internal.Correction>
0.3520

> <Gold.Rescore>
     Score         DG    S(hbond)    S(metal)    S(lipo)     H(rot)  DE(clash)    DE(int)     intcor
     13.56     -15.27       0.00        0.00     111.35       1.27       0.04       1.66       ----

> <Gold.Chemscore.Fitness>
13.5619

> <Gold.Chemscore.DG>
-15.2685

> <Gold.Chemscore.ZeroCoef>
-5.4800

> <Gold.Chemscore.Hbond>
0.0003

> <Gold.Chemscore.Metal>
0.0000

> <Gold.Chemscore.Lipo>
111.3502

> <Gold.Chemscore.Internal_Hbond>
0.0000

> <Gold.Chemscore.DEClash>
0.0433

> <Gold.Chemscore.DEInternal>
1.6633

> <Gold.Chemscore.Rot>
1.2659

> <Gold.Chemscore.Internal.Correction>
   9.000000E+99

> <Gold.Chemscore.Hbond.Weighted>
-0.0011

> <Gold.Chemscore.Metal.Weighted>
-0.0000

> <Gold.Chemscore.Lipo.Weighted>
-13.0280

> <Gold.Chemscore.Internal_Hbond.Weighted>
0.0000

> <Gold.Chemscore.DEClash.Weighted>
0.0433

> <Gold.Chemscore.DEInternal.Weighted>
1.6633

> <Gold.Chemscore.Rot.Weighted>
3.2406

> <Gold.Chemscore.Internal.Correction.Weighted>
   9.000000E+99

> <Gold.Protein.RotatedTorsions>
[ 6907 6896 6895 6894 ] final  111.45 input  -60.11 | X-H torsion
[ 7974 7965 7964 7962 ] final  110.93 input  175.53 | X-H torsion
[ 8008 7997 7996 7995 ] final   89.77 input   59.86 | X-H torsion
[ 10167 10162 10161 10158 ] final  -71.14 input  -65.29 | X-H torsion
[ 10718 10713 10712 10709 ] final   28.23 input   66.30 | X-H torsion
[ 10763 10752 10751 10750 ] final -139.96 input  -60.55 | X-H torsion
[ 11005 11000 10999 10996 ] final -131.12 input  -57.11 | X-H torsion

> <Gold.Protein.ActiveResidues>
 VAL166  LYS551  ARG553  GLY616  TRP617  ASP618  TYR619  PRO620  LYS621  CYS622 
 ASP623  PHE694  ASN695  SER759  ASP760  ASP761  ALA762  ILE779  LEU786  VAL792 
 PHE793  MET794  SER795  GLU796  ALA797  LYS798  CYS799  TRP800  GLU811  SER814 

> <Gold.Protein.RotatedAtoms>
  152.4969  133.8656  159.7272 H   0  0  0  0  0  0  0  0  0  0  0  0  # atno 6907 bound_to 6896
  150.9156  133.6934  159.2851 H   0  0  0  0  0  0  0  0  0  0  0  0  # atno 6908 bound_to 6896
  151.4328  135.1016  159.9700 H   0  0  0  0  0  0  0  0  0  0  0  0  # atno 6909 bound_to 6896
  145.2487  139.2748  143.4079 H   0  0  0  0  0  0  0  0  0  0  0  0  # atno 7974 bound_to 7965
  156.0039  140.3357  155.6873 H   0  0  0  0  0  0  0  0  0  0  0  0  # atno 8008 bound_to 7997
  155.6251  140.0679  157.2684 H   0  0  0  0  0  0  0  0  0  0  0  0  # atno 8009 bound_to 7997
  154.4258  140.1769  156.1401 H   0  0  0  0  0  0  0  0  0  0  0  0  # atno 8010 bound_to 7997
  140.5296  143.2323  151.7285 H   0  0  0  0  0  0  0  0  0  0  0  0  # atno 10167 bound_to 10162
  157.2307  130.7022  149.6312 H   0  0  0  0  0  0  0  0  0  0  0  0  # atno 10718 bound_to 10713
  154.8593  135.3567  154.5631 H   0  0  0  0  0  0  0  0  0  0  0  0  # atno 10763 bound_to 10752
  153.6246  135.7004  153.5303 H   0  0  0  0  0  0  0  0  0  0  0  0  # atno 10764 bound_to 10752
  153.3100  135.4181  155.1288 H   0  0  0  0  0  0  0  0  0  0  0  0  # atno 10765 bound_to 10752
  140.9286  134.1349  157.4254 H   0  0  0  0  0  0  0  0  0  0  0  0  # atno 11005 bound_to 11000
  146.3308  140.2872  142.8613 LP  0  0  0  0  0  0  0  0  0  0  0  0  # atno 17320 bound_to 7965
  144.9522  140.8190  143.5564 LP  0  0  0  0  0  0  0  0  0  0  0  0  # atno 17321 bound_to 7965
  139.4950  144.4134  152.0056 LP  0  0  0  0  0  0  0  0  0  0  0  0  # atno 17342 bound_to 10162
  140.3235  144.3400  150.6004 LP  0  0  0  0  0  0  0  0  0  0  0  0  # atno 17343 bound_to 10162
  155.9675  130.4490  150.5640 LP  0  0  0  0  0  0  0  0  0  0  0  0  # atno 17370 bound_to 10713
  157.3481  131.0728  151.1735 LP  0  0  0  0  0  0  0  0  0  0  0  0  # atno 17371 bound_to 10713
  139.8791  134.9997  156.5969 LP  0  0  0  0  0  0  0  0  0  0  0  0  # atno 17394 bound_to 11000
  140.7893  133.8596  155.8632 LP  0  0  0  0  0  0  0  0  0  0  0  0  # atno 17395 bound_to 11000

$$$$
