AV-unprocessed.smi:2044|AV-procd|sdf|8302|dock9
  -GOLD-   2272010563D 1   1.00000     0.00000
 Structure written by MMmdl.
 38 39  0  0  0  0  0  0  0  0  2 V2000
  143.7482  143.1205  161.5435 C   0  0  0  0  0  0  0  0  0  0  0  0
  144.9017  142.9056  160.6244 C   0  0  0  0  0  0  0  0  0  0  0  0
  144.9960  142.7829  159.2672 C   0  0  0  0  0  0  0  0  0  0  0  0
  146.3881  142.5877  159.0550 C   0  0  0  0  0  0  0  0  0  0  0  0
  146.9889  142.4263  157.8662 N   0  5  0  0  0  0  0  0  0  0  0  0
  148.3284  142.2471  157.7988 C   0  0  0  0  0  0  0  0  0  0  0  0
  148.9128  141.2114  157.4725 O   0  0  0  0  0  0  0  0  0  0  0  0
  149.0360  143.3353  158.1278 N   0  0  0  0  0  0  0  0  0  0  0  0
  150.4926  143.4238  158.1336 C   0  0  0  0  0  0  0  0  0  0  0  0
  151.0263  144.0198  159.4603 C   0  0  2  0  0  0  0  0  0  0  0  0
  151.8851  145.2587  159.1203 C   0  0  0  0  0  0  0  0  0  0  0  0
  151.7214  143.0408  160.3250 N   0  0  0  0  0  0  0  0  0  0  0  0
  152.0859  143.5998  161.6302 C   0  0  0  0  0  0  0  0  0  0  0  0
  152.8213  142.5854  162.5228 C   0  0  0  0  0  0  0  0  0  0  0  0
  153.9786  142.1057  161.8507 O   0  0  0  0  0  0  0  0  0  0  0  0
  153.6614  141.4921  160.6080 C   0  0  0  0  0  0  0  0  0  0  0  0
  152.9335  142.5010  159.7031 C   0  0  0  0  0  0  0  0  0  0  0  0
  147.0798  142.6085  160.1822 N   0  0  0  0  0  0  0  0  0  0  0  0
  146.1327  142.8044  161.1945 O   0  0  0  0  0  0  0  0  0  0  0  0
  143.0926  143.9040  161.1636 H   0  0  0  0  0  0  0  0  0  0  0  0
  144.0872  143.4168  162.5364 H   0  0  0  0  0  0  0  0  0  0  0  0
  143.1618  142.2072  161.6445 H   0  0  0  0  0  0  0  0  0  0  0  0
  144.1980  142.8217  158.5410 H   0  0  0  0  0  0  0  0  0  0  0  0
  148.5256  144.1671  158.3864 H   0  0  0  0  0  0  0  0  0  0  0  0
  150.9026  142.4241  157.9824 H   0  0  0  0  0  0  0  0  0  0  0  0
  150.8340  144.0053  157.2769 H   0  0  0  0  0  0  0  0  0  0  0  0
  150.1540  144.3865  160.0036 H   0  0  0  0  0  0  0  0  0  0  0  0
  151.3829  145.9006  158.3959 H   0  0  0  0  0  0  0  0  0  0  0  0
  152.8473  144.9733  158.6940 H   0  0  0  0  0  0  0  0  0  0  0  0
  152.0745  145.8798  159.9950 H   0  0  0  0  0  0  0  0  0  0  0  0
  152.7120  144.4826  161.4927 H   0  0  0  0  0  0  0  0  0  0  0  0
  151.1969  143.9231  162.1699 H   0  0  0  0  0  0  0  0  0  0  0  0
  153.1225  143.0549  163.4592 H   0  0  0  0  0  0  0  0  0  0  0  0
  152.1665  141.7509  162.7787 H   0  0  0  0  0  0  0  0  0  0  0  0
  154.5823  141.1531  160.1330 H   0  0  0  0  0  0  0  0  0  0  0  0
  153.0437  140.6085  160.7762 H   0  0  0  0  0  0  0  0  0  0  0  0
  152.6914  141.9905  158.7723 H   0  0  0  0  0  0  0  0  0  0  0  0
  153.6136  143.3157  159.4493 H   0  0  0  0  0  0  0  0  0  0  0  0
  1  2  1  0  0  0  0
  1 20  1  0  0  0  0
  1 21  1  0  0  0  0
  1 22  1  0  0  0  0
  2 19  1  0  0  0  0
  2  3  2  0  0  0  0
  3  4  1  0  0  0  0
  3 23  1  0  0  0  0
  4  5  1  0  0  0  0
  4 18  2  0  0  0  0
  5  6  1  0  0  0  0
  6  7  2  0  0  0  0
  6  8  1  0  0  0  0
  8  9  1  0  0  0  0
  8 24  1  0  0  0  0
  9 10  1  0  0  0  0
  9 25  1  0  0  0  0
  9 26  1  0  0  0  0
 10 11  1  0  0  0  0
 10 12  1  0  0  0  0
 10 27  1  0  0  0  0
 11 28  1  0  0  0  0
 11 29  1  0  0  0  0
 11 30  1  0  0  0  0
 12 17  1  0  0  0  0
 12 13  1  0  0  0  0
 13 14  1  0  0  0  0
 13 31  1  0  0  0  0
 13 32  1  0  0  0  0
 14 15  1  0  0  0  0
 14 33  1  0  0  0  0
 14 34  1  0  0  0  0
 15 16  1  0  0  0  0
 16 17  1  0  0  0  0
 16 35  1  0  0  0  0
 16 36  1  0  0  0  0
 17 37  1  0  0  0  0
 17 38  1  0  0  0  0
 18 19  1  0  0  0  0
M  CHG  1   5  -1
M  END
> <s_m_source_file>
AV-unprocessed.smi

> <i_m_source_file_index>
2044

> <i_lp_mmshare_version>
43012

> <i_f3d_flags>
0

> <s_epik_input>
W0NIM11jMVtjSF1jKG5vMSlbTkhdQyg9TylbTkhdW0NIMl1bQ0BIXShbQ0gzXSlOMltDSDJdW0NIMl1PW0NIMl1bQ0gyXTI=

> <s_epik_cmdline>
J2VwaWtfcHl0aG9uJywgJy1waCcsICc3LjAnLCAnLXRuJywgJzgnLCAnLW1hJywgJzIwMCcsICctbWV0YWxfYmluZGluZycsICctaW1hZScsICc8aW5maWxlLm1hZT4nLCAnLW9tYWUnLCAnPG91dGZpbGUubWFlPic=

> <r_epik_Ionization_Penalty>
6.88367

> <r_epik_Ionization_Penalty_Charging>
6.57198

> <r_epik_Ionization_Penalty_Neutral>
0.311681

> <r_epik_State_Penalty>
6.77619

> <r_epik_Charging_Adjusted_Penalty>
13.3482

> <i_epik_Tot_Q>
-1

> <i_epik_Tot_abs_Q>
1

> <r_epik_Metal_State_Penalty>
2.70533

> <b_epik_Metal_Only>
1

> <s_lp_Force_Field>
OPLS_2005

> <r_lp_Energy>
25.764

> <b_lp_Chiralities_Consistent>
1

> <s_lp_Variant>
AV-unprocessed.smi:2044-5

> <Gold.Version>
5.8.1

> <Gold.Id.Protein>
6NUR|6NUR_protein|mol2

> <Gold.PLP.Fitness>
43.7145

> <Gold.PLP.PLP>
-41.8693

> <Gold.PLP.part.hbond>
-5.3354

> <Gold.PLP.part.metal>
0.0000

> <Gold.PLP.part.buried>
-5.0034

> <Gold.PLP.part.nonpolar>
-32.0973

> <Gold.PLP.part.repulsive>
0.4155

> <Gold.PLP.ligand.clash>
0.0000

> <Gold.PLP.ligand.torsion>
1.4341

> <Gold.PLP.Chemscore.Hbond>
1.5539

> <Gold.PLP.Chemscore.CHOScore>
0.0000

> <Gold.PLP.Chemscore.Metal>
0.0000

> <Gold.Chemscore.Hbonds>
donor molecule, donor type, donor heavy atom, donor atom, acceptor molecule, acceptor atom, score
      L1  H     8    24       P1  8029  0.41
      P1  H  6933  6944       L1    18  0.49
      P1  H  6934  6946       L1    18  0.08

> <Gold.PLP.Chemscore.Internal.Correction>
0.0517

> <Gold.Rescore>
     Score         DG    S(hbond)    S(metal)    S(lipo)     H(rot)  DE(clash)    DE(int)     intcor
     15.68     -17.39       1.47        0.00      93.81       1.55       0.17       1.55       ----

> <Gold.Chemscore.Fitness>
15.6758

> <Gold.Chemscore.DG>
-17.3897

> <Gold.Chemscore.ZeroCoef>
-5.4800

> <Gold.Chemscore.Hbond>
1.4653

> <Gold.Chemscore.Metal>
0.0000

> <Gold.Chemscore.Lipo>
93.8109

> <Gold.Chemscore.Internal_Hbond>
0.0000

> <Gold.Chemscore.DEClash>
0.1674

> <Gold.Chemscore.DEInternal>
1.5465

> <Gold.Chemscore.Rot>
1.5470

> <Gold.Chemscore.Internal.Correction>
   9.000000E+99

> <Gold.Chemscore.Hbonds>
donor molecule, donor type, donor heavy atom, donor atom, acceptor molecule, acceptor atom, score
      L1  H     8    24       P1  8029  0.18
      P1  H  6933  6944       L1    18  0.04

> <Gold.Chemscore.Hbond.Weighted>
-4.8940

> <Gold.Chemscore.Metal.Weighted>
-0.0000

> <Gold.Chemscore.Lipo.Weighted>
-10.9759

> <Gold.Chemscore.Internal_Hbond.Weighted>
0.0000

> <Gold.Chemscore.DEClash.Weighted>
0.1674

> <Gold.Chemscore.DEInternal.Weighted>
1.5465

> <Gold.Chemscore.Rot.Weighted>
3.9603

> <Gold.Chemscore.Internal.Correction.Weighted>
   9.000000E+99

> <Gold.Protein.RotatedTorsions>
[ 6907 6896 6895 6894 ] final  -43.08 input  -60.11 | X-H torsion
[ 7974 7965 7964 7962 ] final  -25.56 input  175.53 | X-H torsion
[ 8008 7997 7996 7995 ] final  140.54 input   59.86 | X-H torsion
[ 10167 10162 10161 10158 ] final  157.69 input  -65.29 | X-H torsion
[ 10718 10713 10712 10709 ] final -118.27 input   66.30 | X-H torsion
[ 10763 10752 10751 10750 ] final  -76.51 input  -60.55 | X-H torsion
[ 11005 11000 10999 10996 ] final   62.83 input  -57.11 | X-H torsion

> <Gold.Protein.ActiveResidues>
 VAL166  LYS551  ARG553  GLY616  TRP617  ASP618  TYR619  PRO620  LYS621  CYS622 
 ASP623  PHE694  ASN695  SER759  ASP760  ASP761  ALA762  ILE779  LEU786  VAL792 
 PHE793  MET794  SER795  GLU796  ALA797  LYS798  CYS799  TRP800  GLU811  SER814 

> <Gold.Protein.RotatedAtoms>
  150.9479  134.8882  159.7653 H   0  0  0  0  0  0  0  0  0  0  0  0  # atno 6907 bound_to 6896
  152.5107  134.3848  159.9373 H   0  0  0  0  0  0  0  0  0  0  0  0  # atno 6908 bound_to 6896
  151.3865  133.3763  159.2751 H   0  0  0  0  0  0  0  0  0  0  0  0  # atno 6909 bound_to 6896
  146.1483  140.4903  142.8622 H   0  0  0  0  0  0  0  0  0  0  0  0  # atno 7974 bound_to 7965
  156.2978  140.2339  156.4417 H   0  0  0  0  0  0  0  0  0  0  0  0  # atno 8008 bound_to 7997
  154.8179  140.0439  157.1410 H   0  0  0  0  0  0  0  0  0  0  0  0  # atno 8009 bound_to 7997
  154.9348  140.3021  155.5153 H   0  0  0  0  0  0  0  0  0  0  0  0  # atno 8010 bound_to 7997
  139.4824  144.4894  151.8330 H   0  0  0  0  0  0  0  0  0  0  0  0  # atno 10167 bound_to 10162
  156.1094  130.6236  150.9270 H   0  0  0  0  0  0  0  0  0  0  0  0  # atno 10718 bound_to 10713
  154.5007  135.5795  153.6529 H   0  0  0  0  0  0  0  0  0  0  0  0  # atno 10763 bound_to 10752
  152.9878  135.6135  154.3006 H   0  0  0  0  0  0  0  0  0  0  0  0  # atno 10764 bound_to 10752
  154.2913  135.2848  155.2633 H   0  0  0  0  0  0  0  0  0  0  0  0  # atno 10765 bound_to 10752
  140.0065  134.6361  155.9846 H   0  0  0  0  0  0  0  0  0  0  0  0  # atno 11005 bound_to 11000
  144.7873  140.5961  143.6565 LP  0  0  0  0  0  0  0  0  0  0  0  0  # atno 17320 bound_to 7965
  145.4884  139.1490  143.3723 LP  0  0  0  0  0  0  0  0  0  0  0  0  # atno 17321 bound_to 7965
  140.4377  144.2030  150.5890 LP  0  0  0  0  0  0  0  0  0  0  0  0  # atno 17342 bound_to 10162
  140.4715  143.2411  151.9082 LP  0  0  0  0  0  0  0  0  0  0  0  0  # atno 17343 bound_to 10162
  157.6274  131.0924  150.8508 LP  0  0  0  0  0  0  0  0  0  0  0  0  # atno 17370 bound_to 10713
  156.8621  130.5117  149.5303 LP  0  0  0  0  0  0  0  0  0  0  0  0  # atno 17371 bound_to 10713
  141.1681  133.6537  156.4551 LP  0  0  0  0  0  0  0  0  0  0  0  0  # atno 17394 bound_to 11000
  140.4631  134.6823  157.5095 LP  0  0  0  0  0  0  0  0  0  0  0  0  # atno 17395 bound_to 11000

$$$$
