AV-unprocessed.smi:15|AV-procd|sdf|83|dock7
  -GOLD-   2262015213D 1   1.00000     0.00000
 Structure written by MMmdl.
 53 56  0  0  0  0  0  0  0  0  1 V2000
  151.4200  139.4607  155.3517 C   0  0  0  0  0  0  0  0  0  0  0  0
  150.6468  140.4962  156.1795 C   0  0  0  0  0  0  0  0  0  0  0  0
  151.0732  140.5466  157.5810 N   0  0  0  0  0  0  0  0  0  0  0  0
  152.2096  141.3916  157.9578 C   0  0  0  0  0  0  0  0  0  0  0  0
  151.7932  142.6899  158.6727 C   0  0  2  0  0  0  0  0  0  0  0  0
  152.6626  143.8874  158.3023 C   0  0  0  0  0  0  0  0  0  0  0  0
  152.4562  144.8340  159.4717 C   0  0  0  0  0  0  0  0  0  0  0  0
  151.9995  143.9158  160.6099 C   0  0  0  0  0  0  0  0  0  0  0  0
  152.0157  142.5996  160.0712 O   0  0  0  0  0  0  0  0  0  0  0  0
  150.9602  139.3978  158.2982 C   0  0  0  0  0  0  0  0  0  0  0  0
  152.0570  138.8751  158.9105 N   0  0  0  0  0  0  0  0  0  0  0  0
  151.9579  137.7603  159.6401 C   0  0  0  0  0  0  0  0  0  0  0  0
  150.8774  137.0173  159.8849 N   0  0  0  0  0  0  0  0  0  0  0  0
  149.7754  137.5288  159.2654 C   0  0  0  0  0  0  0  0  0  0  0  0
  149.7277  138.7038  158.4629 C   0  0  0  0  0  0  0  0  0  0  0  0
  148.4324  138.9048  157.9999 N   0  0  0  0  0  0  0  0  0  0  0  0
  147.7528  137.9140  158.5088 C   0  0  0  0  0  0  0  0  0  0  0  0
  148.4841  137.0305  159.2700 N   0  0  0  0  0  0  0  0  0  0  0  0
  147.9857  135.8469  159.9532 C   0  0  0  0  0  0  0  0  0  0  0  0
  147.5750  136.0666  161.4326 C   0  0  1  0  0  0  0  0  0  0  0  0
  148.7257  136.5734  162.0878 O   0  0  0  0  0  0  0  0  0  0  0  0
  146.4282  137.0444  161.6467 C   0  0  0  0  0  0  0  0  0  0  0  0
  145.9600  136.7027  163.0579 C   0  0  0  0  0  0  0  0  0  0  0  0
  146.1736  135.3028  163.2017 O   0  0  0  0  0  0  0  0  0  0  0  0
  147.0394  134.8219  162.1748 C   0  0  2  0  0  0  0  0  0  0  0  0
  148.0917  133.8544  162.7385 C   0  0  0  0  0  0  0  0  0  0  0  0
  151.1369  139.5229  154.3012 H   0  0  0  0  0  0  0  0  0  0  0  0
  151.2128  138.4430  155.6820 H   0  0  0  0  0  0  0  0  0  0  0  0
  152.4955  139.6273  155.4160 H   0  0  0  0  0  0  0  0  0  0  0  0
  150.8018  141.4745  155.7219 H   0  0  0  0  0  0  0  0  0  0  0  0
  149.5767  140.2940  156.1268 H   0  0  0  0  0  0  0  0  0  0  0  0
  152.9032  140.8271  158.5805 H   0  0  0  0  0  0  0  0  0  0  0  0
  152.7805  141.6526  157.0680 H   0  0  0  0  0  0  0  0  0  0  0  0
  150.7454  142.9290  158.4820 H   0  0  0  0  0  0  0  0  0  0  0  0
  153.7111  143.5894  158.2518 H   0  0  0  0  0  0  0  0  0  0  0  0
  152.3900  144.3292  157.3434 H   0  0  0  0  0  0  0  0  0  0  0  0
  153.3699  145.3760  159.7169 H   0  0  0  0  0  0  0  0  0  0  0  0
  151.6806  145.5665  159.2444 H   0  0  0  0  0  0  0  0  0  0  0  0
  152.6524  143.9779  161.4806 H   0  0  0  0  0  0  0  0  0  0  0  0
  150.9864  144.1682  160.9255 H   0  0  0  0  0  0  0  0  0  0  0  0
  152.8755  137.4153  160.0936 H   0  0  0  0  0  0  0  0  0  0  0  0
  146.6930  137.7954  158.3351 H   0  0  0  0  0  0  0  0  0  0  0  0
  147.1359  135.4663  159.3848 H   0  0  0  0  0  0  0  0  0  0  0  0
  148.7564  135.0772  159.8933 H   0  0  0  0  0  0  0  0  0  0  0  0
  149.3102  135.8523  162.2657 H   0  0  0  0  0  0  0  0  0  0  0  0
  146.7160  138.0901  161.5320 H   0  0  0  0  0  0  0  0  0  0  0  0
  145.6107  136.8459  160.9547 H   0  0  0  0  0  0  0  0  0  0  0  0
  146.5654  137.2261  163.7989 H   0  0  0  0  0  0  0  0  0  0  0  0
  144.9159  136.9663  163.2272 H   0  0  0  0  0  0  0  0  0  0  0  0
  146.3843  134.2612  161.5097 H   0  0  0  0  0  0  0  0  0  0  0  0
  148.7552  133.4954  161.9515 H   0  0  0  0  0  0  0  0  0  0  0  0
  147.6122  132.9851  163.1885 H   0  0  0  0  0  0  0  0  0  0  0  0
  148.7028  134.3256  163.5087 H   0  0  0  0  0  0  0  0  0  0  0  0
  1  2  1  0  0  0  0
  1 27  1  0  0  0  0
  1 28  1  0  0  0  0
  1 29  1  0  0  0  0
  2  3  1  0  0  0  0
  2 30  1  0  0  0  0
  2 31  1  0  0  0  0
  3  4  1  0  0  0  0
  3 10  1  0  0  0  0
  4  5  1  0  0  0  0
  4 32  1  0  0  0  0
  4 33  1  0  0  0  0
  5  9  1  0  0  0  0
  5  6  1  0  0  0  0
  5 34  1  0  0  0  0
  6  7  1  0  0  0  0
  6 35  1  0  0  0  0
  6 36  1  0  0  0  0
  7  8  1  0  0  0  0
  7 37  1  0  0  0  0
  7 38  1  0  0  0  0
  8  9  1  0  0  0  0
  8 39  1  0  0  0  0
  8 40  1  0  0  0  0
 10 15  1  0  0  0  0
 10 11  2  0  0  0  0
 11 12  1  0  0  0  0
 12 13  2  0  0  0  0
 12 41  1  0  0  0  0
 13 14  1  0  0  0  0
 14 18  1  0  0  0  0
 14 15  2  0  0  0  0
 15 16  1  0  0  0  0
 16 17  2  0  0  0  0
 17 18  1  0  0  0  0
 17 42  1  0  0  0  0
 18 19  1  0  0  0  0
 19 20  1  0  0  0  0
 19 43  1  0  0  0  0
 19 44  1  0  0  0  0
 20 25  1  0  0  0  0
 20 21  1  0  0  0  0
 20 22  1  0  0  0  0
 21 45  1  0  0  0  0
 22 23  1  0  0  0  0
 22 46  1  0  0  0  0
 22 47  1  0  0  0  0
 23 24  1  0  0  0  0
 23 48  1  0  0  0  0
 23 49  1  0  0  0  0
 24 25  1  0  0  0  0
 25 26  1  0  0  0  0
 25 50  1  0  0  0  0
 26 51  1  0  0  0  0
 26 52  1  0  0  0  0
 26 53  1  0  0  0  0
M  END
> <s_m_source_file>
AV-unprocessed.smi

> <i_m_source_file_index>
15

> <i_lp_mmshare_version>
43012

> <i_f3d_flags>
0

> <s_epik_input>
TzFbQ0gyXVtDSDJdW0NIMl1bQ0BIXTFbQ0gyXU4oW0NIMl1bQ0gzXSljKG5bY0hdbjIpYyhjMjMpbltjSF1uM1tDSDJdW0NAQF00KFtPSF0pW0NIMl1bQ0gyXU9bQ0BIXTRbQ0gzXQ==

> <s_epik_cmdline>
J2VwaWtfcHl0aG9uJywgJy1waCcsICc3LjAnLCAnLXRuJywgJzgnLCAnLW1hJywgJzIwMCcsICctbWV0YWxfYmluZGluZycsICctaW1hZScsICc8aW5maWxlLm1hZT4nLCAnLW9tYWUnLCAnPG91dGZpbGUubWFlPic=

> <r_lp_tautomer_probability>
1

> <r_epik_Ionization_Penalty>
0.00360814

> <r_epik_Ionization_Penalty_Charging>
0

> <r_epik_Ionization_Penalty_Neutral>
0.00360814

> <r_epik_State_Penalty>
0.00237482

> <r_epik_Charging_Adjusted_Penalty>
0.00237482

> <i_epik_Tot_Q>
0

> <i_epik_Tot_abs_Q>
0

> <r_epik_Metal_State_Penalty>
-0

> <b_epik_Metal_Only>
0

> <s_lp_Force_Field>
OPLS_2005

> <r_lp_Energy>
48.2804

> <b_lp_Chiralities_Consistent>
1

> <s_lp_Variant>
AV-unprocessed.smi:15-5

> <Gold.Version>
5.8.1

> <Gold.Id.Protein>
6NUR|6NUR_protein|mol2

> <Gold.PLP.Fitness>
49.6658

> <Gold.PLP.PLP>
-46.5776

> <Gold.PLP.part.hbond>
-2.4718

> <Gold.PLP.part.metal>
0.0000

> <Gold.PLP.part.buried>
-8.2135

> <Gold.PLP.part.nonpolar>
-36.3752

> <Gold.PLP.part.repulsive>
0.0143

> <Gold.PLP.ligand.clash>
0.0000

> <Gold.PLP.ligand.torsion>
1.8938

> <Gold.PLP.Chemscore.Hbond>
1.9913

> <Gold.PLP.Chemscore.CHOScore>
0.0000

> <Gold.PLP.Chemscore.Metal>
0.0000

> <Gold.Chemscore.Hbonds>
donor molecule, donor type, donor heavy atom, donor atom, acceptor molecule, acceptor atom, score
      P1  H  6896  6908       L1    13  1.00
      P1  H  6931  6943       L1    21  1.00

> <Gold.PLP.Chemscore.Internal.Correction>
0.9020

> <Gold.Rescore>
     Score         DG    S(hbond)    S(metal)    S(lipo)     H(rot)  DE(clash)    DE(int)     intcor
     16.10     -18.10       1.79        0.00     110.16       2.44       0.20       1.80       ----

> <Gold.Chemscore.Fitness>
16.1019

> <Gold.Chemscore.DG>
-18.0984

> <Gold.Chemscore.ZeroCoef>
-5.4800

> <Gold.Chemscore.Hbond>
1.7916

> <Gold.Chemscore.Metal>
0.0000

> <Gold.Chemscore.Lipo>
110.1619

> <Gold.Chemscore.Internal_Hbond>
0.0000

> <Gold.Chemscore.DEClash>
0.2004

> <Gold.Chemscore.DEInternal>
1.7961

> <Gold.Chemscore.Rot>
2.4431

> <Gold.Chemscore.Internal.Correction>
   9.000000E+99

> <Gold.Chemscore.Hbonds>
donor molecule, donor type, donor heavy atom, donor atom, acceptor molecule, acceptor atom, score
      P1  H  6896  6908       L1    13  0.87
      P1  H  6931  6943       L1    21  0.96

> <Gold.Chemscore.Hbond.Weighted>
-5.9839

> <Gold.Chemscore.Metal.Weighted>
-0.0000

> <Gold.Chemscore.Lipo.Weighted>
-12.8889

> <Gold.Chemscore.Internal_Hbond.Weighted>
0.0000

> <Gold.Chemscore.DEClash.Weighted>
0.2004

> <Gold.Chemscore.DEInternal.Weighted>
1.7961

> <Gold.Chemscore.Rot.Weighted>
6.2544

> <Gold.Chemscore.Internal.Correction.Weighted>
   9.000000E+99

> <Gold.Protein.RotatedTorsions>
[ 6907 6896 6895 6894 ] final -150.11 input  -60.11 | X-H torsion
[ 7974 7965 7964 7962 ] final  -28.22 input  175.53 | X-H torsion
[ 8008 7997 7996 7995 ] final  -23.34 input   59.86 | X-H torsion
[ 10167 10162 10161 10158 ] final   33.60 input  -65.29 | X-H torsion
[ 10718 10713 10712 10709 ] final  -56.96 input   66.30 | X-H torsion
[ 10763 10752 10751 10750 ] final   75.51 input  -60.55 | X-H torsion
[ 11005 11000 10999 10996 ] final   34.47 input  -57.11 | X-H torsion

> <Gold.Protein.ActiveResidues>
 VAL166  LYS551  ARG553  GLY616  TRP617  ASP618  TYR619  PRO620  LYS621  CYS622 
 ASP623  PHE694  ASN695  SER759  ASP760  ASP761  ALA762  ILE779  LEU786  VAL792 
 PHE793  MET794  SER795  GLU796  ALA797  LYS798  CYS799  TRP800  GLU811  SER814 

> <Gold.Protein.RotatedAtoms>
  151.1938  133.4651  159.2595 H   0  0  0  0  0  0  0  0  0  0  0  0  # atno 6907 bound_to 6896
  151.1137  135.0041  159.8516 H   0  0  0  0  0  0  0  0  0  0  0  0  # atno 6908 bound_to 6896
  152.5452  134.1855  159.8706 H   0  0  0  0  0  0  0  0  0  0  0  0  # atno 6909 bound_to 6896
  146.1304  140.5254  142.8696 H   0  0  0  0  0  0  0  0  0  0  0  0  # atno 7974 bound_to 7965
  154.4591  140.1983  156.0295 H   0  0  0  0  0  0  0  0  0  0  0  0  # atno 8008 bound_to 7997
  156.0805  140.3272  155.7659 H   0  0  0  0  0  0  0  0  0  0  0  0  # atno 8009 bound_to 7997
  155.5120  140.0562  157.2912 H   0  0  0  0  0  0  0  0  0  0  0  0  # atno 8010 bound_to 7997
  140.4393  144.1211  150.6171 H   0  0  0  0  0  0  0  0  0  0  0  0  # atno 10167 bound_to 10162
  156.1247  130.4163  150.0376 H   0  0  0  0  0  0  0  0  0  0  0  0  # atno 10718 bound_to 10713
  153.0660  135.4986  154.8201 H   0  0  0  0  0  0  0  0  0  0  0  0  # atno 10763 bound_to 10752
  154.6954  135.2992  154.9422 H   0  0  0  0  0  0  0  0  0  0  0  0  # atno 10764 bound_to 10752
  154.0163  135.6748  153.4822 H   0  0  0  0  0  0  0  0  0  0  0  0  # atno 10765 bound_to 10752
  140.2525  134.3287  155.7885 H   0  0  0  0  0  0  0  0  0  0  0  0  # atno 11005 bound_to 11000
  144.7684  140.5583  143.6687 LP  0  0  0  0  0  0  0  0  0  0  0  0  # atno 17320 bound_to 7965
  145.5274  139.1475  143.3518 LP  0  0  0  0  0  0  0  0  0  0  0  0  # atno 17321 bound_to 7965
  140.4337  143.2556  151.9562 LP  0  0  0  0  0  0  0  0  0  0  0  0  # atno 17342 bound_to 10162
  139.4788  144.5720  151.8073 LP  0  0  0  0  0  0  0  0  0  0  0  0  # atno 17343 bound_to 10162
  156.8305  130.9390  151.3637 LP  0  0  0  0  0  0  0  0  0  0  0  0  # atno 17370 bound_to 10713
  157.6429  130.8821  149.9483 LP  0  0  0  0  0  0  0  0  0  0  0  0  # atno 17371 bound_to 10713
  141.2200  133.7362  156.9059 LP  0  0  0  0  0  0  0  0  0  0  0  0  # atno 17394 bound_to 11000
  140.1544  134.9208  157.2635 LP  0  0  0  0  0  0  0  0  0  0  0  0  # atno 17395 bound_to 11000

$$$$
