AV-unprocessed.smi:744|AV-procd|sdf|3569|dock2
  -GOLD-   22720 0563D 1   1.00000     0.00000
 Structure written by MMmdl.
 34 35  0  0  0  0  0  0  0  0  1 V2000
  144.8556  137.4590  152.4099 O   0  0  0  0  0  0  0  0  0  0  0  0
  146.0162  137.0785  152.2523 C   0  0  0  0  0  0  0  0  0  0  0  0
  147.0855  137.8454  152.5103 N   0  0  0  0  0  0  0  0  0  0  0  0
  147.0329  139.2146  153.0124 C   0  0  0  0  0  0  0  0  0  0  0  0
  147.9599  139.4199  154.2295 C   0  0  1  0  0  0  0  0  0  0  0  0
  149.1904  138.5035  154.2721 C   0  0  0  0  0  0  0  0  0  0  0  0
  150.2148  139.2209  155.1645 C   0  0  0  0  0  0  0  0  0  0  0  0
  149.6770  140.6422  155.3953 C   0  0  0  0  0  0  0  0  0  0  0  0
  148.5391  140.8335  154.3872 C   0  0  1  0  0  0  0  0  0  0  0  0
  149.0794  141.3142  153.1699 O   0  0  0  0  0  0  0  0  0  0  0  0
  146.3843  135.8627  151.8111 N   0  0  0  0  0  0  0  0  0  0  0  0
  145.5512  134.7774  151.4292 C   0  0  0  0  0  0  0  0  0  0  0  0
  146.2359  133.5890  151.0877 C   0  0  0  0  0  0  0  0  0  0  0  0
  145.5005  132.4546  150.6931 C   0  0  0  0  0  0  0  0  0  0  0  0
  144.0973  132.5378  150.6491 C   0  0  0  0  0  0  0  0  0  0  0  0
  143.4941  133.7582  151.0048 C   0  0  0  0  0  0  0  0  0  0  0  0
  144.1970  134.8465  151.3837 N   0  0  0  0  0  0  0  0  0  0  0  0
  148.0026  137.4537  152.3539 H   0  0  0  0  0  0  0  0  0  0  0  0
  147.3243  139.8750  152.1953 H   0  0  0  0  0  0  0  0  0  0  0  0
  146.0059  139.4779  153.2703 H   0  0  0  0  0  0  0  0  0  0  0  0
  147.3793  139.2203  155.1322 H   0  0  0  0  0  0  0  0  0  0  0  0
  148.9466  137.5074  154.6434 H   0  0  0  0  0  0  0  0  0  0  0  0
  149.6032  138.3866  153.2692 H   0  0  0  0  0  0  0  0  0  0  0  0
  150.3435  138.7017  156.1149 H   0  0  0  0  0  0  0  0  0  0  0  0
  151.1886  139.2475  154.6742 H   0  0  0  0  0  0  0  0  0  0  0  0
  149.2709  140.7064  156.4057 H   0  0  0  0  0  0  0  0  0  0  0  0
  150.4527  141.4049  155.3137 H   0  0  0  0  0  0  0  0  0  0  0  0
  147.7928  141.5433  154.7459 H   0  0  0  0  0  0  0  0  0  0  0  0
  149.1271  140.5950  152.5588 H   0  0  0  0  0  0  0  0  0  0  0  0
  147.3765  135.6942  151.7378 H   0  0  0  0  0  0  0  0  0  0  0  0
  147.3148  133.5423  151.1265 H   0  0  0  0  0  0  0  0  0  0  0  0
  146.0051  131.5370  150.4285 H   0  0  0  0  0  0  0  0  0  0  0  0
  143.4992  131.6893  150.3511 H   0  0  0  0  0  0  0  0  0  0  0  0
  142.4195  133.8640  150.9848 H   0  0  0  0  0  0  0  0  0  0  0  0
  1  2  2  0  0  0  0
  2  3  1  0  0  0  0
  2 11  1  0  0  0  0
  3  4  1  0  0  0  0
  3 18  1  0  0  0  0
  4  5  1  0  0  0  0
  4 19  1  0  0  0  0
  4 20  1  0  0  0  0
  5  9  1  0  0  0  0
  5  6  1  0  0  0  0
  5 21  1  0  0  0  0
  6  7  1  0  0  0  0
  6 22  1  0  0  0  0
  6 23  1  0  0  0  0
  7  8  1  0  0  0  0
  7 24  1  0  0  0  0
  7 25  1  0  0  0  0
  8  9  1  0  0  0  0
  8 26  1  0  0  0  0
  8 27  1  0  0  0  0
  9 10  1  0  0  0  0
  9 28  1  0  0  0  0
 10 29  1  0  0  0  0
 11 12  1  0  0  0  0
 11 30  1  0  0  0  0
 12 17  1  0  0  0  0
 12 13  2  0  0  0  0
 13 14  1  0  0  0  0
 13 31  1  0  0  0  0
 14 15  2  0  0  0  0
 14 32  1  0  0  0  0
 15 16  1  0  0  0  0
 15 33  1  0  0  0  0
 16 17  2  0  0  0  0
 16 34  1  0  0  0  0
M  END
> <s_m_source_file>
AV-unprocessed.smi

> <i_m_source_file_index>
744

> <i_lp_mmshare_version>
43012

> <i_f3d_flags>
0

> <s_epik_input>
bjFbY0hdW2NIXVtjSF1bY0hdYzFbTkhdQyg9TylbTkhdW0NIMl1bQ0BASF0yW0NIMl1bQ0gyXVtDSDJdW0NASF0yW09IXQ==

> <s_epik_cmdline>
J2VwaWtfcHl0aG9uJywgJy1waCcsICc3LjAnLCAnLXRuJywgJzgnLCAnLW1hJywgJzIwMCcsICctbWV0YWxfYmluZGluZycsICctaW1hZScsICc8aW5maWxlLm1hZT4nLCAnLW9tYWUnLCAnPG91dGZpbGUubWFlPic=

> <r_lp_tautomer_probability>
1

> <r_epik_Ionization_Penalty>
5.04769e-05

> <r_epik_Ionization_Penalty_Charging>
0

> <r_epik_Ionization_Penalty_Neutral>
5.04769e-05

> <r_epik_State_Penalty>
-0

> <r_epik_Charging_Adjusted_Penalty>
0

> <i_epik_Tot_Q>
0

> <i_epik_Tot_abs_Q>
0

> <r_epik_Metal_State_Penalty>
-0

> <b_epik_Metal_Only>
0

> <s_lp_Force_Field>
OPLS_2005

> <r_lp_Energy>
27.3906

> <b_lp_Chiralities_Consistent>
1

> <s_lp_Variant>
AV-unprocessed.smi:744-2

> <Gold.Version>
5.8.1

> <Gold.Id.Protein>
6NUR|6NUR_protein|mol2

> <Gold.PLP.Fitness>
43.6327

> <Gold.PLP.PLP>
-29.8209

> <Gold.PLP.part.hbond>
-4.2690

> <Gold.PLP.part.metal>
0.0000

> <Gold.PLP.part.buried>
-2.4116

> <Gold.PLP.part.nonpolar>
-24.4878

> <Gold.PLP.part.repulsive>
0.4886

> <Gold.PLP.ligand.clash>
0.0000

> <Gold.PLP.ligand.torsion>
0.4447

> <Gold.PLP.Chemscore.Hbond>
3.9760

> <Gold.PLP.Chemscore.CHOScore>
0.9233

> <Gold.PLP.Chemscore.Metal>
0.0000

> <Gold.Chemscore.Hbonds>
donor molecule, donor type, donor heavy atom, donor atom, acceptor molecule, acceptor atom, score
      L1  H     3    18       P1  7948  1.00
      L1  H    10    29       P1  7957  0.96
      L1  H    11    30       P1  7948  1.00
      P1  H  8011  8017       L1    10  0.95
      L1  C    16    34       P1 10186  1.00

> <Gold.PLP.Chemscore.Internal.Correction>
0.0031

> <Gold.Rescore>
     Score         DG    S(hbond)    S(metal)    S(lipo)     H(rot)  DE(clash)    DE(int)     intcor
     17.45     -19.55       3.17        0.00      69.18       1.81       0.27       1.83       ----

> <Gold.Chemscore.Fitness>
17.4517

> <Gold.Chemscore.DG>
-19.5531

> <Gold.Chemscore.ZeroCoef>
-5.4800

> <Gold.Chemscore.Hbond>
3.1738

> <Gold.Chemscore.Metal>
0.0000

> <Gold.Chemscore.Lipo>
69.1787

> <Gold.Chemscore.Internal_Hbond>
0.0000

> <Gold.Chemscore.DEClash>
0.2674

> <Gold.Chemscore.DEInternal>
1.8341

> <Gold.Chemscore.Rot>
1.8052

> <Gold.Chemscore.Internal.Correction>
   9.000000E+99

> <Gold.Chemscore.Hbonds>
donor molecule, donor type, donor heavy atom, donor atom, acceptor molecule, acceptor atom, score
      L1  H     3    18       P1  7948  0.94
      L1  H    10    29       P1  7957  0.90
      L1  H    11    30       P1  7948  0.96
      P1  H  8011  8017       L1    10  0.20

> <Gold.Chemscore.Hbond.Weighted>
-10.6004

> <Gold.Chemscore.Metal.Weighted>
-0.0000

> <Gold.Chemscore.Lipo.Weighted>
-8.0939

> <Gold.Chemscore.Internal_Hbond.Weighted>
0.0000

> <Gold.Chemscore.DEClash.Weighted>
0.2674

> <Gold.Chemscore.DEInternal.Weighted>
1.8341

> <Gold.Chemscore.Rot.Weighted>
4.6212

> <Gold.Chemscore.Internal.Correction.Weighted>
   9.000000E+99

> <Gold.Protein.RotatedTorsions>
[ 6907 6896 6895 6894 ] final  151.90 input  -60.11 | X-H torsion
[ 7974 7965 7964 7962 ] final  165.93 input  175.53 | X-H torsion
[ 8008 7997 7996 7995 ] final -136.12 input   59.86 | X-H torsion
[ 10167 10162 10161 10158 ] final -116.09 input  -65.29 | X-H torsion
[ 10718 10713 10712 10709 ] final  168.34 input   66.30 | X-H torsion
[ 10763 10752 10751 10750 ] final  -63.34 input  -60.55 | X-H torsion
[ 11005 11000 10999 10996 ] final   43.35 input  -57.11 | X-H torsion

> <Gold.Protein.ActiveResidues>
 VAL166  LYS551  ARG553  GLY616  TRP617  ASP618  TYR619  PRO620  LYS621  CYS622 
 ASP623  PHE694  ASN695  SER759  ASP760  ASP761  ALA762  ILE779  LEU786  VAL792 
 PHE793  MET794  SER795  GLU796  ALA797  LYS798  CYS799  TRP800  GLU811  SER814 

> <Gold.Protein.RotatedAtoms>
  152.0942  133.4216  159.4557 H   0  0  0  0  0  0  0  0  0  0  0  0  # atno 6907 bound_to 6896
  150.6863  134.2836  159.4646 H   0  0  0  0  0  0  0  0  0  0  0  0  # atno 6908 bound_to 6896
  152.0690  134.9545  160.0625 H   0  0  0  0  0  0  0  0  0  0  0  0  # atno 6909 bound_to 6896
  144.7482  139.8542  143.6375 H   0  0  0  0  0  0  0  0  0  0  0  0  # atno 7974 bound_to 7965
  155.3900  140.0499  157.3041 H   0  0  0  0  0  0  0  0  0  0  0  0  # atno 8008 bound_to 7997
  154.5041  140.2167  155.9248 H   0  0  0  0  0  0  0  0  0  0  0  0  # atno 8009 bound_to 7997
  156.1504  140.3137  155.8643 H   0  0  0  0  0  0  0  0  0  0  0  0  # atno 8010 bound_to 7997
  140.0830  143.4770  152.1915 H   0  0  0  0  0  0  0  0  0  0  0  0  # atno 10167 bound_to 10162
  157.0385  131.0280  151.2721 H   0  0  0  0  0  0  0  0  0  0  0  0  # atno 10718 bound_to 10713
  154.3136  135.6210  153.5476 H   0  0  0  0  0  0  0  0  0  0  0  0  # atno 10763 bound_to 10752
  152.9827  135.5707  154.5149 H   0  0  0  0  0  0  0  0  0  0  0  0  # atno 10764 bound_to 10752
  154.4804  135.2863  155.1552 H   0  0  0  0  0  0  0  0  0  0  0  0  # atno 10765 bound_to 10752
  140.1653  134.4289  155.8291 H   0  0  0  0  0  0  0  0  0  0  0  0  # atno 11005 bound_to 11000
  146.1394  139.4447  143.0118 LP  0  0  0  0  0  0  0  0  0  0  0  0  # atno 17320 bound_to 7965
  145.7041  141.0127  143.1488 LP  0  0  0  0  0  0  0  0  0  0  0  0  # atno 17321 bound_to 7965
  139.5768  144.7491  151.3743 LP  0  0  0  0  0  0  0  0  0  0  0  0  # atno 17342 bound_to 10162
  140.7068  143.7493  150.7496 LP  0  0  0  0  0  0  0  0  0  0  0  0  # atno 17343 bound_to 10162
  157.5123  130.7946  149.7718 LP  0  0  0  0  0  0  0  0  0  0  0  0  # atno 17370 bound_to 10713
  156.0046  130.3862  150.2479 LP  0  0  0  0  0  0  0  0  0  0  0  0  # atno 17371 bound_to 10713
  141.2213  133.6932  156.7668 LP  0  0  0  0  0  0  0  0  0  0  0  0  # atno 17394 bound_to 11000
  140.2441  134.8591  157.3602 LP  0  0  0  0  0  0  0  0  0  0  0  0  # atno 17395 bound_to 11000

$$$$
