AV-unprocessed.smi:3046|AV-procd|sdf|11620|dock9
  -GOLD-   2272017 03D 1   1.00000     0.00000
 Structure written by MMmdl.
 37 37  0  0  0  0  0  0  0  0  1 V2000
  149.7308  134.7944  154.6787 C   0  0  0  0  0  0  0  0  0  0  0  0
  148.5241  134.3660  155.0781 C   0  0  0  0  0  0  0  0  0  0  0  0
  147.2277  135.1158  154.8438 C   0  0  0  0  0  0  0  0  0  0  0  0
  147.4456  136.3221  154.0560 N   0  0  0  0  0  0  0  0  0  0  0  0
  147.0778  137.5613  154.4204 C   0  0  0  0  0  0  0  0  0  0  0  0
  146.4913  137.8017  155.4767 O   0  0  0  0  0  0  0  0  0  0  0  0
  147.4324  138.6864  153.4351 C   0  0  1  0  0  0  0  0  0  0  0  0
  146.9253  140.0600  153.9196 C   0  0  0  0  0  0  0  0  0  0  0  0
  148.8885  138.7216  153.2192 N   0  0  0  0  0  0  0  0  0  0  0  0
  149.6984  138.9340  154.4171 C   0  0  1  0  0  0  0  0  0  0  0  0
  151.0691  138.2381  154.3077 C   0  0  0  0  0  0  0  0  0  0  0  0
  149.8133  140.4556  154.6685 C   0  0  0  0  0  0  0  0  0  0  0  0
  150.4203  140.8023  155.9446 N   0  0  0  0  0  0  0  0  0  0  0  0
  150.6326  142.0562  156.4796 C   0  0  0  0  0  0  0  0  0  0  0  0
  151.2316  141.8850  157.6944 C   0  0  0  0  0  0  0  0  0  0  0  0
  151.3513  140.4723  157.8157 C   0  0  0  0  0  0  0  0  0  0  0  0
  150.8677  139.8276  156.7664 N   0  0  0  0  0  0  0  0  0  0  0  0
  149.8473  135.7276  154.1472 H   0  0  0  0  0  0  0  0  0  0  0  0
  150.6196  134.2140  154.8783 H   0  0  0  0  0  0  0  0  0  0  0  0
  148.4470  133.4278  155.6083 H   0  0  0  0  0  0  0  0  0  0  0  0
  146.5447  134.4662  154.2965 H   0  0  0  0  0  0  0  0  0  0  0  0
  146.7442  135.3575  155.7920 H   0  0  0  0  0  0  0  0  0  0  0  0
  147.9278  136.2131  153.1757 H   0  0  0  0  0  0  0  0  0  0  0  0
  146.9235  138.4411  152.5013 H   0  0  0  0  0  0  0  0  0  0  0  0
  145.8480  140.0469  154.0891 H   0  0  0  0  0  0  0  0  0  0  0  0
  147.1227  140.8438  153.1895 H   0  0  0  0  0  0  0  0  0  0  0  0
  147.4055  140.3576  154.8528 H   0  0  0  0  0  0  0  0  0  0  0  0
  149.2205  137.9277  152.6895 H   0  0  0  0  0  0  0  0  0  0  0  0
  149.1578  138.5113  155.2654 H   0  0  0  0  0  0  0  0  0  0  0  0
  151.7034  138.4998  155.1549 H   0  0  0  0  0  0  0  0  0  0  0  0
  151.5977  138.5231  153.3972 H   0  0  0  0  0  0  0  0  0  0  0  0
  150.9694  137.1529  154.3104 H   0  0  0  0  0  0  0  0  0  0  0  0
  150.3734  140.9399  153.8668 H   0  0  0  0  0  0  0  0  0  0  0  0
  148.8168  140.8983  154.6472 H   0  0  0  0  0  0  0  0  0  0  0  0
  150.3395  142.9555  155.9580 H   0  0  0  0  0  0  0  0  0  0  0  0
  151.5383  142.6517  158.3901 H   0  0  0  0  0  0  0  0  0  0  0  0
  151.7728  139.8998  158.6287 H   0  0  0  0  0  0  0  0  0  0  0  0
  1  2  2  0  0  0  0
  1 18  1  0  0  0  0
  1 19  1  0  0  0  0
  2  3  1  0  0  0  0
  2 20  1  0  0  0  0
  3  4  1  0  0  0  0
  3 21  1  0  0  0  0
  3 22  1  0  0  0  0
  4  5  1  0  0  0  0
  4 23  1  0  0  0  0
  5  6  2  0  0  0  0
  5  7  1  0  0  0  0
  7  8  1  0  0  0  0
  7  9  1  0  0  0  0
  7 24  1  0  0  0  0
  8 25  1  0  0  0  0
  8 26  1  0  0  0  0
  8 27  1  0  0  0  0
  9 10  1  0  0  0  0
  9 28  1  0  0  0  0
 10 11  1  0  0  0  0
 10 12  1  0  0  0  0
 10 29  1  0  0  0  0
 11 30  1  0  0  0  0
 11 31  1  0  0  0  0
 11 32  1  0  0  0  0
 12 13  1  0  0  0  0
 12 33  1  0  0  0  0
 12 34  1  0  0  0  0
 13 17  1  0  0  0  0
 13 14  1  0  0  0  0
 14 15  2  0  0  0  0
 14 35  1  0  0  0  0
 15 16  1  0  0  0  0
 15 36  1  0  0  0  0
 16 17  2  0  0  0  0
 16 37  1  0  0  0  0
M  END
> <s_m_source_file>
AV-unprocessed.smi

> <i_m_source_file_index>
3046

> <i_lp_mmshare_version>
43012

> <i_f3d_flags>
0

> <s_epik_input>
W0NIMl09W0NIXVtDSDJdW05IXUMoPU8pW0NASF0oW0NIM10pW05IXVtDQEhdKFtDSDNdKVtDSDJdbjFbY0hdW2NIXVtjSF1uMQ==

> <s_epik_cmdline>
J2VwaWtfcHl0aG9uJywgJy1waCcsICc3LjAnLCAnLXRuJywgJzgnLCAnLW1hJywgJzIwMCcsICctbWV0YWxfYmluZGluZycsICctaW1hZScsICc8aW5maWxlLm1hZT4nLCAnLW9tYWUnLCAnPG91dGZpbGUubWFlPic=

> <r_lp_tautomer_probability>
1

> <r_epik_Ionization_Penalty>
0.950627

> <r_epik_Ionization_Penalty_Charging>
0

> <r_epik_Ionization_Penalty_Neutral>
0.950627

> <r_epik_State_Penalty>
0.994814

> <r_epik_Charging_Adjusted_Penalty>
0.994814

> <i_epik_Tot_Q>
0

> <i_epik_Tot_abs_Q>
0

> <r_epik_Metal_State_Penalty>
0.994788

> <b_epik_Metal_Only>
0

> <s_lp_Force_Field>
OPLS_2005

> <r_lp_Energy>
8.07161

> <b_lp_Chiralities_Consistent>
1

> <s_lp_Variant>
AV-unprocessed.smi:3046-8

> <Gold.Version>
5.8.1

> <Gold.Id.Protein>
6NUR|6NUR_protein|mol2

> <Gold.PLP.Fitness>
36.1744

> <Gold.PLP.PLP>
-27.7930

> <Gold.PLP.part.hbond>
-2.9596

> <Gold.PLP.part.metal>
0.0000

> <Gold.PLP.part.buried>
-2.2815

> <Gold.PLP.part.nonpolar>
-23.3605

> <Gold.PLP.part.repulsive>
0.0181

> <Gold.PLP.ligand.clash>
0.0000

> <Gold.PLP.ligand.torsion>
0.4058

> <Gold.PLP.Chemscore.Hbond>
2.0000

> <Gold.PLP.Chemscore.CHOScore>
1.0000

> <Gold.PLP.Chemscore.Metal>
0.0000

> <Gold.Chemscore.Hbonds>
donor molecule, donor type, donor heavy atom, donor atom, acceptor molecule, acceptor atom, score
      L1  H     4    23       P1  7948  1.00
      L1  H     9    28       P1  7948  1.00
      L1  C    14    35       P1  8028  1.00

> <Gold.PLP.Chemscore.Internal.Correction>
0.1928

> <Gold.Rescore>
     Score         DG    S(hbond)    S(metal)    S(lipo)     H(rot)  DE(clash)    DE(int)     intcor
     12.29     -14.24       1.95        0.00      66.88       2.17       0.36       1.59       ----

> <Gold.Chemscore.Fitness>
12.2921

> <Gold.Chemscore.DG>
-14.2429

> <Gold.Chemscore.ZeroCoef>
-5.4800

> <Gold.Chemscore.Hbond>
1.9472

> <Gold.Chemscore.Metal>
0.0000

> <Gold.Chemscore.Lipo>
66.8759

> <Gold.Chemscore.Internal_Hbond>
0.0000

> <Gold.Chemscore.DEClash>
0.3635

> <Gold.Chemscore.DEInternal>
1.5873

> <Gold.Chemscore.Rot>
2.1739

> <Gold.Chemscore.Internal.Correction>
   9.000000E+99

> <Gold.Chemscore.Hbonds>
donor molecule, donor type, donor heavy atom, donor atom, acceptor molecule, acceptor atom, score
      L1  H     4    23       P1  7948  1.00
      L1  H     9    28       P1  7948  0.93

> <Gold.Chemscore.Hbond.Weighted>
-6.5036

> <Gold.Chemscore.Metal.Weighted>
-0.0000

> <Gold.Chemscore.Lipo.Weighted>
-7.8245

> <Gold.Chemscore.Internal_Hbond.Weighted>
0.0000

> <Gold.Chemscore.DEClash.Weighted>
0.3635

> <Gold.Chemscore.DEInternal.Weighted>
1.5873

> <Gold.Chemscore.Rot.Weighted>
5.5652

> <Gold.Chemscore.Internal.Correction.Weighted>
   9.000000E+99

> <Gold.Protein.RotatedTorsions>
[ 6907 6896 6895 6894 ] final   81.79 input  -60.11 | X-H torsion
[ 7974 7965 7964 7962 ] final -153.54 input  175.53 | X-H torsion
[ 8008 7997 7996 7995 ] final -161.46 input   59.86 | X-H torsion
[ 10167 10162 10161 10158 ] final   83.12 input  -65.29 | X-H torsion
[ 10718 10713 10712 10709 ] final  -63.65 input   66.30 | X-H torsion
[ 10763 10752 10751 10750 ] final -175.50 input  -60.55 | X-H torsion
[ 11005 11000 10999 10996 ] final  169.01 input  -57.11 | X-H torsion

> <Gold.Protein.ActiveResidues>
 VAL166  LYS551  ARG553  GLY616  TRP617  ASP618  TYR619  PRO620  LYS621  CYS622 
 ASP623  PHE694  ASN695  SER759  ASP760  ASP761  ALA762  ILE779  LEU786  VAL792 
 PHE793  MET794  SER795  GLU796  ALA797  LYS798  CYS799  TRP800  GLU811  SER814 

> <Gold.Protein.RotatedAtoms>
  152.5279  134.3150  159.9127 H   0  0  0  0  0  0  0  0  0  0  0  0  # atno 6907 bound_to 6896
  151.3100  133.4078  159.2654 H   0  0  0  0  0  0  0  0  0  0  0  0  # atno 6908 bound_to 6896
  151.0047  134.9366  159.8031 H   0  0  0  0  0  0  0  0  0  0  0  0  # atno 6909 bound_to 6896
  144.7735  140.4511  143.5890 H   0  0  0  0  0  0  0  0  0  0  0  0  # atno 7974 bound_to 7965
  155.7925  140.0880  157.2001 H   0  0  0  0  0  0  0  0  0  0  0  0  # atno 8008 bound_to 7997
  154.3985  140.1487  156.3237 H   0  0  0  0  0  0  0  0  0  0  0  0  # atno 8009 bound_to 7997
  155.8545  140.3433  155.5717 H   0  0  0  0  0  0  0  0  0  0  0  0  # atno 8010 bound_to 7997
  139.9217  144.6209  150.8434 H   0  0  0  0  0  0  0  0  0  0  0  0  # atno 10167 bound_to 10162
  156.0778  130.4223  150.1307 H   0  0  0  0  0  0  0  0  0  0  0  0  # atno 10718 bound_to 10713
  154.5836  135.2838  155.0707 H   0  0  0  0  0  0  0  0  0  0  0  0  # atno 10763 bound_to 10752
  154.2034  135.6420  153.5097 H   0  0  0  0  0  0  0  0  0  0  0  0  # atno 10764 bound_to 10752
  153.0096  135.5474  154.6498 H   0  0  0  0  0  0  0  0  0  0  0  0  # atno 10765 bound_to 10752
  140.2932  134.7656  157.3856 H   0  0  0  0  0  0  0  0  0  0  0  0  # atno 11005 bound_to 11000
  145.6253  139.1529  143.2999 LP  0  0  0  0  0  0  0  0  0  0  0  0  # atno 17320 bound_to 7965
  146.1899  140.6361  142.9150 LP  0  0  0  0  0  0  0  0  0  0  0  0  # atno 17321 bound_to 7965
  140.7660  143.3292  151.2447 LP  0  0  0  0  0  0  0  0  0  0  0  0  # atno 17342 bound_to 10162
  139.6856  143.9779  152.2832 LP  0  0  0  0  0  0  0  0  0  0  0  0  # atno 17343 bound_to 10162
  156.9345  130.9724  151.3527 LP  0  0  0  0  0  0  0  0  0  0  0  0  # atno 17370 bound_to 10713
  157.5881  130.8424  149.8619 LP  0  0  0  0  0  0  0  0  0  0  0  0  # atno 17371 bound_to 10713
  140.1176  134.5262  155.8211 LP  0  0  0  0  0  0  0  0  0  0  0  0  # atno 17394 bound_to 11000
  141.2142  133.6745  156.6806 LP  0  0  0  0  0  0  0  0  0  0  0  0  # atno 17395 bound_to 11000

$$$$
