AV-unprocessed.smi:1254|AV-procd|sdf|5278|dock10
  -GOLD-   22720 4393D 1   1.00000     0.00000
 Structure written by MMmdl.
 45 46  0  0  0  0  0  0  0  0  3 V2000
  152.3848  142.2737  160.1437 C   0  0  0  0  0  0  0  0  0  0  0  0
  152.2408  141.1999  159.1200 C   0  0  0  0  0  0  0  0  0  0  0  0
  151.1778  140.7538  158.3873 C   0  0  0  0  0  0  0  0  0  0  0  0
  151.7364  139.7014  157.6117 C   0  0  0  0  0  0  0  0  0  0  0  0
  151.0797  138.9499  156.7146 N   0  5  0  0  0  0  0  0  0  0  0  0
  150.4955  139.5275  155.6400 C   0  0  0  0  0  0  0  0  0  0  0  0
  151.0683  139.9637  154.6389 O   0  0  0  0  0  0  0  0  0  0  0  0
  149.1622  139.6040  155.7303 N   0  0  0  0  0  0  0  0  0  0  0  0
  148.2851  140.1762  154.7182 C   0  0  0  0  0  0  0  0  0  0  0  0
  147.9008  139.1176  153.6760 C   0  0  1  0  0  0  0  0  0  0  0  0
  147.2239  137.8934  154.3231 C   0  0  0  0  0  0  0  0  0  0  0  0
  146.8002  136.9216  153.2847 N   0  3  1  0  0  0  0  0  0  0  0  0
  146.1808  135.6893  153.8364 C   0  0  0  0  0  0  0  0  0  0  0  0
  145.9389  134.6000  152.7692 C   0  0  0  0  0  0  0  0  0  0  0  0
  144.6589  134.8642  151.9583 C   0  0  0  0  0  0  0  0  0  0  0  0
  145.8821  133.2106  153.4214 C   0  0  0  0  0  0  0  0  0  0  0  0
  145.9375  137.5851  152.2788 C   0  0  0  0  0  0  0  0  0  0  0  0
  146.6432  138.8202  151.6971 C   0  0  0  0  0  0  0  0  0  0  0  0
  146.9902  139.7063  152.7523 O   0  0  0  0  0  0  0  0  0  0  0  0
  153.0289  139.5359  157.8399 N   0  0  0  0  0  0  0  0  0  0  0  0
  153.3586  140.4883  158.8117 O   0  0  0  0  0  0  0  0  0  0  0  0
  151.9583  143.2096  159.7834 H   0  0  0  0  0  0  0  0  0  0  0  0
  153.4335  142.4506  160.3834 H   0  0  0  0  0  0  0  0  0  0  0  0
  151.8693  141.9988  161.0640 H   0  0  0  0  0  0  0  0  0  0  0  0
  150.1616  141.1182  158.4052 H   0  0  0  0  0  0  0  0  0  0  0  0
  148.7286  139.2331  156.5630 H   0  0  0  0  0  0  0  0  0  0  0  0
  147.3899  140.5604  155.2096 H   0  0  0  0  0  0  0  0  0  0  0  0
  148.7763  141.0220  154.2341 H   0  0  0  0  0  0  0  0  0  0  0  0
  148.8014  138.7973  153.1475 H   0  0  0  0  0  0  0  0  0  0  0  0
  147.9204  137.4256  155.0180 H   0  0  0  0  0  0  0  0  0  0  0  0
  146.3558  138.2080  154.9049 H   0  0  0  0  0  0  0  0  0  0  0  0
  146.8065  135.3054  154.6437 H   0  0  0  0  0  0  0  0  0  0  0  0
  145.2211  135.9403  154.2910 H   0  0  0  0  0  0  0  0  0  0  0  0
  146.7787  134.5852  152.0753 H   0  0  0  0  0  0  0  0  0  0  0  0
  143.7801  134.8972  152.6033 H   0  0  0  0  0  0  0  0  0  0  0  0
  144.4959  134.0812  151.2170 H   0  0  0  0  0  0  0  0  0  0  0  0
  144.7140  135.8114  151.4213 H   0  0  0  0  0  0  0  0  0  0  0  0
  145.0567  133.1374  154.1305 H   0  0  0  0  0  0  0  0  0  0  0  0
  146.8042  132.9903  153.9604 H   0  0  0  0  0  0  0  0  0  0  0  0
  145.7468  132.4291  152.6730 H   0  0  0  0  0  0  0  0  0  0  0  0
  145.6998  136.8880  151.4743 H   0  0  0  0  0  0  0  0  0  0  0  0
  144.9932  137.8768  152.7414 H   0  0  0  0  0  0  0  0  0  0  0  0
  147.5338  138.5344  151.1349 H   0  0  0  0  0  0  0  0  0  0  0  0
  145.9819  139.3396  151.0033 H   0  0  0  0  0  0  0  0  0  0  0  0
  147.6334  136.6303  152.7936 H   0  0  0  0  0  0  0  0  0  0  0  0
  1  2  1  0  0  0  0
  1 22  1  0  0  0  0
  1 23  1  0  0  0  0
  1 24  1  0  0  0  0
  2 21  1  0  0  0  0
  2  3  2  0  0  0  0
  3  4  1  0  0  0  0
  3 25  1  0  0  0  0
  4  5  1  0  0  0  0
  4 20  2  0  0  0  0
  5  6  1  0  0  0  0
  6  7  2  0  0  0  0
  6  8  1  0  0  0  0
  8  9  1  0  0  0  0
  8 26  1  0  0  0  0
  9 10  1  0  0  0  0
  9 27  1  0  0  0  0
  9 28  1  0  0  0  0
 10 19  1  0  0  0  0
 10 11  1  0  0  0  0
 10 29  1  0  0  0  0
 11 12  1  0  0  0  0
 11 30  1  0  0  0  0
 11 31  1  0  0  0  0
 12 13  1  0  0  0  0
 12 17  1  0  0  0  0
 12 45  1  0  0  0  0
 13 14  1  0  0  0  0
 13 32  1  0  0  0  0
 13 33  1  0  0  0  0
 14 15  1  0  0  0  0
 14 16  1  0  0  0  0
 14 34  1  0  0  0  0
 15 35  1  0  0  0  0
 15 36  1  0  0  0  0
 15 37  1  0  0  0  0
 16 38  1  0  0  0  0
 16 39  1  0  0  0  0
 16 40  1  0  0  0  0
 17 18  1  0  0  0  0
 17 41  1  0  0  0  0
 17 42  1  0  0  0  0
 18 19  1  0  0  0  0
 18 43  1  0  0  0  0
 18 44  1  0  0  0  0
 20 21  1  0  0  0  0
M  CHG  1   5  -1
M  CHG  1  12   1
M  END
> <s_m_source_file>
AV-unprocessed.smi

> <i_m_source_file_index>
1254

> <i_lp_mmshare_version>
43012

> <i_f3d_flags>
0

> <s_epik_input>
W0NIM11jMVtjSF1jKG5vMSlbTkhdQyg9TylbTkhdW0NIMl1bQ0BASF0yW0NIMl1OKFtDSDJdW0NIMl1PMilbQ0gyXVtDSF0oW0NIM10pW0NIM10=

> <s_epik_cmdline>
J2VwaWtfcHl0aG9uJywgJy1waCcsICc3LjAnLCAnLXRuJywgJzgnLCAnLW1hJywgJzIwMCcsICctbWV0YWxfYmluZGluZycsICctaW1hZScsICc8aW5maWxlLm1hZT4nLCAnLW9tYWUnLCAnPG91dGZpbGUubWFlPic=

> <r_epik_Ionization_Penalty>
6.33139

> <r_epik_Ionization_Penalty_Charging>
6.33128

> <r_epik_Ionization_Penalty_Neutral>
0.000104968

> <r_epik_State_Penalty>
6.32522

> <r_epik_Charging_Adjusted_Penalty>
12.6565

> <i_epik_Tot_Q>
0

> <i_epik_Tot_abs_Q>
2

> <r_epik_Metal_State_Penalty>
2.26285

> <b_epik_Metal_Only>
1

> <s_lp_Force_Field>
OPLS_2005

> <r_lp_Energy>
6.3285

> <b_lp_Chiralities_Consistent>
1

> <s_lp_Variant>
AV-unprocessed.smi:1254-10

> <Gold.Version>
5.8.1

> <Gold.Id.Protein>
6NUR|6NUR_protein|mol2

> <Gold.PLP.Fitness>
35.8719

> <Gold.PLP.PLP>
-27.8754

> <Gold.PLP.part.hbond>
-4.0000

> <Gold.PLP.part.metal>
0.0000

> <Gold.PLP.part.buried>
-3.8753

> <Gold.PLP.part.nonpolar>
-22.9963

> <Gold.PLP.part.repulsive>
0.8031

> <Gold.PLP.ligand.clash>
0.0000

> <Gold.PLP.ligand.torsion>
1.7105

> <Gold.PLP.Chemscore.Hbond>
3.7500

> <Gold.PLP.Chemscore.CHOScore>
0.0000

> <Gold.PLP.Chemscore.Metal>
0.0000

> <Gold.Chemscore.Hbonds>
donor molecule, donor type, donor heavy atom, donor atom, acceptor molecule, acceptor atom, score
      L1  H    12    45       P1  7948  2.00
      P1  H  7989  7998       L1     7  1.00
      P1  H  7997  8008       L1    20  0.70

> <Gold.PLP.Chemscore.Internal.Correction>
0.1676

> <Gold.Rescore>
     Score         DG    S(hbond)    S(metal)    S(lipo)     H(rot)  DE(clash)    DE(int)     intcor
     15.08     -16.93       2.49        0.00      63.84       1.69       0.02       1.83       ----

> <Gold.Chemscore.Fitness>
15.0799

> <Gold.Chemscore.DG>
-16.9349

> <Gold.Chemscore.ZeroCoef>
-5.4800

> <Gold.Chemscore.Hbond>
2.4905

> <Gold.Chemscore.Metal>
0.0000

> <Gold.Chemscore.Lipo>
63.8430

> <Gold.Chemscore.Internal_Hbond>
0.0000

> <Gold.Chemscore.DEClash>
0.0222

> <Gold.Chemscore.DEInternal>
1.8329

> <Gold.Chemscore.Rot>
1.6926

> <Gold.Chemscore.Internal.Correction>
   9.000000E+99

> <Gold.Chemscore.Hbonds>
donor molecule, donor type, donor heavy atom, donor atom, acceptor molecule, acceptor atom, score
      L1  H    12    45       P1  7948  1.00
      P1  H  7989  7998       L1     7  0.96
      P1  H  7997  8008       L1    20  0.07

> <Gold.Chemscore.Hbond.Weighted>
-8.3184

> <Gold.Chemscore.Metal.Weighted>
-0.0000

> <Gold.Chemscore.Lipo.Weighted>
-7.4696

> <Gold.Chemscore.Internal_Hbond.Weighted>
0.0000

> <Gold.Chemscore.DEClash.Weighted>
0.0222

> <Gold.Chemscore.DEInternal.Weighted>
1.8329

> <Gold.Chemscore.Rot.Weighted>
4.3330

> <Gold.Chemscore.Internal.Correction.Weighted>
   9.000000E+99

> <Gold.Protein.RotatedTorsions>
[ 6907 6896 6895 6894 ] final   49.42 input  -60.11 | X-H torsion
[ 7974 7965 7964 7962 ] final  128.93 input  175.53 | X-H torsion
[ 8008 7997 7996 7995 ] final  -57.94 input   59.86 | X-H torsion
[ 10167 10162 10161 10158 ] final  -83.56 input  -65.29 | X-H torsion
[ 10718 10713 10712 10709 ] final  104.00 input   66.30 | X-H torsion
[ 10763 10752 10751 10750 ] final   91.26 input  -60.55 | X-H torsion
[ 11005 11000 10999 10996 ] final -130.19 input  -57.11 | X-H torsion

> <Gold.Protein.ActiveResidues>
 VAL166  LYS551  ARG553  GLY616  TRP617  ASP618  TYR619  PRO620  LYS621  CYS622 
 ASP623  PHE694  ASN695  SER759  ASP760  ASP761  ALA762  ILE779  LEU786  VAL792 
 PHE793  MET794  SER795  GLU796  ALA797  LYS798  CYS799  TRP800  GLU811  SER814 

> <Gold.Protein.RotatedAtoms>
  152.2905  134.7727  160.0378 H   0  0  0  0  0  0  0  0  0  0  0  0  # atno 6907 bound_to 6896
  151.8274  133.3398  159.3611 H   0  0  0  0  0  0  0  0  0  0  0  0  # atno 6908 bound_to 6896
  150.7228  134.5444  159.5808 H   0  0  0  0  0  0  0  0  0  0  0  0  # atno 6909 bound_to 6896
  145.0342  139.4019  143.5134 H   0  0  0  0  0  0  0  0  0  0  0  0  # atno 7974 bound_to 7965
  154.4288  140.1095  156.5877 H   0  0  0  0  0  0  0  0  0  0  0  0  # atno 8008 bound_to 7997
  155.6045  140.3493  155.4585 H   0  0  0  0  0  0  0  0  0  0  0  0  # atno 8009 bound_to 7997
  156.0148  140.1227  157.0407 H   0  0  0  0  0  0  0  0  0  0  0  0  # atno 8010 bound_to 7997
  140.4215  143.2582  151.8883 H   0  0  0  0  0  0  0  0  0  0  0  0  # atno 10167 bound_to 10162
  157.6754  131.0793  150.5640 H   0  0  0  0  0  0  0  0  0  0  0  0  # atno 10718 bound_to 10713
  153.2064  135.4404  155.0327 H   0  0  0  0  0  0  0  0  0  0  0  0  # atno 10763 bound_to 10752
  154.8176  135.3322  154.7135 H   0  0  0  0  0  0  0  0  0  0  0  0  # atno 10764 bound_to 10752
  153.7576  135.6994  153.4988 H   0  0  0  0  0  0  0  0  0  0  0  0  # atno 10765 bound_to 10752
  140.9367  134.1247  157.4187 H   0  0  0  0  0  0  0  0  0  0  0  0  # atno 11005 bound_to 11000
  146.3502  139.9908  142.8686 LP  0  0  0  0  0  0  0  0  0  0  0  0  # atno 17320 bound_to 7965
  145.1731  140.9731  143.4310 LP  0  0  0  0  0  0  0  0  0  0  0  0  # atno 17321 bound_to 7965
  139.4783  144.5432  151.8497 LP  0  0  0  0  0  0  0  0  0  0  0  0  # atno 17342 bound_to 10162
  140.4528  144.1831  150.5899 LP  0  0  0  0  0  0  0  0  0  0  0  0  # atno 17343 bound_to 10162
  156.5943  130.4337  149.5923 LP  0  0  0  0  0  0  0  0  0  0  0  0  # atno 17370 bound_to 10713
  156.2558  130.6934  151.1686 LP  0  0  0  0  0  0  0  0  0  0  0  0  # atno 17371 bound_to 10713
  139.8810  135.0023  156.6120 LP  0  0  0  0  0  0  0  0  0  0  0  0  # atno 17394 bound_to 11000
  140.7789  133.8676  155.8552 LP  0  0  0  0  0  0  0  0  0  0  0  0  # atno 17395 bound_to 11000

$$$$
