AV-unprocessed.smi:227|AV-procd|sdf|1742|dock9
  -GOLD-   2262020253D 1   1.00000     0.00000
 Structure written by MMmdl.
 54 58  0  0  0  0  0  0  0  0  1 V2000
  151.5036  143.1065  161.9280 O   0  0  0  0  0  0  0  0  0  0  0  0
  152.8941  142.9116  161.7665 C   0  0  0  0  0  0  0  0  0  0  0  0
  153.2103  141.9758  160.5709 C   0  0  1  0  0  0  0  0  0  0  0  0
  153.0960  142.7047  159.2057 C   0  0  0  0  0  0  0  0  0  0  0  0
  151.8621  142.4244  158.4935 N   0  0  0  0  0  0  0  0  0  0  0  0
  150.6382  143.0094  158.7152 C   0  0  0  0  0  0  0  0  0  0  0  0
  149.6771  142.5921  157.9383 N   0  0  0  0  0  0  0  0  0  0  0  0
  150.2805  141.6512  157.1099 C   0  0  0  0  0  0  0  0  0  0  0  0
  149.8348  140.8249  156.0346 C   0  0  0  0  0  0  0  0  0  0  0  0
  148.5632  140.7910  155.5460 N   0  0  0  0  0  0  0  0  0  0  0  0
  148.2775  140.9716  154.1297 C   0  0  1  0  0  0  0  0  0  0  0  0
  148.7436  139.6513  153.4848 C   0  0  0  0  0  0  0  0  0  0  0  0
  148.4060  138.6442  154.5947 C   0  0  0  0  0  0  0  0  0  0  0  0
  147.7802  139.5677  155.6657 C   0  0  2  0  0  0  0  0  0  0  0  0
  146.3770  140.0622  155.2479 C   0  0  2  0  0  0  0  0  0  0  0  0
  145.3263  138.9942  154.8903 C   0  0  0  0  0  0  0  0  0  0  0  0
  145.4116  138.6602  153.5216 O   0  0  0  0  0  0  0  0  0  0  0  0
  146.7385  141.0208  154.1000 C   0  0  0  0  0  0  0  0  0  0  0  0
  150.7523  139.9948  155.4709 N   0  0  0  0  0  0  0  0  0  0  0  0
  152.0156  139.9798  155.9032 C   0  0  0  0  0  0  0  0  0  0  0  0
  152.5702  140.6987  156.8789 N   0  0  0  0  0  0  0  0  0  0  0  0
  151.6567  141.5267  157.4607 C   0  0  0  0  0  0  0  0  0  0  0  0
  154.6122  141.3309  160.7272 C   0  0  1  0  0  0  0  0  0  0  0  0
  154.8111  140.5323  162.0164 C   0  0  0  0  0  0  0  0  0  0  0  0
  155.6603  139.3245  161.6084 C   0  0  0  0  0  0  0  0  0  0  0  0
  156.0258  139.5621  160.2584 O   0  0  0  0  0  0  0  0  0  0  0  0
  154.9695  140.2917  159.6607 C   0  0  0  0  0  0  0  0  0  0  0  0
  151.1707  143.5479  161.1613 H   0  0  0  0  0  0  0  0  0  0  0  0
  153.3883  143.8761  161.6448 H   0  0  0  0  0  0  0  0  0  0  0  0
  153.2566  142.4959  162.7056 H   0  0  0  0  0  0  0  0  0  0  0  0
  152.4826  141.1622  160.5788 H   0  0  0  0  0  0  0  0  0  0  0  0
  153.1775  143.7830  159.3482 H   0  0  0  0  0  0  0  0  0  0  0  0
  153.9169  142.4208  158.5474 H   0  0  0  0  0  0  0  0  0  0  0  0
  150.4817  143.7629  159.4732 H   0  0  0  0  0  0  0  0  0  0  0  0
  148.7097  141.8581  153.6694 H   0  0  0  0  0  0  0  0  0  0  0  0
  148.2311  139.4367  152.5464 H   0  0  0  0  0  0  0  0  0  0  0  0
  149.8167  139.6641  153.2891 H   0  0  0  0  0  0  0  0  0  0  0  0
  147.7510  137.8397  154.2643 H   0  0  0  0  0  0  0  0  0  0  0  0
  149.3185  138.1816  154.9730 H   0  0  0  0  0  0  0  0  0  0  0  0
  147.7763  139.1242  156.6619 H   0  0  0  0  0  0  0  0  0  0  0  0
  145.9778  140.6591  156.0704 H   0  0  0  0  0  0  0  0  0  0  0  0
  145.5042  138.0917  155.4752 H   0  0  0  0  0  0  0  0  0  0  0  0
  144.3137  139.3200  155.1255 H   0  0  0  0  0  0  0  0  0  0  0  0
  145.0719  139.3817  153.0146 H   0  0  0  0  0  0  0  0  0  0  0  0
  146.3734  142.0261  154.3138 H   0  0  0  0  0  0  0  0  0  0  0  0
  146.3323  140.7149  153.1350 H   0  0  0  0  0  0  0  0  0  0  0  0
  152.6762  139.2941  155.3934 H   0  0  0  0  0  0  0  0  0  0  0  0
  155.3713  142.1143  160.6939 H   0  0  0  0  0  0  0  0  0  0  0  0
  155.3115  141.1351  162.7751 H   0  0  0  0  0  0  0  0  0  0  0  0
  153.8630  140.1928  162.4358 H   0  0  0  0  0  0  0  0  0  0  0  0
  156.5436  139.2029  162.2356 H   0  0  0  0  0  0  0  0  0  0  0  0
  155.0734  138.4068  161.6658 H   0  0  0  0  0  0  0  0  0  0  0  0
  154.1312  139.6230  159.4577 H   0  0  0  0  0  0  0  0  0  0  0  0
  155.2896  140.7411  158.7205 H   0  0  0  0  0  0  0  0  0  0  0  0
  1  2  1  0  0  0  0
  1 28  1  0  0  0  0
  2  3  1  0  0  0  0
  2 29  1  0  0  0  0
  2 30  1  0  0  0  0
  3  4  1  0  0  0  0
  3 23  1  0  0  0  0
  3 31  1  0  0  0  0
  4  5  1  0  0  0  0
  4 32  1  0  0  0  0
  4 33  1  0  0  0  0
  5 22  1  0  0  0  0
  5  6  1  0  0  0  0
  6  7  2  0  0  0  0
  6 34  1  0  0  0  0
  7  8  1  0  0  0  0
  8 22  2  0  0  0  0
  8  9  1  0  0  0  0
  9 10  1  0  0  0  0
  9 19  2  0  0  0  0
 10 14  1  0  0  0  0
 10 11  1  0  0  0  0
 11 18  1  0  0  0  0
 11 12  1  0  0  0  0
 11 35  1  0  0  0  0
 12 13  1  0  0  0  0
 12 36  1  0  0  0  0
 12 37  1  0  0  0  0
 13 14  1  0  0  0  0
 13 38  1  0  0  0  0
 13 39  1  0  0  0  0
 14 15  1  0  0  0  0
 14 40  1  0  0  0  0
 15 16  1  0  0  0  0
 15 18  1  0  0  0  0
 15 41  1  0  0  0  0
 16 17  1  0  0  0  0
 16 42  1  0  0  0  0
 16 43  1  0  0  0  0
 17 44  1  0  0  0  0
 18 45  1  0  0  0  0
 18 46  1  0  0  0  0
 19 20  1  0  0  0  0
 20 21  2  0  0  0  0
 20 47  1  0  0  0  0
 21 22  1  0  0  0  0
 23 27  1  0  0  0  0
 23 24  1  0  0  0  0
 23 48  1  0  0  0  0
 24 25  1  0  0  0  0
 24 49  1  0  0  0  0
 24 50  1  0  0  0  0
 25 26  1  0  0  0  0
 25 51  1  0  0  0  0
 25 52  1  0  0  0  0
 26 27  1  0  0  0  0
 27 53  1  0  0  0  0
 27 54  1  0  0  0  0
M  END
> <s_m_source_file>
AV-unprocessed.smi

> <i_m_source_file_index>
227

> <i_lp_mmshare_version>
43012

> <i_f3d_flags>
0

> <s_epik_input>
W0NIMl0xT1tDSDJdW0NIMl1bQ0BIXTFbQ0BIXShbQ0gyXVtPSF0pW0NIMl1uKFtjSF1uMiljKGMyMyluW2NIXW5jM04oW0NASF00NSlbQ0BASF0oW0NIMl1bQ0gyXTQpW0NASF0oW0NIMl01KVtDSDJdW09IXQ==

> <s_epik_cmdline>
J2VwaWtfcHl0aG9uJywgJy1waCcsICc3LjAnLCAnLXRuJywgJzgnLCAnLW1hJywgJzIwMCcsICctbWV0YWxfYmluZGluZycsICctaW1hZScsICc8aW5maWxlLm1hZT4nLCAnLW9tYWUnLCAnPG91dGZpbGUubWFlPic=

> <r_lp_tautomer_probability>
1

> <r_epik_Ionization_Penalty>
0.0055791

> <r_epik_Ionization_Penalty_Charging>
0

> <r_epik_Ionization_Penalty_Neutral>
0.0055791

> <r_epik_State_Penalty>
0.00401299

> <r_epik_Charging_Adjusted_Penalty>
0.00401299

> <i_epik_Tot_Q>
0

> <i_epik_Tot_abs_Q>
0

> <r_epik_Metal_State_Penalty>
-0

> <b_epik_Metal_Only>
0

> <s_lp_Force_Field>
OPLS_2005

> <r_lp_Energy>
88.534

> <b_lp_Chiralities_Consistent>
1

> <s_lp_Variant>
AV-unprocessed.smi:227-16

> <Gold.Version>
5.8.1

> <Gold.Id.Protein>
6NUR|6NUR_protein|mol2

> <Gold.PLP.Fitness>
46.1820

> <Gold.PLP.PLP>
-41.2389

> <Gold.PLP.part.hbond>
-4.0000

> <Gold.PLP.part.metal>
0.0000

> <Gold.PLP.part.buried>
-0.5084

> <Gold.PLP.part.nonpolar>
-36.2083

> <Gold.PLP.part.repulsive>
0.2325

> <Gold.PLP.ligand.clash>
0.0000

> <Gold.PLP.ligand.torsion>
1.5318

> <Gold.PLP.Chemscore.Hbond>
2.6320

> <Gold.PLP.Chemscore.CHOScore>
0.0000

> <Gold.PLP.Chemscore.Metal>
0.0000

> <Gold.Chemscore.Hbonds>
donor molecule, donor type, donor heavy atom, donor atom, acceptor molecule, acceptor atom, score
      L1  H    17    44       P1 10175  1.00
      P1  H  6933  6945       L1     1  0.69
      P1  H  7989  7998       L1    19  0.07
      P1  H  7997  8009       L1    21  0.65

> <Gold.PLP.Chemscore.Internal.Correction>
0.1106

> <Gold.Rescore>
     Score         DG    S(hbond)    S(metal)    S(lipo)     H(rot)  DE(clash)    DE(int)     intcor
      8.87     -14.77       2.09        0.00      98.57       3.61       1.98       3.92       ----

> <Gold.Chemscore.Fitness>
8.8682

> <Gold.Chemscore.DG>
-14.7689

> <Gold.Chemscore.ZeroCoef>
-5.4800

> <Gold.Chemscore.Hbond>
2.0929

> <Gold.Chemscore.Metal>
0.0000

> <Gold.Chemscore.Lipo>
98.5707

> <Gold.Chemscore.Internal_Hbond>
0.0000

> <Gold.Chemscore.DEClash>
1.9764

> <Gold.Chemscore.DEInternal>
3.9243

> <Gold.Chemscore.Rot>
3.6071

> <Gold.Chemscore.Internal.Correction>
   9.000000E+99

> <Gold.Chemscore.Hbonds>
donor molecule, donor type, donor heavy atom, donor atom, acceptor molecule, acceptor atom, score
      L1  H    17    44       P1 10175  0.95
      P1  H  6933  6945       L1     1  0.17
      P1  H  7997  8009       L1    21  0.11

> <Gold.Chemscore.Hbond.Weighted>
-6.9903

> <Gold.Chemscore.Metal.Weighted>
-0.0000

> <Gold.Chemscore.Lipo.Weighted>
-11.5328

> <Gold.Chemscore.Internal_Hbond.Weighted>
0.0000

> <Gold.Chemscore.DEClash.Weighted>
1.9764

> <Gold.Chemscore.DEInternal.Weighted>
3.9243

> <Gold.Chemscore.Rot.Weighted>
9.2342

> <Gold.Chemscore.Internal.Correction.Weighted>
   9.000000E+99

> <Gold.Protein.RotatedTorsions>
[ 6907 6896 6895 6894 ] final -163.98 input  -60.11 | X-H torsion
[ 7974 7965 7964 7962 ] final  -25.19 input  175.53 | X-H torsion
[ 8008 7997 7996 7995 ] final -178.15 input   59.86 | X-H torsion
[ 10167 10162 10161 10158 ] final -102.50 input  -65.29 | X-H torsion
[ 10718 10713 10712 10709 ] final   44.37 input   66.30 | X-H torsion
[ 10763 10752 10751 10750 ] final   29.58 input  -60.55 | X-H torsion
[ 11005 11000 10999 10996 ] final    3.69 input  -57.11 | X-H torsion

> <Gold.Protein.ActiveResidues>
 VAL166  LYS551  ARG553  GLY616  TRP617  ASP618  TYR619  PRO620  LYS621  CYS622 
 ASP623  PHE694  ASN695  SER759  ASP760  ASP761  ALA762  ILE779  LEU786  VAL792 
 PHE793  MET794  SER795  GLU796  ALA797  LYS798  CYS799  TRP800  GLU811  SER814 

> <Gold.Protein.RotatedAtoms>
  151.4045  133.3747  159.2736 H   0  0  0  0  0  0  0  0  0  0  0  0  # atno 6907 bound_to 6896
  150.9408  134.8819  159.7622 H   0  0  0  0  0  0  0  0  0  0  0  0  # atno 6908 bound_to 6896
  152.5070  134.3996  159.9464 H   0  0  0  0  0  0  0  0  0  0  0  0  # atno 6909 bound_to 6896
  146.1507  140.4853  142.8612 H   0  0  0  0  0  0  0  0  0  0  0  0  # atno 7974 bound_to 7965
  156.0154  140.1249  157.0411 H   0  0  0  0  0  0  0  0  0  0  0  0  # atno 8008 bound_to 7997
  154.4291  140.1079  156.5958 H   0  0  0  0  0  0  0  0  0  0  0  0  # atno 8009 bound_to 7997
  155.6020  140.3470  155.4599 H   0  0  0  0  0  0  0  0  0  0  0  0  # atno 8010 bound_to 7997
  140.2300  143.3613  152.0895 H   0  0  0  0  0  0  0  0  0  0  0  0  # atno 10167 bound_to 10162
  157.4261  130.7997  149.7560 H   0  0  0  0  0  0  0  0  0  0  0  0  # atno 10718 bound_to 10713
  153.0422  135.6485  154.0912 H   0  0  0  0  0  0  0  0  0  0  0  0  # atno 10763 bound_to 10752
  154.0617  135.2887  155.3325 H   0  0  0  0  0  0  0  0  0  0  0  0  # atno 10764 bound_to 10752
  154.6653  135.5376  153.8135 H   0  0  0  0  0  0  0  0  0  0  0  0  # atno 10765 bound_to 10752
  140.5903  133.9930  155.8086 H   0  0  0  0  0  0  0  0  0  0  0  0  # atno 11005 bound_to 11000
  144.7900  140.6014  143.6547 LP  0  0  0  0  0  0  0  0  0  0  0  0  # atno 17320 bound_to 7965
  145.4830  139.1494  143.3751 LP  0  0  0  0  0  0  0  0  0  0  0  0  # atno 17321 bound_to 7965
  139.5113  144.6899  151.5788 LP  0  0  0  0  0  0  0  0  0  0  0  0  # atno 17342 bound_to 10162
  140.6192  143.9291  150.6512 LP  0  0  0  0  0  0  0  0  0  0  0  0  # atno 17343 bound_to 10162
  155.9897  130.3950  150.3061 LP  0  0  0  0  0  0  0  0  0  0  0  0  # atno 17370 bound_to 10713
  157.1214  131.0247  151.3007 LP  0  0  0  0  0  0  0  0  0  0  0  0  # atno 17371 bound_to 10713
  141.0939  133.9873  157.3192 LP  0  0  0  0  0  0  0  0  0  0  0  0  # atno 17394 bound_to 11000
  139.9277  135.0201  156.8293 LP  0  0  0  0  0  0  0  0  0  0  0  0  # atno 17395 bound_to 11000

$$$$
