#       Name:                AV-unprocessed.smi:112
#       Creating user name   scv26
#       Creation time:       Thu Mar 26 18:19:03 2020


#       File generated by GOLD software.
#

@<TRIPOS>MOLECULE
AV-unprocessed.smi:112
    68    71     1
SMALL
NO_CHARGES


@<TRIPOS>ATOM
      1 ****        -1.1550   4.5265  -1.2694 C.3            1 S1                 0.0000
      2 ****        -0.4557   3.1784  -1.3541 C.2            1 S1                 0.0000
      3 ****         0.8922   3.0682  -1.3994 C.2            1 S1                 0.0000
      4 ****         1.5594   1.8569  -1.4714 N.am           1 S1                 0.0000
      5 ****         3.0719   1.7604  -1.5112 C.3            1 S1                 0.0000
      6 ****         3.6238   1.1381  -0.2215 C.3            1 S1                 0.0000
      7 ****         4.8914   1.9393  -0.0230 C.3            1 S1                 0.0000
      8 ****         5.3559   1.8839   1.3111 O.3            1 S1                 0.0000
      9 ****         4.4785   3.3368  -0.5022 C.3            1 S1                 0.0000
     10 ****         3.6825   4.1685   0.5284 C.3            1 S1                 0.0000
     11 ****         3.5723   5.5040   0.0845 O.3            1 S1                 0.0000
     12 ****         3.6357   3.0396  -1.6184 O.3            1 S1                 0.0000
     13 ****         0.8175   0.6604  -1.5438 C.2            1 S1                 0.0000
     14 ****         1.3885  -0.4291  -1.6342 O.2            1 S1                 0.0000
     15 ****        -0.5924   0.7412  -1.5038 N.am           1 S1                 0.0000
     16 ****        -1.3735  -0.5157  -1.5512 C.3            1 S1                 0.0000
     17 ****        -1.6138  -1.1509  -0.1637 C.2            1 S1                 0.0000
     18 ****        -1.2326  -0.5481   0.8403 O.2            1 S1                 0.0000
     19 ****        -2.2431  -2.3515  -0.1167 N.am           1 S1                 0.0000
     20 ****        -2.7012  -3.0766  -1.3146 C.3            1 S1                 0.0000
     21 ****        -3.3732  -4.3713  -0.8081 C.3            1 S1                 0.0000
     22 ****        -3.2240  -4.2706   0.6811 C.ar           1 S1                 0.0000
     23 ****        -3.6668  -5.2040   1.6337 C.ar           1 S1                 0.0000
     24 ****        -3.4395  -4.9405   3.0074 C.ar           1 S1                 0.0000
     25 ****        -3.8931  -5.8972   4.0365 N.pl3          1 S1                 1.0000
     26 ****        -3.6869  -5.6249   5.2148 O.2            1 S1                 0.0000
     27 ****        -4.4568  -6.9227   3.6682 O.2            1 S1                -1.0000
     28 ****        -2.7709  -3.7438   3.3793 C.ar           1 S1                 0.0000
     29 ****        -2.3320  -2.8171   2.4083 C.ar           1 S1                 0.0000
     30 ****        -2.5705  -3.0992   1.0458 C.ar           1 S1                 0.0000
     31 ****        -1.2844   1.9716  -1.3917 C.2            1 S1                 0.0000
     32 ****        -2.5151   1.9964  -1.3276 O.2            1 S1                 0.0000
     33 ****        -0.4445   5.3537  -1.2567 H              1 S1                 0.0000
     34 ****        -1.7541   4.5891  -0.3602 H              1 S1                 0.0000
     35 ****        -1.8155   4.6680  -2.1256 H              1 S1                 0.0000
     36 ****         1.4593   3.9859  -1.3783 H              1 S1                 0.0000
     37 ****         3.3079   1.1894  -2.4109 H              1 S1                 0.0000
     38 ****         2.9229   1.3034   0.5989 H              1 S1                 0.0000
     39 ****         3.7952   0.0674  -0.3357 H              1 S1                 0.0000
     40 ****         5.6692   1.5486  -0.6810 H              1 S1                 0.0000
     41 ****         6.1423   2.4037   1.3790 H              1 S1                 0.0000
     42 ****         5.3575   3.8949  -0.8277 H              1 S1                 0.0000
     43 ****         2.6946   3.7513   0.7213 H              1 S1                 0.0000
     44 ****         4.2047   4.2000   1.4845 H              1 S1                 0.0000
     45 ****         4.4418   5.8517  -0.0413 H              1 S1                 0.0000
     46 ****        -2.3392  -0.3521  -2.0313 H              1 S1                 0.0000
     47 ****        -0.8745  -1.2389  -2.1972 H              1 S1                 0.0000
     48 ****        -3.4118  -2.4767  -1.8847 H              1 S1                 0.0000
     49 ****        -1.8588  -3.3201  -1.9632 H              1 S1                 0.0000
     50 ****        -4.4272  -4.4163  -1.0834 H              1 S1                 0.0000
     51 ****        -2.8709  -5.2634  -1.1834 H              1 S1                 0.0000
     52 ****        -4.1713  -6.1020   1.3090 H              1 S1                 0.0000
     53 ****        -2.5866  -3.5226   4.4202 H              1 S1                 0.0000
     54 ****        -1.8282  -1.9210   2.7339 H              1 S1                 0.0000
     55 ****         5.5563   0.9360   1.5588 LP             1 S1                 0.0000
     56 ****         4.6570   2.2485   1.9264 LP             1 S1                 0.0000
     57 ****         3.0875   6.0480   0.7694 LP             1 S1                 0.0000
     58 ****         3.0699   5.5316  -0.7797 LP             1 S1                 0.0000
     59 ****         2.9005   3.7162  -1.6595 LP             1 S1                 0.0000
     60 ****         4.1787   3.0860  -2.4568 LP             1 S1                 0.0000
     61 ****         2.3874  -0.4697  -1.6568 LP             1 S1                 0.0000
     62 ****         0.8525  -1.2718  -1.6849 LP             1 S1                 0.0000
     63 ****        -0.7762   0.3370   0.7489 LP             1 S1                 0.0000
     64 ****        -1.3795  -0.9437   1.7469 LP             1 S1                 0.0000
     65 ****        -3.2224  -4.7732   5.4573 LP             1 S1                 0.0000
     66 ****        -3.9834  -6.2547   5.9328 LP             1 S1                 0.0000
     67 ****        -2.9940   2.8704  -1.2456 LP             1 S1                 0.0000
     68 ****        -3.0347   1.1425  -1.3576 LP             1 S1                 0.0000
@<TRIPOS>BOND
    1    1    2 1     
    2    1   33 1     
    3    1   34 1     
    4    1   35 1     
    5    2   31 1     
    6    2    3 2     
    7    3    4 1     
    8    3   36 1     
    9    4    5 1     
   10    4   13 am    
   11    5   12 1     
   12    5    6 1     
   13    5   37 1     
   14    6    7 1     
   15    6   38 1     
   16    6   39 1     
   17    7    8 1     
   18    7    9 1     
   19    7   40 1     
   20    8   41 1     
   21    9   10 1     
   22    9   12 1     
   23    9   42 1     
   24   10   11 1     
   25   10   43 1     
   26   10   44 1     
   27   11   45 1     
   28   13   14 2     
   29   13   15 am    
   30   15   16 1     
   31   15   31 am    
   32   16   17 1     
   33   16   46 1     
   34   16   47 1     
   35   17   18 2     
   36   17   19 am    
   37   19   30 1     
   38   19   20 1     
   39   20   21 1     
   40   20   48 1     
   41   20   49 1     
   42   21   22 1     
   43   21   50 1     
   44   21   51 1     
   45   22   30 ar    
   46   22   23 ar    
   47   23   24 ar    
   48   23   52 1     
   49   24   25 1     
   50   24   28 ar    
   51   25   26 2     
   52   25   27 1     
   53   28   29 ar    
   54   28   53 1     
   55   29   30 ar    
   56   29   54 1     
   57   31   32 2     
   58    8   55 1     
   59    8   56 1     
   60   11   57 1     
   61   11   58 1     
   62   12   59 1     
   63   12   60 1     
   64   14   61 1     
   65   14   62 1     
   66   18   63 1     
   67   18   64 1     
   68   26   65 1     
   69   26   66 1     
   70   32   67 1     
   71   32   68 1     
@<TRIPOS>SUBSTRUCTURE
      1 S1             1
@<TRIPOS>SET
LONE_PAIRS      STATIC     ATOMS    <user>   **** ""
15 55 56 57 58 59 60 61 62 63 64 65 66 27 67 68
DONOR_HYDROGENS      STATIC     ATOMS    <user>   **** ""
2 41 45
ATOM$BLUE        STATIC     ATOMS    COLORGROUP SYSTEM
15 55 56 57 58 59 60 61 62 63 64 65 66 27 67 68
ATOM$RED        STATIC     ATOMS    COLORGROUP SYSTEM
2 41 45
