AV-unprocessed.smi:2162|AV-procd|sdf|8803|dock4
  -GOLD-   2272011583D 1   1.00000     0.00000
 Structure written by MMmdl.
 41 42  0  0  0  0  0  0  0  0  1 V2000
  152.7354  143.7001  161.6148 C   0  0  0  0  0  0  0  0  0  0  0  0
  152.2038  143.7806  160.2252 C   0  0  0  0  0  0  0  0  0  0  0  0
  151.7492  142.7244  159.5460 N   0  0  0  0  0  0  0  0  0  0  0  0
  151.2813  143.0642  158.2729 C   0  0  0  0  0  0  0  0  0  0  0  0
  150.6825  142.0096  157.3860 C   0  0  0  0  0  0  0  0  0  0  0  0
  151.6316  140.8294  157.0902 C   0  0  0  0  0  0  0  0  0  0  0  0
  150.9339  139.6891  156.4987 N   0  0  0  0  0  0  0  0  0  0  0  0
  150.2426  139.7173  155.3479 C   0  0  0  0  0  0  0  0  0  0  0  0
  150.0513  140.7466  154.6990 O   0  0  0  0  0  0  0  0  0  0  0  0
  149.7247  138.3684  154.8245 C   0  0  1  0  0  0  0  0  0  0  0  0
  150.8631  137.3521  154.6125 C   0  0  0  0  0  0  0  0  0  0  0  0
  150.7061  136.3883  155.7789 C   0  0  0  0  0  0  0  0  0  0  0  0
  151.5437  135.5280  156.0457 O   0  0  0  0  0  0  0  0  0  0  0  0
  149.5801  136.6354  156.4621 N   0  0  0  0  0  0  0  0  0  0  0  0
  149.1719  135.9790  157.7105 C   0  0  0  0  0  0  0  0  0  0  0  0
  147.8566  135.1923  157.5625 C   0  0  0  0  0  0  0  0  0  0  0  0
  149.0983  137.0101  158.8481 C   0  0  0  0  0  0  0  0  0  0  0  0
  148.7898  137.6924  155.8460 C   0  0  0  0  0  0  0  0  0  0  0  0
  151.4207  144.3995  157.9845 C   0  0  0  0  0  0  0  0  0  0  0  0
  152.1142  145.2834  159.3154 S   0  0  0  0  0  0  0  0  0  0  0  0
  152.4212  142.7713  162.0920 H   0  0  0  0  0  0  0  0  0  0  0  0
  152.3638  144.5372  162.2059 H   0  0  0  0  0  0  0  0  0  0  0  0
  153.8245  143.7372  161.5991 H   0  0  0  0  0  0  0  0  0  0  0  0
  149.7728  141.6212  157.8456 H   0  0  0  0  0  0  0  0  0  0  0  0
  150.3649  142.4555  156.4430 H   0  0  0  0  0  0  0  0  0  0  0  0
  152.4114  141.1507  156.3997 H   0  0  0  0  0  0  0  0  0  0  0  0
  152.1451  140.5301  158.0054 H   0  0  0  0  0  0  0  0  0  0  0  0
  151.0376  138.8003  156.9663 H   0  0  0  0  0  0  0  0  0  0  0  0
  149.1925  138.5321  153.8860 H   0  0  0  0  0  0  0  0  0  0  0  0
  150.7342  136.8090  153.6759 H   0  0  0  0  0  0  0  0  0  0  0  0
  151.8583  137.7996  154.6079 H   0  0  0  0  0  0  0  0  0  0  0  0
  149.9417  135.2513  157.9731 H   0  0  0  0  0  0  0  0  0  0  0  0
  147.6356  134.6350  158.4731 H   0  0  0  0  0  0  0  0  0  0  0  0
  147.9178  134.4718  156.7462 H   0  0  0  0  0  0  0  0  0  0  0  0
  147.0073  135.8488  157.3711 H   0  0  0  0  0  0  0  0  0  0  0  0
  148.8318  136.5348  159.7923 H   0  0  0  0  0  0  0  0  0  0  0  0
  148.3522  137.7769  158.6387 H   0  0  0  0  0  0  0  0  0  0  0  0
  150.0561  137.5115  158.9918 H   0  0  0  0  0  0  0  0  0  0  0  0
  148.4174  138.3881  156.5989 H   0  0  0  0  0  0  0  0  0  0  0  0
  147.9263  137.2555  155.3428 H   0  0  0  0  0  0  0  0  0  0  0  0
  151.1411  144.9180  157.0797 H   0  0  0  0  0  0  0  0  0  0  0  0
  1  2  1  0  0  0  0
  1 21  1  0  0  0  0
  1 22  1  0  0  0  0
  1 23  1  0  0  0  0
  2 20  1  0  0  0  0
  2  3  2  0  0  0  0
  3  4  1  0  0  0  0
  4  5  1  0  0  0  0
  4 19  2  0  0  0  0
  5  6  1  0  0  0  0
  5 24  1  0  0  0  0
  5 25  1  0  0  0  0
  6  7  1  0  0  0  0
  6 26  1  0  0  0  0
  6 27  1  0  0  0  0
  7  8  1  0  0  0  0
  7 28  1  0  0  0  0
  8  9  2  0  0  0  0
  8 10  1  0  0  0  0
 10 18  1  0  0  0  0
 10 11  1  0  0  0  0
 10 29  1  0  0  0  0
 11 12  1  0  0  0  0
 11 30  1  0  0  0  0
 11 31  1  0  0  0  0
 12 13  2  0  0  0  0
 12 14  1  0  0  0  0
 14 15  1  0  0  0  0
 14 18  1  0  0  0  0
 15 16  1  0  0  0  0
 15 17  1  0  0  0  0
 15 32  1  0  0  0  0
 16 33  1  0  0  0  0
 16 34  1  0  0  0  0
 16 35  1  0  0  0  0
 17 36  1  0  0  0  0
 17 37  1  0  0  0  0
 17 38  1  0  0  0  0
 18 39  1  0  0  0  0
 18 40  1  0  0  0  0
 19 20  1  0  0  0  0
 19 41  1  0  0  0  0
M  END
> <s_m_source_file>
AV-unprocessed.smi

> <i_m_source_file_index>
2162

> <i_lp_mmshare_version>
43012

> <i_f3d_flags>
0

> <s_epik_input>
W0NIM11jMW5jKFtjSF1zMSlbQ0gyXVtDSDJdW05IXUMoPU8pW0NAQEhdMltDSDJdQyg9TylOKFtDSDJdMilbQ0hdKFtDSDNdKVtDSDNd

> <s_epik_cmdline>
J2VwaWtfcHl0aG9uJywgJy1waCcsICc3LjAnLCAnLXRuJywgJzgnLCAnLW1hJywgJzIwMCcsICctbWV0YWxfYmluZGluZycsICctaW1hZScsICc8aW5maWxlLm1hZT4nLCAnLW9tYWUnLCAnPG91dGZpbGUubWFlPic=

> <r_epik_Ionization_Penalty>
0.000973993

> <r_epik_Ionization_Penalty_Charging>
0

> <r_epik_Ionization_Penalty_Neutral>
0.000973993

> <r_epik_State_Penalty>
0.000633765

> <r_epik_Charging_Adjusted_Penalty>
0.000633765

> <i_epik_Tot_Q>
0

> <i_epik_Tot_abs_Q>
0

> <r_epik_Metal_State_Penalty>
-0

> <b_epik_Metal_Only>
0

> <s_lp_Force_Field>
OPLS_2005

> <r_lp_Energy>
12.9276

> <b_lp_Chiralities_Consistent>
1

> <s_lp_Variant>
AV-unprocessed.smi:2162-2

> <Gold.Version>
5.8.1

> <Gold.Id.Protein>
6NUR|6NUR_protein|mol2

> <Gold.PLP.Fitness>
44.9270

> <Gold.PLP.PLP>
-36.7192

> <Gold.PLP.part.hbond>
-2.0000

> <Gold.PLP.part.metal>
0.0000

> <Gold.PLP.part.buried>
-5.8510

> <Gold.PLP.part.nonpolar>
-29.5005

> <Gold.PLP.part.repulsive>
0.2199

> <Gold.PLP.ligand.clash>
0.0000

> <Gold.PLP.ligand.torsion>
0.0781

> <Gold.PLP.Chemscore.Hbond>
1.7680

> <Gold.PLP.Chemscore.CHOScore>
0.9970

> <Gold.PLP.Chemscore.Metal>
0.0000

> <Gold.Chemscore.Hbonds>
donor molecule, donor type, donor heavy atom, donor atom, acceptor molecule, acceptor atom, score
      P1  H  7989  7998       L1     9  0.78
      P1  H 10752 10763       L1    13  1.00
      L1  C    19    41       P1  8028  0.76

> <Gold.PLP.Chemscore.Internal.Correction>
0.0691

> <Gold.Rescore>
     Score         DG    S(hbond)    S(metal)    S(lipo)     H(rot)  DE(clash)    DE(int)     intcor
     15.28     -16.31       1.35        0.00      90.44       1.66       0.17       0.85       ----

> <Gold.Chemscore.Fitness>
15.2830

> <Gold.Chemscore.DG>
-16.3098

> <Gold.Chemscore.ZeroCoef>
-5.4800

> <Gold.Chemscore.Hbond>
1.3455

> <Gold.Chemscore.Metal>
0.0000

> <Gold.Chemscore.Lipo>
90.4414

> <Gold.Chemscore.Internal_Hbond>
0.0000

> <Gold.Chemscore.DEClash>
0.1739

> <Gold.Chemscore.DEInternal>
0.8529

> <Gold.Chemscore.Rot>
1.6585

> <Gold.Chemscore.Internal.Correction>
   9.000000E+99

> <Gold.Chemscore.Hbonds>
donor molecule, donor type, donor heavy atom, donor atom, acceptor molecule, acceptor atom, score
      P1  H  7989  7998       L1     9  0.38
      P1  H 10752 10763       L1    13  0.94

> <Gold.Chemscore.Hbond.Weighted>
-4.4938

> <Gold.Chemscore.Metal.Weighted>
-0.0000

> <Gold.Chemscore.Lipo.Weighted>
-10.5816

> <Gold.Chemscore.Internal_Hbond.Weighted>
0.0000

> <Gold.Chemscore.DEClash.Weighted>
0.1739

> <Gold.Chemscore.DEInternal.Weighted>
0.8529

> <Gold.Chemscore.Rot.Weighted>
4.2457

> <Gold.Chemscore.Internal.Correction.Weighted>
   9.000000E+99

> <Gold.Protein.RotatedTorsions>
[ 6907 6896 6895 6894 ] final  156.68 input  -60.11 | X-H torsion
[ 7974 7965 7964 7962 ] final -107.67 input  175.53 | X-H torsion
[ 8008 7997 7996 7995 ] final   54.73 input   59.86 | X-H torsion
[ 10167 10162 10161 10158 ] final  -33.04 input  -65.29 | X-H torsion
[ 10718 10713 10712 10709 ] final -164.43 input   66.30 | X-H torsion
[ 10763 10752 10751 10750 ] final   82.79 input  -60.55 | X-H torsion
[ 11005 11000 10999 10996 ] final  -33.87 input  -57.11 | X-H torsion

> <Gold.Protein.ActiveResidues>
 VAL166  LYS551  ARG553  GLY616  TRP617  ASP618  TYR619  PRO620  LYS621  CYS622 
 ASP623  PHE694  ASN695  SER759  ASP760  ASP761  ALA762  ILE779  LEU786  VAL792 
 PHE793  MET794  SER795  GLU796  ALA797  LYS798  CYS799  TRP800  GLU811  SER814 

> <Gold.Protein.RotatedAtoms>
  152.0261  133.3918  159.4277 H   0  0  0  0  0  0  0  0  0  0  0  0  # atno 6907 bound_to 6896
  150.6886  134.3572  159.4944 H   0  0  0  0  0  0  0  0  0  0  0  0  # atno 6908 bound_to 6896
  152.1353  134.9104  160.0607 H   0  0  0  0  0  0  0  0  0  0  0  0  # atno 6909 bound_to 6896
  145.2024  140.9062  143.3361 H   0  0  0  0  0  0  0  0  0  0  0  0  # atno 7974 bound_to 7965
  155.4895  140.3471  155.4352 H   0  0  0  0  0  0  0  0  0  0  0  0  # atno 8008 bound_to 7997
  156.0986  140.1429  156.9526 H   0  0  0  0  0  0  0  0  0  0  0  0  # atno 8009 bound_to 7997
  154.4679  140.0911  156.7047 H   0  0  0  0  0  0  0  0  0  0  0  0  # atno 8010 bound_to 7997
  140.7211  143.3650  151.1888 H   0  0  0  0  0  0  0  0  0  0  0  0  # atno 10167 bound_to 10162
  156.6390  130.8961  151.2992 H   0  0  0  0  0  0  0  0  0  0  0  0  # atno 10718 bound_to 10713
  153.1234  135.4715  154.9232 H   0  0  0  0  0  0  0  0  0  0  0  0  # atno 10763 bound_to 10752
  154.7597  135.3128  154.8404 H   0  0  0  0  0  0  0  0  0  0  0  0  # atno 10764 bound_to 10752
  153.8963  135.6879  153.4811 H   0  0  0  0  0  0  0  0  0  0  0  0  # atno 10765 bound_to 10752
  140.9670  133.7131  156.1462 H   0  0  0  0  0  0  0  0  0  0  0  0  # atno 11005 bound_to 11000
  144.9935  139.3667  143.6203 LP  0  0  0  0  0  0  0  0  0  0  0  0  # atno 17320 bound_to 7965
  146.3415  139.9127  142.8778 LP  0  0  0  0  0  0  0  0  0  0  0  0  # atno 17321 bound_to 7965
  139.7210  143.9224  152.2985 LP  0  0  0  0  0  0  0  0  0  0  0  0  # atno 17342 bound_to 10162
  139.8980  144.6928  150.8696 LP  0  0  0  0  0  0  0  0  0  0  0  0  # atno 17343 bound_to 10162
  157.7177  130.9518  150.1317 LP  0  0  0  0  0  0  0  0  0  0  0  0  # atno 17370 bound_to 10713
  156.2174  130.3671  149.8596 LP  0  0  0  0  0  0  0  0  0  0  0  0  # atno 17371 bound_to 10713
  140.7384  134.4177  157.5558 LP  0  0  0  0  0  0  0  0  0  0  0  0  # atno 17394 bound_to 11000
  139.8898  134.8820  156.2401 LP  0  0  0  0  0  0  0  0  0  0  0  0  # atno 17395 bound_to 11000

$$$$
