AV-unprocessed.smi:820|AV-procd|sdf|3836|dock7
  -GOLD-   22720 1283D 1   1.00000     0.00000
 Structure written by MMmdl.
 32 33  0  0  0  0  0  0  0  0  1 V2000
  155.6130  141.1061  165.6279 C   0  0  0  0  0  0  0  0  0  0  0  0
  155.8443  142.5514  165.1785 C   0  0  0  0  0  0  0  0  0  0  0  0
  154.2942  143.3430  164.6649 S   0  0  0  0  0  0  0  0  0  0  0  0
  153.8188  142.6559  163.1061 C   0  0  0  0  0  0  0  0  0  0  0  0
  154.5079  141.5796  162.5088 C   0  0  0  0  0  0  0  0  0  0  0  0
  154.0505  141.1055  161.2640 C   0  0  0  0  0  0  0  0  0  0  0  0
  152.9203  141.7178  160.6694 C   0  0  0  0  0  0  0  0  0  0  0  0
  152.3756  141.3465  159.4102 N   0  0  0  0  0  0  0  0  0  0  0  0
  151.4350  141.9708  158.6752 C   0  0  0  0  0  0  0  0  0  0  0  0
  150.8983  143.0303  159.0010 O   0  0  0  0  0  0  0  0  0  0  0  0
  151.1561  141.2449  157.4417 C   0  0  0  0  0  0  0  0  0  0  0  0
  150.1377  141.6486  156.6472 C   0  0  0  0  0  0  0  0  0  0  0  0
  149.8233  141.0559  155.4500 O   0  0  0  0  0  0  0  0  0  0  0  0
  150.8011  140.1430  154.9658 C   0  0  0  0  0  0  0  0  0  0  0  0
  151.3548  139.2929  156.1183 C   0  0  0  0  0  0  0  0  0  0  0  0
  151.9057  140.1318  157.1282 O   0  0  0  0  0  0  0  0  0  0  0  0
  152.3198  142.7958  161.3539 C   0  0  0  0  0  0  0  0  0  0  0  0
  152.7489  143.2579  162.5474 N   0  0  0  0  0  0  0  0  0  0  0  0
  156.5488  140.6405  165.9380 H   0  0  0  0  0  0  0  0  0  0  0  0
  155.1934  140.5062  164.8200 H   0  0  0  0  0  0  0  0  0  0  0  0
  154.9231  141.0622  166.4712 H   0  0  0  0  0  0  0  0  0  0  0  0
  156.2837  143.1274  165.9935 H   0  0  0  0  0  0  0  0  0  0  0  0
  156.5485  142.5721  164.3464 H   0  0  0  0  0  0  0  0  0  0  0  0
  155.3668  141.1215  162.9739 H   0  0  0  0  0  0  0  0  0  0  0  0
  154.5828  140.2966  160.7888 H   0  0  0  0  0  0  0  0  0  0  0  0
  152.7883  140.5291  158.9840 H   0  0  0  0  0  0  0  0  0  0  0  0
  149.4976  142.4960  156.8486 H   0  0  0  0  0  0  0  0  0  0  0  0
  150.3502  139.5069  154.2041 H   0  0  0  0  0  0  0  0  0  0  0  0
  151.6055  140.7006  154.4841 H   0  0  0  0  0  0  0  0  0  0  0  0
  150.5660  138.6770  156.5527 H   0  0  0  0  0  0  0  0  0  0  0  0
  152.1284  138.6159  155.7561 H   0  0  0  0  0  0  0  0  0  0  0  0
  151.4639  143.3033  160.9330 H   0  0  0  0  0  0  0  0  0  0  0  0
  1  2  1  0  0  0  0
  1 19  1  0  0  0  0
  1 20  1  0  0  0  0
  1 21  1  0  0  0  0
  2  3  1  0  0  0  0
  2 22  1  0  0  0  0
  2 23  1  0  0  0  0
  3  4  1  0  0  0  0
  4 18  1  0  0  0  0
  4  5  2  0  0  0  0
  5  6  1  0  0  0  0
  5 24  1  0  0  0  0
  6  7  2  0  0  0  0
  6 25  1  0  0  0  0
  7  8  1  0  0  0  0
  7 17  1  0  0  0  0
  8  9  1  0  0  0  0
  8 26  1  0  0  0  0
  9 10  2  0  0  0  0
  9 11  1  0  0  0  0
 11 16  1  0  0  0  0
 11 12  2  0  0  0  0
 12 13  1  0  0  0  0
 12 27  1  0  0  0  0
 13 14  1  0  0  0  0
 14 15  1  0  0  0  0
 14 28  1  0  0  0  0
 14 29  1  0  0  0  0
 15 16  1  0  0  0  0
 15 30  1  0  0  0  0
 15 31  1  0  0  0  0
 17 18  2  0  0  0  0
 17 32  1  0  0  0  0
M  END
> <s_m_source_file>
AV-unprocessed.smi

> <i_m_source_file_index>
820

> <i_lp_mmshare_version>
43012

> <i_f3d_flags>
0

> <s_epik_input>
W0NIM11bQ0gyXVNjMVtjSF1bY0hdYyhbY0hdbjEpW05IXUMoPU8pQzI9W0NIXU9bQ0gyXVtDSDJdTzI=

> <s_epik_cmdline>
J2VwaWtfcHl0aG9uJywgJy1waCcsICc3LjAnLCAnLXRuJywgJzgnLCAnLW1hJywgJzIwMCcsICctbWV0YWxfYmluZGluZycsICctaW1hZScsICc8aW5maWxlLm1hZT4nLCAnLW9tYWUnLCAnPG91dGZpbGUubWFlPic=

> <r_lp_tautomer_probability>
1

> <r_epik_Ionization_Penalty>
8.32294e-05

> <r_epik_Ionization_Penalty_Charging>
0

> <r_epik_Ionization_Penalty_Neutral>
8.32294e-05

> <r_epik_State_Penalty>
-0

> <r_epik_Charging_Adjusted_Penalty>
0

> <i_epik_Tot_Q>
0

> <i_epik_Tot_abs_Q>
0

> <r_epik_Metal_State_Penalty>
0.0397586

> <b_epik_Metal_Only>
0

> <s_lp_Force_Field>
OPLS_2005

> <r_lp_Energy>
6.19244

> <b_lp_Chiralities_Consistent>
1

> <s_lp_Variant>
AV-unprocessed.smi:820-1

> <Gold.Version>
5.8.1

> <Gold.Id.Protein>
6NUR|6NUR_protein|mol2

> <Gold.PLP.Fitness>
35.5773

> <Gold.PLP.PLP>
-32.8083

> <Gold.PLP.part.hbond>
0.0000

> <Gold.PLP.part.metal>
0.0000

> <Gold.PLP.part.buried>
1.1944

> <Gold.PLP.part.nonpolar>
-33.0240

> <Gold.PLP.part.repulsive>
0.4274

> <Gold.PLP.ligand.clash>
0.0000

> <Gold.PLP.ligand.torsion>
0.1174

> <Gold.PLP.Chemscore.Hbond>
0.0000

> <Gold.PLP.Chemscore.CHOScore>
1.0000

> <Gold.PLP.Chemscore.Metal>
0.0000

> <Gold.Chemscore.Hbonds>
donor molecule, donor type, donor heavy atom, donor atom, acceptor molecule, acceptor atom, score
      L1  C    12    27       P1  8028  0.84

> <Gold.PLP.Chemscore.Internal.Correction>
0.0038

> <Gold.Rescore>
     Score         DG    S(hbond)    S(metal)    S(lipo)     H(rot)  DE(clash)    DE(int)     intcor
     11.61     -14.79       0.00        0.00     104.56       1.14       1.59       1.58       ----

> <Gold.Chemscore.Fitness>
11.6148

> <Gold.Chemscore.DG>
-14.7881

> <Gold.Chemscore.ZeroCoef>
-5.4800

> <Gold.Chemscore.Hbond>
0.0000

> <Gold.Chemscore.Metal>
0.0000

> <Gold.Chemscore.Lipo>
104.5636

> <Gold.Chemscore.Internal_Hbond>
0.0000

> <Gold.Chemscore.DEClash>
1.5891

> <Gold.Chemscore.DEInternal>
1.5842

> <Gold.Chemscore.Rot>
1.1429

> <Gold.Chemscore.Internal.Correction>
   9.000000E+99

> <Gold.Chemscore.Hbond.Weighted>
-0.0000

> <Gold.Chemscore.Metal.Weighted>
-0.0000

> <Gold.Chemscore.Lipo.Weighted>
-12.2339

> <Gold.Chemscore.Internal_Hbond.Weighted>
0.0000

> <Gold.Chemscore.DEClash.Weighted>
1.5891

> <Gold.Chemscore.DEInternal.Weighted>
1.5842

> <Gold.Chemscore.Rot.Weighted>
2.9259

> <Gold.Chemscore.Internal.Correction.Weighted>
   9.000000E+99

> <Gold.Protein.RotatedTorsions>
[ 6907 6896 6895 6894 ] final  152.34 input  -60.11 | X-H torsion
[ 7974 7965 7964 7962 ] final -177.00 input  175.53 | X-H torsion
[ 8008 7997 7996 7995 ] final   99.89 input   59.86 | X-H torsion
[ 10167 10162 10161 10158 ] final  152.21 input  -65.29 | X-H torsion
[ 10718 10713 10712 10709 ] final  146.70 input   66.30 | X-H torsion
[ 10763 10752 10751 10750 ] final -112.19 input  -60.55 | X-H torsion
[ 11005 11000 10999 10996 ] final   77.37 input  -57.11 | X-H torsion

> <Gold.Protein.ActiveResidues>
 VAL166  LYS551  ARG553  GLY616  TRP617  ASP618  TYR619  PRO620  LYS621  CYS622 
 ASP623  PHE694  ASN695  SER759  ASP760  ASP761  ALA762  ILE779  LEU786  VAL792 
 PHE793  MET794  SER795  GLU796  ALA797  LYS798  CYS799  TRP800  GLU811  SER814 

> <Gold.Protein.RotatedAtoms>
  152.0881  133.4186  159.4531 H   0  0  0  0  0  0  0  0  0  0  0  0  # atno 6907 bound_to 6896
  150.6862  134.2903  159.4673 H   0  0  0  0  0  0  0  0  0  0  0  0  # atno 6908 bound_to 6896
  152.0752  134.9507  160.0625 H   0  0  0  0  0  0  0  0  0  0  0  0  # atno 6909 bound_to 6896
  144.7127  140.1085  143.6412 H   0  0  0  0  0  0  0  0  0  0  0  0  # atno 7974 bound_to 7965
  156.1150  140.3221  155.8126 H   0  0  0  0  0  0  0  0  0  0  0  0  # atno 8008 bound_to 7997
  155.4606  140.0539  157.3008 H   0  0  0  0  0  0  0  0  0  0  0  0  # atno 8009 bound_to 7997
  154.4786  140.2043  155.9831 H   0  0  0  0  0  0  0  0  0  0  0  0  # atno 8010 bound_to 7997
  139.4834  144.5377  151.7618 H   0  0  0  0  0  0  0  0  0  0  0  0  # atno 10167 bound_to 10162
  157.3299  131.0918  151.1171 H   0  0  0  0  0  0  0  0  0  0  0  0  # atno 10718 bound_to 10713
  154.8337  135.4500  154.1156 H   0  0  0  0  0  0  0  0  0  0  0  0  # atno 10763 bound_to 10752
  153.2406  135.6916  153.7794 H   0  0  0  0  0  0  0  0  0  0  0  0  # atno 10764 bound_to 10752
  153.7143  135.3352  155.3229 H   0  0  0  0  0  0  0  0  0  0  0  0  # atno 10765 bound_to 10752
  139.9258  134.7677  156.1513 H   0  0  0  0  0  0  0  0  0  0  0  0  # atno 11005 bound_to 11000
  145.9475  139.2711  143.1232 LP  0  0  0  0  0  0  0  0  0  0  0  0  # atno 17320 bound_to 7965
  145.9358  140.9016  143.0333 LP  0  0  0  0  0  0  0  0  0  0  0  0  # atno 17321 bound_to 7965
  140.4912  144.1308  150.5950 LP  0  0  0  0  0  0  0  0  0  0  0  0  # atno 17342 bound_to 10162
  140.4169  143.2630  151.9763 LP  0  0  0  0  0  0  0  0  0  0  0  0  # atno 17343 bound_to 10162
  157.2423  130.6575  149.5895 LP  0  0  0  0  0  0  0  0  0  0  0  0  # atno 17370 bound_to 10713
  155.9694  130.4564  150.5925 LP  0  0  0  0  0  0  0  0  0  0  0  0  # atno 17371 bound_to 10713
  141.0813  133.6753  156.2343 LP  0  0  0  0  0  0  0  0  0  0  0  0  # atno 17394 bound_to 11000
  140.6342  134.5233  157.5563 LP  0  0  0  0  0  0  0  0  0  0  0  0  # atno 17395 bound_to 11000

$$$$
