AV-unprocessed.smi:1773|AV-procd|sdf|7163|dock9
  -GOLD-   22720 8403D 1   1.00000     0.00000
 Structure written by MMmdl.
 40 41  0  0  0  0  0  0  0  0  1 V2000
  147.6192  132.9987  152.3297 C   0  0  0  0  0  0  0  0  0  0  0  0
  146.3587  133.0168  151.4799 C   0  0  0  0  0  0  0  0  0  0  0  0
  145.8713  131.8064  150.9426 C   0  0  0  0  0  0  0  0  0  0  0  0
  144.7060  131.8247  150.1572 C   0  0  0  0  0  0  0  0  0  0  0  0
  144.0738  133.0611  149.9406 C   0  0  0  0  0  0  0  0  0  0  0  0
  144.5325  134.2223  150.4504 N   0  0  0  0  0  0  0  0  0  0  0  0
  145.6560  134.2221  151.2112 C   0  0  0  0  0  0  0  0  0  0  0  0
  146.1967  135.4083  151.7834 N   0  0  0  0  0  0  0  0  0  0  0  0
  145.5555  136.3876  152.4454 C   0  0  0  0  0  0  0  0  0  0  0  0
  144.3439  136.4281  152.6613 O   0  0  0  0  0  0  0  0  0  0  0  0
  146.4118  137.3399  152.8433 N   0  0  0  0  0  0  0  0  0  0  0  0
  146.0606  138.5513  153.5830 C   0  0  0  0  0  0  0  0  0  0  0  0
  147.1612  139.6402  153.5301 C   0  0  0  0  0  0  0  0  0  0  0  0
  147.4363  139.8753  152.1603 O   0  0  0  0  0  0  0  0  0  0  0  0
  146.7392  140.9716  154.2031 C   0  0  0  0  0  0  0  0  0  0  0  0
  147.8812  142.0016  154.2728 C   0  0  0  0  0  0  0  0  0  0  0  0
  149.1269  141.4167  154.9519 C   0  0  0  0  0  0  0  0  0  0  0  0
  149.5885  140.1376  154.2407 C   0  0  0  0  0  0  0  0  0  0  0  0
  148.4576  139.0954  154.1769 C   0  0  0  0  0  0  0  0  0  0  0  0
  148.0102  131.9867  152.4391 H   0  0  0  0  0  0  0  0  0  0  0  0
  147.4132  133.3876  153.3274 H   0  0  0  0  0  0  0  0  0  0  0  0
  148.3966  133.6109  151.8718 H   0  0  0  0  0  0  0  0  0  0  0  0
  146.3820  130.8729  151.1282 H   0  0  0  0  0  0  0  0  0  0  0  0
  144.3073  130.9157  149.7320 H   0  0  0  0  0  0  0  0  0  0  0  0
  143.1760  133.1204  149.3433 H   0  0  0  0  0  0  0  0  0  0  0  0
  147.1940  135.5210  151.6791 H   0  0  0  0  0  0  0  0  0  0  0  0
  147.3877  137.2262  152.6117 H   0  0  0  0  0  0  0  0  0  0  0  0
  145.1219  138.9583  153.2033 H   0  0  0  0  0  0  0  0  0  0  0  0
  145.8583  138.2698  154.6173 H   0  0  0  0  0  0  0  0  0  0  0  0
  148.3686  139.7978  152.0262 H   0  0  0  0  0  0  0  0  0  0  0  0
  145.8936  141.4184  153.6792 H   0  0  0  0  0  0  0  0  0  0  0  0
  146.3924  140.7643  155.2166 H   0  0  0  0  0  0  0  0  0  0  0  0
  148.1367  142.3385  153.2674 H   0  0  0  0  0  0  0  0  0  0  0  0
  147.5463  142.8861  154.8152 H   0  0  0  0  0  0  0  0  0  0  0  0
  149.9310  142.1531  154.9534 H   0  0  0  0  0  0  0  0  0  0  0  0
  148.9059  141.1965  155.9971 H   0  0  0  0  0  0  0  0  0  0  0  0
  149.9294  140.3794  153.2333 H   0  0  0  0  0  0  0  0  0  0  0  0
  150.4489  139.7160  154.7610 H   0  0  0  0  0  0  0  0  0  0  0  0
  148.2388  138.7638  155.1930 H   0  0  0  0  0  0  0  0  0  0  0  0
  148.8048  138.2104  153.6418 H   0  0  0  0  0  0  0  0  0  0  0  0
  1  2  1  0  0  0  0
  1 20  1  0  0  0  0
  1 21  1  0  0  0  0
  1 22  1  0  0  0  0
  2  7  1  0  0  0  0
  2  3  2  0  0  0  0
  3  4  1  0  0  0  0
  3 23  1  0  0  0  0
  4  5  2  0  0  0  0
  4 24  1  0  0  0  0
  5  6  1  0  0  0  0
  5 25  1  0  0  0  0
  6  7  2  0  0  0  0
  7  8  1  0  0  0  0
  8  9  1  0  0  0  0
  8 26  1  0  0  0  0
  9 10  2  0  0  0  0
  9 11  1  0  0  0  0
 11 12  1  0  0  0  0
 11 27  1  0  0  0  0
 12 13  1  0  0  0  0
 12 28  1  0  0  0  0
 12 29  1  0  0  0  0
 13 19  1  0  0  0  0
 13 14  1  0  0  0  0
 13 15  1  0  0  0  0
 14 30  1  0  0  0  0
 15 16  1  0  0  0  0
 15 31  1  0  0  0  0
 15 32  1  0  0  0  0
 16 17  1  0  0  0  0
 16 33  1  0  0  0  0
 16 34  1  0  0  0  0
 17 18  1  0  0  0  0
 17 35  1  0  0  0  0
 17 36  1  0  0  0  0
 18 19  1  0  0  0  0
 18 37  1  0  0  0  0
 18 38  1  0  0  0  0
 19 39  1  0  0  0  0
 19 40  1  0  0  0  0
M  END
> <s_m_source_file>
AV-unprocessed.smi

> <i_m_source_file_index>
1773

> <i_lp_mmshare_version>
43012

> <i_f3d_flags>
0

> <s_epik_input>
W0NIM11jMVtjSF1bY0hdW2NIXW5jMVtOSF1DKD1PKVtOSF1bQ0gyXUMyKFtPSF0pW0NIMl1bQ0gyXVtDSDJdW0NIMl1bQ0gyXTI=

> <s_epik_cmdline>
J2VwaWtfcHl0aG9uJywgJy1waCcsICc3LjAnLCAnLXRuJywgJzgnLCAnLW1hJywgJzIwMCcsICctbWV0YWxfYmluZGluZycsICctaW1hZScsICc8aW5maWxlLm1hZT4nLCAnLW9tYWUnLCAnPG91dGZpbGUubWFlPic=

> <r_lp_tautomer_probability>
1

> <r_epik_Ionization_Penalty>
6.74357e-05

> <r_epik_Ionization_Penalty_Charging>
0

> <r_epik_Ionization_Penalty_Neutral>
6.74357e-05

> <r_epik_State_Penalty>
-0

> <r_epik_Charging_Adjusted_Penalty>
0

> <i_epik_Tot_Q>
0

> <i_epik_Tot_abs_Q>
0

> <r_epik_Metal_State_Penalty>
-0

> <b_epik_Metal_Only>
0

> <s_lp_Force_Field>
OPLS_2005

> <r_lp_Energy>
17.1315

> <b_lp_Chiralities_Consistent>
1

> <s_lp_Variant>
AV-unprocessed.smi:1773-1

> <Gold.Version>
5.8.1

> <Gold.Id.Protein>
6NUR|6NUR_protein|mol2

> <Gold.PLP.Fitness>
45.8196

> <Gold.PLP.PLP>
-34.8784

> <Gold.PLP.part.hbond>
-2.5689

> <Gold.PLP.part.metal>
0.0000

> <Gold.PLP.part.buried>
-3.4804

> <Gold.PLP.part.nonpolar>
-29.9122

> <Gold.PLP.part.repulsive>
0.3871

> <Gold.PLP.ligand.clash>
0.0000

> <Gold.PLP.ligand.torsion>
0.5239

> <Gold.PLP.Chemscore.Hbond>
3.0000

> <Gold.PLP.Chemscore.CHOScore>
0.9942

> <Gold.PLP.Chemscore.Metal>
0.0000

> <Gold.Chemscore.Hbonds>
donor molecule, donor type, donor heavy atom, donor atom, acceptor molecule, acceptor atom, score
      L1  H     8    26       P1  7948  1.00
      L1  H    11    27       P1  7948  1.00
      L1  H    14    30       P1  7957  0.94
      L1  C     5    25       P1 10186  0.99

> <Gold.PLP.Chemscore.Internal.Correction>
0.0065

> <Gold.Rescore>
     Score         DG    S(hbond)    S(metal)    S(lipo)     H(rot)  DE(clash)    DE(int)     intcor
     19.97     -20.98       2.94        0.00      86.51       1.73       0.49       0.52       ----

> <Gold.Chemscore.Fitness>
19.9729

> <Gold.Chemscore.DG>
-20.9803

> <Gold.Chemscore.ZeroCoef>
-5.4800

> <Gold.Chemscore.Hbond>
2.9393

> <Gold.Chemscore.Metal>
0.0000

> <Gold.Chemscore.Lipo>
86.5118

> <Gold.Chemscore.Internal_Hbond>
0.0000

> <Gold.Chemscore.DEClash>
0.4851

> <Gold.Chemscore.DEInternal>
0.5224

> <Gold.Chemscore.Rot>
1.7339

> <Gold.Chemscore.Internal.Correction>
   9.000000E+99

> <Gold.Chemscore.Hbonds>
donor molecule, donor type, donor heavy atom, donor atom, acceptor molecule, acceptor atom, score
      L1  H     8    26       P1  7948  0.99
      L1  H    11    27       P1  7948  0.94
      L1  H    14    30       P1  7957  0.85

> <Gold.Chemscore.Hbond.Weighted>
-9.8171

> <Gold.Chemscore.Metal.Weighted>
-0.0000

> <Gold.Chemscore.Lipo.Weighted>
-10.1219

> <Gold.Chemscore.Internal_Hbond.Weighted>
0.0000

> <Gold.Chemscore.DEClash.Weighted>
0.4851

> <Gold.Chemscore.DEInternal.Weighted>
0.5224

> <Gold.Chemscore.Rot.Weighted>
4.4387

> <Gold.Chemscore.Internal.Correction.Weighted>
   9.000000E+99

> <Gold.Protein.RotatedTorsions>
[ 6907 6896 6895 6894 ] final  120.73 input  -60.11 | X-H torsion
[ 7974 7965 7964 7962 ] final -177.73 input  175.53 | X-H torsion
[ 8008 7997 7996 7995 ] final  167.06 input   59.86 | X-H torsion
[ 10167 10162 10161 10158 ] final  -60.48 input  -65.29 | X-H torsion
[ 10718 10713 10712 10709 ] final  -66.98 input   66.30 | X-H torsion
[ 10763 10752 10751 10750 ] final  -73.59 input  -60.55 | X-H torsion
[ 11005 11000 10999 10996 ] final  -65.16 input  -57.11 | X-H torsion

> <Gold.Protein.ActiveResidues>
 VAL166  LYS551  ARG553  GLY616  TRP617  ASP618  TYR619  PRO620  LYS621  CYS622 
 ASP623  PHE694  ASN695  SER759  ASP760  ASP761  ALA762  ILE779  LEU786  VAL792 
 PHE793  MET794  SER795  GLU796  ALA797  LYS798  CYS799  TRP800  GLU811  SER814 

> <Gold.Protein.RotatedAtoms>
  152.4376  133.7389  159.6629 H   0  0  0  0  0  0  0  0  0  0  0  0  # atno 6907 bound_to 6896
  150.8262  133.8158  159.3124 H   0  0  0  0  0  0  0  0  0  0  0  0  # atno 6908 bound_to 6896
  151.5825  135.1060  160.0072 H   0  0  0  0  0  0  0  0  0  0  0  0  # atno 6909 bound_to 6896
  144.7128  140.0975  143.6418 H   0  0  0  0  0  0  0  0  0  0  0  0  # atno 7974 bound_to 7965
  156.1666  140.1627  156.8521 H   0  0  0  0  0  0  0  0  0  0  0  0  # atno 8008 bound_to 7997
  154.5213  140.0777  156.8212 H   0  0  0  0  0  0  0  0  0  0  0  0  # atno 8009 bound_to 7997
  155.3600  140.3394  155.4243 H   0  0  0  0  0  0  0  0  0  0  0  0  # atno 8010 bound_to 7997
  140.6069  143.2376  151.5801 H   0  0  0  0  0  0  0  0  0  0  0  0  # atno 10167 bound_to 10162
  156.0582  130.4270  150.1788 H   0  0  0  0  0  0  0  0  0  0  0  0  # atno 10718 bound_to 10713
  154.4616  135.5892  153.6259 H   0  0  0  0  0  0  0  0  0  0  0  0  # atno 10763 bound_to 10752
  152.9824  135.6045  154.3479 H   0  0  0  0  0  0  0  0  0  0  0  0  # atno 10764 bound_to 10752
  154.3352  135.2842  155.2430 H   0  0  0  0  0  0  0  0  0  0  0  0  # atno 10765 bound_to 10752
  141.1446  133.6677  156.5944 H   0  0  0  0  0  0  0  0  0  0  0  0  # atno 11005 bound_to 11000
  145.9566  139.2771  143.1180 LP  0  0  0  0  0  0  0  0  0  0  0  0  # atno 17320 bound_to 7965
  145.9266  140.9078  143.0378 LP  0  0  0  0  0  0  0  0  0  0  0  0  # atno 17321 bound_to 7965
  139.5331  144.2858  152.1193 LP  0  0  0  0  0  0  0  0  0  0  0  0  # atno 17342 bound_to 10162
  140.2049  144.4621  150.6413 LP  0  0  0  0  0  0  0  0  0  0  0  0  # atno 17343 bound_to 10162
  156.9861  130.9879  151.3426 LP  0  0  0  0  0  0  0  0  0  0  0  0  # atno 17370 bound_to 10713
  157.5570  130.8220  149.8217 LP  0  0  0  0  0  0  0  0  0  0  0  0  # atno 17371 bound_to 10713
  140.3738  134.7583  157.4616 LP  0  0  0  0  0  0  0  0  0  0  0  0  # atno 17394 bound_to 11000
  140.0690  134.5889  155.8663 LP  0  0  0  0  0  0  0  0  0  0  0  0  # atno 17395 bound_to 11000

$$$$
