AV-unprocessed.smi:107|AV-procd|sdf|1017|dock6
  -GOLD-   2262018 13D 1   1.00000     0.00000
 Structure written by MMmdl.
 31 32  0  0  0  0  0  0  0  0  1 V2000
  151.7059  144.6761  158.0025 C   0  0  0  0  0  0  0  0  0  0  0  0
  151.7614  143.1602  158.0939 C   0  0  0  0  0  0  0  0  0  0  0  0
  150.8537  142.3605  157.4785 C   0  0  0  0  0  0  0  0  0  0  0  0
  150.8749  140.9747  157.5436 N   0  0  0  0  0  0  0  0  0  0  0  0
  149.8080  140.1612  156.8465 C   0  0  2  0  0  0  0  0  0  0  0  0
  150.4192  139.2149  155.8067 C   0  0  0  0  0  0  0  0  0  0  0  0
  149.9747  139.8363  154.4946 C   0  0  1  0  0  0  0  0  0  0  0  0
  149.7789  138.8464  153.5054 O   0  0  0  0  0  0  0  0  0  0  0  0
  148.6717  140.5420  154.8804 C   0  0  2  0  0  0  0  0  0  0  0  0
  148.3033  141.7035  153.9449 C   0  0  0  0  0  0  0  0  0  0  0  0
  147.3758  142.5592  154.5772 O   0  0  0  0  0  0  0  0  0  0  0  0
  148.9533  141.0419  156.1834 O   0  0  0  0  0  0  0  0  0  0  0  0
  151.8818  140.3345  158.2977 C   0  0  0  0  0  0  0  0  0  0  0  0
  151.9713  139.1122  158.4063 O   0  0  0  0  0  0  0  0  0  0  0  0
  152.8146  141.1552  158.9299 N   0  0  0  0  0  0  0  0  0  0  0  0
  152.8350  142.5514  158.8838 C   0  0  0  0  0  0  0  0  0  0  0  0
  153.7153  143.1663  159.4837 O   0  0  0  0  0  0  0  0  0  0  0  0
  153.5380  140.7011  159.4681 H   0  0  0  0  0  0  0  0  0  0  0  0
  150.8743  145.0138  157.3836 H   0  0  0  0  0  0  0  0  0  0  0  0
  152.6262  145.0662  157.5665 H   0  0  0  0  0  0  0  0  0  0  0  0
  151.5838  145.1129  158.9943 H   0  0  0  0  0  0  0  0  0  0  0  0
  150.0662  142.8311  156.9090 H   0  0  0  0  0  0  0  0  0  0  0  0
  149.2321  139.6284  157.6036 H   0  0  0  0  0  0  0  0  0  0  0  0
  151.5023  139.1326  155.9058 H   0  0  0  0  0  0  0  0  0  0  0  0
  149.9793  138.2264  155.9484 H   0  0  0  0  0  0  0  0  0  0  0  0
  150.7170  140.5575  154.1510 H   0  0  0  0  0  0  0  0  0  0  0  0
  149.8125  139.2581  152.6553 H   0  0  0  0  0  0  0  0  0  0  0  0
  147.8631  139.8111  154.9465 H   0  0  0  0  0  0  0  0  0  0  0  0
  149.1885  142.2610  153.6369 H   0  0  0  0  0  0  0  0  0  0  0  0
  147.8297  141.3214  153.0401 H   0  0  0  0  0  0  0  0  0  0  0  0
  147.8395  143.3136  154.9074 H   0  0  0  0  0  0  0  0  0  0  0  0
  1  2  1  0  0  0  0
  1 19  1  0  0  0  0
  1 20  1  0  0  0  0
  1 21  1  0  0  0  0
  2 16  1  0  0  0  0
  2  3  2  0  0  0  0
  3  4  1  0  0  0  0
  3 22  1  0  0  0  0
  4  5  1  0  0  0  0
  4 13  1  0  0  0  0
  5 12  1  0  0  0  0
  5  6  1  0  0  0  0
  5 23  1  0  0  0  0
  6  7  1  0  0  0  0
  6 24  1  0  0  0  0
  6 25  1  0  0  0  0
  7  8  1  0  0  0  0
  7  9  1  0  0  0  0
  7 26  1  0  0  0  0
  8 27  1  0  0  0  0
  9 10  1  0  0  0  0
  9 12  1  0  0  0  0
  9 28  1  0  0  0  0
 10 11  1  0  0  0  0
 10 29  1  0  0  0  0
 10 30  1  0  0  0  0
 11 31  1  0  0  0  0
 13 14  2  0  0  0  0
 13 15  1  0  0  0  0
 15 18  1  0  0  0  0
 15 16  1  0  0  0  0
 16 17  2  0  0  0  0
M  END
> <s_m_source_file>
AV-unprocessed.smi

> <i_m_source_file_index>
107

> <i_lp_mmshare_version>
43012

> <i_f3d_flags>
0

> <s_epik_input>
Tz1jMVtuSF1jKD1PKW4oW2NIXWMxW0NIM10pW0NAQEhdMltDSDJdW0NAQEhdKFtPSF0pW0NASF0oTzIpW0NIMl1bT0hd

> <s_epik_cmdline>
J2VwaWtfcHl0aG9uJywgJy1waCcsICc3LjAnLCAnLXRuJywgJzgnLCAnLW1hJywgJzIwMCcsICctbWV0YWxfYmluZGluZycsICctaW1hZScsICc8aW5maWxlLm1hZT4nLCAnLW9tYWUnLCAnPG91dGZpbGUubWFlPic=

> <r_lp_tautomer_probability>
0.999537

> <r_epik_Ionization_Penalty>
0.00121888

> <r_epik_Ionization_Penalty_Charging>
0.00121876

> <r_epik_Ionization_Penalty_Neutral>
1.19946e-07

> <r_epik_State_Penalty>
0.000805124

> <r_epik_Charging_Adjusted_Penalty>
0.00202389

> <i_epik_Tot_Q>
0

> <i_epik_Tot_abs_Q>
0

> <r_epik_Metal_State_Penalty>
0.662472

> <b_epik_Metal_Only>
0

> <s_epik_Chemistry_Notes>
This compound contains an acetal/aminal-like group ( X-CH(R)-Y where X, Y are N, S, or O) that may be acid/base labile, releasing an aldehyde.

> <s_lp_Force_Field>
OPLS_2005

> <r_lp_Energy>
24.9707

> <b_lp_Chiralities_Consistent>
1

> <s_lp_Variant>
AV-unprocessed.smi:107-5

> <Gold.Version>
5.8.1

> <Gold.Id.Protein>
6NUR|6NUR_protein|mol2

> <Gold.PLP.Fitness>
38.6610

> <Gold.PLP.PLP>
-29.9220

> <Gold.PLP.part.hbond>
-2.5597

> <Gold.PLP.part.metal>
0.0000

> <Gold.PLP.part.buried>
-1.8656

> <Gold.PLP.part.nonpolar>
-22.7243

> <Gold.PLP.part.repulsive>
0.1654

> <Gold.PLP.ligand.clash>
0.0000

> <Gold.PLP.ligand.torsion>
0.1319

> <Gold.PLP.Chemscore.Hbond>
2.0000

> <Gold.PLP.Chemscore.CHOScore>
0.9967

> <Gold.PLP.Chemscore.Metal>
0.0000

> <Gold.Chemscore.Hbonds>
donor molecule, donor type, donor heavy atom, donor atom, acceptor molecule, acceptor atom, score
      L1  H     8    27       P1  7957  1.00
      L1  H    11    31       P1  8028  1.00
      L1  C     3    22       P1  8028  0.95

> <Gold.PLP.Chemscore.Internal.Correction>
0.0127

> <Gold.Rescore>
     Score         DG    S(hbond)    S(metal)    S(lipo)     H(rot)  DE(clash)    DE(int)     intcor
     10.20     -11.39       1.85        0.00      57.43       2.73       0.06       1.13       ----

> <Gold.Chemscore.Fitness>
10.2007

> <Gold.Chemscore.DG>
-11.3925

> <Gold.Chemscore.ZeroCoef>
-5.4800

> <Gold.Chemscore.Hbond>
1.8475

> <Gold.Chemscore.Metal>
0.0000

> <Gold.Chemscore.Lipo>
57.4255

> <Gold.Chemscore.Internal_Hbond>
0.0000

> <Gold.Chemscore.DEClash>
0.0601

> <Gold.Chemscore.DEInternal>
1.1317

> <Gold.Chemscore.Rot>
2.7253

> <Gold.Chemscore.Internal.Correction>
   9.000000E+99

> <Gold.Chemscore.Hbonds>
donor molecule, donor type, donor heavy atom, donor atom, acceptor molecule, acceptor atom, score
      L1  H     8    27       P1  7957  0.94
      L1  H    11    31       P1  8028  0.65

> <Gold.Chemscore.Hbond.Weighted>
-6.1706

> <Gold.Chemscore.Metal.Weighted>
-0.0000

> <Gold.Chemscore.Lipo.Weighted>
-6.7188

> <Gold.Chemscore.Internal_Hbond.Weighted>
0.0000

> <Gold.Chemscore.DEClash.Weighted>
0.0601

> <Gold.Chemscore.DEInternal.Weighted>
1.1317

> <Gold.Chemscore.Rot.Weighted>
6.9769

> <Gold.Chemscore.Internal.Correction.Weighted>
   9.000000E+99

> <Gold.Protein.RotatedTorsions>
[ 6907 6896 6895 6894 ] final  -50.93 input  -60.11 | X-H torsion
[ 7974 7965 7964 7962 ] final -104.65 input  175.53 | X-H torsion
[ 8008 7997 7996 7995 ] final -133.13 input   59.86 | X-H torsion
[ 10167 10162 10161 10158 ] final  -72.66 input  -65.29 | X-H torsion
[ 10718 10713 10712 10709 ] final  112.37 input   66.30 | X-H torsion
[ 10763 10752 10751 10750 ] final  113.49 input  -60.55 | X-H torsion
[ 11005 11000 10999 10996 ] final -127.76 input  -57.11 | X-H torsion

> <Gold.Protein.ActiveResidues>
 VAL166  LYS551  ARG553  GLY616  TRP617  ASP618  TYR619  PRO620  LYS621  CYS622 
 ASP623  PHE694  ASN695  SER759  ASP760  ASP761  ALA762  ILE779  LEU786  VAL792 
 PHE793  MET794  SER795  GLU796  ALA797  LYS798  CYS799  TRP800  GLU811  SER814 

> <Gold.Protein.RotatedAtoms>
  150.8660  134.8023  159.7118 H   0  0  0  0  0  0  0  0  0  0  0  0  # atno 6907 bound_to 6896
  152.4681  134.5024  159.9738 H   0  0  0  0  0  0  0  0  0  0  0  0  # atno 6908 bound_to 6896
  151.5120  133.3445  159.2922 H   0  0  0  0  0  0  0  0  0  0  0  0  # atno 6909 bound_to 6896
  145.2404  140.9203  143.3153 H   0  0  0  0  0  0  0  0  0  0  0  0  # atno 7974 bound_to 7965
  155.3404  140.0472  157.3045 H   0  0  0  0  0  0  0  0  0  0  0  0  # atno 8008 bound_to 7997
  154.5280  140.2247  155.8820 H   0  0  0  0  0  0  0  0  0  0  0  0  # atno 8009 bound_to 7997
  156.1759  140.3085  155.9065 H   0  0  0  0  0  0  0  0  0  0  0  0  # atno 8010 bound_to 7997
  140.5174  143.2336  151.7489 H   0  0  0  0  0  0  0  0  0  0  0  0  # atno 10167 bound_to 10162
  157.6396  131.0966  150.6885 H   0  0  0  0  0  0  0  0  0  0  0  0  # atno 10718 bound_to 10713
  153.4932  135.3654  155.2502 H   0  0  0  0  0  0  0  0  0  0  0  0  # atno 10763 bound_to 10752
  154.8751  135.3982  154.3564 H   0  0  0  0  0  0  0  0  0  0  0  0  # atno 10764 bound_to 10752
  153.4187  135.7079  153.6374 H   0  0  0  0  0  0  0  0  0  0  0  0  # atno 10765 bound_to 10752
  140.9573  134.0984  157.4003 H   0  0  0  0  0  0  0  0  0  0  0  0  # atno 11005 bound_to 11000
  144.9594  139.3996  143.6363 LP  0  0  0  0  0  0  0  0  0  0  0  0  # atno 17320 bound_to 7965
  146.3330  139.8640  142.8851 LP  0  0  0  0  0  0  0  0  0  0  0  0  # atno 17321 bound_to 7965
  139.4913  144.4304  151.9879 LP  0  0  0  0  0  0  0  0  0  0  0  0  # atno 17342 bound_to 10162
  140.3399  144.3216  150.5969 LP  0  0  0  0  0  0  0  0  0  0  0  0  # atno 17343 bound_to 10162
  156.7211  130.4681  149.5523 LP  0  0  0  0  0  0  0  0  0  0  0  0  # atno 17370 bound_to 10713
  156.1665  130.6409  151.0784 LP  0  0  0  0  0  0  0  0  0  0  0  0  # atno 17371 bound_to 10713
  139.8866  135.0083  156.6510 LP  0  0  0  0  0  0  0  0  0  0  0  0  # atno 17394 bound_to 11000
  140.7518  133.8891  155.8352 LP  0  0  0  0  0  0  0  0  0  0  0  0  # atno 17395 bound_to 11000

$$$$
