AV-unprocessed.smi:1712|AV-procd|sdf|6901|dock4
  -GOLD-   22720 8103D 1   1.00000     0.00000
 Structure written by MMmdl.
 37 38  0  0  0  0  0  0  0  0  1 V2000
  147.0147  141.1671  154.3603 C   0  0  0  0  0  0  0  0  0  0  0  0
  147.7098  139.8128  154.0931 C   0  0  2  0  0  0  0  0  0  0  0  0
  146.6984  138.6756  154.3923 C   0  0  0  0  0  0  0  0  0  0  0  0
  146.8005  137.5770  153.4334 N   0  0  0  0  0  0  0  0  0  0  0  0
  145.7724  136.9893  152.8055 C   0  0  0  0  0  0  0  0  0  0  0  0
  144.5975  137.3269  152.9530 O   0  0  0  0  0  0  0  0  0  0  0  0
  146.1937  135.9910  152.0121 N   0  0  0  0  0  0  0  0  0  0  0  0
  145.4012  135.1557  151.1850 C   0  0  0  0  0  0  0  0  0  0  0  0
  145.7652  133.8448  150.7737 C   0  0  0  0  0  0  0  0  0  0  0  0
  144.8340  133.3040  150.0008 N   0  0  0  0  0  0  0  0  0  0  0  0
  143.8793  134.2578  149.9142 N   0  0  0  0  0  0  0  0  0  0  0  0
  144.1816  135.4020  150.6193 C   0  0  0  0  0  0  0  0  0  0  0  0
  149.0053  139.6672  154.7926 N   0  0  0  0  0  0  0  0  0  0  0  0
  149.9352  138.7850  154.0810 C   0  0  0  0  0  0  0  0  0  0  0  0
  151.2867  138.6462  154.8028 C   0  0  0  0  0  0  0  0  0  0  0  0
  151.8684  139.9309  154.9806 O   0  0  0  0  0  0  0  0  0  0  0  0
  151.0277  140.8026  155.7250 C   0  0  0  0  0  0  0  0  0  0  0  0
  149.6740  140.9536  155.0096 C   0  0  0  0  0  0  0  0  0  0  0  0
  143.0368  134.1152  149.3754 H   0  0  0  0  0  0  0  0  0  0  0  0
  146.0137  141.1891  153.9288 H   0  0  0  0  0  0  0  0  0  0  0  0
  147.5557  142.0005  153.9134 H   0  0  0  0  0  0  0  0  0  0  0  0
  146.9167  141.3638  155.4284 H   0  0  0  0  0  0  0  0  0  0  0  0
  147.9027  139.7737  153.0199 H   0  0  0  0  0  0  0  0  0  0  0  0
  146.8365  138.3152  155.4131 H   0  0  0  0  0  0  0  0  0  0  0  0
  145.6749  139.0484  154.3766 H   0  0  0  0  0  0  0  0  0  0  0  0
  147.7289  137.2234  153.2538 H   0  0  0  0  0  0  0  0  0  0  0  0
  147.1864  135.8081  151.9987 H   0  0  0  0  0  0  0  0  0  0  0  0
  146.6561  133.2797  151.0055 H   0  0  0  0  0  0  0  0  0  0  0  0
  143.5207  136.2554  150.6482 H   0  0  0  0  0  0  0  0  0  0  0  0
  149.5152  137.7856  153.9806 H   0  0  0  0  0  0  0  0  0  0  0  0
  150.1017  139.1610  153.0704 H   0  0  0  0  0  0  0  0  0  0  0  0
  151.1592  138.1584  155.7706 H   0  0  0  0  0  0  0  0  0  0  0  0
  151.9665  138.0257  154.2188 H   0  0  0  0  0  0  0  0  0  0  0  0
  150.8896  140.4129  156.7350 H   0  0  0  0  0  0  0  0  0  0  0  0
  151.5158  141.7728  155.8199 H   0  0  0  0  0  0  0  0  0  0  0  0
  149.8242  141.4578  154.0537 H   0  0  0  0  0  0  0  0  0  0  0  0
  149.0538  141.6095  155.6186 H   0  0  0  0  0  0  0  0  0  0  0  0
  1  2  1  0  0  0  0
  1 20  1  0  0  0  0
  1 21  1  0  0  0  0
  1 22  1  0  0  0  0
  2  3  1  0  0  0  0
  2 13  1  0  0  0  0
  2 23  1  0  0  0  0
  3  4  1  0  0  0  0
  3 24  1  0  0  0  0
  3 25  1  0  0  0  0
  4  5  1  0  0  0  0
  4 26  1  0  0  0  0
  5  6  2  0  0  0  0
  5  7  1  0  0  0  0
  7  8  1  0  0  0  0
  7 27  1  0  0  0  0
  8 12  2  0  0  0  0
  8  9  1  0  0  0  0
  9 10  2  0  0  0  0
  9 28  1  0  0  0  0
 10 11  1  0  0  0  0
 11 19  1  0  0  0  0
 11 12  1  0  0  0  0
 12 29  1  0  0  0  0
 13 18  1  0  0  0  0
 13 14  1  0  0  0  0
 14 15  1  0  0  0  0
 14 30  1  0  0  0  0
 14 31  1  0  0  0  0
 15 16  1  0  0  0  0
 15 32  1  0  0  0  0
 15 33  1  0  0  0  0
 16 17  1  0  0  0  0
 17 18  1  0  0  0  0
 17 34  1  0  0  0  0
 17 35  1  0  0  0  0
 18 36  1  0  0  0  0
 18 37  1  0  0  0  0
M  END
> <s_m_source_file>
AV-unprocessed.smi

> <i_m_source_file_index>
1712

> <i_lp_mmshare_version>
43012

> <i_f3d_flags>
0

> <s_epik_input>
W0NIMl0xW0NIMl1PW0NIMl1bQ0gyXU4xW0NASF0oW0NIM10pW0NIMl1bTkhdQyg9TylbTkhdYzJbY0hdbltuSF1bY0hdMg==

> <s_epik_cmdline>
J2VwaWtfcHl0aG9uJywgJy1waCcsICc3LjAnLCAnLXRuJywgJzgnLCAnLW1hJywgJzIwMCcsICctbWV0YWxfYmluZGluZycsICctaW1hZScsICc8aW5maWxlLm1hZT4nLCAnLW9tYWUnLCAnPG91dGZpbGUubWFlPic=

> <r_lp_tautomer_probability>
0.5

> <r_epik_Ionization_Penalty>
0.242772

> <r_epik_Ionization_Penalty_Charging>
0

> <r_epik_Ionization_Penalty_Neutral>
0.242772

> <r_epik_State_Penalty>
0.233765

> <r_epik_Charging_Adjusted_Penalty>
0.233765

> <i_epik_Tot_Q>
0

> <i_epik_Tot_abs_Q>
0

> <r_epik_Metal_State_Penalty>
0.233764

> <b_epik_Metal_Only>
0

> <s_lp_Force_Field>
OPLS_2005

> <r_lp_Energy>
36.7302

> <b_lp_Chiralities_Consistent>
1

> <s_lp_Variant>
AV-unprocessed.smi:1712-1

> <Gold.Version>
5.8.1

> <Gold.Id.Protein>
6NUR|6NUR_protein|mol2

> <Gold.PLP.Fitness>
38.8097

> <Gold.PLP.PLP>
-29.3815

> <Gold.PLP.part.hbond>
-4.3302

> <Gold.PLP.part.metal>
0.0000

> <Gold.PLP.part.buried>
-5.1236

> <Gold.PLP.part.nonpolar>
-21.5006

> <Gold.PLP.part.repulsive>
0.9094

> <Gold.PLP.ligand.clash>
0.1554

> <Gold.PLP.ligand.torsion>
1.3311

> <Gold.PLP.Chemscore.Hbond>
3.0696

> <Gold.PLP.Chemscore.CHOScore>
1.0000

> <Gold.PLP.Chemscore.Metal>
0.0000

> <Gold.Chemscore.Hbonds>
donor molecule, donor type, donor heavy atom, donor atom, acceptor molecule, acceptor atom, score
      L1  H     4    26       P1  7948  0.74
      L1  H     7    27       P1  7948  1.00
      L1  H    11    19       P1 10186  0.74
      P1  H  7989  7998       L1    16  0.60
      L1  C    12    29       P1 10171  1.00

> <Gold.PLP.Chemscore.Internal.Correction>
0.0370

> <Gold.Rescore>
     Score         DG    S(hbond)    S(metal)    S(lipo)     H(rot)  DE(clash)    DE(int)     intcor
     16.30     -17.90       2.83        0.00      61.13       1.63       0.03       1.58       ----

> <Gold.Chemscore.Fitness>
16.2980

> <Gold.Chemscore.DG>
-17.9022

> <Gold.Chemscore.ZeroCoef>
-5.4800

> <Gold.Chemscore.Hbond>
2.8280

> <Gold.Chemscore.Metal>
0.0000

> <Gold.Chemscore.Lipo>
61.1307

> <Gold.Chemscore.Internal_Hbond>
0.0000

> <Gold.Chemscore.DEClash>
0.0259

> <Gold.Chemscore.DEInternal>
1.5783

> <Gold.Chemscore.Rot>
1.6311

> <Gold.Chemscore.Internal.Correction>
   9.000000E+99

> <Gold.Chemscore.Hbonds>
donor molecule, donor type, donor heavy atom, donor atom, acceptor molecule, acceptor atom, score
      L1  H     4    26       P1  7948  0.71
      L1  H     7    27       P1  7948  0.99
      L1  H    11    19       P1 10186  0.70
      P1  H  7989  7998       L1    16  0.04

> <Gold.Chemscore.Hbond.Weighted>
-9.4456

> <Gold.Chemscore.Metal.Weighted>
-0.0000

> <Gold.Chemscore.Lipo.Weighted>
-7.1523

> <Gold.Chemscore.Internal_Hbond.Weighted>
0.0000

> <Gold.Chemscore.DEClash.Weighted>
0.0259

> <Gold.Chemscore.DEInternal.Weighted>
1.5783

> <Gold.Chemscore.Rot.Weighted>
4.1757

> <Gold.Chemscore.Internal.Correction.Weighted>
   9.000000E+99

> <Gold.Protein.RotatedTorsions>
[ 6907 6896 6895 6894 ] final   82.31 input  -60.11 | X-H torsion
[ 7974 7965 7964 7962 ] final  111.48 input  175.53 | X-H torsion
[ 8008 7997 7996 7995 ] final   74.51 input   59.86 | X-H torsion
[ 10167 10162 10161 10158 ] final  -13.85 input  -65.29 | X-H torsion
[ 10718 10713 10712 10709 ] final  164.19 input   66.30 | X-H torsion
[ 10763 10752 10751 10750 ] final   26.75 input  -60.55 | X-H torsion
[ 11005 11000 10999 10996 ] final   70.93 input  -57.11 | X-H torsion

> <Gold.Protein.ActiveResidues>
 VAL166  LYS551  ARG553  GLY616  TRP617  ASP618  TYR619  PRO620  LYS621  CYS622 
 ASP623  PHE694  ASN695  SER759  ASP760  ASP761  ALA762  ILE779  LEU786  VAL792 
 PHE793  MET794  SER795  GLU796  ALA797  LYS798  CYS799  TRP800  GLU811  SER814 

> <Gold.Protein.RotatedAtoms>
  152.5295  134.3070  159.9099 H   0  0  0  0  0  0  0  0  0  0  0  0  # atno 6907 bound_to 6896
  151.3020  133.4112  159.2648 H   0  0  0  0  0  0  0  0  0  0  0  0  # atno 6908 bound_to 6896
  151.0111  134.9414  159.8065 H   0  0  0  0  0  0  0  0  0  0  0  0  # atno 6909 bound_to 6896
  145.2416  139.2776  143.4114 H   0  0  0  0  0  0  0  0  0  0  0  0  # atno 7974 bound_to 7965
  155.7994  140.3477  155.5394 H   0  0  0  0  0  0  0  0  0  0  0  0  # atno 8008 bound_to 7997
  155.8553  140.0962  157.1669 H   0  0  0  0  0  0  0  0  0  0  0  0  # atno 8009 bound_to 7997
  154.4009  140.1369  156.3881 H   0  0  0  0  0  0  0  0  0  0  0  0  # atno 8010 bound_to 7997
  140.7190  143.5383  150.9439 H   0  0  0  0  0  0  0  0  0  0  0  0  # atno 10167 bound_to 10162
  157.0978  131.0435  151.2510 H   0  0  0  0  0  0  0  0  0  0  0  0  # atno 10718 bound_to 10713
  153.0601  135.6553  154.0482 H   0  0  0  0  0  0  0  0  0  0  0  0  # atno 10763 bound_to 10752
  154.0152  135.2925  155.3389 H   0  0  0  0  0  0  0  0  0  0  0  0  # atno 10764 bound_to 10752
  154.6936  135.5273  153.8494 H   0  0  0  0  0  0  0  0  0  0  0  0  # atno 10765 bound_to 10752
  139.9571  134.7125  156.0729 H   0  0  0  0  0  0  0  0  0  0  0  0  # atno 11005 bound_to 11000
  146.3327  140.2781  142.8609 LP  0  0  0  0  0  0  0  0  0  0  0  0  # atno 17320 bound_to 7965
  144.9583  140.8249  143.5529 LP  0  0  0  0  0  0  0  0  0  0  0  0  # atno 17321 bound_to 7965
  139.9105  143.6726  152.3116 LP  0  0  0  0  0  0  0  0  0  0  0  0  # atno 17342 bound_to 10162
  139.7107  144.7620  151.1117 LP  0  0  0  0  0  0  0  0  0  0  0  0  # atno 17343 bound_to 10162
  157.4666  130.7684  149.7285 LP  0  0  0  0  0  0  0  0  0  0  0  0  # atno 17370 bound_to 10713
  155.9881  130.3961  150.3133 LP  0  0  0  0  0  0  0  0  0  0  0  0  # atno 17371 bound_to 10713
  141.1244  133.6603  156.3298 LP  0  0  0  0  0  0  0  0  0  0  0  0  # atno 17394 bound_to 11000
  140.5584  134.5958  157.5427 LP  0  0  0  0  0  0  0  0  0  0  0  0  # atno 17395 bound_to 11000

$$$$
