AV-unprocessed.smi:72|AV-procd|sdf|705|dock3
  -GOLD-   2262017 23D 1   1.00000     0.00000
 Structure written by MMmdl.
 30 31  0  0  0  0  0  0  0  0  2 V2000
  152.7809  141.1036  159.0923 N   0  0  0  0  0  0  0  0  0  0  0  0
  152.0832  140.9896  157.9077 C   0  0  0  0  0  0  0  0  0  0  0  0
  150.9547  141.7737  157.7483 N   0  3  0  0  0  0  0  0  0  0  0  0
  150.1700  141.7845  156.6619 C   0  0  0  0  0  0  0  0  0  0  0  0
  150.4689  140.9963  155.6490 N   0  0  0  0  0  0  0  0  0  0  0  0
  149.6266  140.9554  154.3965 C   0  0  2  0  0  0  0  0  0  0  0  0
  148.7077  142.0052  154.4446 O   0  0  0  0  0  0  0  0  0  0  0  0
  147.4005  141.5025  154.7042 C   0  0  1  0  0  0  0  0  0  0  0  0
  146.3196  142.4952  154.2436 C   0  0  0  0  0  0  0  0  0  0  0  0
  145.0542  142.0739  154.7059 O   0  0  0  0  0  0  0  0  0  0  0  0
  147.4093  140.1479  153.9863 C   0  0  1  0  0  0  0  0  0  0  0  0
  147.1917  140.3032  152.5957 O   0  0  0  0  0  0  0  0  0  0  0  0
  148.8213  139.6413  154.2497 C   0  0  2  0  0  0  0  0  0  0  0  0
  148.8243  138.8339  155.4153 O   0  0  0  0  0  0  0  0  0  0  0  0
  151.6073  140.1526  155.7212 C   0  0  0  0  0  0  0  0  0  0  0  0
  151.8893  139.4067  154.7841 O   0  0  0  0  0  0  0  0  0  0  0  0
  152.3681  140.2148  156.8980 N   0  0  0  0  0  0  0  0  0  0  0  0
  150.3110  141.1451  153.5678 H   0  0  0  0  0  0  0  0  0  0  0  0
  147.2952  141.3101  155.7733 H   0  0  0  0  0  0  0  0  0  0  0  0
  146.6412  139.4766  154.3731 H   0  0  0  0  0  0  0  0  0  0  0  0
  149.2183  139.0542  153.4202 H   0  0  0  0  0  0  0  0  0  0  0  0
  153.6159  140.5718  159.2952 H   0  0  0  0  0  0  0  0  0  0  0  0
  152.5165  141.7203  159.8471 H   0  0  0  0  0  0  0  0  0  0  0  0
  149.3108  142.4411  156.6400 H   0  0  0  0  0  0  0  0  0  0  0  0
  146.5315  143.5071  154.5906 H   0  0  0  0  0  0  0  0  0  0  0  0
  146.2760  142.5248  153.1545 H   0  0  0  0  0  0  0  0  0  0  0  0
  144.8157  142.6018  155.4529 H   0  0  0  0  0  0  0  0  0  0  0  0
  148.0148  140.1883  152.1456 H   0  0  0  0  0  0  0  0  0  0  0  0
  147.9295  138.6197  155.6328 H   0  0  0  0  0  0  0  0  0  0  0  0
  150.7057  142.3859  158.5120 H   0  0  0  0  0  0  0  0  0  0  0  0
  1  2  1  0  0  0  0
  1 22  1  0  0  0  0
  1 23  1  0  0  0  0
  2 17  2  0  0  0  0
  2  3  1  0  0  0  0
  3  4  2  0  0  0  0
  3 30  1  0  0  0  0
  4  5  1  0  0  0  0
  4 24  1  0  0  0  0
  5  6  1  0  0  0  0
  5 15  1  0  0  0  0
  6 18  1  0  0  0  0
  6 13  1  0  0  0  0
  6  7  1  0  0  0  0
  7  8  1  0  0  0  0
  8 19  1  0  0  0  0
  8  9  1  0  0  0  0
  8 11  1  0  0  0  0
  9 10  1  0  0  0  0
  9 25  1  0  0  0  0
  9 26  1  0  0  0  0
 10 27  1  0  0  0  0
 11 20  1  0  0  0  0
 11 12  1  0  0  0  0
 11 13  1  0  0  0  0
 12 28  1  0  0  0  0
 13 21  1  0  0  0  0
 13 14  1  0  0  0  0
 14 29  1  0  0  0  0
 15 16  2  0  0  0  0
 15 17  1  0  0  0  0
M  CHG  1   3   1
M  END
> <s_m_source_file>
AV-unprocessed.smi

> <i_m_source_file_index>
72

> <i_lp_mmshare_version>
43012

> <i_f3d_flags>
0

> <s_epik_input>
W05IMl1jMW5bY0hdbihjKD1PKW4xKVtDQEBIXTJPW0NASF0oW0NIMl1bT0hdKVtDQEBIXShbT0hdKVtDQEhdMltPSF0=

> <s_epik_cmdline>
J2VwaWtfcHl0aG9uJywgJy1waCcsICc3LjAnLCAnLXRuJywgJzgnLCAnLW1hJywgJzIwMCcsICctbWV0YWxfYmluZGluZycsICctaW1hZScsICc8aW5maWxlLm1hZT4nLCAnLW9tYWUnLCAnPG91dGZpbGUubWFlPic=

> <r_lp_tautomer_probability>
4.77166e-05

> <r_epik_Ionization_Penalty>
0.104979

> <r_epik_Ionization_Penalty_Charging>
0.0999619

> <r_epik_Ionization_Penalty_Neutral>
0.00501745

> <r_epik_State_Penalty>
2.51541

> <r_epik_Charging_Adjusted_Penalty>
2.61537

> <i_epik_Tot_Q>
1

> <i_epik_Tot_abs_Q>
1

> <r_epik_Metal_State_Penalty>
3.53763

> <b_epik_Metal_Only>
0

> <s_epik_Chemistry_Notes>
This compound contains an acetal/aminal-like group ( X-CH(R)-Y where X, Y are N, S, or O) that may be acid/base labile, releasing an aldehyde.

> <s_lp_Force_Field>
OPLS_2005

> <r_lp_Energy>
35.1753

> <b_lp_Chiralities_Consistent>
1

> <s_lp_Variant>
AV-unprocessed.smi:72-43

> <Gold.Version>
5.8.1

> <Gold.Id.Protein>
6NUR|6NUR_protein|mol2

> <Gold.PLP.Fitness>
37.3658

> <Gold.PLP.PLP>
-27.0076

> <Gold.PLP.part.hbond>
-4.9765

> <Gold.PLP.part.metal>
0.0000

> <Gold.PLP.part.buried>
-2.4444

> <Gold.PLP.part.nonpolar>
-21.0906

> <Gold.PLP.part.repulsive>
1.4106

> <Gold.PLP.ligand.clash>
0.0000

> <Gold.PLP.ligand.torsion>
0.2606

> <Gold.PLP.Chemscore.Hbond>
2.5952

> <Gold.PLP.Chemscore.CHOScore>
1.0000

> <Gold.PLP.Chemscore.Metal>
0.0000

> <Gold.Chemscore.Hbonds>
donor molecule, donor type, donor heavy atom, donor atom, acceptor molecule, acceptor atom, score
      L1  H    12    28       P1  7957  1.00
      P1  H  7989  7998       L1    16  0.60
      P1  H  7997  8010       L1    17  1.00
      L1  C     4    24       P1  8028  1.00

> <Gold.PLP.Chemscore.Internal.Correction>
0.0938

> <Gold.Rescore>
     Score         DG    S(hbond)    S(metal)    S(lipo)     H(rot)  DE(clash)    DE(int)     intcor
      2.32      -3.39       1.70        0.00      22.97       4.08       0.57       0.50       ----

> <Gold.Chemscore.Fitness>
2.3188

> <Gold.Chemscore.DG>
-3.3947

> <Gold.Chemscore.ZeroCoef>
-5.4800

> <Gold.Chemscore.Hbond>
1.6969

> <Gold.Chemscore.Metal>
0.0000

> <Gold.Chemscore.Lipo>
22.9703

> <Gold.Chemscore.Internal_Hbond>
0.0000

> <Gold.Chemscore.DEClash>
0.5742

> <Gold.Chemscore.DEInternal>
0.5017

> <Gold.Chemscore.Rot>
4.0783

> <Gold.Chemscore.Internal.Correction>
   9.000000E+99

> <Gold.Chemscore.Hbonds>
donor molecule, donor type, donor heavy atom, donor atom, acceptor molecule, acceptor atom, score
      L1  H    12    28       P1  7957  1.00
      P1  H  7989  7998       L1    16  0.04
      P1  H  7997  8010       L1    17  0.61

> <Gold.Chemscore.Hbond.Weighted>
-5.6676

> <Gold.Chemscore.Metal.Weighted>
-0.0000

> <Gold.Chemscore.Lipo.Weighted>
-2.6875

> <Gold.Chemscore.Internal_Hbond.Weighted>
0.0000

> <Gold.Chemscore.DEClash.Weighted>
0.5742

> <Gold.Chemscore.DEInternal.Weighted>
0.5017

> <Gold.Chemscore.Rot.Weighted>
10.4404

> <Gold.Chemscore.Internal.Correction.Weighted>
   9.000000E+99

> <Gold.Protein.RotatedTorsions>
[ 6907 6896 6895 6894 ] final    9.79 input  -60.11 | X-H torsion
[ 7974 7965 7964 7962 ] final  -41.58 input  175.53 | X-H torsion
[ 8008 7997 7996 7995 ] final   69.49 input   59.86 | X-H torsion
[ 10167 10162 10161 10158 ] final  141.97 input  -65.29 | X-H torsion
[ 10718 10713 10712 10709 ] final  -12.05 input   66.30 | X-H torsion
[ 10763 10752 10751 10750 ] final -165.95 input  -60.55 | X-H torsion
[ 11005 11000 10999 10996 ] final    7.62 input  -57.11 | X-H torsion

> <Gold.Protein.ActiveResidues>
 VAL166  LYS551  ARG553  GLY616  TRP617  ASP618  TYR619  PRO620  LYS621  CYS622 
 ASP623  PHE694  ASN695  SER759  ASP760  ASP761  ALA762  ILE779  LEU786  VAL792 
 PHE793  MET794  SER795  GLU796  ALA797  LYS798  CYS799  TRP800  GLU811  SER814 

> <Gold.Protein.RotatedAtoms>
  151.7278  135.0881  160.0294 H   0  0  0  0  0  0  0  0  0  0  0  0  # atno 6907 bound_to 6896
  152.3560  133.6234  159.5988 H   0  0  0  0  0  0  0  0  0  0  0  0  # atno 6908 bound_to 6896
  150.7572  133.9415  159.3499 H   0  0  0  0  0  0  0  0  0  0  0  0  # atno 6909 bound_to 6896
  146.0197  140.6865  142.9184 H   0  0  0  0  0  0  0  0  0  0  0  0  # atno 7974 bound_to 7965
  155.7244  140.3493  155.5031 H   0  0  0  0  0  0  0  0  0  0  0  0  # atno 8008 bound_to 7997
  155.9240  140.1072  157.1206 H   0  0  0  0  0  0  0  0  0  0  0  0  # atno 8009 bound_to 7997
  154.4074  140.1244  156.4703 H   0  0  0  0  0  0  0  0  0  0  0  0  # atno 8010 bound_to 7997
  139.5006  144.6137  151.6213 H   0  0  0  0  0  0  0  0  0  0  0  0  # atno 10167 bound_to 10162
  156.6502  130.4953  149.6064 H   0  0  0  0  0  0  0  0  0  0  0  0  # atno 10718 bound_to 10713
  154.6881  135.2966  154.9519 H   0  0  0  0  0  0  0  0  0  0  0  0  # atno 10763 bound_to 10752
  154.0491  135.6647  153.4802 H   0  0  0  0  0  0  0  0  0  0  0  0  # atno 10764 bound_to 10752
  153.0593  135.5125  154.7959 H   0  0  0  0  0  0  0  0  0  0  0  0  # atno 10765 bound_to 10752
  140.5462  134.0327  155.7921 H   0  0  0  0  0  0  0  0  0  0  0  0  # atno 11005 bound_to 11000
  144.6985  140.3544  143.7175 LP  0  0  0  0  0  0  0  0  0  0  0  0  # atno 17320 bound_to 7965
  145.7212  139.1710  143.2483 LP  0  0  0  0  0  0  0  0  0  0  0  0  # atno 17321 bound_to 7965
  140.5819  143.9931  150.6273 LP  0  0  0  0  0  0  0  0  0  0  0  0  # atno 17342 bound_to 10162
  140.3083  143.3215  152.0904 LP  0  0  0  0  0  0  0  0  0  0  0  0  # atno 17343 bound_to 10162
  156.2090  130.6667  151.1249 LP  0  0  0  0  0  0  0  0  0  0  0  0  # atno 17370 bound_to 10713
  157.7143  131.0718  150.6385 LP  0  0  0  0  0  0  0  0  0  0  0  0  # atno 17371 bound_to 10713
  141.1198  133.9479  157.2751 LP  0  0  0  0  0  0  0  0  0  0  0  0  # atno 17394 bound_to 11000
  139.9478  135.0181  156.8905 LP  0  0  0  0  0  0  0  0  0  0  0  0  # atno 17395 bound_to 11000

$$$$
