#       Name:                AV-unprocessed.smi:2889
#       Creating user name   scv26
#       Creation time:       Fri Mar 27 15:58:16 2020


#       File generated by GOLD software.
#

@<TRIPOS>MOLECULE
AV-unprocessed.smi:2889
    39    40     1
SMALL
NO_CHARGES


@<TRIPOS>ATOM
      1 ****        -2.8651   1.9897   2.6864 C.3            1 S1                 0.0000
      2 ****        -1.6961   0.6061   2.8048 S.3            1 S1                 0.0000
      3 ****        -1.9500  -0.2326   1.2031 C.3            1 S1                 0.0000
      4 ****        -1.6227  -1.7465   1.3222 C.3            1 S1                 0.0000
      5 ****        -1.8934  -2.5225   0.0162 C.3            1 S1                 0.0000
      6 ****        -1.1435  -1.8532  -1.1534 C.3            1 S1                 0.0000
      7 ****        -1.4591  -0.3399  -1.2787 C.3            1 S1                 0.0000
      8 ****        -1.2126   0.4680   0.0219 C.3            1 S1                 0.0000
      9 ****         0.2182   0.5625   0.2857 N.pl3          1 S1                -1.0000
     10 ****         1.0587   1.8388  -0.2545 S.o2           1 S1                 0.0000
     11 ****         1.0879   1.9239  -1.7244 O.2            1 S1                 0.0000
     12 ****         0.7269   3.0700   0.4809 O.2            1 S1                 0.0000
     13 ****         2.7648   1.3770   0.2815 C.3            1 S1                 0.0000
     14 ****         3.3551   0.3529  -0.6487 C.2            1 S1                 0.0000
     15 ****         4.0626   0.5670  -1.8642 C.2            1 S1                 0.0000
     16 ****         4.3627  -0.6959  -2.2857 C.2            1 S1                 0.0000
     17 ****         3.8945  -1.6152  -1.4047 O.3            1 S1                 0.0000
     18 ****         3.2578  -0.9361  -0.3599 N.2            1 S1                 0.0000
     19 ****        -2.8581   2.5627   3.6133 H              1 S1                 0.0000
     20 ****        -3.8768   1.6215   2.5169 H              1 S1                 0.0000
     21 ****        -2.5947   2.6596   1.8704 H              1 S1                 0.0000
     22 ****        -3.0199  -0.1677   1.0013 H              1 S1                 0.0000
     23 ****        -0.5814  -1.8881   1.6188 H              1 S1                 0.0000
     24 ****        -2.2190  -2.1839   2.1234 H              1 S1                 0.0000
     25 ****        -1.5846  -3.5629   0.1208 H              1 S1                 0.0000
     26 ****        -2.9641  -2.5305  -0.1907 H              1 S1                 0.0000
     27 ****        -0.0691  -2.0040  -1.0297 H              1 S1                 0.0000
     28 ****        -1.4057  -2.3553  -2.0849 H              1 S1                 0.0000
     29 ****        -0.8907   0.0873  -2.1055 H              1 S1                 0.0000
     30 ****        -2.5077  -0.2311  -1.5581 H              1 S1                 0.0000
     31 ****        -1.6508   1.4585  -0.1063 H              1 S1                 0.0000
     32 ****         3.3686   2.2836   0.2710 H              1 S1                 0.0000
     33 ****         2.7248   1.0232   1.3120 H              1 S1                 0.0000
     34 ****         4.3017   1.4999  -2.3522 H              1 S1                 0.0000
     35 ****         4.8813  -1.0861  -3.1486 H              1 S1                 0.0000
     36 ****         0.6808  -0.1598   0.7997 LP             1 S1                 0.0000
     37 ****         4.6545  -2.1555  -1.0436 LP             1 S1                 0.0000
     38 ****         3.2427  -2.2205  -1.8617 LP             1 S1                 0.0000
     39 ****         2.8186  -1.3416   0.4418 LP             1 S1                 0.0000
@<TRIPOS>BOND
    1    1    2 1     
    2    1   19 1     
    3    1   20 1     
    4    1   21 1     
    5    2    3 1     
    6    3    8 1     
    7    3    4 1     
    8    3   22 1     
    9    4    5 1     
   10    4   23 1     
   11    4   24 1     
   12    5    6 1     
   13    5   25 1     
   14    5   26 1     
   15    6    7 1     
   16    6   27 1     
   17    6   28 1     
   18    7    8 1     
   19    7   29 1     
   20    7   30 1     
   21    8    9 1     
   22    8   31 1     
   23    9   10 1     
   24   10   11 2     
   25   10   12 2     
   26   10   13 1     
   27   13   14 1     
   28   13   32 1     
   29   13   33 1     
   30   14   18 2     
   31   14   15 1     
   32   15   16 2     
   33   15   34 1     
   34   16   17 1     
   35   16   35 1     
   36   17   18 1     
   37    9   36 1     
   38   17   37 1     
   39   17   38 1     
   40   18   39 1     
@<TRIPOS>SUBSTRUCTURE
      1 S1             1
@<TRIPOS>SET
LONE_PAIRS      STATIC     ATOMS    <user>   **** ""
6 36 11 12 37 38 39
ATOM$BLUE        STATIC     ATOMS    COLORGROUP SYSTEM
6 36 11 12 37 38 39
