AV-unprocessed.smi:1563|AV-procd|sdf|6290|dock6
  -GOLD-   22720 6493D 1   1.00000     0.00000
 Structure written by MMmdl.
 43 44  0  0  0  0  0  0  0  0  1 V2000
  144.1192  142.3610  158.8907 C   0  0  0  0  0  0  0  0  0  0  0  0
  145.4102  141.8527  158.2579 C   0  0  0  0  0  0  0  0  0  0  0  0
  146.4525  141.8388  158.9120 O   0  0  0  0  0  0  0  0  0  0  0  0
  145.3255  141.4318  156.9868 N   0  0  0  0  0  0  0  0  0  0  0  0
  146.4354  140.9007  156.2023 C   0  0  1  0  0  0  0  0  0  0  0  0
  145.9141  140.0241  155.0398 C   0  0  0  0  0  0  0  0  0  0  0  0
  147.0408  139.6204  154.0690 C   0  0  0  0  0  0  0  0  0  0  0  0
  147.8698  140.8455  153.6433 C   0  0  0  0  0  0  0  0  0  0  0  0
  148.3870  141.5028  154.8552 N   0  0  0  0  0  0  0  0  0  0  0  0
  149.6517  141.4103  155.3388 C   0  0  0  0  0  0  0  0  0  0  0  0
  150.4591  140.5615  154.9573 O   0  0  0  0  0  0  0  0  0  0  0  0
  149.9597  142.3120  156.2865 N   0  0  0  0  0  0  0  0  0  0  0  0
  151.2600  142.4387  156.9343 C   0  0  0  0  0  0  0  0  0  0  0  0
  151.3030  143.6544  157.8753 C   0  0  0  0  0  0  0  0  0  0  0  0
  151.9310  143.3225  159.2153 C   0  0  0  0  0  0  0  0  0  0  0  0
  151.8218  144.2168  160.3016 C   0  0  0  0  0  0  0  0  0  0  0  0
  152.4269  143.8650  161.5235 C   0  0  0  0  0  0  0  0  0  0  0  0
  153.1154  142.6397  161.6115 C   0  0  0  0  0  0  0  0  0  0  0  0
  153.1689  141.8176  160.4681 C   0  0  0  0  0  0  0  0  0  0  0  0
  152.5920  142.1453  159.2915 N   0  0  0  0  0  0  0  0  0  0  0  0
  147.2929  142.0618  155.6588 C   0  0  0  0  0  0  0  0  0  0  0  0
  143.5337  142.9369  158.1731 H   0  0  0  0  0  0  0  0  0  0  0  0
  144.3364  143.0033  159.7448 H   0  0  0  0  0  0  0  0  0  0  0  0
  143.5149  141.5224  159.2374 H   0  0  0  0  0  0  0  0  0  0  0  0
  144.4265  141.4815  156.5300 H   0  0  0  0  0  0  0  0  0  0  0  0
  147.0678  140.2896  156.8497 H   0  0  0  0  0  0  0  0  0  0  0  0
  145.4204  139.1321  155.4267 H   0  0  0  0  0  0  0  0  0  0  0  0
  145.1563  140.5778  154.4839 H   0  0  0  0  0  0  0  0  0  0  0  0
  147.6927  138.8905  154.5509 H   0  0  0  0  0  0  0  0  0  0  0  0
  146.6189  139.1284  153.1924 H   0  0  0  0  0  0  0  0  0  0  0  0
  148.6442  140.5449  152.9379 H   0  0  0  0  0  0  0  0  0  0  0  0
  147.2400  141.5468  153.0941 H   0  0  0  0  0  0  0  0  0  0  0  0
  149.2466  142.9717  156.5614 H   0  0  0  0  0  0  0  0  0  0  0  0
  151.4483  141.5241  157.4969 H   0  0  0  0  0  0  0  0  0  0  0  0
  152.0478  142.5091  156.1820 H   0  0  0  0  0  0  0  0  0  0  0  0
  151.8640  144.4687  157.4146 H   0  0  0  0  0  0  0  0  0  0  0  0
  150.2941  144.0354  158.0414 H   0  0  0  0  0  0  0  0  0  0  0  0
  151.2889  145.1511  160.2021 H   0  0  0  0  0  0  0  0  0  0  0  0
  152.3647  144.5233  162.3773 H   0  0  0  0  0  0  0  0  0  0  0  0
  153.5914  142.3374  162.5325 H   0  0  0  0  0  0  0  0  0  0  0  0
  153.6893  140.8719  160.4996 H   0  0  0  0  0  0  0  0  0  0  0  0
  146.6880  142.7223  155.0354 H   0  0  0  0  0  0  0  0  0  0  0  0
  147.6547  142.6833  156.4795 H   0  0  0  0  0  0  0  0  0  0  0  0
  1  2  1  0  0  0  0
  1 22  1  0  0  0  0
  1 23  1  0  0  0  0
  1 24  1  0  0  0  0
  2  3  2  0  0  0  0
  2  4  1  0  0  0  0
  4  5  1  0  0  0  0
  4 25  1  0  0  0  0
  5 21  1  0  0  0  0
  5  6  1  0  0  0  0
  5 26  1  0  0  0  0
  6  7  1  0  0  0  0
  6 27  1  0  0  0  0
  6 28  1  0  0  0  0
  7  8  1  0  0  0  0
  7 29  1  0  0  0  0
  7 30  1  0  0  0  0
  8  9  1  0  0  0  0
  8 31  1  0  0  0  0
  8 32  1  0  0  0  0
  9 10  1  0  0  0  0
  9 21  1  0  0  0  0
 10 11  2  0  0  0  0
 10 12  1  0  0  0  0
 12 13  1  0  0  0  0
 12 33  1  0  0  0  0
 13 14  1  0  0  0  0
 13 34  1  0  0  0  0
 13 35  1  0  0  0  0
 14 15  1  0  0  0  0
 14 36  1  0  0  0  0
 14 37  1  0  0  0  0
 15 20  1  0  0  0  0
 15 16  2  0  0  0  0
 16 17  1  0  0  0  0
 16 38  1  0  0  0  0
 17 18  2  0  0  0  0
 17 39  1  0  0  0  0
 18 19  1  0  0  0  0
 18 40  1  0  0  0  0
 19 20  2  0  0  0  0
 19 41  1  0  0  0  0
 21 42  1  0  0  0  0
 21 43  1  0  0  0  0
M  END
> <s_m_source_file>
AV-unprocessed.smi

> <i_m_source_file_index>
1563

> <i_lp_mmshare_version>
43012

> <i_f3d_flags>
0

> <s_epik_input>
W0NIM11DKD1PKVtOSF1bQ0BASF0xW0NIMl1bQ0gyXVtDSDJdTihbQ0gyXTEpQyg9TylbTkhdW0NIMl1bQ0gyXWMyW2NIXVtjSF1bY0hdW2NIXW4y

> <s_epik_cmdline>
J2VwaWtfcHl0aG9uJywgJy1waCcsICc3LjAnLCAnLXRuJywgJzgnLCAnLW1hJywgJzIwMCcsICctbWV0YWxfYmluZGluZycsICctaW1hZScsICc8aW5maWxlLm1hZT4nLCAnLW9tYWUnLCAnPG91dGZpbGUubWFlPic=

> <r_epik_Ionization_Penalty>
0.0442074

> <r_epik_Ionization_Penalty_Charging>
0

> <r_epik_Ionization_Penalty_Neutral>
0.0442074

> <r_epik_State_Penalty>
0.0374027

> <r_epik_Charging_Adjusted_Penalty>
0.0374027

> <i_epik_Tot_Q>
0

> <i_epik_Tot_abs_Q>
0

> <r_epik_Metal_State_Penalty>
0.0347963

> <b_epik_Metal_Only>
0

> <s_lp_Force_Field>
OPLS_2005

> <r_lp_Energy>
22.675

> <b_lp_Chiralities_Consistent>
1

> <s_lp_Variant>
AV-unprocessed.smi:1563-2

> <Gold.Version>
5.8.1

> <Gold.Id.Protein>
6NUR|6NUR_protein|mol2

> <Gold.PLP.Fitness>
43.9801

> <Gold.PLP.PLP>
-39.2369

> <Gold.PLP.part.hbond>
-3.0000

> <Gold.PLP.part.metal>
0.0000

> <Gold.PLP.part.buried>
-4.9010

> <Gold.PLP.part.nonpolar>
-31.8321

> <Gold.PLP.part.repulsive>
0.1877

> <Gold.PLP.ligand.clash>
0.0000

> <Gold.PLP.ligand.torsion>
0.9806

> <Gold.PLP.Chemscore.Hbond>
2.2171

> <Gold.PLP.Chemscore.CHOScore>
0.0000

> <Gold.PLP.Chemscore.Metal>
0.0000

> <Gold.Chemscore.Hbonds>
donor molecule, donor type, donor heavy atom, donor atom, acceptor molecule, acceptor atom, score
      L1  H    12    33       P1  8028  0.51
      P1  H  6934  6946       L1     3  0.69
      P1  H  7989  7998       L1    11  0.98

> <Gold.PLP.Chemscore.Internal.Correction>
0.0529

> <Gold.Rescore>
     Score         DG    S(hbond)    S(metal)    S(lipo)     H(rot)  DE(clash)    DE(int)     intcor
     18.75     -19.98       2.18        0.00      98.57       1.68       0.27       0.96       ----

> <Gold.Chemscore.Fitness>
18.7515

> <Gold.Chemscore.DG>
-19.9773

> <Gold.Chemscore.ZeroCoef>
-5.4800

> <Gold.Chemscore.Hbond>
2.1762

> <Gold.Chemscore.Metal>
0.0000

> <Gold.Chemscore.Lipo>
98.5723

> <Gold.Chemscore.Internal_Hbond>
0.0000

> <Gold.Chemscore.DEClash>
0.2662

> <Gold.Chemscore.DEInternal>
0.9596

> <Gold.Chemscore.Rot>
1.6813

> <Gold.Chemscore.Internal.Correction>
   9.000000E+99

> <Gold.Chemscore.Hbonds>
donor molecule, donor type, donor heavy atom, donor atom, acceptor molecule, acceptor atom, score
      L1  H    12    33       P1  8028  0.50
      P1  H  6934  6946       L1     3  0.67
      P1  H  7989  7998       L1    11  0.91

> <Gold.Chemscore.Hbond.Weighted>
-7.2686

> <Gold.Chemscore.Metal.Weighted>
-0.0000

> <Gold.Chemscore.Lipo.Weighted>
-11.5330

> <Gold.Chemscore.Internal_Hbond.Weighted>
0.0000

> <Gold.Chemscore.DEClash.Weighted>
0.2662

> <Gold.Chemscore.DEInternal.Weighted>
0.9596

> <Gold.Chemscore.Rot.Weighted>
4.3042

> <Gold.Chemscore.Internal.Correction.Weighted>
   9.000000E+99

> <Gold.Protein.RotatedTorsions>
[ 6907 6896 6895 6894 ] final  -99.87 input  -60.11 | X-H torsion
[ 7974 7965 7964 7962 ] final  124.69 input  175.53 | X-H torsion
[ 8008 7997 7996 7995 ] final -134.84 input   59.86 | X-H torsion
[ 10167 10162 10161 10158 ] final   19.96 input  -65.29 | X-H torsion
[ 10718 10713 10712 10709 ] final  -32.40 input   66.30 | X-H torsion
[ 10763 10752 10751 10750 ] final  -66.58 input  -60.55 | X-H torsion
[ 11005 11000 10999 10996 ] final -150.90 input  -57.11 | X-H torsion

> <Gold.Protein.ActiveResidues>
 VAL166  LYS551  ARG553  GLY616  TRP617  ASP618  TYR619  PRO620  LYS621  CYS622 
 ASP623  PHE694  ASN695  SER759  ASP760  ASP761  ALA762  ILE779  LEU786  VAL792 
 PHE793  MET794  SER795  GLU796  ALA797  LYS798  CYS799  TRP800  GLU811  SER814 

> <Gold.Protein.RotatedAtoms>
  150.7095  134.0974  159.3953 H   0  0  0  0  0  0  0  0  0  0  0  0  # atno 6907 bound_to 6896
  151.8960  135.0395  160.0511 H   0  0  0  0  0  0  0  0  0  0  0  0  # atno 6908 bound_to 6896
  152.2453  133.5134  159.5330 H   0  0  0  0  0  0  0  0  0  0  0  0  # atno 6909 bound_to 6896
  145.0815  139.3654  143.4907 H   0  0  0  0  0  0  0  0  0  0  0  0  # atno 7974 bound_to 7965
  155.3687  140.0487  157.3046 H   0  0  0  0  0  0  0  0  0  0  0  0  # atno 8008 bound_to 7997
  154.5141  140.2202  155.9063 H   0  0  0  0  0  0  0  0  0  0  0  0  # atno 8009 bound_to 7997
  156.1616  140.3115  155.8823 H   0  0  0  0  0  0  0  0  0  0  0  0  # atno 8010 bound_to 7997
  140.5539  143.9459  150.6596 H   0  0  0  0  0  0  0  0  0  0  0  0  # atno 10167 bound_to 10162
  156.3753  130.4346  149.7512 H   0  0  0  0  0  0  0  0  0  0  0  0  # atno 10718 bound_to 10713
  154.3620  135.6114  153.5695 H   0  0  0  0  0  0  0  0  0  0  0  0  # atno 10763 bound_to 10752
  152.9793  135.5817  154.4622 H   0  0  0  0  0  0  0  0  0  0  0  0  # atno 10764 bound_to 10752
  154.4361  135.2849  155.1857 H   0  0  0  0  0  0  0  0  0  0  0  0  # atno 10765 bound_to 10752
  140.7353  134.3575  157.5158 H   0  0  0  0  0  0  0  0  0  0  0  0  # atno 11005 bound_to 11000
  146.3531  140.0607  142.8629 LP  0  0  0  0  0  0  0  0  0  0  0  0  # atno 17320 bound_to 7965
  145.1172  140.9441  143.4621 LP  0  0  0  0  0  0  0  0  0  0  0  0  # atno 17321 bound_to 7965
  140.2892  143.3336  152.1078 LP  0  0  0  0  0  0  0  0  0  0  0  0  # atno 17342 bound_to 10162
  139.5039  144.6765  151.6114 LP  0  0  0  0  0  0  0  0  0  0  0  0  # atno 17343 bound_to 10162
  156.4624  130.7958  151.2978 LP  0  0  0  0  0  0  0  0  0  0  0  0  # atno 17370 bound_to 10713
  157.7487  131.0062  150.3141 LP  0  0  0  0  0  0  0  0  0  0  0  0  # atno 17371 bound_to 10713
  139.8817  134.9045  156.2879 LP  0  0  0  0  0  0  0  0  0  0  0  0  # atno 17394 bound_to 11000
  140.9885  133.7223  156.0778 LP  0  0  0  0  0  0  0  0  0  0  0  0  # atno 17395 bound_to 11000

$$$$
