#       Name:                AV-unprocessed.smi:3132
#       Creating user name   scv26
#       Creation time:       Fri Mar 27 17:32:26 2020


#       File generated by GOLD software.
#

@<TRIPOS>MOLECULE
AV-unprocessed.smi:3132
    38    39     1
SMALL
NO_CHARGES


@<TRIPOS>ATOM
      1 ****        -0.1927  -2.6459   1.4725 C.3            1 S1                 0.0000
      2 ****         0.3399  -1.9226   0.2260 C.3            1 S1                 0.0000
      3 ****         1.8777  -1.9760   0.1552 C.3            1 S1                 0.0000
      4 ****         2.3944  -1.3925  -1.0696 N.pl3          1 S1                 0.0000
      5 ****         2.9773  -0.1410  -1.2219 C.2            1 S1                 0.0000
      6 ****         3.3074  -0.0208  -2.5528 C.2            1 S1                 0.0000
      7 ****         2.9424  -1.1801  -3.2331 N.2            1 S1                 0.0000
      8 ****         2.4096  -1.9460  -2.2898 C.2            1 S1                 0.0000
      9 ****        -0.1109  -0.5328   0.2273 N.am           1 S1                 0.0000
     10 ****        -1.2618  -0.0810  -0.2956 C.2            1 S1                 0.0000
     11 ****        -2.0915  -0.8174  -0.8296 O.2            1 S1                 0.0000
     12 ****        -1.5127   1.4324  -0.2271 C.3            1 S1                 0.0000
     13 ****        -2.9280   1.8169   0.2454 C.3            1 S1                 0.0000
     14 ****        -2.6864   2.6942   1.4619 C.3            1 S1                 0.0000
     15 ****        -1.2623   3.1854   1.2447 C.3            1 S1                 0.0000
     16 ****        -0.6236   2.0391   0.7104 O.3            1 S1                 0.0000
     17 ****         0.1171  -3.6913   1.4808 H              1 S1                 0.0000
     18 ****        -1.2826  -2.6275   1.5048 H              1 S1                 0.0000
     19 ****         0.1759  -2.1826   2.3884 H              1 S1                 0.0000
     20 ****        -0.0564  -2.4304  -0.6554 H              1 S1                 0.0000
     21 ****         2.3211  -1.4571   1.0063 H              1 S1                 0.0000
     22 ****         2.2211  -3.0101   0.2057 H              1 S1                 0.0000
     23 ****         3.1024   0.5425  -0.3950 H              1 S1                 0.0000
     24 ****         3.7764   0.8039  -3.0690 H              1 S1                 0.0000
     25 ****         2.0174  -2.9321  -2.4916 H              1 S1                 0.0000
     26 ****         0.5093   0.1468   0.6440 H              1 S1                 0.0000
     27 ****        -1.3233   1.8641  -1.2111 H              1 S1                 0.0000
     28 ****        -3.4382   2.3801  -0.5368 H              1 S1                 0.0000
     29 ****        -3.5591   0.9638   0.4986 H              1 S1                 0.0000
     30 ****        -3.4083   3.5059   1.5548 H              1 S1                 0.0000
     31 ****        -2.7330   2.0908   2.3692 H              1 S1                 0.0000
     32 ****        -1.2322   3.9991   0.5184 H              1 S1                 0.0000
     33 ****        -0.7852   3.5213   2.1654 H              1 S1                 0.0000
     34 ****         3.0554  -1.3867  -4.2050 LP             1 S1                 0.0000
     35 ****        -1.9224  -1.8012  -0.8885 LP             1 S1                 0.0000
     36 ****        -2.9345  -0.4316  -1.2046 LP             1 S1                 0.0000
     37 ****         0.2231   2.3064   0.2504 LP             1 S1                 0.0000
     38 ****        -0.4144   1.3942   1.4454 LP             1 S1                 0.0000
@<TRIPOS>BOND
    1    1    2 1     
    2    1   17 1     
    3    1   18 1     
    4    1   19 1     
    5    2    3 1     
    6    2    9 1     
    7    2   20 1     
    8    3    4 1     
    9    3   21 1     
   10    3   22 1     
   11    4    8 1     
   12    4    5 1     
   13    5    6 2     
   14    5   23 1     
   15    6    7 1     
   16    6   24 1     
   17    7    8 2     
   18    8   25 1     
   19    9   10 am    
   20    9   26 1     
   21   10   11 2     
   22   10   12 1     
   23   12   16 1     
   24   12   13 1     
   25   12   27 1     
   26   13   14 1     
   27   13   28 1     
   28   13   29 1     
   29   14   15 1     
   30   14   30 1     
   31   14   31 1     
   32   15   16 1     
   33   15   32 1     
   34   15   33 1     
   35    7   34 1     
   36   11   35 1     
   37   11   36 1     
   38   16   37 1     
   39   16   38 1     
@<TRIPOS>SUBSTRUCTURE
      1 S1             1
@<TRIPOS>SET
LONE_PAIRS      STATIC     ATOMS    <user>   **** ""
5 34 35 36 37 38
DONOR_HYDROGENS      STATIC     ATOMS    <user>   **** ""
1 26
ATOM$BLUE        STATIC     ATOMS    COLORGROUP SYSTEM
5 34 35 36 37 38
ATOM$RED        STATIC     ATOMS    COLORGROUP SYSTEM
1 26
