#       Name:                AV-unprocessed.smi:228
#       Creating user name   scv26
#       Creation time:       Thu Mar 26 20:25:49 2020


#       File generated by GOLD software.
#

@<TRIPOS>MOLECULE
AV-unprocessed.smi:228
    71    74     1
SMALL
NO_CHARGES


@<TRIPOS>ATOM
      1 ****        -2.3098  -1.5090   2.2840 C.3            1 S1                 0.0000
      2 ****        -1.3223  -0.5829   1.7374 N.pl3          1 S1                 0.0000
      3 ****        -1.6874   0.8286   1.6390 C.3            1 S1                 0.0000
      4 ****        -2.6263   1.1147   0.4445 C.3            1 S1                 0.0000
      5 ****        -1.8913   1.8848  -0.4858 O.3            1 S1                 0.0000
      6 ****        -3.8757   1.9248   0.8593 C.3            1 S1                 0.0000
      7 ****        -5.0775   1.6847   0.0581 N.3            1 S1                 0.0000
      8 ****        -4.9412   2.1489  -1.3208 C.3            1 S1                 0.0000
      9 ****        -6.2265   1.9193  -2.1356 C.3            1 S1                 0.0000
     10 ****        -7.3250   2.5550  -1.4904 O.3            1 S1                 0.0000
     11 ****        -7.5209   2.0906  -0.1590 C.3            1 S1                 0.0000
     12 ****        -6.2410   2.3276   0.6607 C.3            1 S1                 0.0000
     13 ****        -0.0042  -0.8981   1.8420 C.ar           1 S1                 0.0000
     14 ****         0.3883  -1.7964   2.7845 N.ar           1 S1                 0.0000
     15 ****         1.6786  -2.1102   2.9271 C.ar           1 S1                 0.0000
     16 ****         2.7270  -1.6580   2.2386 N.ar           1 S1                 0.0000
     17 ****         2.3436  -0.7750   1.2728 C.ar           1 S1                 0.0000
     18 ****         1.0123  -0.3396   1.0123 C.ar           1 S1                 0.0000
     19 ****         1.0155   0.5664  -0.0412 N.2            1 S1                 0.0000
     20 ****         2.2739   0.6796  -0.3654 C.2            1 S1                 0.0000
     21 ****         3.1406  -0.1182   0.3489 N.pl3          1 S1                 0.0000
     22 ****         4.5741  -0.1685   0.2297 C.3            1 S1                 0.0000
     23 ****         5.2752   0.1064  -1.1079 C.3            1 S1                 0.0000
     24 ****         5.4858  -1.4084  -1.3198 C.3            1 S1                 0.0000
     25 ****         4.3921  -2.0736  -2.1824 C.3            1 S1                 0.0000
     26 ****         4.2976  -3.4646  -1.9544 O.3            1 S1                 0.0000
     27 ****         6.8708  -1.7856  -1.8755 C.3            1 S1                 0.0000
     28 ****         7.2222  -3.1186  -1.5664 O.3            1 S1                 0.0000
     29 ****         5.3095  -1.5140   0.2106 C.3            1 S1                 0.0000
     30 ****        -2.1122  -2.5288   1.9514 H              1 S1                 0.0000
     31 ****        -3.3143  -1.2409   1.9559 H              1 S1                 0.0000
     32 ****        -2.2951  -1.4884   3.3742 H              1 S1                 0.0000
     33 ****        -2.1900   1.0771   2.5740 H              1 S1                 0.0000
     34 ****        -0.8135   1.4807   1.6248 H              1 S1                 0.0000
     35 ****        -2.9327   0.1811  -0.0299 H              1 S1                 0.0000
     36 ****        -1.1245   1.3935  -0.7396 H              1 S1                 0.0000
     37 ****        -4.1208   1.6467   1.8849 H              1 S1                 0.0000
     38 ****        -3.6457   2.9911   0.8972 H              1 S1                 0.0000
     39 ****        -4.6909   3.2107  -1.3310 H              1 S1                 0.0000
     40 ****        -4.1211   1.6282  -1.8142 H              1 S1                 0.0000
     41 ****        -6.1172   2.3289  -3.1397 H              1 S1                 0.0000
     42 ****        -6.4286   0.8527  -2.2451 H              1 S1                 0.0000
     43 ****        -8.3605   2.6251   0.2853 H              1 S1                 0.0000
     44 ****        -7.7835   1.0317  -0.1700 H              1 S1                 0.0000
     45 ****        -6.3893   1.9520   1.6737 H              1 S1                 0.0000
     46 ****        -6.0656   3.4010   0.7494 H              1 S1                 0.0000
     47 ****         1.9037  -2.8249   3.7049 H              1 S1                 0.0000
     48 ****         2.5973   1.3519  -1.1461 H              1 S1                 0.0000
     49 ****         4.9575   0.4799   1.0184 H              1 S1                 0.0000
     50 ****         4.6666   0.5853  -1.8743 H              1 S1                 0.0000
     51 ****         6.2098   0.6529  -0.9704 H              1 S1                 0.0000
     52 ****         3.4121  -1.6448  -1.9740 H              1 S1                 0.0000
     53 ****         4.5735  -1.9058  -3.2443 H              1 S1                 0.0000
     54 ****         3.6123  -3.8140  -2.5031 H              1 S1                 0.0000
     55 ****         6.9141  -1.6505  -2.9565 H              1 S1                 0.0000
     56 ****         7.6447  -1.1418  -1.4562 H              1 S1                 0.0000
     57 ****         8.0750  -3.2979  -1.9317 H              1 S1                 0.0000
     58 ****         6.2582  -1.4711   0.7484 H              1 S1                 0.0000
     59 ****         4.7236  -2.3733   0.5363 H              1 S1                 0.0000
     60 ****        -1.6150   2.7491  -0.0654 LP             1 S1                 0.0000
     61 ****        -2.4550   2.0708  -1.2905 LP             1 S1                 0.0000
     62 ****        -5.2032   0.6928   0.0404 LP             1 S1                 0.0000
     63 ****        -8.1549   2.3740  -2.0181 LP             1 S1                 0.0000
     64 ****        -7.1548   3.5401  -1.4642 LP             1 S1                 0.0000
     65 ****        -0.2947  -2.2255   3.3756 LP             1 S1                 0.0000
     66 ****         3.6737  -1.9315   2.4088 LP             1 S1                 0.0000
     67 ****         0.2311   1.0271  -0.4565 LP             1 S1                 0.0000
     68 ****         4.0793  -3.6344  -0.9934 LP             1 S1                 0.0000
     69 ****         5.1673  -3.9030  -2.1811 LP             1 S1                 0.0000
     70 ****         6.5488  -3.7444  -1.9598 LP             1 S1                 0.0000
     71 ****         7.2488  -3.2385  -0.5739 LP             1 S1                 0.0000
@<TRIPOS>BOND
    1    1    2 1     
    2    1   30 1     
    3    1   31 1     
    4    1   32 1     
    5    2    3 1     
    6    2   13 1     
    7    3    4 1     
    8    3   33 1     
    9    3   34 1     
   10    4    5 1     
   11    4    6 1     
   12    4   35 1     
   13    5   36 1     
   14    6    7 1     
   15    6   37 1     
   16    6   38 1     
   17    7   12 1     
   18    7    8 1     
   19    8    9 1     
   20    8   39 1     
   21    8   40 1     
   22    9   10 1     
   23    9   41 1     
   24    9   42 1     
   25   10   11 1     
   26   11   12 1     
   27   11   43 1     
   28   11   44 1     
   29   12   45 1     
   30   12   46 1     
   31   13   18 ar    
   32   13   14 ar    
   33   14   15 ar    
   34   15   16 ar    
   35   15   47 1     
   36   16   17 ar    
   37   17   21 1     
   38   17   18 ar    
   39   18   19 1     
   40   19   20 2     
   41   20   21 1     
   42   20   48 1     
   43   21   22 1     
   44   22   29 1     
   45   22   23 1     
   46   22   49 1     
   47   23   24 1     
   48   23   50 1     
   49   23   51 1     
   50   24   25 1     
   51   24   27 1     
   52   24   29 1     
   53   25   26 1     
   54   25   52 1     
   55   25   53 1     
   56   26   54 1     
   57   27   28 1     
   58   27   55 1     
   59   27   56 1     
   60   28   57 1     
   61   29   58 1     
   62   29   59 1     
   63    5   60 1     
   64    5   61 1     
   65    7   62 1     
   66   10   63 1     
   67   10   64 1     
   68   14   65 1     
   69   16   66 1     
   70   19   67 1     
   71   26   68 1     
   72   26   69 1     
   73   28   70 1     
   74   28   71 1     
@<TRIPOS>SUBSTRUCTURE
      1 S1             1
@<TRIPOS>SET
LONE_PAIRS      STATIC     ATOMS    <user>   **** ""
12 60 61 62 63 64 65 66 67 68 69 70 71
DONOR_HYDROGENS      STATIC     ATOMS    <user>   **** ""
3 36 54 57
ATOM$BLUE        STATIC     ATOMS    COLORGROUP SYSTEM
12 60 61 62 63 64 65 66 67 68 69 70 71
ATOM$RED        STATIC     ATOMS    COLORGROUP SYSTEM
3 36 54 57
