#       Name:                AV-unprocessed.smi:2591
#       Creating user name   scv26
#       Creation time:       Fri Mar 27 14:16:55 2020


#       File generated by GOLD software.
#

@<TRIPOS>MOLECULE
AV-unprocessed.smi:2591
    40    41     1
SMALL
NO_CHARGES


@<TRIPOS>ATOM
      1 ****        -3.9591  -1.7867  -2.8653 C.3            1 S1                 0.0000
      2 ****        -3.3194  -1.1182  -1.7121 N.4            1 S1                 1.0000
      3 ****        -3.7203   0.3003  -1.5788 C.3            1 S1                 0.0000
      4 ****        -3.0603   0.9243  -0.3389 C.3            1 S1                 0.0000
      5 ****        -1.6473   0.7888  -0.4306 O.3            1 S1                 0.0000
      6 ****        -1.2293  -0.5738  -0.4747 C.3            1 S1                 0.0000
      7 ****         0.3056  -0.6046  -0.4652 C.2            1 S1                 0.0000
      8 ****         0.9192  -1.2169  -1.3403 O.2            1 S1                 0.0000
      9 ****         0.8894   0.0534   0.5547 N.am           1 S1                 0.0000
     10 ****         2.2748   0.2046   0.8279 C.ar           1 S1                 0.0000
     11 ****         2.5766   0.9020   2.0188 C.ar           1 S1                 0.0000
     12 ****         3.9241   1.1099   2.3855 C.ar           1 S1                 0.0000
     13 ****         4.2804   1.8428   3.6698 C.3            1 S1                 0.0000
     14 ****         5.4370   2.4934   3.5391 F              1 S1                 0.0000
     15 ****         3.3359   2.7281   3.9898 F              1 S1                 0.0000
     16 ****         4.3936   0.9592   4.6606 F              1 S1                 0.0000
     17 ****         4.9317   0.6015   1.5412 C.ar           1 S1                 0.0000
     18 ****         4.5445  -0.0794   0.3730 C.ar           1 S1                 0.0000
     19 ****         3.2560  -0.2730   0.0236 N.ar           1 S1                 0.0000
     20 ****        -1.8446  -1.2507  -1.7223 C.3            1 S1                 0.0000
     21 ****        -3.6450  -1.3322  -3.8058 H              1 S1                 0.0000
     22 ****        -5.0451  -1.7167  -2.7969 H              1 S1                 0.0000
     23 ****        -3.6944  -2.8443  -2.8913 H              1 S1                 0.0000
     24 ****        -3.4274   0.8504  -2.4746 H              1 S1                 0.0000
     25 ****        -4.8057   0.3719  -1.4978 H              1 S1                 0.0000
     26 ****        -3.3090   1.9836  -0.2741 H              1 S1                 0.0000
     27 ****        -3.4247   0.4549   0.5762 H              1 S1                 0.0000
     28 ****        -1.5737  -1.0844   0.4268 H              1 S1                 0.0000
     29 ****         0.2670   0.4999   1.2121 H              1 S1                 0.0000
     30 ****         1.7811   1.2710   2.6501 H              1 S1                 0.0000
     31 ****         5.9776   0.7254   1.7801 H              1 S1                 0.0000
     32 ****         5.2886  -0.4817  -0.2984 H              1 S1                 0.0000
     33 ****        -1.5802  -2.3091  -1.7449 H              1 S1                 0.0000
     34 ****        -1.4503  -0.8000  -2.6354 H              1 S1                 0.0000
     35 ****        -3.6488  -1.5923  -0.8831 H              1 S1                 0.0000
     36 ****        -1.2311   1.2259   0.3668 LP             1 S1                 0.0000
     37 ****        -1.3348   1.2468  -1.2628 LP             1 S1                 0.0000
     38 ****         0.4176  -1.6963  -2.0604 LP             1 S1                 0.0000
     39 ****         1.9190  -1.2346  -1.3306 LP             1 S1                 0.0000
     40 ****         3.0276  -0.7626  -0.8179 LP             1 S1                 0.0000
@<TRIPOS>BOND
    1    1    2 1     
    2    1   21 1     
    3    1   22 1     
    4    1   23 1     
    5    2   20 1     
    6    2    3 1     
    7    2   35 1     
    8    3    4 1     
    9    3   24 1     
   10    3   25 1     
   11    4    5 1     
   12    4   26 1     
   13    4   27 1     
   14    5    6 1     
   15    6    7 1     
   16    6   20 1     
   17    6   28 1     
   18    7    8 2     
   19    7    9 am    
   20    9   10 1     
   21    9   29 1     
   22   10   19 ar    
   23   10   11 ar    
   24   11   12 ar    
   25   11   30 1     
   26   12   13 1     
   27   12   17 ar    
   28   13   14 1     
   29   13   15 1     
   30   13   16 1     
   31   17   18 ar    
   32   17   31 1     
   33   18   19 ar    
   34   18   32 1     
   35   20   33 1     
   36   20   34 1     
   37    5   36 1     
   38    5   37 1     
   39    8   38 1     
   40    8   39 1     
   41   19   40 1     
@<TRIPOS>SUBSTRUCTURE
      1 S1             1
@<TRIPOS>SET
LONE_PAIRS      STATIC     ATOMS    <user>   **** ""
5 36 37 38 39 40
DONOR_HYDROGENS      STATIC     ATOMS    <user>   **** ""
2 35 29
ATOM$BLUE        STATIC     ATOMS    COLORGROUP SYSTEM
5 36 37 38 39 40
ATOM$RED        STATIC     ATOMS    COLORGROUP SYSTEM
2 35 29
