AV-unprocessed.smi:3324|AV-procd|sdf|12782|dock10
  -GOLD-   2272019133D 1   1.00000     0.00000
 Structure written by MMmdl.
 30 30  0  0  0  0  0  0  0  0  1 V2000
  150.0553  140.0944  157.5322 O   0  0  0  0  0  0  0  0  0  0  0  0
  151.0830  140.6490  157.1446 C   0  0  0  0  0  0  0  0  0  0  0  0
  151.5602  140.4558  155.7064 C   0  0  0  0  0  0  0  0  0  0  0  0
  150.4328  140.3160  154.7793 N   0  0  0  0  0  0  0  0  0  0  0  0
  149.4385  141.3501  155.0202 C   0  0  0  0  0  0  0  0  0  0  0  0
  148.1925  141.0649  154.1699 C   0  0  0  0  0  0  0  0  0  0  0  0
  147.0302  141.7683  154.6759 N   0  0  0  0  0  0  0  0  0  0  0  0
  146.2320  142.6836  154.0229 C   0  0  0  0  0  0  0  0  0  0  0  0
  145.2639  143.0775  154.9017 C   0  0  0  0  0  0  0  0  0  0  0  0
  145.5587  142.3393  156.0821 C   0  0  0  0  0  0  0  0  0  0  0  0
  146.6187  141.5592  155.9449 N   0  0  0  0  0  0  0  0  0  0  0  0
  151.8362  141.4413  157.9225 N   0  0  0  0  0  0  0  0  0  0  0  0
  151.5572  141.7635  159.3182 C   0  0  0  0  0  0  0  0  0  0  0  0
  152.6652  142.6273  159.9440 C   0  0  0  0  0  0  0  0  0  0  0  0
  152.2853  143.0077  161.1630 F   0  0  0  0  0  0  0  0  0  0  0  0
  153.7938  141.9251  160.0482 F   0  0  0  0  0  0  0  0  0  0  0  0
  152.8919  143.7169  159.2101 F   0  0  0  0  0  0  0  0  0  0  0  0
  152.1782  141.3055  155.4111 H   0  0  0  0  0  0  0  0  0  0  0  0
  152.1909  139.5662  155.6649 H   0  0  0  0  0  0  0  0  0  0  0  0
  149.9944  139.4103  154.8710 H   0  0  0  0  0  0  0  0  0  0  0  0
  149.1750  141.3705  156.0791 H   0  0  0  0  0  0  0  0  0  0  0  0
  149.8493  142.3279  154.7640 H   0  0  0  0  0  0  0  0  0  0  0  0
  148.3567  141.3739  153.1365 H   0  0  0  0  0  0  0  0  0  0  0  0
  147.9757  139.9954  154.1498 H   0  0  0  0  0  0  0  0  0  0  0  0
  146.4181  142.9749  152.9997 H   0  0  0  0  0  0  0  0  0  0  0  0
  144.4668  143.7850  154.7278 H   0  0  0  0  0  0  0  0  0  0  0  0
  145.0379  142.3476  157.0285 H   0  0  0  0  0  0  0  0  0  0  0  0
  152.6634  141.8531  157.5154 H   0  0  0  0  0  0  0  0  0  0  0  0
  150.5898  142.2597  159.4116 H   0  0  0  0  0  0  0  0  0  0  0  0
  151.4726  140.8245  159.8657 H   0  0  0  0  0  0  0  0  0  0  0  0
  1  2  2  0  0  0  0
  2  3  1  0  0  0  0
  2 12  1  0  0  0  0
  3  4  1  0  0  0  0
  3 18  1  0  0  0  0
  3 19  1  0  0  0  0
  4  5  1  0  0  0  0
  4 20  1  0  0  0  0
  5  6  1  0  0  0  0
  5 21  1  0  0  0  0
  5 22  1  0  0  0  0
  6  7  1  0  0  0  0
  6 23  1  0  0  0  0
  6 24  1  0  0  0  0
  7 11  1  0  0  0  0
  7  8  1  0  0  0  0
  8  9  2  0  0  0  0
  8 25  1  0  0  0  0
  9 10  1  0  0  0  0
  9 26  1  0  0  0  0
 10 11  2  0  0  0  0
 10 27  1  0  0  0  0
 12 13  1  0  0  0  0
 12 28  1  0  0  0  0
 13 14  1  0  0  0  0
 13 29  1  0  0  0  0
 13 30  1  0  0  0  0
 14 15  1  0  0  0  0
 14 16  1  0  0  0  0
 14 17  1  0  0  0  0
M  END
> <s_m_source_file>
AV-unprocessed.smi

> <i_m_source_file_index>
3324

> <i_lp_mmshare_version>
43012

> <i_f3d_flags>
0

> <s_epik_input>
RkMoRikoRilbQ0gyXVtOSF1DKD1PKVtDSDJdW05IXVtDSDJdW0NIMl1uMVtjSF1bY0hdW2NIXW4x

> <s_epik_cmdline>
J2VwaWtfcHl0aG9uJywgJy1waCcsICc3LjAnLCAnLXRuJywgJzgnLCAnLW1hJywgJzIwMCcsICctbWV0YWxfYmluZGluZycsICctaW1hZScsICc8aW5maWxlLm1hZT4nLCAnLW9tYWUnLCAnPG91dGZpbGUubWFlPic=

> <r_lp_tautomer_probability>
1

> <r_epik_Ionization_Penalty>
0.533356

> <r_epik_Ionization_Penalty_Charging>
0

> <r_epik_Ionization_Penalty_Neutral>
0.533356

> <r_epik_State_Penalty>
0.540813

> <r_epik_Charging_Adjusted_Penalty>
0.540813

> <i_epik_Tot_Q>
0

> <i_epik_Tot_abs_Q>
0

> <r_epik_Metal_State_Penalty>
0.549553

> <b_epik_Metal_Only>
0

> <s_lp_Force_Field>
OPLS_2005

> <r_lp_Energy>
3.03628

> <b_lp_Chiralities_Consistent>
1

> <s_lp_Variant>
AV-unprocessed.smi:3324-2

> <Gold.Version>
5.8.1

> <Gold.Id.Protein>
6NUR|6NUR_protein|mol2

> <Gold.PLP.Fitness>
40.9862

> <Gold.PLP.PLP>
-41.0303

> <Gold.PLP.part.hbond>
-1.0000

> <Gold.PLP.part.metal>
0.0000

> <Gold.PLP.part.buried>
-4.2127

> <Gold.PLP.part.nonpolar>
-35.3836

> <Gold.PLP.part.repulsive>
0.1906

> <Gold.PLP.ligand.clash>
0.0000

> <Gold.PLP.ligand.torsion>
0.5459

> <Gold.PLP.Chemscore.Hbond>
0.3000

> <Gold.PLP.Chemscore.CHOScore>
0.0000

> <Gold.PLP.Chemscore.Metal>
0.0000

> <Gold.Chemscore.Hbonds>
donor molecule, donor type, donor heavy atom, donor atom, acceptor molecule, acceptor atom, score
      P1  H  7989  7998       L1     4  0.25

> <Gold.PLP.Chemscore.Internal.Correction>
0.1476

> <Gold.Rescore>
     Score         DG    S(hbond)    S(metal)    S(lipo)     H(rot)  DE(clash)    DE(int)     intcor
      4.78      -5.20       0.00        0.00      59.51       2.83       0.09       0.33       ----

> <Gold.Chemscore.Fitness>
4.7752

> <Gold.Chemscore.DG>
-5.1982

> <Gold.Chemscore.ZeroCoef>
-5.4800

> <Gold.Chemscore.Hbond>
0.0005

> <Gold.Chemscore.Metal>
0.0000

> <Gold.Chemscore.Lipo>
59.5089

> <Gold.Chemscore.Internal_Hbond>
0.0000

> <Gold.Chemscore.DEClash>
0.0914

> <Gold.Chemscore.DEInternal>
0.3316

> <Gold.Chemscore.Rot>
2.8305

> <Gold.Chemscore.Internal.Correction>
   9.000000E+99

> <Gold.Chemscore.Hbond.Weighted>
-0.0018

> <Gold.Chemscore.Metal.Weighted>
-0.0000

> <Gold.Chemscore.Lipo.Weighted>
-6.9625

> <Gold.Chemscore.Internal_Hbond.Weighted>
0.0000

> <Gold.Chemscore.DEClash.Weighted>
0.0914

> <Gold.Chemscore.DEInternal.Weighted>
0.3316

> <Gold.Chemscore.Rot.Weighted>
7.2461

> <Gold.Chemscore.Internal.Correction.Weighted>
   9.000000E+99

> <Gold.Protein.RotatedTorsions>
[ 6907 6896 6895 6894 ] final   40.62 input  -60.11 | X-H torsion
[ 7974 7965 7964 7962 ] final   95.23 input  175.53 | X-H torsion
[ 8008 7997 7996 7995 ] final    8.93 input   59.86 | X-H torsion
[ 10167 10162 10161 10158 ] final   82.16 input  -65.29 | X-H torsion
[ 10718 10713 10712 10709 ] final  -78.25 input   66.30 | X-H torsion
[ 10763 10752 10751 10750 ] final   46.99 input  -60.55 | X-H torsion
[ 11005 11000 10999 10996 ] final -162.97 input  -57.11 | X-H torsion

> <Gold.Protein.ActiveResidues>
 VAL166  LYS551  ARG553  GLY616  TRP617  ASP618  TYR619  PRO620  LYS621  CYS622 
 ASP623  PHE694  ASN695  SER759  ASP760  ASP761  ALA762  ILE779  LEU786  VAL792 
 PHE793  MET794  SER795  GLU796  ALA797  LYS798  CYS799  TRP800  GLU811  SER814 

> <Gold.Protein.RotatedAtoms>
  152.1848  134.8723  160.0522 H   0  0  0  0  0  0  0  0  0  0  0  0  # atno 6907 bound_to 6896
  151.9634  133.3697  159.4052 H   0  0  0  0  0  0  0  0  0  0  0  0  # atno 6908 bound_to 6896
  150.6924  134.4140  159.5218 H   0  0  0  0  0  0  0  0  0  0  0  0  # atno 6909 bound_to 6896
  145.4550  139.2290  143.3019 H   0  0  0  0  0  0  0  0  0  0  0  0  # atno 7974 bound_to 7965
  154.7734  140.2806  155.6120 H   0  0  0  0  0  0  0  0  0  0  0  0  # atno 8008 bound_to 7997
  156.2937  140.2637  156.2470 H   0  0  0  0  0  0  0  0  0  0  0  0  # atno 8009 bound_to 7997
  154.9872  140.0374  157.2293 H   0  0  0  0  0  0  0  0  0  0  0  0  # atno 8010 bound_to 7997
  139.9317  144.6148  150.8338 H   0  0  0  0  0  0  0  0  0  0  0  0  # atno 10167 bound_to 10162
  156.0122  130.4513  150.3468 H   0  0  0  0  0  0  0  0  0  0  0  0  # atno 10718 bound_to 10713
  152.9804  135.5990  154.3690 H   0  0  0  0  0  0  0  0  0  0  0  0  # atno 10763 bound_to 10752
  154.3365  135.2768  155.2446 H   0  0  0  0  0  0  0  0  0  0  0  0  # atno 10764 bound_to 10752
  154.4547  135.5981  153.6270 H   0  0  0  0  0  0  0  0  0  0  0  0  # atno 10765 bound_to 10752
  140.6033  134.4925  157.5207 H   0  0  0  0  0  0  0  0  0  0  0  0  # atno 11005 bound_to 11000
  146.2483  140.5313  142.8904 LP  0  0  0  0  0  0  0  0  0  0  0  0  # atno 17320 bound_to 7965
  144.8038  140.6262  143.6460 LP  0  0  0  0  0  0  0  0  0  0  0  0  # atno 17321 bound_to 7965
  140.7635  143.3226  151.2588 LP  0  0  0  0  0  0  0  0  0  0  0  0  # atno 17342 bound_to 10162
  139.6777  143.9909  152.2790 LP  0  0  0  0  0  0  0  0  0  0  0  0  # atno 17343 bound_to 10162
  157.1561  131.0333  151.2862 LP  0  0  0  0  0  0  0  0  0  0  0  0  # atno 17370 bound_to 10713
  157.4351  130.7512  149.7022 LP  0  0  0  0  0  0  0  0  0  0  0  0  # atno 17371 bound_to 10713
  139.9223  134.8124  156.1174 LP  0  0  0  0  0  0  0  0  0  0  0  0  # atno 17394 bound_to 11000
  141.0857  133.6735  156.2432 LP  0  0  0  0  0  0  0  0  0  0  0  0  # atno 17395 bound_to 11000

$$$$
