AV-unprocessed.smi:695|AV-procd|sdf|3384|dock4
  -GOLD-   22720 0363D 1   1.00000     0.00000
 Structure written by MMmdl.
 38 39  0  0  0  0  0  0  0  0  1 V2000
  147.8556  133.0721  152.6793 C   0  0  0  0  0  0  0  0  0  0  0  0
  148.5475  133.4197  154.0044 C   0  0  0  0  0  0  0  0  0  0  0  0
  149.1992  134.7219  153.9357 N   0  0  0  0  0  0  0  0  0  0  0  0
  150.1116  135.1679  154.8100 C   0  0  0  0  0  0  0  0  0  0  0  0
  150.5435  134.5047  155.7531 O   0  0  0  0  0  0  0  0  0  0  0  0
  150.4739  136.4323  154.5485 N   0  0  0  0  0  0  0  0  0  0  0  0
  151.3959  137.2328  155.3513 C   0  0  0  0  0  0  0  0  0  0  0  0
  151.6911  138.6058  154.7148 C   0  0  0  0  0  0  0  0  0  0  0  0
  151.5071  139.7565  155.6608 C   0  0  0  0  0  0  0  0  0  0  0  0
  150.5829  140.7676  155.5609 C   0  0  0  0  0  0  0  0  0  0  0  0
  150.6685  141.8633  156.9123 S   0  0  0  0  0  0  0  0  0  0  0  0
  151.9938  140.9029  157.5624 C   0  0  0  0  0  0  0  0  0  0  0  0
  152.6273  141.2289  158.7580 N   0  0  0  0  0  0  0  0  0  0  0  0
  152.3601  142.4028  159.5834 C   0  0  0  0  0  0  0  0  0  0  0  0
  153.0533  142.1936  160.9271 C   0  0  0  0  0  0  0  0  0  0  0  0
  154.2506  141.3473  160.5405 C   0  0  0  0  0  0  0  0  0  0  0  0
  153.6843  140.4734  159.4235 C   0  0  0  0  0  0  0  0  0  0  0  0
  152.3127  139.8547  156.7994 N   0  0  0  0  0  0  0  0  0  0  0  0
  147.3976  132.0842  152.7292 H   0  0  0  0  0  0  0  0  0  0  0  0
  148.5670  133.0672  151.8530 H   0  0  0  0  0  0  0  0  0  0  0  0
  147.0699  133.7897  152.4405 H   0  0  0  0  0  0  0  0  0  0  0  0
  147.8295  133.3956  154.8257 H   0  0  0  0  0  0  0  0  0  0  0  0
  149.3054  132.6703  154.2325 H   0  0  0  0  0  0  0  0  0  0  0  0
  148.9091  135.3387  153.1912 H   0  0  0  0  0  0  0  0  0  0  0  0
  150.0596  136.8867  153.7481 H   0  0  0  0  0  0  0  0  0  0  0  0
  151.0112  137.3611  156.3646 H   0  0  0  0  0  0  0  0  0  0  0  0
  152.3255  136.6722  155.4496 H   0  0  0  0  0  0  0  0  0  0  0  0
  152.7121  138.6054  154.3317 H   0  0  0  0  0  0  0  0  0  0  0  0
  151.0514  138.7392  153.8417 H   0  0  0  0  0  0  0  0  0  0  0  0
  149.8450  140.9207  154.7877 H   0  0  0  0  0  0  0  0  0  0  0  0
  152.7650  143.2799  159.0771 H   0  0  0  0  0  0  0  0  0  0  0  0
  151.2885  142.5578  159.7117 H   0  0  0  0  0  0  0  0  0  0  0  0
  153.3268  143.1293  161.4151 H   0  0  0  0  0  0  0  0  0  0  0  0
  152.4031  141.6336  161.6007 H   0  0  0  0  0  0  0  0  0  0  0  0
  155.0451  141.9845  160.1496 H   0  0  0  0  0  0  0  0  0  0  0  0
  154.6545  140.7686  161.3714 H   0  0  0  0  0  0  0  0  0  0  0  0
  153.2499  139.5622  159.8363 H   0  0  0  0  0  0  0  0  0  0  0  0
  154.4642  140.1818  158.7194 H   0  0  0  0  0  0  0  0  0  0  0  0
  1  2  1  0  0  0  0
  1 19  1  0  0  0  0
  1 20  1  0  0  0  0
  1 21  1  0  0  0  0
  2  3  1  0  0  0  0
  2 22  1  0  0  0  0
  2 23  1  0  0  0  0
  3  4  1  0  0  0  0
  3 24  1  0  0  0  0
  4  5  2  0  0  0  0
  4  6  1  0  0  0  0
  6  7  1  0  0  0  0
  6 25  1  0  0  0  0
  7  8  1  0  0  0  0
  7 26  1  0  0  0  0
  7 27  1  0  0  0  0
  8  9  1  0  0  0  0
  8 28  1  0  0  0  0
  8 29  1  0  0  0  0
  9 18  1  0  0  0  0
  9 10  2  0  0  0  0
 10 11  1  0  0  0  0
 10 30  1  0  0  0  0
 11 12  1  0  0  0  0
 12 13  1  0  0  0  0
 12 18  2  0  0  0  0
 13 17  1  0  0  0  0
 13 14  1  0  0  0  0
 14 15  1  0  0  0  0
 14 31  1  0  0  0  0
 14 32  1  0  0  0  0
 15 16  1  0  0  0  0
 15 33  1  0  0  0  0
 15 34  1  0  0  0  0
 16 17  1  0  0  0  0
 16 35  1  0  0  0  0
 16 36  1  0  0  0  0
 17 37  1  0  0  0  0
 17 38  1  0  0  0  0
M  END
> <s_m_source_file>
AV-unprocessed.smi

> <i_m_source_file_index>
695

> <i_lp_mmshare_version>
43012

> <i_f3d_flags>
0

> <s_epik_input>
W0NIM11bQ0gyXVtOSF1DKD1PKVtOSF1bQ0gyXVtDSDJdYzFbY0hdc2MobjEpTjJbQ0gyXVtDSDJdW0NIMl1bQ0gyXTI=

> <s_epik_cmdline>
J2VwaWtfcHl0aG9uJywgJy1waCcsICc3LjAnLCAnLXRuJywgJzgnLCAnLW1hJywgJzIwMCcsICctbWV0YWxfYmluZGluZycsICctaW1hZScsICc8aW5maWxlLm1hZT4nLCAnLW9tYWUnLCAnPG91dGZpbGUubWFlPic=

> <r_epik_Ionization_Penalty>
0.166233

> <r_epik_Ionization_Penalty_Charging>
0

> <r_epik_Ionization_Penalty_Neutral>
0.166233

> <r_epik_State_Penalty>
0.155475

> <r_epik_Charging_Adjusted_Penalty>
0.155475

> <i_epik_Tot_Q>
0

> <i_epik_Tot_abs_Q>
0

> <r_epik_Metal_State_Penalty>
0.121092

> <b_epik_Metal_Only>
0

> <s_lp_Force_Field>
OPLS_2005

> <r_lp_Energy>
13.2485

> <b_lp_Chiralities_Consistent>
1

> <s_lp_Variant>
AV-unprocessed.smi:695-1

> <Gold.Version>
5.8.1

> <Gold.Id.Protein>
6NUR|6NUR_protein|mol2

> <Gold.PLP.Fitness>
45.4893

> <Gold.PLP.PLP>
-39.4131

> <Gold.PLP.part.hbond>
-3.9799

> <Gold.PLP.part.metal>
0.0000

> <Gold.PLP.part.buried>
-1.3415

> <Gold.PLP.part.nonpolar>
-34.0871

> <Gold.PLP.part.repulsive>
0.1519

> <Gold.PLP.ligand.clash>
0.0000

> <Gold.PLP.ligand.torsion>
0.4796

> <Gold.PLP.Chemscore.Hbond>
2.3321

> <Gold.PLP.Chemscore.CHOScore>
0.0000

> <Gold.PLP.Chemscore.Metal>
0.0000

> <Gold.Chemscore.Hbonds>
donor molecule, donor type, donor heavy atom, donor atom, acceptor molecule, acceptor atom, score
      L1  H     3    24       P1  7948  1.00
      L1  H     6    25       P1  7948  0.34
      P1  H  7997  8009       L1    18  0.89

> <Gold.PLP.Chemscore.Internal.Correction>
0.0391

> <Gold.Rescore>
     Score         DG    S(hbond)    S(metal)    S(lipo)     H(rot)  DE(clash)    DE(int)     intcor
     15.44     -15.92       1.42        0.00      85.82       1.70       0.03       0.45       ----

> <Gold.Chemscore.Fitness>
15.4446

> <Gold.Chemscore.DG>
-15.9196

> <Gold.Chemscore.ZeroCoef>
-5.4800

> <Gold.Chemscore.Hbond>
1.4196

> <Gold.Chemscore.Metal>
0.0000

> <Gold.Chemscore.Lipo>
85.8188

> <Gold.Chemscore.Internal_Hbond>
0.0000

> <Gold.Chemscore.DEClash>
0.0269

> <Gold.Chemscore.DEInternal>
0.4481

> <Gold.Chemscore.Rot>
1.6963

> <Gold.Chemscore.Internal.Correction>
   9.000000E+99

> <Gold.Chemscore.Hbonds>
donor molecule, donor type, donor heavy atom, donor atom, acceptor molecule, acceptor atom, score
      L1  H     3    24       P1  7948  0.53
      L1  H     6    25       P1  7948  0.10
      P1  H  7997  8009       L1    18  0.31

> <Gold.Chemscore.Hbond.Weighted>
-4.7414

> <Gold.Chemscore.Metal.Weighted>
-0.0000

> <Gold.Chemscore.Lipo.Weighted>
-10.0408

> <Gold.Chemscore.Internal_Hbond.Weighted>
0.0000

> <Gold.Chemscore.DEClash.Weighted>
0.0269

> <Gold.Chemscore.DEInternal.Weighted>
0.4481

> <Gold.Chemscore.Rot.Weighted>
4.3426

> <Gold.Chemscore.Internal.Correction.Weighted>
   9.000000E+99

> <Gold.Protein.RotatedTorsions>
[ 6907 6896 6895 6894 ] final    8.86 input  -60.11 | X-H torsion
[ 7974 7965 7964 7962 ] final  165.74 input  175.53 | X-H torsion
[ 8008 7997 7996 7995 ] final -167.29 input   59.86 | X-H torsion
[ 10167 10162 10161 10158 ] final  -83.50 input  -65.29 | X-H torsion
[ 10718 10713 10712 10709 ] final  -32.13 input   66.30 | X-H torsion
[ 10763 10752 10751 10750 ] final  130.52 input  -60.55 | X-H torsion
[ 11005 11000 10999 10996 ] final  162.62 input  -57.11 | X-H torsion

> <Gold.Protein.ActiveResidues>
 VAL166  LYS551  ARG553  GLY616  TRP617  ASP618  TYR619  PRO620  LYS621  CYS622 
 ASP623  PHE694  ASN695  SER759  ASP760  ASP761  ALA762  ILE779  LEU786  VAL792 
 PHE793  MET794  SER795  GLU796  ALA797  LYS798  CYS799  TRP800  GLU811  SER814 

> <Gold.Protein.RotatedAtoms>
  151.7128  135.0909  160.0270 H   0  0  0  0  0  0  0  0  0  0  0  0  # atno 6907 bound_to 6896
  152.3651  133.6341  159.6052 H   0  0  0  0  0  0  0  0  0  0  0  0  # atno 6908 bound_to 6896
  150.7632  133.9278  159.3459 H   0  0  0  0  0  0  0  0  0  0  0  0  # atno 6909 bound_to 6896
  144.7490  139.8514  143.6372 H   0  0  0  0  0  0  0  0  0  0  0  0  # atno 7974 bound_to 7965
  155.8757  140.1000  157.1520 H   0  0  0  0  0  0  0  0  0  0  0  0  # atno 8008 bound_to 7997
  154.4000  140.1338  156.4196 H   0  0  0  0  0  0  0  0  0  0  0  0  # atno 8009 bound_to 7997
  155.7701  140.3461  155.5245 H   0  0  0  0  0  0  0  0  0  0  0  0  # atno 8010 bound_to 7997
  140.4221  143.2581  151.8876 H   0  0  0  0  0  0  0  0  0  0  0  0  # atno 10167 bound_to 10162
  156.3787  130.4352  149.7487 H   0  0  0  0  0  0  0  0  0  0  0  0  # atno 10718 bound_to 10713
  153.7594  135.3198  155.3334 H   0  0  0  0  0  0  0  0  0  0  0  0  # atno 10763 bound_to 10752
  154.8235  135.4586  154.0852 H   0  0  0  0  0  0  0  0  0  0  0  0  # atno 10764 bound_to 10752
  153.2079  135.6931  153.8233 H   0  0  0  0  0  0  0  0  0  0  0  0  # atno 10765 bound_to 10752
  140.2276  134.8149  157.3284 H   0  0  0  0  0  0  0  0  0  0  0  0  # atno 11005 bound_to 11000
  146.1413  139.4471  143.0107 LP  0  0  0  0  0  0  0  0  0  0  0  0  # atno 17320 bound_to 7965
  145.7014  141.0135  143.1502 LP  0  0  0  0  0  0  0  0  0  0  0  0  # atno 17321 bound_to 7965
  139.4783  144.5426  151.8505 LP  0  0  0  0  0  0  0  0  0  0  0  0  # atno 17342 bound_to 10162
  140.4522  144.1839  150.5898 LP  0  0  0  0  0  0  0  0  0  0  0  0  # atno 17343 bound_to 10162
  156.4586  130.7941  151.2961 LP  0  0  0  0  0  0  0  0  0  0  0  0  # atno 17370 bound_to 10713
  157.7490  131.0073  150.3184 LP  0  0  0  0  0  0  0  0  0  0  0  0  # atno 17371 bound_to 10713
  140.1784  134.4520  155.7787 LP  0  0  0  0  0  0  0  0  0  0  0  0  # atno 17394 bound_to 11000
  141.2220  133.6973  156.7827 LP  0  0  0  0  0  0  0  0  0  0  0  0  # atno 17395 bound_to 11000

$$$$
