AV-unprocessed.smi:1060|AV-procd|sdf|4658|dock8
  -GOLD-   22720 3173D 1   1.00000     0.00000
 Structure written by MMmdl.
 36 37  0  0  0  0  0  0  0  0  2 V2000
  151.5557  137.2289  159.7550 O   0  0  0  0  0  0  0  0  0  0  0  0
  152.0210  138.2600  159.2703 C   0  0  0  0  0  0  0  0  0  0  0  0
  151.2344  139.0155  158.1973 C   0  0  0  0  0  0  0  0  0  0  0  0
  151.0532  140.3645  158.6004 O   0  0  0  0  0  0  0  0  0  0  0  0
  150.4040  141.1506  157.6162 C   0  0  0  0  0  0  0  0  0  0  0  0
  150.4587  142.6218  158.0450 C   0  0  2  0  0  0  0  0  0  0  0  0
  151.6110  143.4044  157.4221 C   0  0  0  0  0  0  0  0  0  0  0  0
  151.7858  144.5695  158.3805 C   0  0  0  0  0  0  0  0  0  0  0  0
  151.1719  144.0639  159.6902 C   0  0  0  0  0  0  0  0  0  0  0  0
  150.7491  142.7309  159.4296 O   0  0  0  0  0  0  0  0  0  0  0  0
  153.2034  138.8171  159.5987 N   0  0  0  0  0  0  0  0  0  0  0  0
  154.1806  138.4013  160.5214 C   0  0  0  0  0  0  0  0  0  0  0  0
  153.9304  137.7904  161.7134 C   0  0  0  0  0  0  0  0  0  0  0  0
  154.9956  137.3821  162.6207 C   0  0  0  0  0  0  0  0  0  0  0  0
  154.7508  136.7814  163.9937 C   0  0  0  0  0  0  0  0  0  0  0  0
  155.2169  137.5988  164.9368 F   0  0  0  0  0  0  0  0  0  0  0  0
  153.4480  136.5981  164.2102 F   0  0  0  0  0  0  0  0  0  0  0  0
  155.3671  135.6061  164.1198 F   0  0  0  0  0  0  0  0  0  0  0  0
  156.2488  137.7013  162.1362 C   0  0  0  0  0  0  0  0  0  0  0  0
  156.5842  138.2844  160.9649 N   0  5  0  0  0  0  0  0  0  0  0  0
  155.5805  138.6590  160.1225 C   0  0  0  0  0  0  0  0  0  0  0  0
  155.8170  139.2025  159.0429 O   0  0  0  0  0  0  0  0  0  0  0  0
  151.7755  138.9755  157.2504 H   0  0  0  0  0  0  0  0  0  0  0  0
  150.2688  138.5278  158.0554 H   0  0  0  0  0  0  0  0  0  0  0  0
  150.8687  141.0166  156.6381 H   0  0  0  0  0  0  0  0  0  0  0  0
  149.3643  140.8302  157.5345 H   0  0  0  0  0  0  0  0  0  0  0  0
  149.5130  143.1222  157.8274 H   0  0  0  0  0  0  0  0  0  0  0  0
  152.5173  142.7972  157.4135 H   0  0  0  0  0  0  0  0  0  0  0  0
  151.4052  143.7212  156.3993 H   0  0  0  0  0  0  0  0  0  0  0  0
  152.8348  144.8451  158.4928 H   0  0  0  0  0  0  0  0  0  0  0  0
  151.2436  145.4464  158.0252 H   0  0  0  0  0  0  0  0  0  0  0  0
  151.8836  144.0818  160.5156 H   0  0  0  0  0  0  0  0  0  0  0  0
  150.3107  144.6712  159.9708 H   0  0  0  0  0  0  0  0  0  0  0  0
  153.4356  139.6736  159.1169 H   0  0  0  0  0  0  0  0  0  0  0  0
  152.9252  137.5771  162.0332 H   0  0  0  0  0  0  0  0  0  0  0  0
  157.1118  137.4542  162.7908 H   0  0  0  0  0  0  0  0  0  0  0  0
  1  2  2  0  0  0  0
  2  3  1  0  0  0  0
  2 11  1  0  0  0  0
  3  4  1  0  0  0  0
  3 23  1  0  0  0  0
  3 24  1  0  0  0  0
  4  5  1  0  0  0  0
  5  6  1  0  0  0  0
  5 25  1  0  0  0  0
  5 26  1  0  0  0  0
  6 10  1  0  0  0  0
  6  7  1  0  0  0  0
  6 27  1  0  0  0  0
  7  8  1  0  0  0  0
  7 28  1  0  0  0  0
  7 29  1  0  0  0  0
  8  9  1  0  0  0  0
  8 30  1  0  0  0  0
  8 31  1  0  0  0  0
  9 10  1  0  0  0  0
  9 32  1  0  0  0  0
  9 33  1  0  0  0  0
 11 12  1  0  0  0  0
 11 34  1  0  0  0  0
 12 21  1  0  0  0  0
 12 13  2  0  0  0  0
 13 14  1  0  0  0  0
 13 35  1  0  0  0  0
 14 15  1  0  0  0  0
 14 19  2  0  0  0  0
 15 16  1  0  0  0  0
 15 17  1  0  0  0  0
 15 18  1  0  0  0  0
 19 20  1  0  0  0  0
 19 36  1  0  0  0  0
 20 21  1  0  0  0  0
 21 22  2  0  0  0  0
M  CHG  1  20  -1
M  END
> <s_m_source_file>
AV-unprocessed.smi

> <i_m_source_file_index>
1060

> <i_lp_mmshare_version>
43012

> <i_f3d_flags>
0

> <s_epik_input>
Tz1jMVtuSF1bY0hdYyhDKEYpKEYpRilbY0hdYzFbTkhdQyg9TylbQ0gyXU9bQ0gyXVtDQEBIXTJbQ0gyXVtDSDJdW0NIMl1PMg==

> <s_epik_cmdline>
J2VwaWtfcHl0aG9uJywgJy1waCcsICc3LjAnLCAnLXRuJywgJzgnLCAnLW1hJywgJzIwMCcsICctbWV0YWxfYmluZGluZycsICctaW1hZScsICc8aW5maWxlLm1hZT4nLCAnLW9tYWUnLCAnPG91dGZpbGUubWFlPic=

> <r_epik_Ionization_Penalty>
2.50578

> <r_epik_Ionization_Penalty_Charging>
0.0523173

> <r_epik_Ionization_Penalty_Neutral>
2.45346

> <r_epik_State_Penalty>
2.61512

> <r_epik_Charging_Adjusted_Penalty>
2.66744

> <i_epik_Tot_Q>
-1

> <i_epik_Tot_abs_Q>
1

> <r_epik_Metal_State_Penalty>
0.513209

> <b_epik_Metal_Only>
0

> <s_lp_Force_Field>
OPLS_2005

> <r_lp_Energy>
34.3401

> <b_lp_Chiralities_Consistent>
1

> <s_lp_Variant>
AV-unprocessed.smi:1060-3

> <Gold.Version>
5.8.1

> <Gold.Id.Protein>
6NUR|6NUR_protein|mol2

> <Gold.PLP.Fitness>
40.3388

> <Gold.PLP.PLP>
-35.9717

> <Gold.PLP.part.hbond>
-2.9135

> <Gold.PLP.part.metal>
0.0000

> <Gold.PLP.part.buried>
-5.9265

> <Gold.PLP.part.nonpolar>
-27.8343

> <Gold.PLP.part.repulsive>
0.1127

> <Gold.PLP.ligand.clash>
0.0000

> <Gold.PLP.ligand.torsion>
0.8799

> <Gold.PLP.Chemscore.Hbond>
1.9913

> <Gold.PLP.Chemscore.CHOScore>
0.0000

> <Gold.PLP.Chemscore.Metal>
0.0000

> <Gold.Chemscore.Hbonds>
donor molecule, donor type, donor heavy atom, donor atom, acceptor molecule, acceptor atom, score
      P1  H  6896  6909       L1     1  0.91
      P1  H  7997  8008       L1    22  1.00

> <Gold.PLP.Chemscore.Internal.Correction>
0.1530

> <Gold.Rescore>
     Score         DG    S(hbond)    S(metal)    S(lipo)     H(rot)  DE(clash)    DE(int)     intcor
     15.43     -16.37       1.97        0.00      78.74       1.92       0.00       0.94       ----

> <Gold.Chemscore.Fitness>
15.4310

> <Gold.Chemscore.DG>
-16.3684

> <Gold.Chemscore.ZeroCoef>
-5.4800

> <Gold.Chemscore.Hbond>
1.9726

> <Gold.Chemscore.Metal>
0.0000

> <Gold.Chemscore.Lipo>
78.7393

> <Gold.Chemscore.Internal_Hbond>
0.0000

> <Gold.Chemscore.DEClash>
0.0000

> <Gold.Chemscore.DEInternal>
0.9374

> <Gold.Chemscore.Rot>
1.9190

> <Gold.Chemscore.Internal.Correction>
   9.000000E+99

> <Gold.Chemscore.Hbonds>
donor molecule, donor type, donor heavy atom, donor atom, acceptor molecule, acceptor atom, score
      P1  H  6896  6909       L1     1  0.87
      P1  H  7997  8008       L1    22  1.00

> <Gold.Chemscore.Hbond.Weighted>
-6.5885

> <Gold.Chemscore.Metal.Weighted>
-0.0000

> <Gold.Chemscore.Lipo.Weighted>
-9.2125

> <Gold.Chemscore.Internal_Hbond.Weighted>
0.0000

> <Gold.Chemscore.DEClash.Weighted>
0.0000

> <Gold.Chemscore.DEInternal.Weighted>
0.9374

> <Gold.Chemscore.Rot.Weighted>
4.9126

> <Gold.Chemscore.Internal.Correction.Weighted>
   9.000000E+99

> <Gold.Protein.RotatedTorsions>
[ 6907 6896 6895 6894 ] final  118.92 input  -60.11 | X-H torsion
[ 7974 7965 7964 7962 ] final   95.42 input  175.53 | X-H torsion
[ 8008 7997 7996 7995 ] final -138.05 input   59.86 | X-H torsion
[ 10167 10162 10161 10158 ] final -114.20 input  -65.29 | X-H torsion
[ 10718 10713 10712 10709 ] final   52.55 input   66.30 | X-H torsion
[ 10763 10752 10751 10750 ] final -140.62 input  -60.55 | X-H torsion
[ 11005 11000 10999 10996 ] final  160.42 input  -57.11 | X-H torsion

> <Gold.Protein.ActiveResidues>
 VAL166  LYS551  ARG553  GLY616  TRP617  ASP618  TYR619  PRO620  LYS621  CYS622 
 ASP623  PHE694  ASN695  SER759  ASP760  ASP761  ALA762  ILE779  LEU786  VAL792 
 PHE793  MET794  SER795  GLU796  ALA797  LYS798  CYS799  TRP800  GLU811  SER814 

> <Gold.Protein.RotatedAtoms>
  152.4509  133.7627  159.6755 H   0  0  0  0  0  0  0  0  0  0  0  0  # atno 6907 bound_to 6896
  150.8420  133.7910  159.3063 H   0  0  0  0  0  0  0  0  0  0  0  0  # atno 6908 bound_to 6896
  151.5532  135.1070  160.0006 H   0  0  0  0  0  0  0  0  0  0  0  0  # atno 6909 bound_to 6896
  145.4524  139.2292  143.3032 H   0  0  0  0  0  0  0  0  0  0  0  0  # atno 7974 bound_to 7965
  155.4220  140.0519  157.3025 H   0  0  0  0  0  0  0  0  0  0  0  0  # atno 8008 bound_to 7997
  154.4898  140.2115  155.9532 H   0  0  0  0  0  0  0  0  0  0  0  0  # atno 8009 bound_to 7997
  156.1326  140.3169  155.8377 H   0  0  0  0  0  0  0  0  0  0  0  0  # atno 8010 bound_to 7997
  140.1035  143.4591  152.1797 H   0  0  0  0  0  0  0  0  0  0  0  0  # atno 10167 bound_to 10162
  157.5085  130.8485  149.8405 H   0  0  0  0  0  0  0  0  0  0  0  0  # atno 10718 bound_to 10713
  154.8573  135.3548  154.5736 H   0  0  0  0  0  0  0  0  0  0  0  0  # atno 10763 bound_to 10752
  153.6348  135.7001  153.5267 H   0  0  0  0  0  0  0  0  0  0  0  0  # atno 10764 bound_to 10752
  153.3019  135.4204  155.1219 H   0  0  0  0  0  0  0  0  0  0  0  0  # atno 10765 bound_to 10752
  140.2057  134.8304  157.3067 H   0  0  0  0  0  0  0  0  0  0  0  0  # atno 11005 bound_to 11000
  146.2497  140.5285  142.8899 LP  0  0  0  0  0  0  0  0  0  0  0  0  # atno 17320 bound_to 7965
  144.8053  140.6288  143.6451 LP  0  0  0  0  0  0  0  0  0  0  0  0  # atno 17321 bound_to 7965
  139.5658  144.7434  151.4026 LP  0  0  0  0  0  0  0  0  0  0  0  0  # atno 17342 bound_to 10162
  140.6965  143.7737  150.7334 LP  0  0  0  0  0  0  0  0  0  0  0  0  # atno 17343 bound_to 10162
  156.0274  130.3775  150.1784 LP  0  0  0  0  0  0  0  0  0  0  0  0  # atno 17370 bound_to 10713
  156.9974  130.9912  151.3399 LP  0  0  0  0  0  0  0  0  0  0  0  0  # atno 17371 bound_to 10713
  140.2005  134.4261  155.7665 LP  0  0  0  0  0  0  0  0  0  0  0  0  # atno 17394 bound_to 11000
  141.2227  133.7070  156.8175 LP  0  0  0  0  0  0  0  0  0  0  0  0  # atno 17395 bound_to 11000

$$$$
