#       Name:                AV-unprocessed.smi:1249
#       Creating user name   scv26
#       Creation time:       Fri Mar 27 04:36:31 2020


#       File generated by GOLD software.
#

@<TRIPOS>MOLECULE
AV-unprocessed.smi:1249
    47    48     1
SMALL
NO_CHARGES


@<TRIPOS>ATOM
      1 ****        -7.8623  -0.4888  -1.0477 C.3            1 S1                 0.0000
      2 ****        -7.0359  -1.6267  -0.8270 O.3            1 S1                 0.0000
      3 ****        -5.6688  -1.4444  -0.7836 C.ar           1 S1                 0.0000
      4 ****        -4.8451  -2.5676  -0.5716 C.ar           1 S1                 0.0000
      5 ****        -3.4499  -2.3863  -0.5261 C.ar           1 S1                 0.0000
      6 ****        -2.9189  -1.0903  -0.6833 C.ar           1 S1                 0.0000
      7 ****        -1.5063  -0.9393  -0.6520 N.am           1 S1                 0.0000
      8 ****        -0.7907   0.1720  -0.4091 C.2            1 S1                 0.0000
      9 ****        -1.2603   1.2724  -0.1203 O.2            1 S1                 0.0000
     10 ****         0.5250  -0.0702  -0.4960 N.am           1 S1                 0.0000
     11 ****         1.5772   0.9178  -0.2752 C.3            1 S1                 0.0000
     12 ****         2.8617   0.4837  -0.9963 C.3            1 S1                 0.0000
     13 ****         4.0128   1.4714  -0.7358 C.3            1 S1                 0.0000
     14 ****         4.2346   1.6828   0.7089 N.pl3          1 S1                 0.0000
     15 ****         5.5478   0.8747   1.5158 S.o2           1 S1                 0.0000
     16 ****         4.9484  -0.8508   1.7338 C.3            1 S1                 0.0000
     17 ****         6.6945   0.8491   0.5950 O.2            1 S1                 0.0000
     18 ****         5.6964   1.4794   2.8484 O.2            1 S1                 0.0000
     19 ****         3.0270   2.0653   1.4678 C.3            1 S1                 0.0000
     20 ****         1.8681   1.0824   1.2260 C.3            1 S1                 0.0000
     21 ****        -3.8291  -0.0278  -0.9036 C.ar           1 S1                 0.0000
     22 ****        -5.1678  -0.1956  -0.9506 N.ar           1 S1                 0.0000
     23 ****        -8.9079  -0.7966  -1.0474 H              1 S1                 0.0000
     24 ****        -7.6539  -0.0264  -2.0137 H              1 S1                 0.0000
     25 ****        -7.7366   0.2554  -0.2598 H              1 S1                 0.0000
     26 ****        -5.2757  -3.5504  -0.4479 H              1 S1                 0.0000
     27 ****        -2.7987  -3.2339  -0.3683 H              1 S1                 0.0000
     28 ****        -0.9773  -1.7888  -0.7841 H              1 S1                 0.0000
     29 ****         0.8217  -1.0057  -0.7322 H              1 S1                 0.0000
     30 ****         1.2597   1.8780  -0.6868 H              1 S1                 0.0000
     31 ****         3.1506  -0.5158  -0.6726 H              1 S1                 0.0000
     32 ****         2.6799   0.4149  -2.0695 H              1 S1                 0.0000
     33 ****         4.9277   1.1228  -1.2140 H              1 S1                 0.0000
     34 ****         3.7764   2.4338  -1.1910 H              1 S1                 0.0000
     35 ****         5.7190  -1.4332   2.2383 H              1 S1                 0.0000
     36 ****         4.7455  -1.2991   0.7628 H              1 S1                 0.0000
     37 ****         4.0472  -0.8559   2.3441 H              1 S1                 0.0000
     38 ****         3.2521   2.1322   2.5318 H              1 S1                 0.0000
     39 ****         2.7265   3.0655   1.1540 H              1 S1                 0.0000
     40 ****         0.9781   1.4420   1.7436 H              1 S1                 0.0000
     41 ****         2.1033   0.1139   1.6659 H              1 S1                 0.0000
     42 ****        -3.4975   0.9849  -1.0704 H              1 S1                 0.0000
     43 ****        -7.2246  -2.2768  -1.5631 LP             1 S1                 0.0000
     44 ****        -7.3092  -2.0257   0.0483 LP             1 S1                 0.0000
     45 ****        -2.2508   1.3906  -0.0507 LP             1 S1                 0.0000
     46 ****        -0.6513   2.0482   0.0448 LP             1 S1                 0.0000
     47 ****        -5.7758   0.5831  -1.1050 LP             1 S1                 0.0000
@<TRIPOS>BOND
    1    1    2 1     
    2    1   23 1     
    3    1   24 1     
    4    1   25 1     
    5    2    3 1     
    6    3   22 ar    
    7    3    4 ar    
    8    4    5 ar    
    9    4   26 1     
   10    5    6 ar    
   11    5   27 1     
   12    6    7 1     
   13    6   21 ar    
   14    7    8 am    
   15    7   28 1     
   16    8    9 2     
   17    8   10 am    
   18   10   11 1     
   19   10   29 1     
   20   11   20 1     
   21   11   12 1     
   22   11   30 1     
   23   12   13 1     
   24   12   31 1     
   25   12   32 1     
   26   13   14 1     
   27   13   33 1     
   28   13   34 1     
   29   14   15 1     
   30   14   19 1     
   31   15   16 1     
   32   15   17 2     
   33   15   18 2     
   34   16   35 1     
   35   16   36 1     
   36   16   37 1     
   37   19   20 1     
   38   19   38 1     
   39   19   39 1     
   40   20   40 1     
   41   20   41 1     
   42   21   22 ar    
   43   21   42 1     
   44    2   43 1     
   45    2   44 1     
   46    9   45 1     
   47    9   46 1     
   48   22   47 1     
@<TRIPOS>SUBSTRUCTURE
      1 S1             1
@<TRIPOS>SET
LONE_PAIRS      STATIC     ATOMS    <user>   **** ""
7 43 44 45 46 17 18 47
DONOR_HYDROGENS      STATIC     ATOMS    <user>   **** ""
2 28 29
ATOM$BLUE        STATIC     ATOMS    COLORGROUP SYSTEM
7 43 44 45 46 17 18 47
ATOM$RED        STATIC     ATOMS    COLORGROUP SYSTEM
2 28 29
