AV-unprocessed.smi:1924|AV-procd|sdf|7791|dock2
  -GOLD-   22720 9533D 1   1.00000     0.00000
 Structure written by MMmdl.
 42 43  0  0  0  0  0  0  0  0  1 V2000
  144.4178  134.6233  150.8410 C   0  0  0  0  0  0  0  0  0  0  0  0
  144.8364  135.8748  151.6205 C   0  0  0  0  0  0  0  0  0  0  0  0
  145.7335  136.8094  150.7971 C   0  0  0  0  0  0  0  0  0  0  0  0
  145.9312  138.1777  151.4693 C   0  0  0  0  0  0  0  0  0  0  0  0
  147.2236  138.2620  152.1398 N   0  0  0  0  0  0  0  0  0  0  0  0
  147.5439  139.1538  153.0882 C   0  0  0  0  0  0  0  0  0  0  0  0
  146.7595  140.0020  153.5111 O   0  0  0  0  0  0  0  0  0  0  0  0
  148.8115  138.9820  153.5022 N   0  0  0  0  0  0  0  0  0  0  0  0
  149.5573  139.7212  154.4620 C   0  0  0  0  0  0  0  0  0  0  0  0
  150.7501  139.1441  154.9426 C   0  0  0  0  0  0  0  0  0  0  0  0
  151.5273  139.8466  155.8823 C   0  0  0  0  0  0  0  0  0  0  0  0
  151.0843  141.1177  156.3124 C   0  0  0  0  0  0  0  0  0  0  0  0
  151.8101  141.8724  157.2437 N   0  0  0  0  0  0  0  0  0  0  0  0
  151.3073  143.2305  157.4062 C   0  0  0  0  0  0  0  0  0  0  0  0
  152.2304  144.0243  158.3472 C   0  0  0  0  0  0  0  0  0  0  0  0
  152.3534  143.3358  159.5889 O   0  0  0  0  0  0  0  0  0  0  0  0
  152.9191  142.0380  159.4266 C   0  0  0  0  0  0  0  0  0  0  0  0
  152.0132  141.1911  158.5160 C   0  0  0  0  0  0  0  0  0  0  0  0
  149.9460  141.6816  155.8554 N   0  0  0  0  0  0  0  0  0  0  0  0
  149.2045  141.0026  154.9539 C   0  0  0  0  0  0  0  0  0  0  0  0
  143.7817  133.9813  151.4507 H   0  0  0  0  0  0  0  0  0  0  0  0
  145.2868  134.0390  150.5373 H   0  0  0  0  0  0  0  0  0  0  0  0
  143.8601  134.8876  149.9422 H   0  0  0  0  0  0  0  0  0  0  0  0
  143.9435  136.4134  151.9401 H   0  0  0  0  0  0  0  0  0  0  0  0
  145.3577  135.5739  152.5301 H   0  0  0  0  0  0  0  0  0  0  0  0
  146.7045  136.3368  150.6425 H   0  0  0  0  0  0  0  0  0  0  0  0
  145.2962  136.9470  149.8072 H   0  0  0  0  0  0  0  0  0  0  0  0
  145.8326  138.9821  150.7383 H   0  0  0  0  0  0  0  0  0  0  0  0
  145.1531  138.3406  152.2156 H   0  0  0  0  0  0  0  0  0  0  0  0
  147.9274  137.5971  151.8541 H   0  0  0  0  0  0  0  0  0  0  0  0
  149.3065  138.2090  153.0824 H   0  0  0  0  0  0  0  0  0  0  0  0
  151.0699  138.1720  154.5963 H   0  0  0  0  0  0  0  0  0  0  0  0
  152.4427  139.4155  156.2604 H   0  0  0  0  0  0  0  0  0  0  0  0
  151.2509  143.7222  156.4343 H   0  0  0  0  0  0  0  0  0  0  0  0
  150.2963  143.2050  157.8154 H   0  0  0  0  0  0  0  0  0  0  0  0
  153.2150  144.1656  157.8985 H   0  0  0  0  0  0  0  0  0  0  0  0
  151.8177  145.0164  158.5302 H   0  0  0  0  0  0  0  0  0  0  0  0
  153.9246  142.1179  159.0102 H   0  0  0  0  0  0  0  0  0  0  0  0
  153.0153  141.5669  160.4050 H   0  0  0  0  0  0  0  0  0  0  0  0
  151.0529  141.0228  159.0051 H   0  0  0  0  0  0  0  0  0  0  0  0
  152.4643  140.2132  158.3428 H   0  0  0  0  0  0  0  0  0  0  0  0
  148.3213  141.5265  154.6269 H   0  0  0  0  0  0  0  0  0  0  0  0
  1  2  1  0  0  0  0
  1 21  1  0  0  0  0
  1 22  1  0  0  0  0
  1 23  1  0  0  0  0
  2  3  1  0  0  0  0
  2 24  1  0  0  0  0
  2 25  1  0  0  0  0
  3  4  1  0  0  0  0
  3 26  1  0  0  0  0
  3 27  1  0  0  0  0
  4  5  1  0  0  0  0
  4 28  1  0  0  0  0
  4 29  1  0  0  0  0
  5  6  1  0  0  0  0
  5 30  1  0  0  0  0
  6  7  2  0  0  0  0
  6  8  1  0  0  0  0
  8  9  1  0  0  0  0
  8 31  1  0  0  0  0
  9 20  1  0  0  0  0
  9 10  2  0  0  0  0
 10 11  1  0  0  0  0
 10 32  1  0  0  0  0
 11 12  2  0  0  0  0
 11 33  1  0  0  0  0
 12 13  1  0  0  0  0
 12 19  1  0  0  0  0
 13 18  1  0  0  0  0
 13 14  1  0  0  0  0
 14 15  1  0  0  0  0
 14 34  1  0  0  0  0
 14 35  1  0  0  0  0
 15 16  1  0  0  0  0
 15 36  1  0  0  0  0
 15 37  1  0  0  0  0
 16 17  1  0  0  0  0
 17 18  1  0  0  0  0
 17 38  1  0  0  0  0
 17 39  1  0  0  0  0
 18 40  1  0  0  0  0
 18 41  1  0  0  0  0
 19 20  2  0  0  0  0
 20 42  1  0  0  0  0
M  END
> <s_m_source_file>
AV-unprocessed.smi

> <i_m_source_file_index>
1924

> <i_lp_mmshare_version>
43012

> <i_f3d_flags>
0

> <s_epik_input>
W0NIM11bQ0gyXVtDSDJdW0NIMl1bTkhdQyg9TylbTkhdYzFbY0hdW2NIXWMobltjSF0xKU4yW0NIMl1bQ0gyXU9bQ0gyXVtDSDJdMg==

> <s_epik_cmdline>
J2VwaWtfcHl0aG9uJywgJy1waCcsICc3LjAnLCAnLXRuJywgJzgnLCAnLW1hJywgJzIwMCcsICctbWV0YWxfYmluZGluZycsICctaW1hZScsICc8aW5maWxlLm1hZT4nLCAnLW9tYWUnLCAnPG91dGZpbGUubWFlPic=

> <r_lp_tautomer_probability>
1

> <r_epik_Ionization_Penalty>
0.00209113

> <r_epik_Ionization_Penalty_Charging>
0

> <r_epik_Ionization_Penalty_Neutral>
0.00209113

> <r_epik_State_Penalty>
0.00140385

> <r_epik_Charging_Adjusted_Penalty>
0.00140385

> <i_epik_Tot_Q>
0

> <i_epik_Tot_abs_Q>
0

> <r_epik_Metal_State_Penalty>
-0

> <b_epik_Metal_Only>
0

> <s_lp_Force_Field>
OPLS_2005

> <r_lp_Energy>
21.2234

> <b_lp_Chiralities_Consistent>
1

> <s_lp_Variant>
AV-unprocessed.smi:1924-1

> <Gold.Version>
5.8.1

> <Gold.Id.Protein>
6NUR|6NUR_protein|mol2

> <Gold.PLP.Fitness>
42.2292

> <Gold.PLP.PLP>
-39.3377

> <Gold.PLP.part.hbond>
-3.7405

> <Gold.PLP.part.metal>
0.0000

> <Gold.PLP.part.buried>
4.3424

> <Gold.PLP.part.nonpolar>
-41.7181

> <Gold.PLP.part.repulsive>
0.5036

> <Gold.PLP.ligand.clash>
0.0000

> <Gold.PLP.ligand.torsion>
0.5801

> <Gold.PLP.Chemscore.Hbond>
1.3058

> <Gold.PLP.Chemscore.CHOScore>
0.0000

> <Gold.PLP.Chemscore.Metal>
0.0000

> <Gold.Chemscore.Hbonds>
donor molecule, donor type, donor heavy atom, donor atom, acceptor molecule, acceptor atom, score
      L1  H     5    30       P1  7948  1.00
      L1  H     8    31       P1  7948  0.25

> <Gold.PLP.Chemscore.Internal.Correction>
0.1345

> <Gold.Rescore>
     Score         DG    S(hbond)    S(metal)    S(lipo)     H(rot)  DE(clash)    DE(int)     intcor
     13.82     -16.02       0.98        0.00      95.32       1.51       0.52       1.68       ----

> <Gold.Chemscore.Fitness>
13.8168

> <Gold.Chemscore.DG>
-16.0192

> <Gold.Chemscore.ZeroCoef>
-5.4800

> <Gold.Chemscore.Hbond>
0.9769

> <Gold.Chemscore.Metal>
0.0000

> <Gold.Chemscore.Lipo>
95.3240

> <Gold.Chemscore.Internal_Hbond>
0.0000

> <Gold.Chemscore.DEClash>
0.5229

> <Gold.Chemscore.DEInternal>
1.6795

> <Gold.Chemscore.Rot>
1.5144

> <Gold.Chemscore.Internal.Correction>
   9.000000E+99

> <Gold.Chemscore.Hbonds>
donor molecule, donor type, donor heavy atom, donor atom, acceptor molecule, acceptor atom, score
      L1  H     5    30       P1  7948  1.00
      L1  H     8    31       P1  7948  0.24

> <Gold.Chemscore.Hbond.Weighted>
-3.2630

> <Gold.Chemscore.Metal.Weighted>
-0.0000

> <Gold.Chemscore.Lipo.Weighted>
-11.1529

> <Gold.Chemscore.Internal_Hbond.Weighted>
0.0000

> <Gold.Chemscore.DEClash.Weighted>
0.5229

> <Gold.Chemscore.DEInternal.Weighted>
1.6795

> <Gold.Chemscore.Rot.Weighted>
3.8767

> <Gold.Chemscore.Internal.Correction.Weighted>
   9.000000E+99

> <Gold.Protein.RotatedTorsions>
[ 6907 6896 6895 6894 ] final  178.74 input  -60.11 | X-H torsion
[ 7974 7965 7964 7962 ] final   48.58 input  175.53 | X-H torsion
[ 8008 7997 7996 7995 ] final   95.26 input   59.86 | X-H torsion
[ 10167 10162 10161 10158 ] final  -70.30 input  -65.29 | X-H torsion
[ 10718 10713 10712 10709 ] final -111.62 input   66.30 | X-H torsion
[ 10763 10752 10751 10750 ] final  140.47 input  -60.55 | X-H torsion
[ 11005 11000 10999 10996 ] final  -60.09 input  -57.11 | X-H torsion

> <Gold.Protein.ActiveResidues>
 VAL166  LYS551  ARG553  GLY616  TRP617  ASP618  TYR619  PRO620  LYS621  CYS622 
 ASP623  PHE694  ASN695  SER759  ASP760  ASP761  ALA762  ILE779  LEU786  VAL792 
 PHE793  MET794  SER795  GLU796  ALA797  LYS798  CYS799  TRP800  GLU811  SER814 

> <Gold.Protein.RotatedAtoms>
  151.6829  133.3312  159.3223 H   0  0  0  0  0  0  0  0  0  0  0  0  # atno 6907 bound_to 6896
  150.7814  134.6765  159.6430 H   0  0  0  0  0  0  0  0  0  0  0  0  # atno 6908 bound_to 6896
  152.3873  134.6501  160.0173 H   0  0  0  0  0  0  0  0  0  0  0  0  # atno 6909 bound_to 6896
  146.0191  139.4630  142.9908 H   0  0  0  0  0  0  0  0  0  0  0  0  # atno 7974 bound_to 7965
  156.0670  140.3289  155.7529 H   0  0  0  0  0  0  0  0  0  0  0  0  # atno 8008 bound_to 7997
  155.5366  140.0598  157.2896 H   0  0  0  0  0  0  0  0  0  0  0  0  # atno 8009 bound_to 7997
  154.4510  140.1918  156.0537 H   0  0  0  0  0  0  0  0  0  0  0  0  # atno 8010 bound_to 7997
  140.5363  143.2318  151.7171 H   0  0  0  0  0  0  0  0  0  0  0  0  # atno 10167 bound_to 10162
  156.0657  130.5877  150.8398 H   0  0  0  0  0  0  0  0  0  0  0  0  # atno 10718 bound_to 10713
  153.9233  135.2998  155.3447 H   0  0  0  0  0  0  0  0  0  0  0  0  # atno 10763 bound_to 10752
  154.7564  135.4955  153.9386 H   0  0  0  0  0  0  0  0  0  0  0  0  # atno 10764 bound_to 10752
  153.1130  135.6764  153.9570 H   0  0  0  0  0  0  0  0  0  0  0  0  # atno 10765 bound_to 10752
  141.1274  133.6620  156.5171 H   0  0  0  0  0  0  0  0  0  0  0  0  # atno 11005 bound_to 11000
  145.7222  141.0071  143.1396 LP  0  0  0  0  0  0  0  0  0  0  0  0  # atno 17320 bound_to 7965
  144.6982  139.8884  143.7451 LP  0  0  0  0  0  0  0  0  0  0  0  0  # atno 17321 bound_to 7965
  139.4972  144.4037  152.0154 LP  0  0  0  0  0  0  0  0  0  0  0  0  # atno 17342 bound_to 10162
  140.3143  144.3502  150.6025 LP  0  0  0  0  0  0  0  0  0  0  0  0  # atno 17343 bound_to 10162
  157.5698  131.0946  150.9435 LP  0  0  0  0  0  0  0  0  0  0  0  0  # atno 17370 bound_to 10713
  156.9654  130.5471  149.5288 LP  0  0  0  0  0  0  0  0  0  0  0  0  # atno 17371 bound_to 10713
  140.4322  134.7091  157.4948 LP  0  0  0  0  0  0  0  0  0  0  0  0  # atno 17394 bound_to 11000
  140.0286  134.6440  155.9138 LP  0  0  0  0  0  0  0  0  0  0  0  0  # atno 17395 bound_to 11000

$$$$
