AV-unprocessed.smi:1276|AV-procd|sdf|5344|dock4
  -GOLD-   22720 4473D 1   1.00000     0.00000
 Structure written by MMmdl.
 44 45  0  0  0  0  0  0  0  0  1 V2000
  154.6622  139.3718  159.8306 C   0  0  0  0  0  0  0  0  0  0  0  0
  153.9537  140.6421  160.2165 C   0  0  0  0  0  0  0  0  0  0  0  0
  153.2943  141.2454  159.2829 N   0  0  0  0  0  0  0  0  0  0  0  0
  152.6128  142.4219  159.5284 N   0  0  0  0  0  0  0  0  0  0  0  0
  151.9390  142.9828  158.3480 C   0  0  0  0  0  0  0  0  0  0  0  0
  150.8149  142.0864  157.8080 C   0  0  0  0  0  0  0  0  0  0  0  0
  149.8841  141.7360  158.5348 O   0  0  0  0  0  0  0  0  0  0  0  0
  150.9075  141.7430  156.5137 N   0  0  0  0  0  0  0  0  0  0  0  0
  149.9589  140.9011  155.7873 C   0  0  0  0  0  0  0  0  0  0  0  0
  150.6941  139.6129  155.3592 C   0  0  0  0  0  0  0  0  0  0  0  0
  150.0126  138.7337  154.2945 C   0  0  0  0  0  0  0  0  0  0  0  0
  148.4778  138.6822  154.3467 C   0  0  0  0  0  0  0  0  0  0  0  0
  147.8210  139.8414  153.5787 C   0  0  0  0  0  0  0  0  0  0  0  0
  147.8973  141.2044  154.2819 C   0  0  0  0  0  0  0  0  0  0  0  0
  149.3174  141.6893  154.6240 C   0  0  0  0  0  0  0  0  0  0  0  0
  152.5537  143.0467  160.7397 C   0  0  0  0  0  0  0  0  0  0  0  0
  151.9273  144.0931  160.9152 O   0  0  0  0  0  0  0  0  0  0  0  0
  153.3017  142.3568  161.7931 C   0  0  0  0  0  0  0  0  0  0  0  0
  153.2696  142.9805  163.0767 C   0  0  0  0  0  0  0  0  0  0  0  0
  153.2627  143.4799  164.1209 N   0  0  0  0  0  0  0  0  0  0  0  0
  153.9795  141.2044  161.5630 C   0  0  0  0  0  0  0  0  0  0  0  0
  154.7726  140.4504  162.6216 C   0  0  0  0  0  0  0  0  0  0  0  0
  154.2721  138.5249  160.3952 H   0  0  0  0  0  0  0  0  0  0  0  0
  155.7312  139.4488  160.0295 H   0  0  0  0  0  0  0  0  0  0  0  0
  154.5413  139.1443  158.7704 H   0  0  0  0  0  0  0  0  0  0  0  0
  151.5070  143.9561  158.5875 H   0  0  0  0  0  0  0  0  0  0  0  0
  152.6680  143.1737  157.5581 H   0  0  0  0  0  0  0  0  0  0  0  0
  151.7029  142.0820  155.9924 H   0  0  0  0  0  0  0  0  0  0  0  0
  149.1700  140.6126  156.4845 H   0  0  0  0  0  0  0  0  0  0  0  0
  151.6908  139.8612  154.9909 H   0  0  0  0  0  0  0  0  0  0  0  0
  150.8588  139.0107  156.2538 H   0  0  0  0  0  0  0  0  0  0  0  0
  150.3268  139.0593  153.3019 H   0  0  0  0  0  0  0  0  0  0  0  0
  150.4039  137.7208  154.3971 H   0  0  0  0  0  0  0  0  0  0  0  0
  148.1585  137.7526  153.8743 H   0  0  0  0  0  0  0  0  0  0  0  0
  148.1179  138.6321  155.3749 H   0  0  0  0  0  0  0  0  0  0  0  0
  148.2557  139.9179  152.5814 H   0  0  0  0  0  0  0  0  0  0  0  0
  146.7691  139.6009  153.4213 H   0  0  0  0  0  0  0  0  0  0  0  0
  147.4260  141.9448  153.6346 H   0  0  0  0  0  0  0  0  0  0  0  0
  147.2912  141.1824  155.1884 H   0  0  0  0  0  0  0  0  0  0  0  0
  149.2312  142.7398  154.9057 H   0  0  0  0  0  0  0  0  0  0  0  0
  149.9590  141.6733  153.7422 H   0  0  0  0  0  0  0  0  0  0  0  0
  154.7076  140.9235  163.6009 H   0  0  0  0  0  0  0  0  0  0  0  0
  155.8273  140.4056  162.3487 H   0  0  0  0  0  0  0  0  0  0  0  0
  154.4005  139.4311  162.7271 H   0  0  0  0  0  0  0  0  0  0  0  0
  1  2  1  0  0  0  0
  1 23  1  0  0  0  0
  1 24  1  0  0  0  0
  1 25  1  0  0  0  0
  2 21  1  0  0  0  0
  2  3  2  0  0  0  0
  3  4  1  0  0  0  0
  4  5  1  0  0  0  0
  4 16  1  0  0  0  0
  5  6  1  0  0  0  0
  5 26  1  0  0  0  0
  5 27  1  0  0  0  0
  6  7  2  0  0  0  0
  6  8  1  0  0  0  0
  8  9  1  0  0  0  0
  8 28  1  0  0  0  0
  9 15  1  0  0  0  0
  9 10  1  0  0  0  0
  9 29  1  0  0  0  0
 10 11  1  0  0  0  0
 10 30  1  0  0  0  0
 10 31  1  0  0  0  0
 11 12  1  0  0  0  0
 11 32  1  0  0  0  0
 11 33  1  0  0  0  0
 12 13  1  0  0  0  0
 12 34  1  0  0  0  0
 12 35  1  0  0  0  0
 13 14  1  0  0  0  0
 13 36  1  0  0  0  0
 13 37  1  0  0  0  0
 14 15  1  0  0  0  0
 14 38  1  0  0  0  0
 14 39  1  0  0  0  0
 15 40  1  0  0  0  0
 15 41  1  0  0  0  0
 16 17  2  0  0  0  0
 16 18  1  0  0  0  0
 18 19  1  0  0  0  0
 18 21  2  0  0  0  0
 19 20  3  0  0  0  0
 21 22  1  0  0  0  0
 22 42  1  0  0  0  0
 22 43  1  0  0  0  0
 22 44  1  0  0  0  0
M  END
> <s_m_source_file>
AV-unprocessed.smi

> <i_m_source_file_index>
1276

> <i_lp_mmshare_version>
43012

> <i_f3d_flags>
0

> <s_epik_input>
TiNDYyhjMVtDSDNdKWMoPU8pbihuYzFbQ0gzXSlbQ0gyXUMoPU8pW05IXVtDSF0yW0NIMl1bQ0gyXVtDSDJdW0NIMl1bQ0gyXVtDSDJdMg==

> <s_epik_cmdline>
J2VwaWtfcHl0aG9uJywgJy1waCcsICc3LjAnLCAnLXRuJywgJzgnLCAnLW1hJywgJzIwMCcsICctbWV0YWxfYmluZGluZycsICctaW1hZScsICc8aW5maWxlLm1hZT4nLCAnLW9tYWUnLCAnPG91dGZpbGUubWFlPic=

> <r_lp_tautomer_probability>
1

> <r_epik_Ionization_Penalty>
2.02378e-08

> <r_epik_Ionization_Penalty_Charging>
2.27609e-11

> <r_epik_Ionization_Penalty_Neutral>
2.0215e-08

> <r_epik_State_Penalty>
-0

> <r_epik_Charging_Adjusted_Penalty>
2.27609e-11

> <i_epik_Tot_Q>
0

> <i_epik_Tot_abs_Q>
0

> <r_epik_Metal_State_Penalty>
-0

> <b_epik_Metal_Only>
0

> <s_lp_Force_Field>
OPLS_2005

> <r_lp_Energy>
30.1422

> <b_lp_Chiralities_Consistent>
1

> <s_lp_Variant>
AV-unprocessed.smi:1276-1

> <Gold.Version>
5.8.1

> <Gold.Id.Protein>
6NUR|6NUR_protein|mol2

> <Gold.PLP.Fitness>
47.6719

> <Gold.PLP.PLP>
-47.7455

> <Gold.PLP.part.hbond>
-1.0272

> <Gold.PLP.part.metal>
0.0000

> <Gold.PLP.part.buried>
-3.1795

> <Gold.PLP.part.nonpolar>
-42.6961

> <Gold.PLP.part.repulsive>
0.3806

> <Gold.PLP.ligand.clash>
0.0000

> <Gold.PLP.ligand.torsion>
0.0488

> <Gold.PLP.Chemscore.Hbond>
0.0000

> <Gold.PLP.Chemscore.CHOScore>
0.0000

> <Gold.PLP.Chemscore.Metal>
0.0000

> <Gold.PLP.Chemscore.Internal.Correction>
0.0240

> <Gold.Rescore>
     Score         DG    S(hbond)    S(metal)    S(lipo)     H(rot)  DE(clash)    DE(int)     intcor
     13.36     -13.50       0.00        0.00     100.50       1.46       0.08       0.05       ----

> <Gold.Chemscore.Fitness>
13.3643

> <Gold.Chemscore.DG>
-13.4971

> <Gold.Chemscore.ZeroCoef>
-5.4800

> <Gold.Chemscore.Hbond>
0.0000

> <Gold.Chemscore.Metal>
0.0000

> <Gold.Chemscore.Lipo>
100.4996

> <Gold.Chemscore.Internal_Hbond>
0.0000

> <Gold.Chemscore.DEClash>
0.0804

> <Gold.Chemscore.DEInternal>
0.0524

> <Gold.Chemscore.Rot>
1.4615

> <Gold.Chemscore.Internal.Correction>
   9.000000E+99

> <Gold.Chemscore.Hbond.Weighted>
-0.0000

> <Gold.Chemscore.Metal.Weighted>
-0.0000

> <Gold.Chemscore.Lipo.Weighted>
-11.7585

> <Gold.Chemscore.Internal_Hbond.Weighted>
0.0000

> <Gold.Chemscore.DEClash.Weighted>
0.0804

> <Gold.Chemscore.DEInternal.Weighted>
0.0524

> <Gold.Chemscore.Rot.Weighted>
3.7414

> <Gold.Chemscore.Internal.Correction.Weighted>
   9.000000E+99

> <Gold.Protein.RotatedTorsions>
[ 6907 6896 6895 6894 ] final   66.17 input  -60.11 | X-H torsion
[ 7974 7965 7964 7962 ] final    9.01 input  175.53 | X-H torsion
[ 8008 7997 7996 7995 ] final  -56.17 input   59.86 | X-H torsion
[ 10167 10162 10161 10158 ] final  -42.65 input  -65.29 | X-H torsion
[ 10718 10713 10712 10709 ] final   83.00 input   66.30 | X-H torsion
[ 10763 10752 10751 10750 ] final   41.13 input  -60.55 | X-H torsion
[ 11005 11000 10999 10996 ] final  -87.74 input  -57.11 | X-H torsion

> <Gold.Protein.ActiveResidues>
 VAL166  LYS551  ARG553  GLY616  TRP617  ASP618  TYR619  PRO620  LYS621  CYS622 
 ASP623  PHE694  ASN695  SER759  ASP760  ASP761  ALA762  ILE779  LEU786  VAL792 
 PHE793  MET794  SER795  GLU796  ALA797  LYS798  CYS799  TRP800  GLU811  SER814 

> <Gold.Protein.RotatedAtoms>
  152.4461  134.5491  159.9861 H   0  0  0  0  0  0  0  0  0  0  0  0  # atno 6907 bound_to 6896
  151.5576  133.3402  159.2973 H   0  0  0  0  0  0  0  0  0  0  0  0  # atno 6908 bound_to 6896
  150.8378  134.7690  159.6970 H   0  0  0  0  0  0  0  0  0  0  0  0  # atno 6909 bound_to 6896
  146.2409  139.9848  142.8432 H   0  0  0  0  0  0  0  0  0  0  0  0  # atno 7974 bound_to 7965
  154.4220  140.1136  156.5595 H   0  0  0  0  0  0  0  0  0  0  0  0  # atno 8008 bound_to 7997
  155.6326  140.3496  155.4669 H   0  0  0  0  0  0  0  0  0  0  0  0  # atno 8009 bound_to 7997
  155.9935  140.1184  157.0605 H   0  0  0  0  0  0  0  0  0  0  0  0  # atno 8010 bound_to 7997
  140.6962  143.3026  151.3240 H   0  0  0  0  0  0  0  0  0  0  0  0  # atno 10167 bound_to 10162
  157.6869  131.0072  150.2458 H   0  0  0  0  0  0  0  0  0  0  0  0  # atno 10718 bound_to 10713
  152.9917  135.6171  154.2738 H   0  0  0  0  0  0  0  0  0  0  0  0  # atno 10763 bound_to 10752
  154.2470  135.2786  155.2833 H   0  0  0  0  0  0  0  0  0  0  0  0  # atno 10764 bound_to 10752
  154.5321  135.5785  153.6825 H   0  0  0  0  0  0  0  0  0  0  0  0  # atno 10765 bound_to 10752
  141.1612  133.7529  156.9351 H   0  0  0  0  0  0  0  0  0  0  0  0  # atno 11005 bound_to 11000
  145.1558  140.9647  143.4406 LP  0  0  0  0  0  0  0  0  0  0  0  0  # atno 17320 bound_to 7965
  145.0162  139.3465  143.6095 LP  0  0  0  0  0  0  0  0  0  0  0  0  # atno 17321 bound_to 7965
  139.6419  144.0523  152.2561 LP  0  0  0  0  0  0  0  0  0  0  0  0  # atno 17342 bound_to 10162
  140.0031  144.6279  150.7712 LP  0  0  0  0  0  0  0  0  0  0  0  0  # atno 17343 bound_to 10162
  156.3064  130.3765  149.7702 LP  0  0  0  0  0  0  0  0  0  0  0  0  # atno 17370 bound_to 10713
  156.5316  130.8260  151.3239 LP  0  0  0  0  0  0  0  0  0  0  0  0  # atno 17371 bound_to 10713
  140.1360  134.9325  157.2402 LP  0  0  0  0  0  0  0  0  0  0  0  0  # atno 17394 bound_to 11000
  140.2895  134.3257  155.7319 LP  0  0  0  0  0  0  0  0  0  0  0  0  # atno 17395 bound_to 11000

$$$$
