AV-unprocessed.smi:54|AV-procd|sdf|554|dock2
  -GOLD-   2262016453D 1   1.00000     0.00000
 Structure written by MMmdl.
 43 45  0  0  0  0  0  0  0  0  2 V2000
  145.8779  134.0623  151.9096 C   0  0  0  0  0  0  0  0  0  0  0  0
  146.7675  132.8085  151.9339 C   0  0  0  0  0  0  0  0  0  0  0  0
  145.9315  131.5280  151.7729 C   0  0  0  0  0  0  0  0  0  0  0  0
  147.5997  132.7594  153.2235 C   0  0  0  0  0  0  0  0  0  0  0  0
  147.5498  131.7508  153.9308 O   0  0  0  0  0  0  0  0  0  0  0  0
  148.3268  133.8687  153.4828 N   0  0  0  0  0  0  0  0  0  0  0  0
  149.1673  134.1433  154.5680 C   0  0  0  0  0  0  0  0  0  0  0  0
  149.8005  135.2854  154.4500 N   0  0  0  0  0  0  0  0  0  0  0  0
  150.6462  135.5376  155.5136 C   0  0  0  0  0  0  0  0  0  0  0  0
  150.8659  134.7533  156.6121 C   0  0  0  0  0  0  0  0  0  0  0  0
  151.7692  135.3455  157.4856 N   0  0  0  0  0  0  0  0  0  0  0  0
  152.0587  136.4838  156.8572 C   0  0  0  0  0  0  0  0  0  0  0  0
  151.4499  136.6632  155.6653 N   0  0  0  0  0  0  0  0  0  0  0  0
  151.5407  137.8402  154.7357 C   0  0  1  0  0  0  0  0  0  0  0  0
  150.2561  138.3103  154.4663 O   0  0  0  0  0  0  0  0  0  0  0  0
  149.8897  139.2655  155.4538 C   0  0  2  0  0  0  0  0  0  0  0  0
  148.7424  140.1449  154.9334 C   0  0  0  0  0  0  0  0  0  0  0  0
  149.1332  140.7988  153.7451 O   0  0  0  0  0  0  0  0  0  0  0  0
  151.1979  140.0344  155.6748 C   0  0  1  0  0  0  0  0  0  0  0  0
  151.2659  140.4917  157.0107 O   0  0  0  0  0  0  0  0  0  0  0  0
  152.2960  139.0035  155.4041 C   0  0  2  0  0  0  0  0  0  0  0  0
  153.2792  139.5370  154.5407 O   0  0  0  0  0  0  0  0  0  0  0  0
  150.1240  133.4725  156.6798 C   0  0  0  0  0  0  0  0  0  0  0  0
  150.2918  132.7337  157.6482 O   0  0  0  0  0  0  0  0  0  0  0  0
  149.2939  133.2186  155.6243 N   0  5  0  0  0  0  0  0  0  0  0  0
  152.0207  137.4341  153.8445 H   0  0  0  0  0  0  0  0  0  0  0  0
  149.5998  138.7528  156.3731 H   0  0  0  0  0  0  0  0  0  0  0  0
  151.2683  140.8758  154.9835 H   0  0  0  0  0  0  0  0  0  0  0  0
  152.7774  138.6674  156.3239 H   0  0  0  0  0  0  0  0  0  0  0  0
  146.4705  134.9707  152.0259 H   0  0  0  0  0  0  0  0  0  0  0  0
  145.1358  134.0442  152.7088 H   0  0  0  0  0  0  0  0  0  0  0  0
  145.3417  134.1408  150.9635 H   0  0  0  0  0  0  0  0  0  0  0  0
  147.4509  132.8675  151.0851 H   0  0  0  0  0  0  0  0  0  0  0  0
  146.5602  130.6372  151.8046 H   0  0  0  0  0  0  0  0  0  0  0  0
  145.4069  131.5235  150.8171 H   0  0  0  0  0  0  0  0  0  0  0  0
  145.1822  131.4353  152.5604 H   0  0  0  0  0  0  0  0  0  0  0  0
  148.1954  134.6219  152.8240 H   0  0  0  0  0  0  0  0  0  0  0  0
  152.7358  137.2087  157.2841 H   0  0  0  0  0  0  0  0  0  0  0  0
  147.8754  139.5276  154.6959 H   0  0  0  0  0  0  0  0  0  0  0  0
  148.4271  140.8720  155.6823 H   0  0  0  0  0  0  0  0  0  0  0  0
  149.0683  140.1851  153.0293 H   0  0  0  0  0  0  0  0  0  0  0  0
  150.9026  141.3635  157.0471 H   0  0  0  0  0  0  0  0  0  0  0  0
  152.8534  139.8393  153.7535 H   0  0  0  0  0  0  0  0  0  0  0  0
  1  2  1  0  0  0  0
  1 30  1  0  0  0  0
  1 31  1  0  0  0  0
  1 32  1  0  0  0  0
  2  3  1  0  0  0  0
  2  4  1  0  0  0  0
  2 33  1  0  0  0  0
  3 34  1  0  0  0  0
  3 35  1  0  0  0  0
  3 36  1  0  0  0  0
  4  5  2  0  0  0  0
  4  6  1  0  0  0  0
  6 37  1  0  0  0  0
  6  7  1  0  0  0  0
  7 25  1  0  0  0  0
  7  8  2  0  0  0  0
  8  9  1  0  0  0  0
  9 13  1  0  0  0  0
  9 10  2  0  0  0  0
 10 11  1  0  0  0  0
 10 23  1  0  0  0  0
 11 12  2  0  0  0  0
 12 13  1  0  0  0  0
 12 38  1  0  0  0  0
 13 14  1  0  0  0  0
 14 26  1  0  0  0  0
 14 21  1  0  0  0  0
 14 15  1  0  0  0  0
 15 16  1  0  0  0  0
 16 27  1  0  0  0  0
 16 17  1  0  0  0  0
 16 19  1  0  0  0  0
 17 18  1  0  0  0  0
 17 39  1  0  0  0  0
 17 40  1  0  0  0  0
 18 41  1  0  0  0  0
 19 28  1  0  0  0  0
 19 20  1  0  0  0  0
 19 21  1  0  0  0  0
 20 42  1  0  0  0  0
 21 29  1  0  0  0  0
 21 22  1  0  0  0  0
 22 43  1  0  0  0  0
 23 24  2  0  0  0  0
 23 25  1  0  0  0  0
M  CHG  1  25  -1
M  END
> <s_m_source_file>
AV-unprocessed.smi

> <i_m_source_file_index>
54

> <i_lp_mmshare_version>
43012

> <i_f3d_flags>
0

> <s_epik_input>
W0NIM11bQ0hdKFtDSDNdKUMoPU8pW05IXWMobjEpW25IXWMoPU8pYyhjMTIpbltjSF1uMltDQEBIXTNPW0NASF0oW0NIMl1bT0hdKVtDQEBIXShbT0hdKVtDQEhdM1tPSF0=

> <s_epik_cmdline>
J2VwaWtfcHl0aG9uJywgJy1waCcsICc3LjAnLCAnLXRuJywgJzgnLCAnLW1hJywgJzIwMCcsICctbWV0YWxfYmluZGluZycsICctaW1hZScsICc8aW5maWxlLm1hZT4nLCAnLW9tYWUnLCAnPG91dGZpbGUubWFlPic=

> <r_lp_tautomer_probability>
0.85571

> <r_epik_Ionization_Penalty>
1.75936

> <r_epik_Ionization_Penalty_Charging>
4.55893e-11

> <r_epik_Ionization_Penalty_Neutral>
1.75936

> <r_epik_State_Penalty>
1.72072

> <r_epik_Charging_Adjusted_Penalty>
1.72072

> <i_epik_Tot_Q>
-1

> <i_epik_Tot_abs_Q>
1

> <r_epik_Metal_State_Penalty>
0.400338

> <b_epik_Metal_Only>
1

> <s_epik_Chemistry_Notes>
This compound contains an acetal/aminal-like group ( X-CH(R)-Y where X, Y are N, S, or O) that may be acid/base labile, releasing an aldehyde.

> <s_lp_Force_Field>
OPLS_2005

> <r_lp_Energy>
54.6298

> <b_lp_Chiralities_Consistent>
1

> <s_lp_Variant>
AV-unprocessed.smi:54-26

> <Gold.Version>
5.8.1

> <Gold.Id.Protein>
6NUR|6NUR_protein|mol2

> <Gold.PLP.Fitness>
52.1694

> <Gold.PLP.PLP>
-37.4203

> <Gold.PLP.part.hbond>
-7.4849

> <Gold.PLP.part.metal>
0.0000

> <Gold.PLP.part.buried>
-4.4323

> <Gold.PLP.part.nonpolar>
-27.2330

> <Gold.PLP.part.repulsive>
2.5151

> <Gold.PLP.ligand.clash>
0.0000

> <Gold.PLP.ligand.torsion>
0.2169

> <Gold.PLP.Chemscore.Hbond>
5.0353

> <Gold.PLP.Chemscore.CHOScore>
0.0000

> <Gold.PLP.Chemscore.Metal>
0.0000

> <Gold.Chemscore.Hbonds>
donor molecule, donor type, donor heavy atom, donor atom, acceptor molecule, acceptor atom, score
      L1  H     6    37       P1  7948  0.96
      L1  H    18    41       P1  7957  0.78
      P1  H  6896  6909       L1    24  1.00
      P1  H  7997  8009       L1    22  1.00
      P1  H  8011  8017       L1    18  0.23

> <Gold.PLP.Chemscore.Internal.Correction>
0.0769

> <Gold.Rescore>
     Score         DG    S(hbond)    S(metal)    S(lipo)     H(rot)  DE(clash)    DE(int)     intcor
     12.83     -15.02       4.26        0.00      47.98       4.02       0.43       1.76       ----

> <Gold.Chemscore.Fitness>
12.8344

> <Gold.Chemscore.DG>
-15.0179

> <Gold.Chemscore.ZeroCoef>
-5.4800

> <Gold.Chemscore.Hbond>
4.2554

> <Gold.Chemscore.Metal>
0.0000

> <Gold.Chemscore.Lipo>
47.9829

> <Gold.Chemscore.Internal_Hbond>
0.0000

> <Gold.Chemscore.DEClash>
0.4278

> <Gold.Chemscore.DEInternal>
1.7556

> <Gold.Chemscore.Rot>
4.0192

> <Gold.Chemscore.Internal.Correction>
   9.000000E+99

> <Gold.Chemscore.Hbonds>
donor molecule, donor type, donor heavy atom, donor atom, acceptor molecule, acceptor atom, score
      L1  H     6    37       P1  7948  0.50
      L1  H    18    41       P1  7957  0.77
      P1  H  6896  6909       L1    24  0.94
      P1  H  7997  8009       L1    22  0.60
      P1  H  8011  8017       L1    18  0.01

> <Gold.Chemscore.Hbond.Weighted>
-14.2132

> <Gold.Chemscore.Metal.Weighted>
-0.0000

> <Gold.Chemscore.Lipo.Weighted>
-5.6140

> <Gold.Chemscore.Internal_Hbond.Weighted>
0.0000

> <Gold.Chemscore.DEClash.Weighted>
0.4278

> <Gold.Chemscore.DEInternal.Weighted>
1.7556

> <Gold.Chemscore.Rot.Weighted>
10.2893

> <Gold.Chemscore.Internal.Correction.Weighted>
   9.000000E+99

> <Gold.Protein.RotatedTorsions>
[ 6907 6896 6895 6894 ] final  -21.86 input  -60.11 | X-H torsion
[ 7974 7965 7964 7962 ] final -146.57 input  175.53 | X-H torsion
[ 8008 7997 7996 7995 ] final -115.60 input   59.86 | X-H torsion
[ 10167 10162 10161 10158 ] final -170.93 input  -65.29 | X-H torsion
[ 10718 10713 10712 10709 ] final   40.32 input   66.30 | X-H torsion
[ 10763 10752 10751 10750 ] final  169.64 input  -60.55 | X-H torsion
[ 11005 11000 10999 10996 ] final  168.52 input  -57.11 | X-H torsion

> <Gold.Protein.ActiveResidues>
 VAL166  LYS551  ARG553  GLY616  TRP617  ASP618  TYR619  PRO620  LYS621  CYS622 
 ASP623  PHE694  ASN695  SER759  ASP760  ASP761  ALA762  ILE779  LEU786  VAL792 
 PHE793  MET794  SER795  GLU796  ALA797  LYS798  CYS799  TRP800  GLU811  SER814 

> <Gold.Protein.RotatedAtoms>
  151.2271  135.0540  159.8972 H   0  0  0  0  0  0  0  0  0  0  0  0  # atno 6907 bound_to 6896
  152.5409  134.0577  159.8148 H   0  0  0  0  0  0  0  0  0  0  0  0  # atno 6908 bound_to 6896
  151.0752  133.5386  159.2656 H   0  0  0  0  0  0  0  0  0  0  0  0  # atno 6909 bound_to 6896
  144.8151  140.5439  143.5616 H   0  0  0  0  0  0  0  0  0  0  0  0  # atno 7974 bound_to 7965
  155.0547  140.0393  157.2556 H   0  0  0  0  0  0  0  0  0  0  0  0  # atno 8008 bound_to 7997
  154.7109  140.2692  155.6606 H   0  0  0  0  0  0  0  0  0  0  0  0  # atno 8009 bound_to 7997
  156.2789  140.2722  156.1750 H   0  0  0  0  0  0  0  0  0  0  0  0  # atno 8010 bound_to 7997
  139.5832  144.1376  152.1542 H   0  0  0  0  0  0  0  0  0  0  0  0  # atno 10167 bound_to 10162
  157.3807  130.7752  149.7191 H   0  0  0  0  0  0  0  0  0  0  0  0  # atno 10718 bound_to 10713
  154.3861  135.2753  155.2182 H   0  0  0  0  0  0  0  0  0  0  0  0  # atno 10763 bound_to 10752
  154.4268  135.5987  153.6047 H   0  0  0  0  0  0  0  0  0  0  0  0  # atno 10764 bound_to 10752
  152.9833  135.5986  154.4110 H   0  0  0  0  0  0  0  0  0  0  0  0  # atno 10765 bound_to 10752
  140.2881  134.7695  157.3815 H   0  0  0  0  0  0  0  0  0  0  0  0  # atno 11005 bound_to 11000
  145.5234  139.1476  143.3540 LP  0  0  0  0  0  0  0  0  0  0  0  0  # atno 17320 bound_to 7965
  146.2453  140.5375  142.8916 LP  0  0  0  0  0  0  0  0  0  0  0  0  # atno 17321 bound_to 7965
  140.0934  144.5601  150.7039 LP  0  0  0  0  0  0  0  0  0  0  0  0  # atno 17342 bound_to 10162
  140.7108  143.2503  151.4587 LP  0  0  0  0  0  0  0  0  0  0  0  0  # atno 17343 bound_to 10162
  155.9775  130.4062  150.3707 LP  0  0  0  0  0  0  0  0  0  0  0  0  # atno 17370 bound_to 10713
  157.1811  131.0392  151.2748 LP  0  0  0  0  0  0  0  0  0  0  0  0  # atno 17371 bound_to 10713
  140.1221  134.5206  155.8175 LP  0  0  0  0  0  0  0  0  0  0  0  0  # atno 17394 bound_to 11000
  141.2151  133.6760  156.6884 LP  0  0  0  0  0  0  0  0  0  0  0  0  # atno 17395 bound_to 11000

$$$$
