#       Name:                AV-unprocessed.smi:3216
#       Creating user name   scv26
#       Creation time:       Fri Mar 27 18:12:50 2020


#       File generated by GOLD software.
#

@<TRIPOS>MOLECULE
AV-unprocessed.smi:3216
    40    40     1
SMALL
NO_CHARGES


@<TRIPOS>ATOM
      1 ****        -2.3404  -2.9070  -3.1561 C.3            1 S1                 0.0000
      2 ****        -3.0411  -2.8512  -1.7875 C.3            1 S1                 0.0000
      3 ****        -4.3043  -3.7246  -1.7893 C.3            1 S1                 0.0000
      4 ****        -3.3768  -1.4070  -1.3582 C.3            1 S1                 0.0000
      5 ****        -2.1898  -0.5644  -1.2464 N.am           1 S1                 0.0000
      6 ****        -1.3657  -0.5311  -0.1885 C.2            1 S1                 0.0000
      7 ****        -1.5281  -1.2245   0.8165 O.2            1 S1                 0.0000
      8 ****        -0.1752   0.4236  -0.2940 C.3            1 S1                 0.0000
      9 ****         0.5027   0.6171   1.0042 N.4            1 S1                 1.0000
     10 ****         1.6649   1.5238   0.9471 C.3            1 S1                 0.0000
     11 ****         2.3064   1.6856   2.3330 C.3            1 S1                 0.0000
     12 ****         3.4618   2.5612   2.2934 N.pl3          1 S1                 0.0000
     13 ****         4.7924   2.2352   2.4523 C.2            1 S1                 0.0000
     14 ****         5.5096   3.3918   2.3400 C.2            1 S1                 0.0000
     15 ****         4.5163   4.3857   2.1155 C.2            1 S1                 0.0000
     16 ****         3.2912   3.8854   2.0902 N.2            1 S1                 0.0000
     17 ****        -2.9693  -2.4831  -3.9396 H              1 S1                 0.0000
     18 ****        -2.1105  -3.9354  -3.4363 H              1 S1                 0.0000
     19 ****        -1.3994  -2.3567  -3.1493 H              1 S1                 0.0000
     20 ****        -2.3588  -3.2760  -1.0499 H              1 S1                 0.0000
     21 ****        -5.0437  -3.3516  -2.4989 H              1 S1                 0.0000
     22 ****        -4.7697  -3.7447  -0.8033 H              1 S1                 0.0000
     23 ****        -4.0709  -4.7543  -2.0618 H              1 S1                 0.0000
     24 ****        -4.0472  -0.9500  -2.0870 H              1 S1                 0.0000
     25 ****        -3.9161  -1.4081  -0.4092 H              1 S1                 0.0000
     26 ****        -1.9821   0.0330  -2.0340 H              1 S1                 0.0000
     27 ****         0.5341   0.0224  -1.0191 H              1 S1                 0.0000
     28 ****        -0.5184   1.3887  -0.6697 H              1 S1                 0.0000
     29 ****        -0.1684   0.9911   1.6599 H              1 S1                 0.0000
     30 ****         2.3962   1.1275   0.2411 H              1 S1                 0.0000
     31 ****         1.3399   2.4933   0.5664 H              1 S1                 0.0000
     32 ****         1.5869   2.0949   3.0439 H              1 S1                 0.0000
     33 ****         2.6200   0.7157   2.7217 H              1 S1                 0.0000
     34 ****         5.1154   1.2199   2.6293 H              1 S1                 0.0000
     35 ****         6.5807   3.5107   2.4102 H              1 S1                 0.0000
     36 ****         4.6482   5.4481   1.9719 H              1 S1                 0.0000
     37 ****         0.8094  -0.2851   1.3398 H              1 S1                 0.0000
     38 ****        -2.3052  -1.8515   0.8712 LP             1 S1                 0.0000
     39 ****        -0.8828  -1.1605   1.5778 LP             1 S1                 0.0000
     40 ****         2.4318   4.3776   1.9517 LP             1 S1                 0.0000
@<TRIPOS>BOND
    1    1    2 1     
    2    1   17 1     
    3    1   18 1     
    4    1   19 1     
    5    2    3 1     
    6    2    4 1     
    7    2   20 1     
    8    3   21 1     
    9    3   22 1     
   10    3   23 1     
   11    4    5 1     
   12    4   24 1     
   13    4   25 1     
   14    5    6 am    
   15    5   26 1     
   16    6    7 2     
   17    6    8 1     
   18    8    9 1     
   19    8   27 1     
   20    8   28 1     
   21    9   10 1     
   22    9   29 1     
   23    9   37 1     
   24   10   11 1     
   25   10   30 1     
   26   10   31 1     
   27   11   12 1     
   28   11   32 1     
   29   11   33 1     
   30   12   16 1     
   31   12   13 1     
   32   13   14 2     
   33   13   34 1     
   34   14   15 1     
   35   14   35 1     
   36   15   16 2     
   37   15   36 1     
   38    7   38 1     
   39    7   39 1     
   40   16   40 1     
@<TRIPOS>SUBSTRUCTURE
      1 S1             1
@<TRIPOS>SET
LONE_PAIRS      STATIC     ATOMS    <user>   **** ""
3 38 39 40
DONOR_HYDROGENS      STATIC     ATOMS    <user>   **** ""
3 26 29 37
ATOM$BLUE        STATIC     ATOMS    COLORGROUP SYSTEM
3 38 39 40
ATOM$RED        STATIC     ATOMS    COLORGROUP SYSTEM
3 26 29 37
