AV-unprocessed.smi:2787|AV-procd|sdf|10757|dock2
  -GOLD-   2272015183D 1   1.00000     0.00000
 Structure written by MMmdl.
 35 36  0  0  0  0  0  0  0  0  1 V2000
  151.9030  137.3710  153.8973 O   0  0  0  0  0  0  0  0  0  0  0  0
  151.5697  137.4601  155.2667 C   0  0  0  0  0  0  0  0  0  0  0  0
  151.7932  138.8886  155.7841 C   0  0  0  0  0  0  0  0  0  0  0  0
  151.2523  139.1099  157.2076 C   0  0  0  0  0  0  0  0  0  0  0  0
  151.4755  140.5100  157.7051 C   0  0  0  0  0  0  0  0  0  0  0  0
  152.1782  140.7323  158.8173 N   0  0  0  0  0  0  0  0  0  0  0  0
  152.1610  142.1079  158.9255 C   0  0  0  0  0  0  0  0  0  0  0  0
  152.7395  142.9611  159.8925 C   0  0  0  0  0  0  0  0  0  0  0  0
  152.5847  144.3595  159.7941 C   0  0  0  0  0  0  0  0  0  0  0  0
  151.8504  144.9228  158.7305 C   0  0  0  0  0  0  0  0  0  0  0  0
  151.2662  144.0899  157.7569 C   0  0  0  0  0  0  0  0  0  0  0  0
  151.4245  142.6944  157.8591 C   0  0  0  0  0  0  0  0  0  0  0  0
  150.9875  141.6208  157.0878 N   0  0  0  0  0  0  0  0  0  0  0  0
  150.1715  141.7385  155.8835 C   0  0  0  0  0  0  0  0  0  0  0  0
  148.7132  141.2890  156.1051 C   0  0  1  0  0  0  0  0  0  0  0  0
  148.0060  142.2883  156.8116 O   0  0  0  0  0  0  0  0  0  0  0  0
  147.9745  140.9806  154.7886 C   0  0  0  0  0  0  0  0  0  0  0  0
  146.7321  140.5699  155.0442 F   0  0  0  0  0  0  0  0  0  0  0  0
  147.9368  142.0538  153.9981 F   0  0  0  0  0  0  0  0  0  0  0  0
  148.6069  139.9995  154.1446 F   0  0  0  0  0  0  0  0  0  0  0  0
  151.1561  137.0340  153.4264 H   0  0  0  0  0  0  0  0  0  0  0  0
  150.5340  137.1507  155.4113 H   0  0  0  0  0  0  0  0  0  0  0  0
  152.1959  136.7597  155.8201 H   0  0  0  0  0  0  0  0  0  0  0  0
  152.8637  139.0971  155.7769 H   0  0  0  0  0  0  0  0  0  0  0  0
  151.3445  139.6012  155.0923 H   0  0  0  0  0  0  0  0  0  0  0  0
  150.1985  138.8465  157.2423 H   0  0  0  0  0  0  0  0  0  0  0  0
  151.7490  138.4244  157.8954 H   0  0  0  0  0  0  0  0  0  0  0  0
  153.3032  142.5387  160.7110 H   0  0  0  0  0  0  0  0  0  0  0  0
  153.0309  145.0030  160.5381 H   0  0  0  0  0  0  0  0  0  0  0  0
  151.7357  145.9948  158.6627 H   0  0  0  0  0  0  0  0  0  0  0  0
  150.7036  144.5193  156.9413 H   0  0  0  0  0  0  0  0  0  0  0  0
  150.2160  142.7516  155.4899 H   0  0  0  0  0  0  0  0  0  0  0  0
  150.6288  141.1158  155.1140 H   0  0  0  0  0  0  0  0  0  0  0  0
  148.7104  140.3906  156.7237 H   0  0  0  0  0  0  0  0  0  0  0  0
  148.3769  143.1291  156.5919 H   0  0  0  0  0  0  0  0  0  0  0  0
  1  2  1  0  0  0  0
  1 21  1  0  0  0  0
  2  3  1  0  0  0  0
  2 22  1  0  0  0  0
  2 23  1  0  0  0  0
  3  4  1  0  0  0  0
  3 24  1  0  0  0  0
  3 25  1  0  0  0  0
  4  5  1  0  0  0  0
  4 26  1  0  0  0  0
  4 27  1  0  0  0  0
  5 13  1  0  0  0  0
  5  6  2  0  0  0  0
  6  7  1  0  0  0  0
  7 12  2  0  0  0  0
  7  8  1  0  0  0  0
  8  9  2  0  0  0  0
  8 28  1  0  0  0  0
  9 10  1  0  0  0  0
  9 29  1  0  0  0  0
 10 11  2  0  0  0  0
 10 30  1  0  0  0  0
 11 12  1  0  0  0  0
 11 31  1  0  0  0  0
 12 13  1  0  0  0  0
 13 14  1  0  0  0  0
 14 15  1  0  0  0  0
 14 32  1  0  0  0  0
 14 33  1  0  0  0  0
 15 16  1  0  0  0  0
 15 17  1  0  0  0  0
 15 34  1  0  0  0  0
 16 35  1  0  0  0  0
 17 18  1  0  0  0  0
 17 19  1  0  0  0  0
 17 20  1  0  0  0  0
M  END
> <s_m_source_file>
AV-unprocessed.smi

> <i_m_source_file_index>
2787

> <i_lp_mmshare_version>
43012

> <i_f3d_flags>
0

> <s_epik_input>
W09IXVtDSDJdW0NIMl1bQ0gyXWMobjEpbihbQ0gyXVtDQEhdKFtPSF0pQyhGKShGKUYpYyhjMTIpW2NIXVtjSF1bY0hdW2NIXTI=

> <s_epik_cmdline>
J2VwaWtfcHl0aG9uJywgJy1waCcsICc3LjAnLCAnLXRuJywgJzgnLCAnLW1hJywgJzIwMCcsICctbWV0YWxfYmluZGluZycsICctaW1hZScsICc8aW5maWxlLm1hZT4nLCAnLW9tYWUnLCAnPG91dGZpbGUubWFlPic=

> <r_epik_Ionization_Penalty>
0.137914

> <r_epik_Ionization_Penalty_Charging>
0

> <r_epik_Ionization_Penalty_Neutral>
0.137914

> <r_epik_State_Penalty>
0.107668

> <r_epik_Charging_Adjusted_Penalty>
0.107668

> <i_epik_Tot_Q>
0

> <i_epik_Tot_abs_Q>
0

> <r_epik_Metal_State_Penalty>
0.000111872

> <b_epik_Metal_Only>
0

> <s_lp_Force_Field>
OPLS_2005

> <r_lp_Energy>
11.7706

> <b_lp_Chiralities_Consistent>
1

> <s_lp_Variant>
AV-unprocessed.smi:2787-2

> <Gold.Version>
5.8.1

> <Gold.Id.Protein>
6NUR|6NUR_protein|mol2

> <Gold.PLP.Fitness>
49.2579

> <Gold.PLP.PLP>
-42.7841

> <Gold.PLP.part.hbond>
-3.0000

> <Gold.PLP.part.metal>
0.0000

> <Gold.PLP.part.buried>
-3.1643

> <Gold.PLP.part.nonpolar>
-36.6661

> <Gold.PLP.part.repulsive>
0.0000

> <Gold.PLP.ligand.clash>
0.0000

> <Gold.PLP.ligand.torsion>
0.3104

> <Gold.PLP.Chemscore.Hbond>
2.3276

> <Gold.PLP.Chemscore.CHOScore>
0.0000

> <Gold.PLP.Chemscore.Metal>
0.0000

> <Gold.Chemscore.Hbonds>
donor molecule, donor type, donor heavy atom, donor atom, acceptor molecule, acceptor atom, score
      L1  H     1    21       P1  7949  0.31
      L1  H    16    35       P1  8028  1.00
      P1  H 10752 10765       L1     1  0.95

> <Gold.PLP.Chemscore.Internal.Correction>
0.1119

> <Gold.Rescore>
     Score         DG    S(hbond)    S(metal)    S(lipo)     H(rot)  DE(clash)    DE(int)     intcor
     14.04     -14.47       1.69        0.00     103.74       3.44       0.02       0.41       ----

> <Gold.Chemscore.Fitness>
14.0384

> <Gold.Chemscore.DG>
-14.4683

> <Gold.Chemscore.ZeroCoef>
-5.4800

> <Gold.Chemscore.Hbond>
1.6915

> <Gold.Chemscore.Metal>
0.0000

> <Gold.Chemscore.Lipo>
103.7364

> <Gold.Chemscore.Internal_Hbond>
0.0000

> <Gold.Chemscore.DEClash>
0.0228

> <Gold.Chemscore.DEInternal>
0.4071

> <Gold.Chemscore.Rot>
3.4369

> <Gold.Chemscore.Internal.Correction>
   9.000000E+99

> <Gold.Chemscore.Hbonds>
donor molecule, donor type, donor heavy atom, donor atom, acceptor molecule, acceptor atom, score
      L1  H     1    21       P1  7949  0.16
      L1  H    16    35       P1  8028  0.55
      P1  H 10752 10765       L1     1  0.06

> <Gold.Chemscore.Hbond.Weighted>
-5.6495

> <Gold.Chemscore.Metal.Weighted>
-0.0000

> <Gold.Chemscore.Lipo.Weighted>
-12.1372

> <Gold.Chemscore.Internal_Hbond.Weighted>
0.0000

> <Gold.Chemscore.DEClash.Weighted>
0.0228

> <Gold.Chemscore.DEInternal.Weighted>
0.4071

> <Gold.Chemscore.Rot.Weighted>
8.7984

> <Gold.Chemscore.Internal.Correction.Weighted>
   9.000000E+99

> <Gold.Protein.RotatedTorsions>
[ 6907 6896 6895 6894 ] final  -36.91 input  -60.11 | X-H torsion
[ 7974 7965 7964 7962 ] final -107.48 input  175.53 | X-H torsion
[ 8008 7997 7996 7995 ] final  -83.24 input   59.86 | X-H torsion
[ 10167 10162 10161 10158 ] final  -39.55 input  -65.29 | X-H torsion
[ 10718 10713 10712 10709 ] final -124.78 input   66.30 | X-H torsion
[ 10763 10752 10751 10750 ] final  140.87 input  -60.55 | X-H torsion
[ 11005 11000 10999 10996 ] final   43.35 input  -57.11 | X-H torsion

> <Gold.Protein.ActiveResidues>
 VAL166  LYS551  ARG553  GLY616  TRP617  ASP618  TYR619  PRO620  LYS621  CYS622 
 ASP623  PHE694  ASN695  SER759  ASP760  ASP761  ALA762  ILE779  LEU786  VAL792 
 PHE793  MET794  SER795  GLU796  ALA797  LYS798  CYS799  TRP800  GLU811  SER814 

> <Gold.Protein.RotatedAtoms>
  151.0213  134.9471  159.8060 H   0  0  0  0  0  0  0  0  0  0  0  0  # atno 6907 bound_to 6896
  152.5325  134.2900  159.9049 H   0  0  0  0  0  0  0  0  0  0  0  0  # atno 6908 bound_to 6896
  151.2907  133.4124  159.2667 H   0  0  0  0  0  0  0  0  0  0  0  0  # atno 6909 bound_to 6896
  145.2048  140.9071  143.3349 H   0  0  0  0  0  0  0  0  0  0  0  0  # atno 7974 bound_to 7965
  154.6170  140.0622  156.9566 H   0  0  0  0  0  0  0  0  0  0  0  0  # atno 8008 bound_to 7997
  155.1880  140.3305  155.4345 H   0  0  0  0  0  0  0  0  0  0  0  0  # atno 8009 bound_to 7997
  156.2410  140.1886  156.6972 H   0  0  0  0  0  0  0  0  0  0  0  0  # atno 8010 bound_to 7997
  140.7061  143.3207  151.2798 H   0  0  0  0  0  0  0  0  0  0  0  0  # atno 10167 bound_to 10162
  156.1618  130.6607  151.0060 H   0  0  0  0  0  0  0  0  0  0  0  0  # atno 10718 bound_to 10713
  153.9298  135.2991  155.3446 H   0  0  0  0  0  0  0  0  0  0  0  0  # atno 10763 bound_to 10752
  154.7532  135.4970  153.9330 H   0  0  0  0  0  0  0  0  0  0  0  0  # atno 10764 bound_to 10752
  153.1097  135.6756  153.9626 H   0  0  0  0  0  0  0  0  0  0  0  0  # atno 10765 bound_to 10752
  140.1653  134.4290  155.8291 H   0  0  0  0  0  0  0  0  0  0  0  0  # atno 11005 bound_to 11000
  144.9913  139.3687  143.6213 LP  0  0  0  0  0  0  0  0  0  0  0  0  # atno 17320 bound_to 7965
  146.3410  139.9097  142.8782 LP  0  0  0  0  0  0  0  0  0  0  0  0  # atno 17321 bound_to 7965
  139.6660  144.0103  152.2723 LP  0  0  0  0  0  0  0  0  0  0  0  0  # atno 17342 bound_to 10162
  139.9686  144.6509  150.8010 LP  0  0  0  0  0  0  0  0  0  0  0  0  # atno 17343 bound_to 10162
  157.6738  131.0855  150.7546 LP  0  0  0  0  0  0  0  0  0  0  0  0  # atno 17370 bound_to 10713
  156.7609  130.4798  149.5437 LP  0  0  0  0  0  0  0  0  0  0  0  0  # atno 17371 bound_to 10713
  141.2213  133.6931  156.7667 LP  0  0  0  0  0  0  0  0  0  0  0  0  # atno 17394 bound_to 11000
  140.2441  134.8591  157.3603 LP  0  0  0  0  0  0  0  0  0  0  0  0  # atno 17395 bound_to 11000

$$$$
