#       Name:                AV-unprocessed.smi:1677
#       Creating user name   scv26
#       Creation time:       Fri Mar 27 07:47:07 2020


#       File generated by GOLD software.
#

@<TRIPOS>MOLECULE
AV-unprocessed.smi:1677
    39    40     1
SMALL
NO_CHARGES


@<TRIPOS>ATOM
      1 ****         0.3996  -2.9666   2.2297 C.3            1 S1                 0.0000
      2 ****         0.6197  -2.2317   0.9008 C.3            1 S1                 0.0000
      3 ****         2.1204  -2.1341   0.5540 C.3            1 S1                 0.0000
      4 ****         2.3550  -1.5716  -0.7635 N.pl3          1 S1                 0.0000
      5 ****         2.1925  -2.2075  -1.9870 C.2            1 S1                 0.0000
      6 ****         2.5179  -1.2849  -2.9554 C.2            1 S1                 0.0000
      7 ****         2.8871  -0.0839  -2.3543 N.2            1 S1                 0.0000
      8 ****         2.7691  -0.3310  -1.0564 C.2            1 S1                 0.0000
      9 ****         0.0208  -0.9006   0.9893 N.am           1 S1                 0.0000
     10 ****        -0.6894  -0.2942   0.0242 C.2            1 S1                 0.0000
     11 ****        -0.9517  -0.8217  -1.0570 O.2            1 S1                 0.0000
     12 ****        -1.1597   1.1352   0.3196 C.3            1 S1                 0.0000
     13 ****        -0.4299   2.1531  -0.5865 C.3            1 S1                 0.0000
     14 ****        -1.0467   3.5382  -0.5038 C.2            1 S1                 0.0000
     15 ****        -2.2654   3.7751   0.0111 C.2            1 S1                 0.0000
     16 ****        -3.1656   2.6846   0.5646 C.3            1 S1                 0.0000
     17 ****        -2.6877   1.2751   0.1669 C.3            1 S1                 0.0000
     18 ****         0.8058  -3.9777   2.1899 H              1 S1                 0.0000
     19 ****        -0.6628  -3.0490   2.4620 H              1 S1                 0.0000
     20 ****         0.8832  -2.4462   3.0571 H              1 S1                 0.0000
     21 ****         0.1192  -2.8144   0.1253 H              1 S1                 0.0000
     22 ****         2.6482  -1.5309   1.2943 H              1 S1                 0.0000
     23 ****         2.5756  -3.1250   0.5779 H              1 S1                 0.0000
     24 ****         1.8611  -3.2325  -2.0648 H              1 S1                 0.0000
     25 ****         2.5150  -1.3922  -4.0301 H              1 S1                 0.0000
     26 ****         2.9792   0.4117  -0.3008 H              1 S1                 0.0000
     27 ****         0.1829  -0.3876   1.8439 H              1 S1                 0.0000
     28 ****        -0.9117   1.3674   1.3572 H              1 S1                 0.0000
     29 ****         0.6188   2.2208  -0.2945 H              1 S1                 0.0000
     30 ****        -0.4470   1.8393  -1.6313 H              1 S1                 0.0000
     31 ****        -0.4613   4.3565  -0.8967 H              1 S1                 0.0000
     32 ****        -2.6430   4.7863   0.0538 H              1 S1                 0.0000
     33 ****        -3.1864   2.7831   1.6502 H              1 S1                 0.0000
     34 ****        -4.1846   2.8443   0.2113 H              1 S1                 0.0000
     35 ****        -2.9693   1.0840  -0.8700 H              1 S1                 0.0000
     36 ****        -3.2075   0.5284   0.7688 H              1 S1                 0.0000
     37 ****         3.1738   0.7655  -2.7973 LP             1 S1                 0.0000
     38 ****        -0.6315  -1.7488  -1.2518 LP             1 S1                 0.0000
     39 ****        -1.4851  -0.3230  -1.7403 LP             1 S1                 0.0000
@<TRIPOS>BOND
    1    1    2 1     
    2    1   18 1     
    3    1   19 1     
    4    1   20 1     
    5    2    3 1     
    6    2    9 1     
    7    2   21 1     
    8    3    4 1     
    9    3   22 1     
   10    3   23 1     
   11    4    8 1     
   12    4    5 1     
   13    5    6 2     
   14    5   24 1     
   15    6    7 1     
   16    6   25 1     
   17    7    8 2     
   18    8   26 1     
   19    9   10 am    
   20    9   27 1     
   21   10   11 2     
   22   10   12 1     
   23   12   17 1     
   24   12   13 1     
   25   12   28 1     
   26   13   14 1     
   27   13   29 1     
   28   13   30 1     
   29   14   15 2     
   30   14   31 1     
   31   15   16 1     
   32   15   32 1     
   33   16   17 1     
   34   16   33 1     
   35   16   34 1     
   36   17   35 1     
   37   17   36 1     
   38    7   37 1     
   39   11   38 1     
   40   11   39 1     
@<TRIPOS>SUBSTRUCTURE
      1 S1             1
@<TRIPOS>SET
LONE_PAIRS      STATIC     ATOMS    <user>   **** ""
3 37 38 39
DONOR_HYDROGENS      STATIC     ATOMS    <user>   **** ""
1 27
ATOM$BLUE        STATIC     ATOMS    COLORGROUP SYSTEM
3 37 38 39
ATOM$RED        STATIC     ATOMS    COLORGROUP SYSTEM
1 27
