AV-unprocessed.smi:3208|AV-procd|sdf|12260|dock4
  -GOLD-   2272018 93D 1   1.00000     0.00000
 Structure written by MMmdl.
 30 30  0  0  0  0  0  0  0  0  1 V2000
  146.4439  142.2863  154.9121 C   0  0  0  0  0  0  0  0  0  0  0  0
  147.3186  142.0568  153.9199 C   0  0  0  0  0  0  0  0  0  0  0  0
  148.4102  141.0049  153.9332 C   0  0  0  0  0  0  0  0  0  0  0  0
  149.4269  141.3082  154.8838 O   0  0  0  0  0  0  0  0  0  0  0  0
  150.5106  140.3838  154.9431 C   0  0  2  0  0  0  0  0  0  0  0  0
  149.9113  138.9731  155.0445 C   0  0  0  0  0  0  0  0  0  0  0  0
  151.4220  140.6989  156.1410 C   0  0  0  0  0  0  0  0  0  0  0  0
  152.4025  139.9890  156.3672 O   0  0  0  0  0  0  0  0  0  0  0  0
  151.0551  141.7575  156.8871 N   0  0  0  0  0  0  0  0  0  0  0  0
  151.6827  142.2857  158.0487 C   0  0  0  0  0  0  0  0  0  0  0  0
  152.1520  141.5075  159.0563 N   0  0  0  0  0  0  0  0  0  0  0  0
  152.7365  142.0881  160.1248 C   0  0  0  0  0  0  0  0  0  0  0  0
  152.8903  143.4797  160.2556 C   0  0  0  0  0  0  0  0  0  0  0  0
  152.4094  144.2992  159.2197 C   0  0  0  0  0  0  0  0  0  0  0  0
  151.7976  143.6985  158.1010 C   0  0  0  0  0  0  0  0  0  0  0  0
  151.3259  144.4900  157.0903 O   0  0  0  0  0  0  0  0  0  0  0  0
  146.4581  141.7126  155.8271 H   0  0  0  0  0  0  0  0  0  0  0  0
  145.6955  143.0592  154.8185 H   0  0  0  0  0  0  0  0  0  0  0  0
  147.2602  142.6599  153.0258 H   0  0  0  0  0  0  0  0  0  0  0  0
  147.9531  140.0428  154.1679 H   0  0  0  0  0  0  0  0  0  0  0  0
  148.8244  140.9368  152.9271 H   0  0  0  0  0  0  0  0  0  0  0  0
  151.0854  140.4418  154.0168 H   0  0  0  0  0  0  0  0  0  0  0  0
  150.6916  138.2147  155.1169 H   0  0  0  0  0  0  0  0  0  0  0  0
  149.3116  138.7450  154.1631 H   0  0  0  0  0  0  0  0  0  0  0  0
  149.2636  138.8727  155.9164 H   0  0  0  0  0  0  0  0  0  0  0  0
  150.2191  142.2419  156.5940 H   0  0  0  0  0  0  0  0  0  0  0  0
  153.0919  141.4231  160.8978 H   0  0  0  0  0  0  0  0  0  0  0  0
  153.3642  143.9061  161.1273 H   0  0  0  0  0  0  0  0  0  0  0  0
  152.5084  145.3730  159.2838 H   0  0  0  0  0  0  0  0  0  0  0  0
  150.3829  144.4868  157.0264 H   0  0  0  0  0  0  0  0  0  0  0  0
  1  2  2  0  0  0  0
  1 17  1  0  0  0  0
  1 18  1  0  0  0  0
  2  3  1  0  0  0  0
  2 19  1  0  0  0  0
  3  4  1  0  0  0  0
  3 20  1  0  0  0  0
  3 21  1  0  0  0  0
  4  5  1  0  0  0  0
  5  6  1  0  0  0  0
  5  7  1  0  0  0  0
  5 22  1  0  0  0  0
  6 23  1  0  0  0  0
  6 24  1  0  0  0  0
  6 25  1  0  0  0  0
  7  8  2  0  0  0  0
  7  9  1  0  0  0  0
  9 10  1  0  0  0  0
  9 26  1  0  0  0  0
 10 15  1  0  0  0  0
 10 11  2  0  0  0  0
 11 12  1  0  0  0  0
 12 13  2  0  0  0  0
 12 27  1  0  0  0  0
 13 14  1  0  0  0  0
 13 28  1  0  0  0  0
 14 15  2  0  0  0  0
 14 29  1  0  0  0  0
 15 16  1  0  0  0  0
 16 30  1  0  0  0  0
M  END
> <s_m_source_file>
AV-unprocessed.smi

> <i_m_source_file_index>
3208

> <i_lp_mmshare_version>
43012

> <i_f3d_flags>
0

> <s_epik_input>
W0NIMl09W0NIXVtDSDJdT1tDQEhdKFtDSDNdKUMoPU8pW05IXWMxbltjSF1bY0hdW2NIXWMxW09IXQ==

> <s_epik_cmdline>
J2VwaWtfcHl0aG9uJywgJy1waCcsICc3LjAnLCAnLXRuJywgJzgnLCAnLW1hJywgJzIwMCcsICctbWV0YWxfYmluZGluZycsICctaW1hZScsICc8aW5maWxlLm1hZT4nLCAnLW9tYWUnLCAnPG91dGZpbGUubWFlPic=

> <r_lp_tautomer_probability>
0.43658

> <r_epik_Ionization_Penalty>
0.0201706

> <r_epik_Ionization_Penalty_Charging>
0

> <r_epik_Ionization_Penalty_Neutral>
0.0201706

> <r_epik_State_Penalty>
0.426656

> <r_epik_Charging_Adjusted_Penalty>
0.426656

> <i_epik_Tot_Q>
0

> <i_epik_Tot_abs_Q>
0

> <r_epik_Metal_State_Penalty>
0.386934

> <b_epik_Metal_Only>
0

> <s_lp_Force_Field>
OPLS_2005

> <r_lp_Energy>
6.86977

> <b_lp_Chiralities_Consistent>
1

> <s_lp_Variant>
AV-unprocessed.smi:3208-1

> <Gold.Version>
5.8.1

> <Gold.Id.Protein>
6NUR|6NUR_protein|mol2

> <Gold.PLP.Fitness>
40.4774

> <Gold.PLP.PLP>
-35.5273

> <Gold.PLP.part.hbond>
-2.1041

> <Gold.PLP.part.metal>
0.0000

> <Gold.PLP.part.buried>
-2.2061

> <Gold.PLP.part.nonpolar>
-30.7131

> <Gold.PLP.part.repulsive>
0.2053

> <Gold.PLP.ligand.clash>
0.0000

> <Gold.PLP.ligand.torsion>
0.4364

> <Gold.PLP.Chemscore.Hbond>
1.9280

> <Gold.PLP.Chemscore.CHOScore>
0.0000

> <Gold.PLP.Chemscore.Metal>
0.0000

> <Gold.Chemscore.Hbonds>
donor molecule, donor type, donor heavy atom, donor atom, acceptor molecule, acceptor atom, score
      L1  H    16    30       P1  8028  0.82
      P1  H  7997  8008       L1     8  1.00

> <Gold.PLP.Chemscore.Internal.Correction>
0.0388

> <Gold.Rescore>
     Score         DG    S(hbond)    S(metal)    S(lipo)     H(rot)  DE(clash)    DE(int)     intcor
     14.88     -15.56       1.99        0.00      78.32       2.24       0.05       0.63       ----

> <Gold.Chemscore.Fitness>
14.8840

> <Gold.Chemscore.DG>
-15.5584

> <Gold.Chemscore.ZeroCoef>
-5.4800

> <Gold.Chemscore.Hbond>
1.9943

> <Gold.Chemscore.Metal>
0.0000

> <Gold.Chemscore.Lipo>
78.3186

> <Gold.Chemscore.Internal_Hbond>
0.0000

> <Gold.Chemscore.DEClash>
0.0456

> <Gold.Chemscore.DEInternal>
0.6288

> <Gold.Chemscore.Rot>
2.2445

> <Gold.Chemscore.Internal.Correction>
   9.000000E+99

> <Gold.Chemscore.Hbonds>
donor molecule, donor type, donor heavy atom, donor atom, acceptor molecule, acceptor atom, score
      L1  H    16    30       P1  8028  0.61
      P1  H  7997  8008       L1     8  0.99

> <Gold.Chemscore.Hbond.Weighted>
-6.6610

> <Gold.Chemscore.Metal.Weighted>
-0.0000

> <Gold.Chemscore.Lipo.Weighted>
-9.1633

> <Gold.Chemscore.Internal_Hbond.Weighted>
0.0000

> <Gold.Chemscore.DEClash.Weighted>
0.0456

> <Gold.Chemscore.DEInternal.Weighted>
0.6288

> <Gold.Chemscore.Rot.Weighted>
5.7458

> <Gold.Chemscore.Internal.Correction.Weighted>
   9.000000E+99

> <Gold.Protein.RotatedTorsions>
[ 6907 6896 6895 6894 ] final   28.26 input  -60.11 | X-H torsion
[ 7974 7965 7964 7962 ] final  112.59 input  175.53 | X-H torsion
[ 8008 7997 7996 7995 ] final  -41.98 input   59.86 | X-H torsion
[ 10167 10162 10161 10158 ] final -144.77 input  -65.29 | X-H torsion
[ 10718 10713 10712 10709 ] final   81.96 input   66.30 | X-H torsion
[ 10763 10752 10751 10750 ] final  -38.25 input  -60.55 | X-H torsion
[ 11005 11000 10999 10996 ] final   58.61 input  -57.11 | X-H torsion

> <Gold.Protein.ActiveResidues>
 VAL166  LYS551  ARG553  GLY616  TRP617  ASP618  TYR619  PRO620  LYS621  CYS622 
 ASP623  PHE694  ASN695  SER759  ASP760  ASP761  ALA762  ILE779  LEU786  VAL792 
 PHE793  MET794  SER795  GLU796  ALA797  LYS798  CYS799  TRP800  GLU811  SER814 

> <Gold.Protein.RotatedAtoms>
  152.0143  134.9858  160.0568 H   0  0  0  0  0  0  0  0  0  0  0  0  # atno 6907 bound_to 6896
  152.1398  133.4452  159.4770 H   0  0  0  0  0  0  0  0  0  0  0  0  # atno 6908 bound_to 6896
  150.6864  134.2237  159.4450 H   0  0  0  0  0  0  0  0  0  0  0  0  # atno 6909 bound_to 6896
  145.2276  139.2834  143.4185 H   0  0  0  0  0  0  0  0  0  0  0  0  # atno 7974 bound_to 7965
  154.4001  140.1485  156.3280 H   0  0  0  0  0  0  0  0  0  0  0  0  # atno 8008 bound_to 7997
  155.8469  140.3459  155.5647 H   0  0  0  0  0  0  0  0  0  0  0  0  # atno 8009 bound_to 7997
  155.8026  140.0872  157.1939 H   0  0  0  0  0  0  0  0  0  0  0  0  # atno 8010 bound_to 7997
  139.7868  143.8023  152.2645 H   0  0  0  0  0  0  0  0  0  0  0  0  # atno 10167 bound_to 10162
  157.6846  131.0027  150.2303 H   0  0  0  0  0  0  0  0  0  0  0  0  # atno 10718 bound_to 10713
  153.9097  135.6793  153.4751 H   0  0  0  0  0  0  0  0  0  0  0  0  # atno 10763 bound_to 10752
  153.1085  135.4794  154.8990 H   0  0  0  0  0  0  0  0  0  0  0  0  # atno 10764 bound_to 10752
  154.7533  135.3190  154.8472 H   0  0  0  0  0  0  0  0  0  0  0  0  # atno 10765 bound_to 10752
  140.0365  134.5936  155.9438 H   0  0  0  0  0  0  0  0  0  0  0  0  # atno 11005 bound_to 11000
  146.3361  140.2601  142.8601 LP  0  0  0  0  0  0  0  0  0  0  0  0  # atno 17320 bound_to 7965
  144.9706  140.8365  143.5457 LP  0  0  0  0  0  0  0  0  0  0  0  0  # atno 17321 bound_to 7965
  139.8102  144.7339  150.9707 LP  0  0  0  0  0  0  0  0  0  0  0  0  # atno 17342 bound_to 10162
  140.7820  143.4258  151.0770 LP  0  0  0  0  0  0  0  0  0  0  0  0  # atno 17343 bound_to 10162
  156.2937  130.3749  149.7816 LP  0  0  0  0  0  0  0  0  0  0  0  0  # atno 17370 bound_to 10713
  156.5468  130.8324  151.3287 LP  0  0  0  0  0  0  0  0  0  0  0  0  # atno 17371 bound_to 10713
  141.1860  133.6556  156.5220 LP  0  0  0  0  0  0  0  0  0  0  0  0  # atno 17394 bound_to 11000
  140.4140  134.7247  157.4852 LP  0  0  0  0  0  0  0  0  0  0  0  0  # atno 17395 bound_to 11000

$$$$
