AV-unprocessed.smi:212|AV-procd|sdf|1621|dock10
  -GOLD-   2262019553D 1   1.00000     0.00000
 Structure written by MMmdl.
 65 68  0  0  0  0  0  0  0  0  2 V2000
  150.2836  132.4731  154.9314 C   0  0  0  0  0  0  0  0  0  0  0  0
  148.7687  132.3574  154.6722 C   0  0  2  0  0  0  0  0  0  0  0  0
  148.3673  132.9009  153.2858 C   0  0  0  0  0  0  0  0  0  0  0  0
  146.9161  132.7029  153.0388 N   0  3  2  0  0  0  0  0  0  0  0  0
  146.4956  133.0949  151.6672 C   0  0  0  0  0  0  0  0  0  0  0  0
  145.8280  131.9328  150.8953 C   0  0  0  0  0  0  0  0  0  0  0  0
  144.3870  131.7261  151.3918 C   0  0  0  0  0  0  0  0  0  0  0  0
  145.8383  132.1617  149.3723 C   0  0  0  0  0  0  0  0  0  0  0  0
  146.5237  130.7328  151.1707 O   0  0  0  0  0  0  0  0  0  0  0  0
  146.0749  133.3056  154.1051 C   0  0  0  0  0  0  0  0  0  0  0  0
  146.4966  132.8120  155.5046 C   0  0  0  0  0  0  0  0  0  0  0  0
  147.9350  132.9426  155.7280 N   0  0  0  0  0  0  0  0  0  0  0  0
  148.3338  134.1211  156.2639 C   0  0  0  0  0  0  0  0  0  0  0  0
  149.0565  134.1416  157.4136 N   0  0  0  0  0  0  0  0  0  0  0  0
  149.4355  135.3086  157.9430 C   0  0  0  0  0  0  0  0  0  0  0  0
  149.1981  136.5433  157.4958 N   0  0  0  0  0  0  0  0  0  0  0  0
  148.4666  136.5260  156.3454 C   0  0  0  0  0  0  0  0  0  0  0  0
  148.0037  135.3654  155.6652 C   0  0  0  0  0  0  0  0  0  0  0  0
  147.3035  135.7279  154.5230 N   0  0  0  0  0  0  0  0  0  0  0  0
  147.3497  137.0322  154.5269 C   0  0  0  0  0  0  0  0  0  0  0  0
  148.0121  137.5979  155.5950 N   0  0  0  0  0  0  0  0  0  0  0  0
  148.2036  139.0209  155.8442 C   0  0  0  0  0  0  0  0  0  0  0  0
  148.9243  139.7802  154.6981 C   0  0  1  0  0  0  0  0  0  0  0  0
  148.5143  141.2726  154.6883 C   0  0  0  0  0  0  0  0  0  0  0  0
  147.1184  141.4363  154.5503 O   0  0  0  0  0  0  0  0  0  0  0  0
  150.4647  139.5785  154.7462 C   0  0  2  0  0  0  0  0  0  0  0  0
  150.9439  138.1385  154.8150 C   0  0  0  0  0  0  0  0  0  0  0  0
  152.3782  138.2901  155.3112 C   0  0  0  0  0  0  0  0  0  0  0  0
  152.3855  139.4620  156.1186 O   0  0  0  0  0  0  0  0  0  0  0  0
  151.1329  140.1292  156.0117 C   0  0  0  0  0  0  0  0  0  0  0  0
  150.8484  131.9280  154.1748 H   0  0  0  0  0  0  0  0  0  0  0  0
  150.5504  132.0525  155.9015 H   0  0  0  0  0  0  0  0  0  0  0  0
  150.6242  133.5089  154.9077 H   0  0  0  0  0  0  0  0  0  0  0  0
  148.5395  131.2907  154.6783 H   0  0  0  0  0  0  0  0  0  0  0  0
  148.6133  133.9604  153.1986 H   0  0  0  0  0  0  0  0  0  0  0  0
  148.9360  132.3788  152.5151 H   0  0  0  0  0  0  0  0  0  0  0  0
  145.8308  133.9597  151.7093 H   0  0  0  0  0  0  0  0  0  0  0  0
  147.3641  133.4292  151.0970 H   0  0  0  0  0  0  0  0  0  0  0  0
  143.7762  132.6115  151.2114 H   0  0  0  0  0  0  0  0  0  0  0  0
  144.3596  131.5212  152.4630 H   0  0  0  0  0  0  0  0  0  0  0  0
  143.9061  130.8882  150.8854 H   0  0  0  0  0  0  0  0  0  0  0  0
  145.3215  133.0858  149.1107 H   0  0  0  0  0  0  0  0  0  0  0  0
  145.3395  131.3472  148.8458 H   0  0  0  0  0  0  0  0  0  0  0  0
  146.8525  132.2283  148.9772 H   0  0  0  0  0  0  0  0  0  0  0  0
  147.3606  130.7608  150.7309 H   0  0  0  0  0  0  0  0  0  0  0  0
  146.1465  134.3921  154.0480 H   0  0  0  0  0  0  0  0  0  0  0  0
  145.0268  133.0584  153.9365 H   0  0  0  0  0  0  0  0  0  0  0  0
  145.9417  133.3475  156.2767 H   0  0  0  0  0  0  0  0  0  0  0  0
  146.2345  131.7592  155.6143 H   0  0  0  0  0  0  0  0  0  0  0  0
  150.0090  135.2453  158.8560 H   0  0  0  0  0  0  0  0  0  0  0  0
  146.8920  137.6212  153.7458 H   0  0  0  0  0  0  0  0  0  0  0  0
  147.2341  139.4703  156.0597 H   0  0  0  0  0  0  0  0  0  0  0  0
  148.7813  139.1209  156.7640 H   0  0  0  0  0  0  0  0  0  0  0  0
  148.5606  139.3385  153.7689 H   0  0  0  0  0  0  0  0  0  0  0  0
  148.7900  141.7470  155.6303 H   0  0  0  0  0  0  0  0  0  0  0  0
  149.0269  141.8157  153.8936 H   0  0  0  0  0  0  0  0  0  0  0  0
  146.8290  140.9364  153.8023 H   0  0  0  0  0  0  0  0  0  0  0  0
  150.9245  140.0408  153.8718 H   0  0  0  0  0  0  0  0  0  0  0  0
  150.3571  137.5762  155.5431 H   0  0  0  0  0  0  0  0  0  0  0  0
  150.8906  137.6199  153.8575 H   0  0  0  0  0  0  0  0  0  0  0  0
  152.7191  137.4176  155.8692 H   0  0  0  0  0  0  0  0  0  0  0  0
  153.0579  138.4435  154.4721 H   0  0  0  0  0  0  0  0  0  0  0  0
  151.2710  141.2091  155.9925 H   0  0  0  0  0  0  0  0  0  0  0  0
  150.5410  139.8866  156.8956 H   0  0  0  0  0  0  0  0  0  0  0  0
  146.7660  131.7057  153.0945 H   0  0  0  0  0  0  0  0  0  0  0  0
  1  2  1  0  0  0  0
  1 31  1  0  0  0  0
  1 32  1  0  0  0  0
  1 33  1  0  0  0  0
  2 12  1  0  0  0  0
  2  3  1  0  0  0  0
  2 34  1  0  0  0  0
  3  4  1  0  0  0  0
  3 35  1  0  0  0  0
  3 36  1  0  0  0  0
  4  5  1  0  0  0  0
  4 10  1  0  0  0  0
  4 65  1  0  0  0  0
  5  6  1  0  0  0  0
  5 37  1  0  0  0  0
  5 38  1  0  0  0  0
  6  7  1  0  0  0  0
  6  8  1  0  0  0  0
  6  9  1  0  0  0  0
  7 39  1  0  0  0  0
  7 40  1  0  0  0  0
  7 41  1  0  0  0  0
  8 42  1  0  0  0  0
  8 43  1  0  0  0  0
  8 44  1  0  0  0  0
  9 45  1  0  0  0  0
 10 11  1  0  0  0  0
 10 46  1  0  0  0  0
 10 47  1  0  0  0  0
 11 12  1  0  0  0  0
 11 48  1  0  0  0  0
 11 49  1  0  0  0  0
 12 13  1  0  0  0  0
 13 18  1  0  0  0  0
 13 14  2  0  0  0  0
 14 15  1  0  0  0  0
 15 16  2  0  0  0  0
 15 50  1  0  0  0  0
 16 17  1  0  0  0  0
 17 21  1  0  0  0  0
 17 18  2  0  0  0  0
 18 19  1  0  0  0  0
 19 20  2  0  0  0  0
 20 21  1  0  0  0  0
 20 51  1  0  0  0  0
 21 22  1  0  0  0  0
 22 23  1  0  0  0  0
 22 52  1  0  0  0  0
 22 53  1  0  0  0  0
 23 24  1  0  0  0  0
 23 26  1  0  0  0  0
 23 54  1  0  0  0  0
 24 25  1  0  0  0  0
 24 55  1  0  0  0  0
 24 56  1  0  0  0  0
 25 57  1  0  0  0  0
 26 30  1  0  0  0  0
 26 27  1  0  0  0  0
 26 58  1  0  0  0  0
 27 28  1  0  0  0  0
 27 59  1  0  0  0  0
 27 60  1  0  0  0  0
 28 29  1  0  0  0  0
 28 61  1  0  0  0  0
 28 62  1  0  0  0  0
 29 30  1  0  0  0  0
 30 63  1  0  0  0  0
 30 64  1  0  0  0  0
M  CHG  1   4   1
M  END
> <s_m_source_file>
AV-unprocessed.smi

> <i_m_source_file_index>
212

> <i_lp_mmshare_version>
43012

> <i_f3d_flags>
0

> <s_epik_input>
W0NIM11bQ0BASF0xW0NIMl1OKFtDSDJdQyhbQ0gzXSkoW0NIM10pW09IXSlbQ0gyXVtDSDJdTjFjKG5bY0hdbjIpYyhjMjMpbltjSF1uM1tDSDJdW0NASF0oW0NIMl1bT0hdKVtDQEBIXTRbQ0gyXVtDSDJdT1tDSDJdNA==

> <s_epik_cmdline>
J2VwaWtfcHl0aG9uJywgJy1waCcsICc3LjAnLCAnLXRuJywgJzgnLCAnLW1hJywgJzIwMCcsICctbWV0YWxfYmluZGluZycsICctaW1hZScsICc8aW5maWxlLm1hZT4nLCAnLW9tYWUnLCAnPG91dGZpbGUubWFlPic=

> <r_lp_tautomer_probability>
1

> <r_epik_Ionization_Penalty>
0.00182193

> <r_epik_Ionization_Penalty_Charging>
0.00173996

> <r_epik_Ionization_Penalty_Neutral>
8.19718e-05

> <r_epik_State_Penalty>
-0

> <r_epik_Charging_Adjusted_Penalty>
0.00173996

> <i_epik_Tot_Q>
1

> <i_epik_Tot_abs_Q>
1

> <r_epik_Metal_State_Penalty>
-0

> <b_epik_Metal_Only>
0

> <s_lp_Force_Field>
OPLS_2005

> <r_lp_Energy>
60.0398

> <b_lp_Chiralities_Consistent>
1

> <s_lp_Variant>
AV-unprocessed.smi:212-5

> <Gold.Version>
5.8.1

> <Gold.Id.Protein>
6NUR|6NUR_protein|mol2

> <Gold.PLP.Fitness>
44.0823

> <Gold.PLP.PLP>
-40.2259

> <Gold.PLP.part.hbond>
-2.0000

> <Gold.PLP.part.metal>
0.0000

> <Gold.PLP.part.buried>
-2.7191

> <Gold.PLP.part.nonpolar>
-35.3713

> <Gold.PLP.part.repulsive>
0.8689

> <Gold.PLP.ligand.clash>
0.0742

> <Gold.PLP.ligand.torsion>
1.6178

> <Gold.PLP.Chemscore.Hbond>
2.0000

> <Gold.PLP.Chemscore.CHOScore>
0.0000

> <Gold.PLP.Chemscore.Metal>
0.0000

> <Gold.Chemscore.Hbonds>
donor molecule, donor type, donor heavy atom, donor atom, acceptor molecule, acceptor atom, score
      L1  H     9    45       P1 10747  1.00
      P1  H  7997  8010       L1    29  0.91

> <Gold.PLP.Chemscore.Internal.Correction>
1.1661

> <Gold.Rescore>
     Score         DG    S(hbond)    S(metal)    S(lipo)     H(rot)  DE(clash)    DE(int)     intcor
     10.73     -14.03       1.90        0.00      99.46       3.68       0.34       2.96       ----

> <Gold.Chemscore.Fitness>
10.7254

> <Gold.Chemscore.DG>
-14.0295

> <Gold.Chemscore.ZeroCoef>
-5.4800

> <Gold.Chemscore.Hbond>
1.8973

> <Gold.Chemscore.Metal>
0.0000

> <Gold.Chemscore.Lipo>
99.4565

> <Gold.Chemscore.Internal_Hbond>
0.0000

> <Gold.Chemscore.DEClash>
0.3424

> <Gold.Chemscore.DEInternal>
2.9617

> <Gold.Chemscore.Rot>
3.6812

> <Gold.Chemscore.Internal.Correction>
   9.000000E+99

> <Gold.Chemscore.Hbonds>
donor molecule, donor type, donor heavy atom, donor atom, acceptor molecule, acceptor atom, score
      L1  H     9    45       P1 10747  1.00
      P1  H  7997  8010       L1    29  0.61

> <Gold.Chemscore.Hbond.Weighted>
-6.3370

> <Gold.Chemscore.Metal.Weighted>
-0.0000

> <Gold.Chemscore.Lipo.Weighted>
-11.6364

> <Gold.Chemscore.Internal_Hbond.Weighted>
0.0000

> <Gold.Chemscore.DEClash.Weighted>
0.3424

> <Gold.Chemscore.DEInternal.Weighted>
2.9617

> <Gold.Chemscore.Rot.Weighted>
9.4239

> <Gold.Chemscore.Internal.Correction.Weighted>
   9.000000E+99

> <Gold.Protein.RotatedTorsions>
[ 6907 6896 6895 6894 ] final -109.59 input  -60.11 | X-H torsion
[ 7974 7965 7964 7962 ] final  -39.05 input  175.53 | X-H torsion
[ 8008 7997 7996 7995 ] final   78.71 input   59.86 | X-H torsion
[ 10167 10162 10161 10158 ] final  -99.19 input  -65.29 | X-H torsion
[ 10718 10713 10712 10709 ] final  -28.50 input   66.30 | X-H torsion
[ 10763 10752 10751 10750 ] final -130.09 input  -60.55 | X-H torsion
[ 11005 11000 10999 10996 ] final   74.02 input  -57.11 | X-H torsion

> <Gold.Protein.ActiveResidues>
 VAL166  LYS551  ARG553  GLY616  TRP617  ASP618  TYR619  PRO620  LYS621  CYS622 
 ASP623  PHE694  ASN695  SER759  ASP760  ASP761  ALA762  ILE779  LEU786  VAL792 
 PHE793  MET794  SER795  GLU796  ALA797  LYS798  CYS799  TRP800  GLU811  SER814 

> <Gold.Protein.RotatedAtoms>
  150.7571  133.9506  159.3484 H   0  0  0  0  0  0  0  0  0  0  0  0  # atno 6907 bound_to 6896
  151.7423  135.0849  160.0327 H   0  0  0  0  0  0  0  0  0  0  0  0  # atno 6908 bound_to 6896
  152.3520  133.6154  159.5988 H   0  0  0  0  0  0  0  0  0  0  0  0  # atno 6909 bound_to 6896
  146.0431  140.6582  142.9077 H   0  0  0  0  0  0  0  0  0  0  0  0  # atno 7974 bound_to 7965
  155.8595  140.3454  155.5746 H   0  0  0  0  0  0  0  0  0  0  0  0  # atno 8008 bound_to 7997
  155.7949  140.0877  157.2008 H   0  0  0  0  0  0  0  0  0  0  0  0  # atno 8009 bound_to 7997
  154.4011  140.1476  156.3194 H   0  0  0  0  0  0  0  0  0  0  0  0  # atno 8010 bound_to 7997
  140.2651  143.3381  152.0589 H   0  0  0  0  0  0  0  0  0  0  0  0  # atno 10167 bound_to 10162
  156.4245  130.4433  149.7160 H   0  0  0  0  0  0  0  0  0  0  0  0  # atno 10718 bound_to 10713
  154.8756  135.3874  154.4026 H   0  0  0  0  0  0  0  0  0  0  0  0  # atno 10763 bound_to 10752
  153.4749  135.7030  153.5977 H   0  0  0  0  0  0  0  0  0  0  0  0  # atno 10764 bound_to 10752
  153.4418  135.3854  155.2200 H   0  0  0  0  0  0  0  0  0  0  0  0  # atno 10765 bound_to 10752
  139.9411  134.7397  156.1097 H   0  0  0  0  0  0  0  0  0  0  0  0  # atno 11005 bound_to 11000
  144.7084  140.3944  143.7100 LP  0  0  0  0  0  0  0  0  0  0  0  0  # atno 17320 bound_to 7965
  145.6851  139.1627  143.2679 LP  0  0  0  0  0  0  0  0  0  0  0  0  # atno 17321 bound_to 7965
  139.5005  144.6693  151.6280 LP  0  0  0  0  0  0  0  0  0  0  0  0  # atno 17342 bound_to 10162
  140.5935  143.9738  150.6339 LP  0  0  0  0  0  0  0  0  0  0  0  0  # atno 17343 bound_to 10162
  156.4088  130.7711  151.2723 LP  0  0  0  0  0  0  0  0  0  0  0  0  # atno 17370 bound_to 10713
  157.7508  131.0218  150.3763 LP  0  0  0  0  0  0  0  0  0  0  0  0  # atno 17371 bound_to 10713
  141.1046  133.6665  156.2833 LP  0  0  0  0  0  0  0  0  0  0  0  0  # atno 17394 bound_to 11000
  140.5949  134.5613  157.5507 LP  0  0  0  0  0  0  0  0  0  0  0  0  # atno 17395 bound_to 11000

$$$$
