AV-unprocessed.smi:1841|AV-procd|sdf|7496|dock8
  -GOLD-   22720 9193D 1   1.00000     0.00000
 Structure written by MMmdl.
 40 41  0  0  0  0  0  0  0  0  1 V2000
  145.5910  136.8050  151.0935 C   0  0  0  0  0  0  0  0  0  0  0  0
  146.1907  137.1661  152.3253 O   0  0  0  0  0  0  0  0  0  0  0  0
  146.6727  138.4996  152.3249 C   0  0  0  0  0  0  0  0  0  0  0  0
  147.7282  138.6524  153.4240 C   0  0  0  0  0  0  0  0  0  0  0  0
  148.0809  140.0281  153.5315 O   0  0  0  0  0  0  0  0  0  0  0  0
  148.9685  140.4066  154.5176 C   0  0  0  0  0  0  0  0  0  0  0  0
  149.9455  139.4818  154.9348 C   0  0  0  0  0  0  0  0  0  0  0  0
  150.8598  139.8595  155.9368 C   0  0  0  0  0  0  0  0  0  0  0  0
  150.7653  141.1568  156.4972 C   0  0  0  0  0  0  0  0  0  0  0  0
  151.6235  141.6783  157.5057 N   0  0  0  0  0  0  0  0  0  0  0  0
  152.6162  141.0773  158.1883 C   0  0  0  0  0  0  0  0  0  0  0  0
  152.9486  139.8996  158.0590 O   0  0  0  0  0  0  0  0  0  0  0  0
  153.3564  141.9644  159.2029 C   0  0  2  0  0  0  0  0  0  0  0  0
  152.8684  141.7008  160.6423 C   0  0  0  0  0  0  0  0  0  0  0  0
  152.1666  142.9898  161.0358 C   0  0  0  0  0  0  0  0  0  0  0  0
  151.5622  143.1237  162.0988 O   0  0  0  0  0  0  0  0  0  0  0  0
  152.2962  143.9153  160.0816 N   0  0  0  0  0  0  0  0  0  0  0  0
  151.7381  145.2599  160.1194 C   0  0  0  0  0  0  0  0  0  0  0  0
  153.1095  143.4706  158.9629 C   0  0  0  0  0  0  0  0  0  0  0  0
  149.7501  142.0056  156.0081 C   0  0  0  0  0  0  0  0  0  0  0  0
  148.8717  141.6505  155.0472 N   0  0  0  0  0  0  0  0  0  0  0  0
  145.2343  135.7765  151.1472 H   0  0  0  0  0  0  0  0  0  0  0  0
  146.3061  136.8711  150.2726 H   0  0  0  0  0  0  0  0  0  0  0  0
  144.7376  137.4454  150.8674 H   0  0  0  0  0  0  0  0  0  0  0  0
  147.1228  138.7177  151.3551 H   0  0  0  0  0  0  0  0  0  0  0  0
  145.8589  139.2106  152.4766 H   0  0  0  0  0  0  0  0  0  0  0  0
  147.3458  138.2644  154.3698 H   0  0  0  0  0  0  0  0  0  0  0  0
  148.6119  138.0715  153.1549 H   0  0  0  0  0  0  0  0  0  0  0  0
  149.9963  138.4989  154.4896 H   0  0  0  0  0  0  0  0  0  0  0  0
  151.6083  139.1455  156.2395 H   0  0  0  0  0  0  0  0  0  0  0  0
  151.4560  142.6445  157.7469 H   0  0  0  0  0  0  0  0  0  0  0  0
  154.4271  141.7616  159.1389 H   0  0  0  0  0  0  0  0  0  0  0  0
  152.1848  140.8543  160.7263 H   0  0  0  0  0  0  0  0  0  0  0  0
  153.7071  141.5239  161.3162 H   0  0  0  0  0  0  0  0  0  0  0  0
  152.0779  145.7920  161.0087 H   0  0  0  0  0  0  0  0  0  0  0  0
  150.6484  145.2202  160.1375 H   0  0  0  0  0  0  0  0  0  0  0  0
  152.0415  145.8356  159.2447 H   0  0  0  0  0  0  0  0  0  0  0  0
  154.0509  144.0217  158.9607 H   0  0  0  0  0  0  0  0  0  0  0  0
  152.6057  143.6778  158.0169 H   0  0  0  0  0  0  0  0  0  0  0  0
  149.6373  143.0062  156.3996 H   0  0  0  0  0  0  0  0  0  0  0  0
  1  2  1  0  0  0  0
  1 22  1  0  0  0  0
  1 23  1  0  0  0  0
  1 24  1  0  0  0  0
  2  3  1  0  0  0  0
  3  4  1  0  0  0  0
  3 25  1  0  0  0  0
  3 26  1  0  0  0  0
  4  5  1  0  0  0  0
  4 27  1  0  0  0  0
  4 28  1  0  0  0  0
  5  6  1  0  0  0  0
  6 21  1  0  0  0  0
  6  7  2  0  0  0  0
  7  8  1  0  0  0  0
  7 29  1  0  0  0  0
  8  9  2  0  0  0  0
  8 30  1  0  0  0  0
  9 10  1  0  0  0  0
  9 20  1  0  0  0  0
 10 11  1  0  0  0  0
 10 31  1  0  0  0  0
 11 12  2  0  0  0  0
 11 13  1  0  0  0  0
 13 19  1  0  0  0  0
 13 14  1  0  0  0  0
 13 32  1  0  0  0  0
 14 15  1  0  0  0  0
 14 33  1  0  0  0  0
 14 34  1  0  0  0  0
 15 16  2  0  0  0  0
 15 17  1  0  0  0  0
 17 18  1  0  0  0  0
 17 19  1  0  0  0  0
 18 35  1  0  0  0  0
 18 36  1  0  0  0  0
 18 37  1  0  0  0  0
 19 38  1  0  0  0  0
 19 39  1  0  0  0  0
 20 21  2  0  0  0  0
 20 40  1  0  0  0  0
M  END
> <s_m_source_file>
AV-unprocessed.smi

> <i_m_source_file_index>
1841

> <i_lp_mmshare_version>
43012

> <i_f3d_flags>
0

> <s_epik_input>
W0NIM11PW0NIMl1bQ0gyXU9jMVtjSF1bY0hdYyhbY0hdbjEpW05IXUMoPU8pW0NAQEhdMltDSDJdQyg9TylOKFtDSDNdKVtDSDJdMg==

> <s_epik_cmdline>
J2VwaWtfcHl0aG9uJywgJy1waCcsICc3LjAnLCAnLXRuJywgJzgnLCAnLW1hJywgJzIwMCcsICctbWV0YWxfYmluZGluZycsICctaW1hZScsICc8aW5maWxlLm1hZT4nLCAnLW9tYWUnLCAnPG91dGZpbGUubWFlPic=

> <r_lp_tautomer_probability>
1

> <r_epik_Ionization_Penalty>
1.70347e-05

> <r_epik_Ionization_Penalty_Charging>
0

> <r_epik_Ionization_Penalty_Neutral>
1.70347e-05

> <r_epik_State_Penalty>
-0

> <r_epik_Charging_Adjusted_Penalty>
0

> <i_epik_Tot_Q>
0

> <i_epik_Tot_abs_Q>
0

> <r_epik_Metal_State_Penalty>
-0

> <b_epik_Metal_Only>
0

> <s_lp_Force_Field>
OPLS_2005

> <r_lp_Energy>
17.4372

> <b_lp_Chiralities_Consistent>
1

> <s_lp_Variant>
AV-unprocessed.smi:1841-1

> <Gold.Version>
5.8.1

> <Gold.Id.Protein>
6NUR|6NUR_protein|mol2

> <Gold.PLP.Fitness>
40.4370

> <Gold.PLP.PLP>
-34.1493

> <Gold.PLP.part.hbond>
-2.0000

> <Gold.PLP.part.metal>
0.0000

> <Gold.PLP.part.buried>
-0.8560

> <Gold.PLP.part.nonpolar>
-36.9453

> <Gold.PLP.part.repulsive>
4.9138

> <Gold.PLP.ligand.clash>
0.1218

> <Gold.PLP.ligand.torsion>
0.9811

> <Gold.PLP.Chemscore.Hbond>
1.7823

> <Gold.PLP.Chemscore.CHOScore>
1.0000

> <Gold.PLP.Chemscore.Metal>
0.0000

> <Gold.Chemscore.Hbonds>
donor molecule, donor type, donor heavy atom, donor atom, acceptor molecule, acceptor atom, score
      P1  H  6933  6945       L1    16  0.76
      P1  H  7997  8009       L1    12  1.00
      L1  C    20    40       P1  8028  0.95

> <Gold.PLP.Chemscore.Internal.Correction>
0.0245

> <Gold.Rescore>
     Score         DG    S(hbond)    S(metal)    S(lipo)     H(rot)  DE(clash)    DE(int)     intcor
     11.27     -15.20       1.40        0.00      85.76       1.95       2.06       1.88       ----

> <Gold.Chemscore.Fitness>
11.2672

> <Gold.Chemscore.DG>
-15.2045

> <Gold.Chemscore.ZeroCoef>
-5.4800

> <Gold.Chemscore.Hbond>
1.3994

> <Gold.Chemscore.Metal>
0.0000

> <Gold.Chemscore.Lipo>
85.7629

> <Gold.Chemscore.Internal_Hbond>
0.0000

> <Gold.Chemscore.DEClash>
2.0621

> <Gold.Chemscore.DEInternal>
1.8753

> <Gold.Chemscore.Rot>
1.9468

> <Gold.Chemscore.Internal.Correction>
   9.000000E+99

> <Gold.Chemscore.Hbonds>
donor molecule, donor type, donor heavy atom, donor atom, acceptor molecule, acceptor atom, score
      P1  H  6933  6945       L1    16  0.55
      P1  H  7997  8009       L1    12  0.24

> <Gold.Chemscore.Hbond.Weighted>
-4.6741

> <Gold.Chemscore.Metal.Weighted>
-0.0000

> <Gold.Chemscore.Lipo.Weighted>
-10.0343

> <Gold.Chemscore.Internal_Hbond.Weighted>
0.0000

> <Gold.Chemscore.DEClash.Weighted>
2.0621

> <Gold.Chemscore.DEInternal.Weighted>
1.8753

> <Gold.Chemscore.Rot.Weighted>
4.9839

> <Gold.Chemscore.Internal.Correction.Weighted>
   9.000000E+99

> <Gold.Protein.RotatedTorsions>
[ 6907 6896 6895 6894 ] final -155.44 input  -60.11 | X-H torsion
[ 7974 7965 7964 7962 ] final  -77.19 input  175.53 | X-H torsion
[ 8008 7997 7996 7995 ] final  173.96 input   59.86 | X-H torsion
[ 10167 10162 10161 10158 ] final -150.96 input  -65.29 | X-H torsion
[ 10718 10713 10712 10709 ] final  -43.58 input   66.30 | X-H torsion
[ 10763 10752 10751 10750 ] final -178.93 input  -60.55 | X-H torsion
[ 11005 11000 10999 10996 ] final -142.43 input  -57.11 | X-H torsion

> <Gold.Protein.ActiveResidues>
 VAL166  LYS551  ARG553  GLY616  TRP617  ASP618  TYR619  PRO620  LYS621  CYS622 
 ASP623  PHE694  ASN695  SER759  ASP760  ASP761  ALA762  ILE779  LEU786  VAL792 
 PHE793  MET794  SER795  GLU796  ALA797  LYS798  CYS799  TRP800  GLU811  SER814 

> <Gold.Protein.RotatedAtoms>
  151.2726  133.4248  159.2621 H   0  0  0  0  0  0  0  0  0  0  0  0  # atno 6907 bound_to 6896
  151.0432  134.9622  159.8182 H   0  0  0  0  0  0  0  0  0  0  0  0  # atno 6908 bound_to 6896
  152.5369  134.2683  159.9014 H   0  0  0  0  0  0  0  0  0  0  0  0  # atno 6909 bound_to 6896
  145.6030  140.9404  143.1231 H   0  0  0  0  0  0  0  0  0  0  0  0  # atno 7974 bound_to 7965
  156.1022  140.1446  156.9452 H   0  0  0  0  0  0  0  0  0  0  0  0  # atno 8008 bound_to 7997
  154.4710  140.0910  156.7189 H   0  0  0  0  0  0  0  0  0  0  0  0  # atno 8009 bound_to 7997
  155.4740  140.3442  155.4332 H   0  0  0  0  0  0  0  0  0  0  0  0  # atno 8010 bound_to 7997
  139.7309  143.8810  152.2534 H   0  0  0  0  0  0  0  0  0  0  0  0  # atno 10167 bound_to 10162
  156.2476  130.4185  149.8688 H   0  0  0  0  0  0  0  0  0  0  0  0  # atno 10718 bound_to 10713
  154.5415  135.2806  155.1091 H   0  0  0  0  0  0  0  0  0  0  0  0  # atno 10763 bound_to 10752
  154.2572  135.6328  153.5265 H   0  0  0  0  0  0  0  0  0  0  0  0  # atno 10764 bound_to 10752
  152.9980  135.5597  154.5956 H   0  0  0  0  0  0  0  0  0  0  0  0  # atno 10765 bound_to 10752
  140.8225  134.2613  157.4894 H   0  0  0  0  0  0  0  0  0  0  0  0  # atno 11005 bound_to 11000
  144.7302  139.7750  143.7350 LP  0  0  0  0  0  0  0  0  0  0  0  0  # atno 17320 bound_to 7965
  146.1562  139.4661  143.0017 LP  0  0  0  0  0  0  0  0  0  0  0  0  # atno 17321 bound_to 7965
  139.8733  144.7057  150.8962 LP  0  0  0  0  0  0  0  0  0  0  0  0  # atno 17342 bound_to 10162
  140.7771  143.3720  151.1631 LP  0  0  0  0  0  0  0  0  0  0  0  0  # atno 17343 bound_to 10162
  156.6247  130.8641  151.3483 LP  0  0  0  0  0  0  0  0  0  0  0  0  # atno 17370 bound_to 10713
  157.7201  130.9547  150.1405 LP  0  0  0  0  0  0  0  0  0  0  0  0  # atno 17371 bound_to 10713
  139.8708  134.9543  156.4172 LP  0  0  0  0  0  0  0  0  0  0  0  0  # atno 17394 bound_to 11000
  140.9083  133.7730  155.9762 LP  0  0  0  0  0  0  0  0  0  0  0  0  # atno 17395 bound_to 11000

$$$$
