AV-unprocessed.smi:290|AV-procd|sdf|2218|dock3
  -GOLD-   2262022 63D 1   1.00000     0.00000
 Structure written by MMmdl.
 59 62  0  0  0  0  0  0  0  0  2 V2000
  152.2991  140.8325  158.6380 C   0  0  0  0  0  0  0  0  0  0  0  0
  151.6523  142.1970  158.9228 C   0  0  1  0  0  0  0  0  0  0  0  0
  152.6426  143.0387  159.5056 O   0  0  0  0  0  0  0  0  0  0  0  0
  152.3232  144.3840  159.2019 C   0  0  0  0  0  0  0  0  0  0  0  0
  151.8894  144.2912  157.7471 C   0  0  0  0  0  0  0  0  0  0  0  0
  151.0989  142.9849  157.7007 C   0  0  2  0  0  0  0  0  0  0  0  0
  149.7400  143.2936  157.9625 O   0  0  0  0  0  0  0  0  0  0  0  0
  151.1796  142.2669  156.3278 C   0  0  0  0  0  0  0  0  0  0  0  0
  150.7020  140.8929  156.3633 N   0  0  0  0  0  0  0  0  0  0  0  0
  149.5501  140.4312  156.9599 C   0  0  0  0  0  0  0  0  0  0  0  0
  149.3445  139.1465  156.8543 N   0  0  0  0  0  0  0  0  0  0  0  0
  150.4314  138.6901  156.1179 C   0  0  0  0  0  0  0  0  0  0  0  0
  150.8433  137.4155  155.6357 C   0  0  0  0  0  0  0  0  0  0  0  0
  150.1756  136.2588  155.8366 N   0  0  0  0  0  0  0  0  0  0  0  0
  150.9390  135.0432  155.5789 C   0  0  0  0  0  0  0  0  0  0  0  0
  149.9408  133.9743  155.1080 C   0  0  0  0  0  0  0  0  0  0  0  0
  148.5556  134.6427  155.1597 C   0  0  1  0  0  0  0  0  0  0  0  0
  147.6784  134.1803  156.2819 N   0  3  1  0  0  0  0  0  0  0  0  0
  148.2631  134.5172  157.6035 C   0  0  0  0  0  0  0  0  0  0  0  0
  146.2384  134.5545  156.1720 C   0  0  0  0  0  0  0  0  0  0  0  0
  145.6176  134.1865  154.8122 C   0  0  0  0  0  0  0  0  0  0  0  0
  145.4629  132.7878  154.7035 O   0  0  0  0  0  0  0  0  0  0  0  0
  148.8873  136.1454  155.1661 C   0  0  1  0  0  0  0  0  0  0  0  0
  147.8048  137.0877  155.7238 C   0  0  0  0  0  0  0  0  0  0  0  0
  151.9982  137.3431  154.9308 N   0  0  0  0  0  0  0  0  0  0  0  0
  152.7127  138.4503  154.7052 C   0  0  0  0  0  0  0  0  0  0  0  0
  152.4554  139.7029  155.0887 N   0  0  0  0  0  0  0  0  0  0  0  0
  151.2938  139.7762  155.8002 C   0  0  0  0  0  0  0  0  0  0  0  0
  148.0207  134.4397  154.2307 H   0  0  0  0  0  0  0  0  0  0  0  0
  149.0442  136.4287  154.1243 H   0  0  0  0  0  0  0  0  0  0  0  0
  151.5830  140.1326  158.2072 H   0  0  0  0  0  0  0  0  0  0  0  0
  152.6734  140.3876  159.5603 H   0  0  0  0  0  0  0  0  0  0  0  0
  153.1437  140.9237  157.9547 H   0  0  0  0  0  0  0  0  0  0  0  0
  150.8679  142.0556  159.6690 H   0  0  0  0  0  0  0  0  0  0  0  0
  151.5049  144.7247  159.8382 H   0  0  0  0  0  0  0  0  0  0  0  0
  153.1781  145.0444  159.3477 H   0  0  0  0  0  0  0  0  0  0  0  0
  151.3261  145.1627  157.4103 H   0  0  0  0  0  0  0  0  0  0  0  0
  152.7815  144.2131  157.1244 H   0  0  0  0  0  0  0  0  0  0  0  0
  149.3982  143.7890  157.2339 H   0  0  0  0  0  0  0  0  0  0  0  0
  150.5919  142.8025  155.5817 H   0  0  0  0  0  0  0  0  0  0  0  0
  152.2073  142.2574  155.9627 H   0  0  0  0  0  0  0  0  0  0  0  0
  148.8638  141.0812  157.4832 H   0  0  0  0  0  0  0  0  0  0  0  0
  151.7266  135.1898  154.8394 H   0  0  0  0  0  0  0  0  0  0  0  0
  151.4201  134.7309  156.5062 H   0  0  0  0  0  0  0  0  0  0  0  0
  150.1739  133.7069  154.0766 H   0  0  0  0  0  0  0  0  0  0  0  0
  150.0089  133.0556  155.6902 H   0  0  0  0  0  0  0  0  0  0  0  0
  148.2459  135.5936  157.7777 H   0  0  0  0  0  0  0  0  0  0  0  0
  149.2982  134.1809  157.6702 H   0  0  0  0  0  0  0  0  0  0  0  0
  147.7275  134.0320  158.4179 H   0  0  0  0  0  0  0  0  0  0  0  0
  145.6714  134.0751  156.9704 H   0  0  0  0  0  0  0  0  0  0  0  0
  146.1101  135.6264  156.3087 H   0  0  0  0  0  0  0  0  0  0  0  0
  144.6609  134.6790  154.6432 H   0  0  0  0  0  0  0  0  0  0  0  0
  146.2787  134.5163  154.0105 H   0  0  0  0  0  0  0  0  0  0  0  0
  144.5886  132.5584  154.9819 H   0  0  0  0  0  0  0  0  0  0  0  0
  146.8484  136.9191  155.2289 H   0  0  0  0  0  0  0  0  0  0  0  0
  148.0745  138.1320  155.5637 H   0  0  0  0  0  0  0  0  0  0  0  0
  147.6592  136.9515  156.7948 H   0  0  0  0  0  0  0  0  0  0  0  0
  153.6205  138.3129  154.1364 H   0  0  0  0  0  0  0  0  0  0  0  0
  147.6976  133.1715  156.2269 H   0  0  0  0  0  0  0  0  0  0  0  0
  1  2  1  0  0  0  0
  1 31  1  0  0  0  0
  1 32  1  0  0  0  0
  1 33  1  0  0  0  0
  2  6  1  0  0  0  0
  2  3  1  0  0  0  0
  2 34  1  0  0  0  0
  3  4  1  0  0  0  0
  4  5  1  0  0  0  0
  4 35  1  0  0  0  0
  4 36  1  0  0  0  0
  5  6  1  0  0  0  0
  5 37  1  0  0  0  0
  5 38  1  0  0  0  0
  6  7  1  0  0  0  0
  6  8  1  0  0  0  0
  7 39  1  0  0  0  0
  8  9  1  0  0  0  0
  8 40  1  0  0  0  0
  8 41  1  0  0  0  0
  9 28  1  0  0  0  0
  9 10  1  0  0  0  0
 10 11  2  0  0  0  0
 10 42  1  0  0  0  0
 11 12  1  0  0  0  0
 12 28  2  0  0  0  0
 12 13  1  0  0  0  0
 13 14  1  0  0  0  0
 13 25  2  0  0  0  0
 14 23  1  0  0  0  0
 14 15  1  0  0  0  0
 15 16  1  0  0  0  0
 15 43  1  0  0  0  0
 15 44  1  0  0  0  0
 16 17  1  0  0  0  0
 16 45  1  0  0  0  0
 16 46  1  0  0  0  0
 17 29  1  0  0  0  0
 17 18  1  0  0  0  0
 17 23  1  0  0  0  0
 18 19  1  0  0  0  0
 18 20  1  0  0  0  0
 18 59  1  0  0  0  0
 19 47  1  0  0  0  0
 19 48  1  0  0  0  0
 19 49  1  0  0  0  0
 20 21  1  0  0  0  0
 20 50  1  0  0  0  0
 20 51  1  0  0  0  0
 21 22  1  0  0  0  0
 21 52  1  0  0  0  0
 21 53  1  0  0  0  0
 22 54  1  0  0  0  0
 23 30  1  0  0  0  0
 23 24  1  0  0  0  0
 24 55  1  0  0  0  0
 24 56  1  0  0  0  0
 24 57  1  0  0  0  0
 25 26  1  0  0  0  0
 26 27  2  0  0  0  0
 26 58  1  0  0  0  0
 27 28  1  0  0  0  0
M  CHG  1  18   1
M  END
> <s_m_source_file>
AV-unprocessed.smi

> <i_m_source_file_index>
290

> <i_lp_mmshare_version>
43012

> <i_f3d_flags>
0

> <s_epik_input>
W0NIMl0xW0NIMl1PW0NAQEhdKFtDSDNdKVtDQEBdMShbT0hdKVtDSDJdbihbY0hdbjIpYyhjMjMpbltjSF1uYzNONFtDSDJdW0NIMl1bQ0BIXShbQ0BIXTRbQ0gzXSlOKFtDSDNdKVtDSDJdW0NIMl1bT0hd

> <s_epik_cmdline>
J2VwaWtfcHl0aG9uJywgJy1waCcsICc3LjAnLCAnLXRuJywgJzgnLCAnLW1hJywgJzIwMCcsICctbWV0YWxfYmluZGluZycsICctaW1hZScsICc8aW5maWxlLm1hZT4nLCAnLW9tYWUnLCAnPG91dGZpbGUubWFlPic=

> <r_lp_tautomer_probability>
1

> <r_epik_Ionization_Penalty>
0.0036983

> <r_epik_Ionization_Penalty_Charging>
0.0032725

> <r_epik_Ionization_Penalty_Neutral>
0.000425798

> <r_epik_State_Penalty>
-0

> <r_epik_Charging_Adjusted_Penalty>
0.0032725

> <i_epik_Tot_Q>
1

> <i_epik_Tot_abs_Q>
1

> <r_epik_Metal_State_Penalty>
-0

> <b_epik_Metal_Only>
0

> <s_lp_Force_Field>
OPLS_2005

> <r_lp_Energy>
69.1694

> <b_lp_Chiralities_Consistent>
1

> <s_lp_Variant>
AV-unprocessed.smi:290-4

> <Gold.Version>
5.8.1

> <Gold.Id.Protein>
6NUR|6NUR_protein|mol2

> <Gold.PLP.Fitness>
50.7446

> <Gold.PLP.PLP>
-40.2875

> <Gold.PLP.part.hbond>
-4.3791

> <Gold.PLP.part.metal>
0.0000

> <Gold.PLP.part.buried>
-7.6478

> <Gold.PLP.part.nonpolar>
-29.1527

> <Gold.PLP.part.repulsive>
0.1831

> <Gold.PLP.ligand.clash>
0.0000

> <Gold.PLP.ligand.torsion>
0.7183

> <Gold.PLP.Chemscore.Hbond>
3.7859

> <Gold.PLP.Chemscore.CHOScore>
0.0000

> <Gold.PLP.Chemscore.Metal>
0.0000

> <Gold.Chemscore.Hbonds>
donor molecule, donor type, donor heavy atom, donor atom, acceptor molecule, acceptor atom, score
      L1  H     7    39       P1  8028  1.00
      L1  H    22    54       P1 10957  0.89
      P1  H  7989  7998       L1    27  0.35
      P1  H  7997  8010       L1    27  0.51
      P1  H 10752 10764       L1    25  0.88

> <Gold.PLP.Chemscore.Internal.Correction>
0.5361

> <Gold.Rescore>
     Score         DG    S(hbond)    S(metal)    S(lipo)     H(rot)  DE(clash)    DE(int)     intcor
     10.94     -17.14       3.25        0.00      87.01       3.67       1.55       4.65       ----

> <Gold.Chemscore.Fitness>
10.9436

> <Gold.Chemscore.DG>
-17.1443

> <Gold.Chemscore.ZeroCoef>
-5.4800

> <Gold.Chemscore.Hbond>
3.2542

> <Gold.Chemscore.Metal>
0.0000

> <Gold.Chemscore.Lipo>
87.0062

> <Gold.Chemscore.Internal_Hbond>
0.0000

> <Gold.Chemscore.DEClash>
1.5518

> <Gold.Chemscore.DEInternal>
4.6489

> <Gold.Chemscore.Rot>
3.6658

> <Gold.Chemscore.Internal.Correction>
   9.000000E+99

> <Gold.Chemscore.Hbonds>
donor molecule, donor type, donor heavy atom, donor atom, acceptor molecule, acceptor atom, score
      L1  H     7    39       P1  8028  0.55
      L1  H    22    54       P1 10957  0.82
      P1  H  7989  7998       L1    27  0.02
      P1  H  7997  8010       L1    27  0.10
      P1  H 10752 10764       L1    25  0.75

> <Gold.Chemscore.Hbond.Weighted>
-10.8690

> <Gold.Chemscore.Metal.Weighted>
-0.0000

> <Gold.Chemscore.Lipo.Weighted>
-10.1797

> <Gold.Chemscore.Internal_Hbond.Weighted>
0.0000

> <Gold.Chemscore.DEClash.Weighted>
1.5518

> <Gold.Chemscore.DEInternal.Weighted>
4.6489

> <Gold.Chemscore.Rot.Weighted>
9.3844

> <Gold.Chemscore.Internal.Correction.Weighted>
   9.000000E+99

> <Gold.Protein.RotatedTorsions>
[ 6907 6896 6895 6894 ] final   24.38 input  -60.11 | X-H torsion
[ 7974 7965 7964 7962 ] final   -2.45 input  175.53 | X-H torsion
[ 8008 7997 7996 7995 ] final  101.53 input   59.86 | X-H torsion
[ 10167 10162 10161 10158 ] final  -94.82 input  -65.29 | X-H torsion
[ 10718 10713 10712 10709 ] final  -49.34 input   66.30 | X-H torsion
[ 10763 10752 10751 10750 ] final  -62.28 input  -60.55 | X-H torsion
[ 11005 11000 10999 10996 ] final  141.42 input  -57.11 | X-H torsion

> <Gold.Protein.ActiveResidues>
 VAL166  LYS551  ARG553  GLY616  TRP617  ASP618  TYR619  PRO620  LYS621  CYS622 
 ASP623  PHE694  ASN695  SER759  ASP760  ASP761  ALA762  ILE779  LEU786  VAL792 
 PHE793  MET794  SER795  GLU796  ALA797  LYS798  CYS799  TRP800  GLU811  SER814 

> <Gold.Protein.RotatedAtoms>
  151.9566  135.0143  160.0544 H   0  0  0  0  0  0  0  0  0  0  0  0  # atno 6907 bound_to 6896
  152.1905  133.4765  159.5014 H   0  0  0  0  0  0  0  0  0  0  0  0  # atno 6908 bound_to 6896
  150.6934  134.1635  159.4228 H   0  0  0  0  0  0  0  0  0  0  0  0  # atno 6909 bound_to 6896
  146.2404  140.1573  142.8333 H   0  0  0  0  0  0  0  0  0  0  0  0  # atno 7974 bound_to 7965
  156.1308  140.3196  155.8346 H   0  0  0  0  0  0  0  0  0  0  0  0  # atno 8008 bound_to 7997
  155.4335  140.0520  157.3033 H   0  0  0  0  0  0  0  0  0  0  0  0  # atno 8009 bound_to 7997
  154.4898  140.2087  155.9587 H   0  0  0  0  0  0  0  0  0  0  0  0  # atno 8010 bound_to 7997
  140.3105  143.3108  152.0153 H   0  0  0  0  0  0  0  0  0  0  0  0  # atno 10167 bound_to 10162
  156.1902  130.4152  149.9382 H   0  0  0  0  0  0  0  0  0  0  0  0  # atno 10718 bound_to 10713
  154.2974  135.6241  153.5410 H   0  0  0  0  0  0  0  0  0  0  0  0  # atno 10763 bound_to 10752
  152.9844  135.5670  154.5322 H   0  0  0  0  0  0  0  0  0  0  0  0  # atno 10764 bound_to 10752
  154.4945  135.2869  155.1446 H   0  0  0  0  0  0  0  0  0  0  0  0  # atno 10765 bound_to 10752
  140.0400  134.9309  157.0825 H   0  0  0  0  0  0  0  0  0  0  0  0  # atno 11005 bound_to 11000
  145.0118  140.8720  143.5219 LP  0  0  0  0  0  0  0  0  0  0  0  0  # atno 17320 bound_to 7965
  145.1608  139.2460  143.5393 LP  0  0  0  0  0  0  0  0  0  0  0  0  # atno 17321 bound_to 7965
  139.4895  144.6388  151.6920 LP  0  0  0  0  0  0  0  0  0  0  0  0  # atno 17342 bound_to 10162
  140.5572  144.0328  150.6153 LP  0  0  0  0  0  0  0  0  0  0  0  0  # atno 17343 bound_to 10162
  156.7124  130.8975  151.3610 LP  0  0  0  0  0  0  0  0  0  0  0  0  # atno 17370 bound_to 10713
  157.6924  130.9247  150.0551 LP  0  0  0  0  0  0  0  0  0  0  0  0  # atno 17371 bound_to 10713
  140.4084  134.2007  155.7163 LP  0  0  0  0  0  0  0  0  0  0  0  0  # atno 17394 bound_to 11000
  141.1878  133.8274  157.1018 LP  0  0  0  0  0  0  0  0  0  0  0  0  # atno 17395 bound_to 11000

$$$$
