AV-unprocessed.smi:846|AV-procd|sdf|3935|dock3
  -GOLD-   22720 1393D 1   1.00000     0.00000
 Structure written by MMmdl.
 37 38  0  0  0  0  0  0  0  0  1 V2000
  145.8923  132.6757  150.2801 C   0  0  0  0  0  0  0  0  0  0  0  0
  145.5597  133.2601  151.6555 C   0  0  0  0  0  0  0  0  0  0  0  0
  146.7790  133.4607  152.3605 O   0  0  0  0  0  0  0  0  0  0  0  0
  147.4245  132.3678  152.9063 C   0  0  0  0  0  0  0  0  0  0  0  0
  146.8553  131.1437  152.7751 N   0  0  0  0  0  0  0  0  0  0  0  0
  147.4913  130.0818  153.3120 C   0  0  0  0  0  0  0  0  0  0  0  0
  148.7171  130.1815  153.9966 C   0  0  0  0  0  0  0  0  0  0  0  0
  149.3101  131.4509  154.1316 C   0  0  0  0  0  0  0  0  0  0  0  0
  148.6480  132.5752  153.5831 C   0  0  0  0  0  0  0  0  0  0  0  0
  149.1533  133.9014  153.6355 N   0  0  0  0  0  0  0  0  0  0  0  0
  149.9196  134.4881  154.5737 C   0  0  0  0  0  0  0  0  0  0  0  0
  150.3871  133.9179  155.5568 O   0  0  0  0  0  0  0  0  0  0  0  0
  150.1287  135.8005  154.3599 N   0  0  0  0  0  0  0  0  0  0  0  0
  150.9087  136.7327  155.1783 C   0  0  2  0  0  0  0  0  0  0  0  0
  150.0578  137.3186  156.3203 C   0  0  0  0  0  0  0  0  0  0  0  0
  150.7987  138.5200  156.9242 C   0  0  0  0  0  0  0  0  0  0  0  0
  151.8169  139.2287  155.5727 S   0  0  0  0  0  0  0  0  0  0  0  0
  151.2225  140.4927  155.1120 O   0  0  0  0  0  0  0  0  0  0  0  0
  153.2348  139.1529  155.9562 O   0  0  0  0  0  0  0  0  0  0  0  0
  151.4521  137.9125  154.3549 C   0  0  0  0  0  0  0  0  0  0  0  0
  144.9849  132.4947  149.7039 H   0  0  0  0  0  0  0  0  0  0  0  0
  146.4245  131.7289  150.3750 H   0  0  0  0  0  0  0  0  0  0  0  0
  146.5224  133.3567  149.7075 H   0  0  0  0  0  0  0  0  0  0  0  0
  145.0272  134.2047  151.5335 H   0  0  0  0  0  0  0  0  0  0  0  0
  144.9125  132.5723  152.2021 H   0  0  0  0  0  0  0  0  0  0  0  0
  147.0102  129.1228  153.1884 H   0  0  0  0  0  0  0  0  0  0  0  0
  149.1947  129.3031  154.4046 H   0  0  0  0  0  0  0  0  0  0  0  0
  150.2598  131.5333  154.6365 H   0  0  0  0  0  0  0  0  0  0  0  0
  148.7993  134.5170  152.9179 H   0  0  0  0  0  0  0  0  0  0  0  0
  149.6765  136.2001  153.5501 H   0  0  0  0  0  0  0  0  0  0  0  0
  151.7490  136.2064  155.6357 H   0  0  0  0  0  0  0  0  0  0  0  0
  149.1054  137.6651  155.9158 H   0  0  0  0  0  0  0  0  0  0  0  0
  149.8260  136.5705  157.0792 H   0  0  0  0  0  0  0  0  0  0  0  0
  150.1228  139.2767  157.3232 H   0  0  0  0  0  0  0  0  0  0  0  0
  151.4723  138.2015  157.7198 H   0  0  0  0  0  0  0  0  0  0  0  0
  152.3508  137.6721  153.7865 H   0  0  0  0  0  0  0  0  0  0  0  0
  150.6960  138.2935  153.6676 H   0  0  0  0  0  0  0  0  0  0  0  0
  1  2  1  0  0  0  0
  1 21  1  0  0  0  0
  1 22  1  0  0  0  0
  1 23  1  0  0  0  0
  2  3  1  0  0  0  0
  2 24  1  0  0  0  0
  2 25  1  0  0  0  0
  3  4  1  0  0  0  0
  4  9  1  0  0  0  0
  4  5  2  0  0  0  0
  5  6  1  0  0  0  0
  6  7  2  0  0  0  0
  6 26  1  0  0  0  0
  7  8  1  0  0  0  0
  7 27  1  0  0  0  0
  8  9  2  0  0  0  0
  8 28  1  0  0  0  0
  9 10  1  0  0  0  0
 10 11  1  0  0  0  0
 10 29  1  0  0  0  0
 11 12  2  0  0  0  0
 11 13  1  0  0  0  0
 13 14  1  0  0  0  0
 13 30  1  0  0  0  0
 14 20  1  0  0  0  0
 14 15  1  0  0  0  0
 14 31  1  0  0  0  0
 15 16  1  0  0  0  0
 15 32  1  0  0  0  0
 15 33  1  0  0  0  0
 16 17  1  0  0  0  0
 16 34  1  0  0  0  0
 16 35  1  0  0  0  0
 17 18  2  0  0  0  0
 17 19  2  0  0  0  0
 17 20  1  0  0  0  0
 20 36  1  0  0  0  0
 20 37  1  0  0  0  0
M  END
> <s_m_source_file>
AV-unprocessed.smi

> <i_m_source_file_index>
846

> <i_lp_mmshare_version>
43012

> <i_f3d_flags>
0

> <s_epik_input>
W0NIM11bQ0gyXU9jMW5bY0hdW2NIXVtjSF1jMVtOSF1DKD1PKVtOSF1bQ0BASF0oW0NIMl0yKVtDSDJdW0NIMl1TMig9Tyk9Tw==

> <s_epik_cmdline>
J2VwaWtfcHl0aG9uJywgJy1waCcsICc3LjAnLCAnLXRuJywgJzgnLCAnLW1hJywgJzIwMCcsICctbWV0YWxfYmluZGluZycsICctaW1hZScsICc8aW5maWxlLm1hZT4nLCAnLW9tYWUnLCAnPG91dGZpbGUubWFlPic=

> <r_lp_tautomer_probability>
1

> <r_epik_Ionization_Penalty>
9.45557e-05

> <r_epik_Ionization_Penalty_Charging>
0

> <r_epik_Ionization_Penalty_Neutral>
9.45557e-05

> <r_epik_State_Penalty>
-0

> <r_epik_Charging_Adjusted_Penalty>
0

> <i_epik_Tot_Q>
0

> <i_epik_Tot_abs_Q>
0

> <r_epik_Metal_State_Penalty>
-0

> <b_epik_Metal_Only>
0

> <s_lp_Force_Field>
OPLS_2005

> <r_lp_Energy>
17.4096

> <b_lp_Chiralities_Consistent>
1

> <s_lp_Variant>
AV-unprocessed.smi:846-1

> <Gold.Version>
5.8.1

> <Gold.Id.Protein>
6NUR|6NUR_protein|mol2

> <Gold.PLP.Fitness>
41.9348

> <Gold.PLP.PLP>
-32.1880

> <Gold.PLP.part.hbond>
-4.7408

> <Gold.PLP.part.metal>
0.0000

> <Gold.PLP.part.buried>
-4.5537

> <Gold.PLP.part.nonpolar>
-23.9295

> <Gold.PLP.part.repulsive>
0.4142

> <Gold.PLP.ligand.clash>
0.0000

> <Gold.PLP.ligand.torsion>
0.6123

> <Gold.PLP.Chemscore.Hbond>
3.6544

> <Gold.PLP.Chemscore.CHOScore>
0.0000

> <Gold.PLP.Chemscore.Metal>
0.0000

> <Gold.Chemscore.Hbonds>
donor molecule, donor type, donor heavy atom, donor atom, acceptor molecule, acceptor atom, score
      L1  H    10    29       P1  7948  0.64
      L1  H    13    30       P1  7948  1.00
      P1  H  7989  7998       L1    18  0.96
      P1  H  7997  8008       L1    19  0.93

> <Gold.PLP.Chemscore.Internal.Correction>
0.0083

> <Gold.Rescore>
     Score         DG    S(hbond)    S(metal)    S(lipo)     H(rot)  DE(clash)    DE(int)     intcor
     16.37     -17.75       2.96        0.00      53.34       1.50       0.01       1.37       ----

> <Gold.Chemscore.Fitness>
16.3704

> <Gold.Chemscore.DG>
-17.7464

> <Gold.Chemscore.ZeroCoef>
-5.4800

> <Gold.Chemscore.Hbond>
2.9565

> <Gold.Chemscore.Metal>
0.0000

> <Gold.Chemscore.Lipo>
53.3353

> <Gold.Chemscore.Internal_Hbond>
0.0000

> <Gold.Chemscore.DEClash>
0.0103

> <Gold.Chemscore.DEInternal>
1.3656

> <Gold.Chemscore.Rot>
1.5033

> <Gold.Chemscore.Internal.Correction>
   9.000000E+99

> <Gold.Chemscore.Hbonds>
donor molecule, donor type, donor heavy atom, donor atom, acceptor molecule, acceptor atom, score
      L1  H    10    29       P1  7948  0.05
      L1  H    13    30       P1  7948  0.30
      P1  H  7989  7998       L1    18  0.79
      P1  H  7997  8008       L1    19  0.87

> <Gold.Chemscore.Hbond.Weighted>
-9.8746

> <Gold.Chemscore.Metal.Weighted>
-0.0000

> <Gold.Chemscore.Lipo.Weighted>
-6.2402

> <Gold.Chemscore.Internal_Hbond.Weighted>
0.0000

> <Gold.Chemscore.DEClash.Weighted>
0.0103

> <Gold.Chemscore.DEInternal.Weighted>
1.3656

> <Gold.Chemscore.Rot.Weighted>
3.8484

> <Gold.Chemscore.Internal.Correction.Weighted>
   9.000000E+99

> <Gold.Protein.RotatedTorsions>
[ 6907 6896 6895 6894 ] final -174.08 input  -60.11 | X-H torsion
[ 7974 7965 7964 7962 ] final -160.41 input  175.53 | X-H torsion
[ 8008 7997 7996 7995 ] final  -57.01 input   59.86 | X-H torsion
[ 10167 10162 10161 10158 ] final  123.71 input  -65.29 | X-H torsion
[ 10718 10713 10712 10709 ] final   70.46 input   66.30 | X-H torsion
[ 10763 10752 10751 10750 ] final  -60.32 input  -60.55 | X-H torsion
[ 11005 11000 10999 10996 ] final  143.89 input  -57.11 | X-H torsion

> <Gold.Protein.ActiveResidues>
 VAL166  LYS551  ARG553  GLY616  TRP617  ASP618  TYR619  PRO620  LYS621  CYS622 
 ASP623  PHE694  ASN695  SER759  ASP760  ASP761  ALA762  ILE779  LEU786  VAL792 
 PHE793  MET794  SER795  GLU796  ALA797  LYS798  CYS799  TRP800  GLU811  SER814 

> <Gold.Protein.RotatedAtoms>
  151.5666  133.3395  159.2981 H   0  0  0  0  0  0  0  0  0  0  0  0  # atno 6907 bound_to 6896
  150.8391  134.7680  159.6929 H   0  0  0  0  0  0  0  0  0  0  0  0  # atno 6908 bound_to 6896
  152.4462  134.5496  159.9914 H   0  0  0  0  0  0  0  0  0  0  0  0  # atno 6909 bound_to 6896
  144.7428  140.3546  143.6109 H   0  0  0  0  0  0  0  0  0  0  0  0  # atno 7974 bound_to 7965
  154.4251  140.1116  156.5729 H   0  0  0  0  0  0  0  0  0  0  0  0  # atno 8008 bound_to 7997
  155.6193  140.3495  155.4628 H   0  0  0  0  0  0  0  0  0  0  0  0  # atno 8009 bound_to 7997
  156.0037  140.1204  157.0512 H   0  0  0  0  0  0  0  0  0  0  0  0  # atno 8010 bound_to 7997
  139.5783  144.6974  151.3594 H   0  0  0  0  0  0  0  0  0  0  0  0  # atno 10167 bound_to 10162
  157.6401  130.9478  150.0654 H   0  0  0  0  0  0  0  0  0  0  0  0  # atno 10718 bound_to 10713
  154.2673  135.6297  153.5297 H   0  0  0  0  0  0  0  0  0  0  0  0  # atno 10763 bound_to 10752
  152.9886  135.5602  154.5638 H   0  0  0  0  0  0  0  0  0  0  0  0  # atno 10764 bound_to 10752
  154.5200  135.2882  155.1245 H   0  0  0  0  0  0  0  0  0  0  0  0  # atno 10765 bound_to 10752
  140.0590  134.9215  157.1150 H   0  0  0  0  0  0  0  0  0  0  0  0  # atno 11005 bound_to 11000
  145.7241  139.1718  143.2468 LP  0  0  0  0  0  0  0  0  0  0  0  0  # atno 17320 bound_to 7965
  146.1255  140.7253  142.9437 LP  0  0  0  0  0  0  0  0  0  0  0  0  # atno 17321 bound_to 7965
  140.7064  143.7503  150.7489 LP  0  0  0  0  0  0  0  0  0  0  0  0  # atno 17342 bound_to 10162
  140.1028  143.4771  152.2415 LP  0  0  0  0  0  0  0  0  0  0  0  0  # atno 17343 bound_to 10162
  156.1674  130.3645  149.9212 LP  0  0  0  0  0  0  0  0  0  0  0  0  # atno 17370 bound_to 10713
  156.7196  130.9001  151.3617 LP  0  0  0  0  0  0  0  0  0  0  0  0  # atno 17371 bound_to 10713
  140.3800  134.2297  155.7171 LP  0  0  0  0  0  0  0  0  0  0  0  0  # atno 17394 bound_to 11000
  141.1964  133.8082  157.0671 LP  0  0  0  0  0  0  0  0  0  0  0  0  # atno 17395 bound_to 11000

$$$$
