AV-unprocessed.smi:2662|AV-procd|sdf|10318|dock3
  -GOLD-   2272014333D 1   1.00000     0.00000
 Structure written by MMmdl.
 36 38  0  0  0  0  0  0  0  0  1 V2000
  153.3104  138.8782  155.1972 O   0  0  0  0  0  0  0  0  0  0  0  0
  152.2892  139.2331  156.1039 C   0  0  0  0  0  0  0  0  0  0  0  0
  151.0086  139.6167  155.4257 C   0  0  0  0  0  0  0  0  0  0  0  0
  150.2955  138.7307  154.7286 N   0  0  0  0  0  0  0  0  0  0  0  0
  149.2104  139.4741  154.3090 C   0  0  0  0  0  0  0  0  0  0  0  0
  148.0886  139.1043  153.5328 C   0  0  0  0  0  0  0  0  0  0  0  0
  147.0842  140.0483  153.2343 C   0  0  0  0  0  0  0  0  0  0  0  0
  147.1866  141.3726  153.7073 C   0  0  0  0  0  0  0  0  0  0  0  0
  148.2973  141.7625  154.4799 C   0  0  0  0  0  0  0  0  0  0  0  0
  149.2987  140.8169  154.7729 C   0  0  0  0  0  0  0  0  0  0  0  0
  150.4926  140.8721  155.4859 N   0  0  0  0  0  0  0  0  0  0  0  0
  151.0284  142.0497  156.1584 C   0  0  0  0  0  0  0  0  0  0  0  0
  150.3983  142.2867  157.5465 C   0  0  2  0  0  0  0  0  0  0  0  0
  149.4006  143.2859  157.4628 O   0  0  0  0  0  0  0  0  0  0  0  0
  151.4644  142.6142  158.5829 C   0  0  0  0  0  0  0  0  0  0  0  0
  152.1993  141.5789  159.2031 C   0  0  0  0  0  0  0  0  0  0  0  0
  153.1768  141.8803  160.1710 C   0  0  0  0  0  0  0  0  0  0  0  0
  153.8765  140.8819  160.7598 F   0  0  0  0  0  0  0  0  0  0  0  0
  153.4254  143.2193  160.5274 C   0  0  0  0  0  0  0  0  0  0  0  0
  152.6932  144.2556  159.9177 C   0  0  0  0  0  0  0  0  0  0  0  0
  151.7137  143.9562  158.9507 C   0  0  0  0  0  0  0  0  0  0  0  0
  151.0119  144.9660  158.3814 F   0  0  0  0  0  0  0  0  0  0  0  0
  152.9111  138.5041  154.4271 H   0  0  0  0  0  0  0  0  0  0  0  0
  152.1063  138.3840  156.7634 H   0  0  0  0  0  0  0  0  0  0  0  0
  152.6288  140.0501  156.7402 H   0  0  0  0  0  0  0  0  0  0  0  0
  147.9995  138.0916  153.1686 H   0  0  0  0  0  0  0  0  0  0  0  0
  146.2303  139.7544  152.6417 H   0  0  0  0  0  0  0  0  0  0  0  0
  146.4120  142.0890  153.4764 H   0  0  0  0  0  0  0  0  0  0  0  0
  148.3773  142.7762  154.8430 H   0  0  0  0  0  0  0  0  0  0  0  0
  152.1053  141.9099  156.2607 H   0  0  0  0  0  0  0  0  0  0  0  0
  150.8967  142.9302  155.5307 H   0  0  0  0  0  0  0  0  0  0  0  0
  149.8821  141.3803  157.8626 H   0  0  0  0  0  0  0  0  0  0  0  0
  149.5502  143.7950  156.6811 H   0  0  0  0  0  0  0  0  0  0  0  0
  152.0132  140.5475  158.9412 H   0  0  0  0  0  0  0  0  0  0  0  0
  154.1748  143.4511  161.2697 H   0  0  0  0  0  0  0  0  0  0  0  0
  152.8817  145.2826  160.1941 H   0  0  0  0  0  0  0  0  0  0  0  0
  1  2  1  0  0  0  0
  1 23  1  0  0  0  0
  2  3  1  0  0  0  0
  2 24  1  0  0  0  0
  2 25  1  0  0  0  0
  3 11  1  0  0  0  0
  3  4  2  0  0  0  0
  4  5  1  0  0  0  0
  5 10  2  0  0  0  0
  5  6  1  0  0  0  0
  6  7  2  0  0  0  0
  6 26  1  0  0  0  0
  7  8  1  0  0  0  0
  7 27  1  0  0  0  0
  8  9  2  0  0  0  0
  8 28  1  0  0  0  0
  9 10  1  0  0  0  0
  9 29  1  0  0  0  0
 10 11  1  0  0  0  0
 11 12  1  0  0  0  0
 12 13  1  0  0  0  0
 12 30  1  0  0  0  0
 12 31  1  0  0  0  0
 13 14  1  0  0  0  0
 13 15  1  0  0  0  0
 13 32  1  0  0  0  0
 14 33  1  0  0  0  0
 15 21  1  0  0  0  0
 15 16  2  0  0  0  0
 16 17  1  0  0  0  0
 16 34  1  0  0  0  0
 17 18  1  0  0  0  0
 17 19  2  0  0  0  0
 19 20  1  0  0  0  0
 19 35  1  0  0  0  0
 20 21  2  0  0  0  0
 20 36  1  0  0  0  0
 21 22  1  0  0  0  0
M  END
> <s_m_source_file>
AV-unprocessed.smi

> <i_m_source_file_index>
2662

> <i_lp_mmshare_version>
43012

> <i_f3d_flags>
0

> <s_epik_input>
W2NIXTFbY0hdW2NIXVtjSF1jKGMxMiluKGMobjIpW0NIMl1bT0hdKVtDSDJdW0NASF0oW09IXSljM1tjSF1jKEYpW2NIXVtjSF1jM0Y=

> <s_epik_cmdline>
J2VwaWtfcHl0aG9uJywgJy1waCcsICc3LjAnLCAnLXRuJywgJzgnLCAnLW1hJywgJzIwMCcsICctbWV0YWxfYmluZGluZycsICctaW1hZScsICc8aW5maWxlLm1hZT4nLCAnLW9tYWUnLCAnPG91dGZpbGUubWFlPic=

> <r_epik_Ionization_Penalty>
0.0634732

> <r_epik_Ionization_Penalty_Charging>
0

> <r_epik_Ionization_Penalty_Neutral>
0.0634732

> <r_epik_State_Penalty>
0.0551572

> <r_epik_Charging_Adjusted_Penalty>
0.0551572

> <i_epik_Tot_Q>
0

> <i_epik_Tot_abs_Q>
0

> <r_epik_Metal_State_Penalty>
5.78034e-05

> <b_epik_Metal_Only>
0

> <s_lp_Force_Field>
OPLS_2005

> <r_lp_Energy>
12.627

> <b_lp_Chiralities_Consistent>
1

> <s_lp_Variant>
AV-unprocessed.smi:2662-1

> <Gold.Version>
5.8.1

> <Gold.Id.Protein>
6NUR|6NUR_protein|mol2

> <Gold.PLP.Fitness>
54.0893

> <Gold.PLP.PLP>
-51.2690

> <Gold.PLP.part.hbond>
-2.3733

> <Gold.PLP.part.metal>
0.0000

> <Gold.PLP.part.buried>
-2.0574

> <Gold.PLP.part.nonpolar>
-46.5147

> <Gold.PLP.part.repulsive>
0.1620

> <Gold.PLP.ligand.clash>
0.0000

> <Gold.PLP.ligand.torsion>
1.6067

> <Gold.PLP.Chemscore.Hbond>
2.0000

> <Gold.PLP.Chemscore.CHOScore>
0.0000

> <Gold.PLP.Chemscore.Metal>
0.0000

> <Gold.Chemscore.Hbonds>
donor molecule, donor type, donor heavy atom, donor atom, acceptor molecule, acceptor atom, score
      L1  H    14    33       P1  8028  0.86
      P1  H  7997  8009       L1     1  0.81

> <Gold.PLP.Chemscore.Internal.Correction>
0.0336

> <Gold.Rescore>
     Score         DG    S(hbond)    S(metal)    S(lipo)     H(rot)  DE(clash)    DE(int)     intcor
     14.00     -18.69       1.70        0.00     127.28       2.88       1.36       3.34       ----

> <Gold.Chemscore.Fitness>
13.9951

> <Gold.Chemscore.DG>
-18.6923

> <Gold.Chemscore.ZeroCoef>
-5.4800

> <Gold.Chemscore.Hbond>
1.7021

> <Gold.Chemscore.Metal>
0.0000

> <Gold.Chemscore.Lipo>
127.2798

> <Gold.Chemscore.Internal_Hbond>
0.0000

> <Gold.Chemscore.DEClash>
1.3562

> <Gold.Chemscore.DEInternal>
3.3410

> <Gold.Chemscore.Rot>
2.8767

> <Gold.Chemscore.Internal.Correction>
   9.000000E+99

> <Gold.Chemscore.Hbonds>
donor molecule, donor type, donor heavy atom, donor atom, acceptor molecule, acceptor atom, score
      L1  H    14    33       P1  8028  0.78
      P1  H  7997  8009       L1     1  0.16

> <Gold.Chemscore.Hbond.Weighted>
-5.6850

> <Gold.Chemscore.Metal.Weighted>
-0.0000

> <Gold.Chemscore.Lipo.Weighted>
-14.8917

> <Gold.Chemscore.Internal_Hbond.Weighted>
0.0000

> <Gold.Chemscore.DEClash.Weighted>
1.3562

> <Gold.Chemscore.DEInternal.Weighted>
3.3410

> <Gold.Chemscore.Rot.Weighted>
7.3644

> <Gold.Chemscore.Internal.Correction.Weighted>
   9.000000E+99

> <Gold.Protein.RotatedTorsions>
[ 6907 6896 6895 6894 ] final   23.36 input  -60.11 | X-H torsion
[ 7974 7965 7964 7962 ] final  160.38 input  175.53 | X-H torsion
[ 8008 7997 7996 7995 ] final -120.53 input   59.86 | X-H torsion
[ 10167 10162 10161 10158 ] final -176.88 input  -65.29 | X-H torsion
[ 10718 10713 10712 10709 ] final  -30.75 input   66.30 | X-H torsion
[ 10763 10752 10751 10750 ] final    1.83 input  -60.55 | X-H torsion
[ 11005 11000 10999 10996 ] final -124.19 input  -57.11 | X-H torsion

> <Gold.Protein.ActiveResidues>
 VAL166  LYS551  ARG553  GLY616  TRP617  ASP618  TYR619  PRO620  LYS621  CYS622 
 ASP623  PHE694  ASN695  SER759  ASP760  ASP761  ALA762  ILE779  LEU786  VAL792 
 PHE793  MET794  SER795  GLU796  ALA797  LYS798  CYS799  TRP800  GLU811  SER814 

> <Gold.Protein.RotatedAtoms>
  151.9412  135.0212  160.0535 H   0  0  0  0  0  0  0  0  0  0  0  0  # atno 6907 bound_to 6896
  152.2035  133.4853  159.5079 H   0  0  0  0  0  0  0  0  0  0  0  0  # atno 6908 bound_to 6896
  150.6960  134.1477  159.4171 H   0  0  0  0  0  0  0  0  0  0  0  0  # atno 6909 bound_to 6896
  144.7740  139.7750  143.6286 H   0  0  0  0  0  0  0  0  0  0  0  0  # atno 7974 bound_to 7965
  155.1334  140.0400  157.2780 H   0  0  0  0  0  0  0  0  0  0  0  0  # atno 8008 bound_to 7997
  154.6526  140.2572  155.7170 H   0  0  0  0  0  0  0  0  0  0  0  0  # atno 8009 bound_to 7997
  156.2584  140.2833  156.0966 H   0  0  0  0  0  0  0  0  0  0  0  0  # atno 8010 bound_to 7997
  139.5508  144.2116  152.1072 H   0  0  0  0  0  0  0  0  0  0  0  0  # atno 10167 bound_to 10162
  156.3959  130.4381  149.7359 H   0  0  0  0  0  0  0  0  0  0  0  0  # atno 10718 bound_to 10713
  153.3031  135.6957  153.7185 H   0  0  0  0  0  0  0  0  0  0  0  0  # atno 10763 bound_to 10752
  153.6091  135.3448  155.2973 H   0  0  0  0  0  0  0  0  0  0  0  0  # atno 10764 bound_to 10752
  154.8556  135.4359  154.2148 H   0  0  0  0  0  0  0  0  0  0  0  0  # atno 10765 bound_to 10752
  140.9860  134.0606  157.3710 H   0  0  0  0  0  0  0  0  0  0  0  0  # atno 11005 bound_to 11000
  146.1906  139.5145  142.9807 LP  0  0  0  0  0  0  0  0  0  0  0  0  # atno 17320 bound_to 7965
  145.6241  141.0317  143.1899 LP  0  0  0  0  0  0  0  0  0  0  0  0  # atno 17321 bound_to 7965
  140.1610  144.5025  150.6632 LP  0  0  0  0  0  0  0  0  0  0  0  0  # atno 17342 bound_to 10162
  140.6769  143.2309  151.5483 LP  0  0  0  0  0  0  0  0  0  0  0  0  # atno 17343 bound_to 10162
  156.4394  130.7854  151.2875 LP  0  0  0  0  0  0  0  0  0  0  0  0  # atno 17370 bound_to 10713
  157.7501  131.0129  150.3404 LP  0  0  0  0  0  0  0  0  0  0  0  0  # atno 17371 bound_to 10713
  139.8971  135.0149  156.7083 LP  0  0  0  0  0  0  0  0  0  0  0  0  # atno 17394 bound_to 11000
  140.7113  133.9220  155.8086 LP  0  0  0  0  0  0  0  0  0  0  0  0  # atno 17395 bound_to 11000

$$$$
