AV-unprocessed.smi:1702|AV-procd|sdf|6846|dock4
  -GOLD-   22720 8 23D 1   1.00000     0.00000
 Structure written by MMmdl.
 44 46  0  0  0  0  0  0  0  0  2 V2000
  145.0573  136.0634  151.5681 C   0  0  0  0  0  0  0  0  0  0  0  0
  145.9406  137.1642  152.1714 C   0  0  2  0  0  0  0  0  0  0  0  0
  145.3540  137.7091  153.4841 C   0  0  0  0  0  0  0  0  0  0  0  0
  146.2290  138.8335  154.0630 C   0  0  0  0  0  0  0  0  0  0  0  0
  146.4090  139.9345  153.0818 N   0  3  1  0  0  0  0  0  0  0  0  0
  147.1372  141.0906  153.6646 C   0  0  0  0  0  0  0  0  0  0  0  0
  148.4675  140.6878  154.3416 C   0  0  1  0  0  0  0  0  0  0  0  0
  149.5270  140.8671  153.4234 O   0  0  0  0  0  0  0  0  0  0  0  0
  148.7942  141.5300  155.5906 C   0  0  0  0  0  0  0  0  0  0  0  0
  149.8326  140.9322  156.4101 N   0  0  0  0  0  0  0  0  0  0  0  0
  150.1090  139.6196  156.5332 C   0  0  0  0  0  0  0  0  0  0  0  0
  151.1040  139.2807  157.3478 N   0  0  0  0  0  0  0  0  0  0  0  0
  151.5290  140.5173  157.8015 C   0  0  0  0  0  0  0  0  0  0  0  0
  152.5623  140.8581  158.7029 C   0  0  0  0  0  0  0  0  0  0  0  0
  152.8129  142.2079  159.0262 C   0  0  0  0  0  0  0  0  0  0  0  0
  153.8055  142.5170  159.8938 F   0  0  0  0  0  0  0  0  0  0  0  0
  152.0349  143.2359  158.4530 C   0  0  0  0  0  0  0  0  0  0  0  0
  152.2793  144.5291  158.7708 F   0  0  0  0  0  0  0  0  0  0  0  0
  151.0008  142.9208  157.5509 C   0  0  0  0  0  0  0  0  0  0  0  0
  150.7544  141.5727  157.2319 C   0  0  0  0  0  0  0  0  0  0  0  0
  147.0107  139.4391  151.8150 C   0  0  0  0  0  0  0  0  0  0  0  0
  146.1503  138.3288  151.1893 C   0  0  0  0  0  0  0  0  0  0  0  0
  144.0616  136.4389  151.3300 H   0  0  0  0  0  0  0  0  0  0  0  0
  144.9416  135.2292  152.2609 H   0  0  0  0  0  0  0  0  0  0  0  0
  145.4930  135.6700  150.6492 H   0  0  0  0  0  0  0  0  0  0  0  0
  146.9148  136.7243  152.3907 H   0  0  0  0  0  0  0  0  0  0  0  0
  144.3446  138.0858  153.3114 H   0  0  0  0  0  0  0  0  0  0  0  0
  145.2618  136.9042  154.2143 H   0  0  0  0  0  0  0  0  0  0  0  0
  145.7584  139.2189  154.9683 H   0  0  0  0  0  0  0  0  0  0  0  0
  147.2045  138.4408  154.3547 H   0  0  0  0  0  0  0  0  0  0  0  0
  147.3584  141.8214  152.8850 H   0  0  0  0  0  0  0  0  0  0  0  0
  146.4733  141.5940  154.3682 H   0  0  0  0  0  0  0  0  0  0  0  0
  148.4505  139.6385  154.6339 H   0  0  0  0  0  0  0  0  0  0  0  0
  149.4328  140.2457  152.7177 H   0  0  0  0  0  0  0  0  0  0  0  0
  149.1274  142.5270  155.2976 H   0  0  0  0  0  0  0  0  0  0  0  0
  147.9026  141.6695  156.2033 H   0  0  0  0  0  0  0  0  0  0  0  0
  149.5439  138.8703  155.9981 H   0  0  0  0  0  0  0  0  0  0  0  0
  153.1639  140.0796  159.1482 H   0  0  0  0  0  0  0  0  0  0  0  0
  150.4048  143.7069  157.1120 H   0  0  0  0  0  0  0  0  0  0  0  0
  147.1119  140.2512  151.0964 H   0  0  0  0  0  0  0  0  0  0  0  0
  148.0175  139.0659  152.0099 H   0  0  0  0  0  0  0  0  0  0  0  0
  146.6269  137.9664  150.2777 H   0  0  0  0  0  0  0  0  0  0  0  0
  145.1854  138.7411  150.8901 H   0  0  0  0  0  0  0  0  0  0  0  0
  145.4803  140.2643  152.8610 H   0  0  0  0  0  0  0  0  0  0  0  0
  1  2  1  0  0  0  0
  1 23  1  0  0  0  0
  1 24  1  0  0  0  0
  1 25  1  0  0  0  0
  2 22  1  0  0  0  0
  2  3  1  0  0  0  0
  2 26  1  0  0  0  0
  3  4  1  0  0  0  0
  3 27  1  0  0  0  0
  3 28  1  0  0  0  0
  4  5  1  0  0  0  0
  4 29  1  0  0  0  0
  4 30  1  0  0  0  0
  5  6  1  0  0  0  0
  5 21  1  0  0  0  0
  5 44  1  0  0  0  0
  6  7  1  0  0  0  0
  6 31  1  0  0  0  0
  6 32  1  0  0  0  0
  7  8  1  0  0  0  0
  7  9  1  0  0  0  0
  7 33  1  0  0  0  0
  8 34  1  0  0  0  0
  9 10  1  0  0  0  0
  9 35  1  0  0  0  0
  9 36  1  0  0  0  0
 10 20  1  0  0  0  0
 10 11  1  0  0  0  0
 11 12  2  0  0  0  0
 11 37  1  0  0  0  0
 12 13  1  0  0  0  0
 13 20  2  0  0  0  0
 13 14  1  0  0  0  0
 14 15  2  0  0  0  0
 14 38  1  0  0  0  0
 15 16  1  0  0  0  0
 15 17  1  0  0  0  0
 17 18  1  0  0  0  0
 17 19  2  0  0  0  0
 19 20  1  0  0  0  0
 19 39  1  0  0  0  0
 21 22  1  0  0  0  0
 21 40  1  0  0  0  0
 21 41  1  0  0  0  0
 22 42  1  0  0  0  0
 22 43  1  0  0  0  0
M  CHG  1   5   1
M  END
> <s_m_source_file>
AV-unprocessed.smi

> <i_m_source_file_index>
1702

> <i_lp_mmshare_version>
43012

> <i_f3d_flags>
0

> <s_epik_input>
W0NIM11bQ0hdMVtDSDJdW0NIMl1OKFtDSDJdW0NIMl0xKVtDSDJdW0NASF0oW09IXSlbQ0gyXW4oW2NIXW4yKWMoYzIzKVtjSF1jKEYpYyhGKVtjSF0z

> <s_epik_cmdline>
J2VwaWtfcHl0aG9uJywgJy1waCcsICc3LjAnLCAnLXRuJywgJzgnLCAnLW1hJywgJzIwMCcsICctbWV0YWxfYmluZGluZycsICctaW1hZScsICc8aW5maWxlLm1hZT4nLCAnLW9tYWUnLCAnPG91dGZpbGUubWFlPic=

> <r_epik_Ionization_Penalty>
0.0135195

> <r_epik_Ionization_Penalty_Charging>
0.00181365

> <r_epik_Ionization_Penalty_Neutral>
0.0117059

> <r_epik_State_Penalty>
0.00902283

> <r_epik_Charging_Adjusted_Penalty>
0.0108365

> <i_epik_Tot_Q>
1

> <i_epik_Tot_abs_Q>
1

> <r_epik_Metal_State_Penalty>
9.09181e-06

> <b_epik_Metal_Only>
0

> <s_lp_Force_Field>
OPLS_2005

> <r_lp_Energy>
23.1307

> <b_lp_Chiralities_Consistent>
1

> <s_lp_Variant>
AV-unprocessed.smi:1702-2

> <Gold.Version>
5.8.1

> <Gold.Id.Protein>
6NUR|6NUR_protein|mol2

> <Gold.PLP.Fitness>
55.7058

> <Gold.PLP.PLP>
-45.4859

> <Gold.PLP.part.hbond>
-3.4616

> <Gold.PLP.part.metal>
0.0000

> <Gold.PLP.part.buried>
2.5424

> <Gold.PLP.part.nonpolar>
-45.1977

> <Gold.PLP.part.repulsive>
0.0000

> <Gold.PLP.ligand.clash>
0.0000

> <Gold.PLP.ligand.torsion>
1.0341

> <Gold.PLP.Chemscore.Hbond>
4.0720

> <Gold.PLP.Chemscore.CHOScore>
0.0000

> <Gold.PLP.Chemscore.Metal>
0.0000

> <Gold.Chemscore.Hbonds>
donor molecule, donor type, donor heavy atom, donor atom, acceptor molecule, acceptor atom, score
      L1  H     5    44       P1 10175  2.00
      L1  H     8    34       P1  7957  0.88
      P1  H  7989  7998       L1     8  0.22
      P1  H  8011  8017       L1     8  0.85

> <Gold.PLP.Chemscore.Internal.Correction>
0.0720

> <Gold.Rescore>
     Score         DG    S(hbond)    S(metal)    S(lipo)     H(rot)  DE(clash)    DE(int)     intcor
     17.23     -20.51       2.36        0.00     110.70       2.26       2.11       1.17       ----

> <Gold.Chemscore.Fitness>
17.2264

> <Gold.Chemscore.DG>
-20.5104

> <Gold.Chemscore.ZeroCoef>
-5.4800

> <Gold.Chemscore.Hbond>
2.3559

> <Gold.Chemscore.Metal>
0.0000

> <Gold.Chemscore.Lipo>
110.7025

> <Gold.Chemscore.Internal_Hbond>
0.0000

> <Gold.Chemscore.DEClash>
2.1147

> <Gold.Chemscore.DEInternal>
1.1693

> <Gold.Chemscore.Rot>
2.2619

> <Gold.Chemscore.Internal.Correction>
   9.000000E+99

> <Gold.Chemscore.Hbonds>
donor molecule, donor type, donor heavy atom, donor atom, acceptor molecule, acceptor atom, score
      L1  H     5    44       P1 10175  0.94
      L1  H     8    34       P1  7957  0.84
      P1  H  7989  7998       L1     8  0.04
      P1  H  8011  8017       L1     8  0.14

> <Gold.Chemscore.Hbond.Weighted>
-7.8687

> <Gold.Chemscore.Metal.Weighted>
-0.0000

> <Gold.Chemscore.Lipo.Weighted>
-12.9522

> <Gold.Chemscore.Internal_Hbond.Weighted>
0.0000

> <Gold.Chemscore.DEClash.Weighted>
2.1147

> <Gold.Chemscore.DEInternal.Weighted>
1.1693

> <Gold.Chemscore.Rot.Weighted>
5.7904

> <Gold.Chemscore.Internal.Correction.Weighted>
   9.000000E+99

> <Gold.Protein.RotatedTorsions>
[ 6907 6896 6895 6894 ] final  159.98 input  -60.11 | X-H torsion
[ 7974 7965 7964 7962 ] final  -68.97 input  175.53 | X-H torsion
[ 8008 7997 7996 7995 ] final  -96.92 input   59.86 | X-H torsion
[ 10167 10162 10161 10158 ] final -101.80 input  -65.29 | X-H torsion
[ 10718 10713 10712 10709 ] final  -45.32 input   66.30 | X-H torsion
[ 10763 10752 10751 10750 ] final   12.62 input  -60.55 | X-H torsion
[ 11005 11000 10999 10996 ] final   68.08 input  -57.11 | X-H torsion

> <Gold.Protein.ActiveResidues>
 VAL166  LYS551  ARG553  GLY616  TRP617  ASP618  TYR619  PRO620  LYS621  CYS622 
 ASP623  PHE694  ASN695  SER759  ASP760  ASP761  ALA762  ILE779  LEU786  VAL792 
 PHE793  MET794  SER795  GLU796  ALA797  LYS798  CYS799  TRP800  GLU811  SER814 

> <Gold.Protein.RotatedAtoms>
  151.9775  133.3746  159.4094 H   0  0  0  0  0  0  0  0  0  0  0  0  # atno 6907 bound_to 6896
  150.6939  134.4075  159.5156 H   0  0  0  0  0  0  0  0  0  0  0  0  # atno 6908 bound_to 6896
  152.1788  134.8771  160.0579 H   0  0  0  0  0  0  0  0  0  0  0  0  # atno 6909 bound_to 6896
  145.7098  140.9083  143.0687 H   0  0  0  0  0  0  0  0  0  0  0  0  # atno 7974 bound_to 7965
  154.7809  140.0467  157.1126 H   0  0  0  0  0  0  0  0  0  0  0  0  # atno 8008 bound_to 7997
  154.9706  140.3089  155.4970 H   0  0  0  0  0  0  0  0  0  0  0  0  # atno 8009 bound_to 7997
  156.2936  140.2254  156.4798 H   0  0  0  0  0  0  0  0  0  0  0  0  # atno 8010 bound_to 7997
  140.2374  143.3563  152.0832 H   0  0  0  0  0  0  0  0  0  0  0  0  # atno 10167 bound_to 10162
  156.2295  130.4171  149.8892 H   0  0  0  0  0  0  0  0  0  0  0  0  # atno 10718 bound_to 10713
  153.1803  135.6826  153.8487 H   0  0  0  0  0  0  0  0  0  0  0  0  # atno 10763 bound_to 10752
  153.7820  135.3181  155.3368 H   0  0  0  0  0  0  0  0  0  0  0  0  # atno 10764 bound_to 10752
  154.8055  135.4751  154.0477 H   0  0  0  0  0  0  0  0  0  0  0  0  # atno 10765 bound_to 10752
  139.9732  134.6865  156.0405 H   0  0  0  0  0  0  0  0  0  0  0  0  # atno 11005 bound_to 11000
  144.6945  139.9059  143.7461 LP  0  0  0  0  0  0  0  0  0  0  0  0  # atno 17320 bound_to 7965
  146.0723  139.3711  143.0515 LP  0  0  0  0  0  0  0  0  0  0  0  0  # atno 17321 bound_to 7965
  139.5089  144.6857  151.5892 LP  0  0  0  0  0  0  0  0  0  0  0  0  # atno 17342 bound_to 10162
  140.6139  143.9385  150.6474 LP  0  0  0  0  0  0  0  0  0  0  0  0  # atno 17343 bound_to 10162
  156.6511  130.8744  151.3531 LP  0  0  0  0  0  0  0  0  0  0  0  0  # atno 17370 bound_to 10713
  157.7126  130.9459  150.1143 LP  0  0  0  0  0  0  0  0  0  0  0  0  # atno 17371 bound_to 10713
  141.1411  133.6564  156.3732 LP  0  0  0  0  0  0  0  0  0  0  0  0  # atno 17394 bound_to 11000
  140.5249  134.6268  157.5331 LP  0  0  0  0  0  0  0  0  0  0  0  0  # atno 17395 bound_to 11000

$$$$
