AV-unprocessed.smi:1550|AV-procd|sdf|6224|dock4
  -GOLD-   22720 6393D 1   1.00000     0.00000
 Structure written by MMmdl.
 43 44  0  0  0  0  0  0  0  0  1 V2000
  147.9860  135.6430  156.8156 C   0  0  0  0  0  0  0  0  0  0  0  0
  148.2476  135.6189  155.3023 C   0  0  2  0  0  0  0  0  0  0  0  0
  148.8102  136.8785  154.9455 O   0  0  0  0  0  0  0  0  0  0  0  0
  150.1479  137.0968  155.3802 C   0  0  0  0  0  0  0  0  0  0  0  0
  150.5633  138.5266  155.0128 C   0  0  2  0  0  0  0  0  0  0  0  0
  151.5124  139.1466  156.0577 C   0  0  0  0  0  0  0  0  0  0  0  0
  151.8288  140.6032  155.7010 C   0  0  0  0  0  0  0  0  0  0  0  0
  150.5237  141.3791  155.4935 C   0  0  0  0  0  0  0  0  0  0  0  0
  149.6245  140.6518  154.4814 C   0  0  0  0  0  0  0  0  0  0  0  0
  149.3807  139.3178  154.9174 O   0  0  0  0  0  0  0  0  0  0  0  0
  146.9523  135.3714  154.5112 C   0  0  0  0  0  0  0  0  0  0  0  0
  145.8805  135.3129  155.1126 O   0  0  0  0  0  0  0  0  0  0  0  0
  147.1055  135.2660  153.1760 N   0  0  0  0  0  0  0  0  0  0  0  0
  146.1470  135.0633  152.1678 C   0  0  0  0  0  0  0  0  0  0  0  0
  145.8538  133.8683  151.5900 C   0  0  0  0  0  0  0  0  0  0  0  0
  144.8455  133.7400  150.5507 C   0  0  0  0  0  0  0  0  0  0  0  0
  144.5670  132.4075  149.8719 C   0  0  0  0  0  0  0  0  0  0  0  0
  143.7636  132.5585  148.8179 F   0  0  0  0  0  0  0  0  0  0  0  0
  145.6979  131.8362  149.4573 F   0  0  0  0  0  0  0  0  0  0  0  0
  143.9743  131.5783  150.7299 F   0  0  0  0  0  0  0  0  0  0  0  0
  144.2310  134.8741  150.1668 C   0  0  0  0  0  0  0  0  0  0  0  0
  144.5234  136.1050  150.7573 N   0  0  0  0  0  0  0  0  0  0  0  0
  145.4414  136.2808  151.7337 C   0  0  0  0  0  0  0  0  0  0  0  0
  145.6431  137.4013  152.2007 O   0  0  0  0  0  0  0  0  0  0  0  0
  144.0114  136.9082  150.4222 H   0  0  0  0  0  0  0  0  0  0  0  0
  147.5451  134.7059  157.1572 H   0  0  0  0  0  0  0  0  0  0  0  0
  147.3113  136.4533  157.0948 H   0  0  0  0  0  0  0  0  0  0  0  0
  148.9164  135.7877  157.3654 H   0  0  0  0  0  0  0  0  0  0  0  0
  148.9707  134.8278  155.0931 H   0  0  0  0  0  0  0  0  0  0  0  0
  150.1975  136.9665  156.4622 H   0  0  0  0  0  0  0  0  0  0  0  0
  150.8423  136.3831  154.9353 H   0  0  0  0  0  0  0  0  0  0  0  0
  151.0488  138.5080  154.0353 H   0  0  0  0  0  0  0  0  0  0  0  0
  151.0507  139.1056  157.0451 H   0  0  0  0  0  0  0  0  0  0  0  0
  152.4362  138.5707  156.1215 H   0  0  0  0  0  0  0  0  0  0  0  0
  152.4268  141.0662  156.4862 H   0  0  0  0  0  0  0  0  0  0  0  0
  152.4258  140.6364  154.7887 H   0  0  0  0  0  0  0  0  0  0  0  0
  149.9982  141.4734  156.4447 H   0  0  0  0  0  0  0  0  0  0  0  0
  150.7366  142.3921  155.1513 H   0  0  0  0  0  0  0  0  0  0  0  0
  148.6707  141.1712  154.3878 H   0  0  0  0  0  0  0  0  0  0  0  0
  150.0804  140.6445  153.4901 H   0  0  0  0  0  0  0  0  0  0  0  0
  148.0489  135.3774  152.8328 H   0  0  0  0  0  0  0  0  0  0  0  0
  146.3646  132.9656  151.8795 H   0  0  0  0  0  0  0  0  0  0  0  0
  143.4836  134.9283  149.3890 H   0  0  0  0  0  0  0  0  0  0  0  0
  1  2  1  0  0  0  0
  1 26  1  0  0  0  0
  1 27  1  0  0  0  0
  1 28  1  0  0  0  0
  2  3  1  0  0  0  0
  2 11  1  0  0  0  0
  2 29  1  0  0  0  0
  3  4  1  0  0  0  0
  4  5  1  0  0  0  0
  4 30  1  0  0  0  0
  4 31  1  0  0  0  0
  5 10  1  0  0  0  0
  5  6  1  0  0  0  0
  5 32  1  0  0  0  0
  6  7  1  0  0  0  0
  6 33  1  0  0  0  0
  6 34  1  0  0  0  0
  7  8  1  0  0  0  0
  7 35  1  0  0  0  0
  7 36  1  0  0  0  0
  8  9  1  0  0  0  0
  8 37  1  0  0  0  0
  8 38  1  0  0  0  0
  9 10  1  0  0  0  0
  9 39  1  0  0  0  0
  9 40  1  0  0  0  0
 11 12  2  0  0  0  0
 11 13  1  0  0  0  0
 13 14  1  0  0  0  0
 13 41  1  0  0  0  0
 14 23  1  0  0  0  0
 14 15  2  0  0  0  0
 15 16  1  0  0  0  0
 15 42  1  0  0  0  0
 16 17  1  0  0  0  0
 16 21  2  0  0  0  0
 17 18  1  0  0  0  0
 17 19  1  0  0  0  0
 17 20  1  0  0  0  0
 21 22  1  0  0  0  0
 21 43  1  0  0  0  0
 22 25  1  0  0  0  0
 22 23  1  0  0  0  0
 23 24  2  0  0  0  0
M  END
> <s_m_source_file>
AV-unprocessed.smi

> <i_m_source_file_index>
1550

> <i_lp_mmshare_version>
43012

> <i_f3d_flags>
0

> <s_epik_input>
TzFbQ0gyXVtDSDJdW0NIMl1bQ0gyXVtDQEhdMVtDSDJdT1tDQEBIXShbQ0gzXSlDKD1PKVtOSF1jMltjSF1jKEMoRikoRilGKVtjSF1bbkhdYzI9Tw==

> <s_epik_cmdline>
J2VwaWtfcHl0aG9uJywgJy1waCcsICc3LjAnLCAnLXRuJywgJzgnLCAnLW1hJywgJzIwMCcsICctbWV0YWxfYmluZGluZycsICctaW1hZScsICc8aW5maWxlLm1hZT4nLCAnLW9tYWUnLCAnPG91dGZpbGUubWFlPic=

> <r_lp_tautomer_probability>
0.999

> <r_epik_Ionization_Penalty>
0.00891333

> <r_epik_Ionization_Penalty_Charging>
0.00891323

> <r_epik_Ionization_Penalty_Neutral>
1.00146e-07

> <r_epik_State_Penalty>
0.00674197

> <r_epik_Charging_Adjusted_Penalty>
0.0156552

> <i_epik_Tot_Q>
0

> <i_epik_Tot_abs_Q>
0

> <r_epik_Metal_State_Penalty>
0.321024

> <b_epik_Metal_Only>
0

> <s_lp_Force_Field>
OPLS_2005

> <r_lp_Energy>
25.3727

> <b_lp_Chiralities_Consistent>
1

> <s_lp_Variant>
AV-unprocessed.smi:1550-1

> <Gold.Version>
5.8.1

> <Gold.Id.Protein>
6NUR|6NUR_protein|mol2

> <Gold.PLP.Fitness>
44.7940

> <Gold.PLP.PLP>
-39.8882

> <Gold.PLP.part.hbond>
-1.7010

> <Gold.PLP.part.metal>
0.0000

> <Gold.PLP.part.buried>
-3.5175

> <Gold.PLP.part.nonpolar>
-34.5775

> <Gold.PLP.part.repulsive>
0.5297

> <Gold.PLP.ligand.clash>
1.0762

> <Gold.PLP.ligand.torsion>
1.5114

> <Gold.PLP.Chemscore.Hbond>
1.9675

> <Gold.PLP.Chemscore.CHOScore>
0.9841

> <Gold.PLP.Chemscore.Metal>
0.0000

> <Gold.Chemscore.Hbonds>
donor molecule, donor type, donor heavy atom, donor atom, acceptor molecule, acceptor atom, score
      L1  H    13    41       P1  7948  0.90
      L1  H    22    25       P1 10171  1.00
      L1  C    21    43       P1 10186  0.98

> <Gold.PLP.Chemscore.Internal.Correction>
0.1502

> <Gold.Rescore>
     Score         DG    S(hbond)    S(metal)    S(lipo)     H(rot)  DE(clash)    DE(int)     intcor
     14.04     -15.56       1.88        0.00      73.24       1.86       0.07       1.44       ----

> <Gold.Chemscore.Fitness>
14.0421

> <Gold.Chemscore.DG>
-15.5574

> <Gold.Chemscore.ZeroCoef>
-5.4800

> <Gold.Chemscore.Hbond>
1.8751

> <Gold.Chemscore.Metal>
0.0000

> <Gold.Chemscore.Lipo>
73.2379

> <Gold.Chemscore.Internal_Hbond>
0.0000

> <Gold.Chemscore.DEClash>
0.0741

> <Gold.Chemscore.DEInternal>
1.4412

> <Gold.Chemscore.Rot>
1.8571

> <Gold.Chemscore.Internal.Correction>
   9.000000E+99

> <Gold.Chemscore.Hbonds>
donor molecule, donor type, donor heavy atom, donor atom, acceptor molecule, acceptor atom, score
      L1  H    13    41       P1  7948  0.83
      L1  H    22    25       P1 10171  0.98

> <Gold.Chemscore.Hbond.Weighted>
-6.2627

> <Gold.Chemscore.Metal.Weighted>
-0.0000

> <Gold.Chemscore.Lipo.Weighted>
-8.5688

> <Gold.Chemscore.Internal_Hbond.Weighted>
0.0000

> <Gold.Chemscore.DEClash.Weighted>
0.0741

> <Gold.Chemscore.DEInternal.Weighted>
1.4412

> <Gold.Chemscore.Rot.Weighted>
4.7541

> <Gold.Chemscore.Internal.Correction.Weighted>
   9.000000E+99

> <Gold.Protein.RotatedTorsions>
[ 6907 6896 6895 6894 ] final   75.37 input  -60.11 | X-H torsion
[ 7974 7965 7964 7962 ] final  -34.19 input  175.53 | X-H torsion
[ 8008 7997 7996 7995 ] final   43.02 input   59.86 | X-H torsion
[ 10167 10162 10161 10158 ] final  104.59 input  -65.29 | X-H torsion
[ 10718 10713 10712 10709 ] final -104.88 input   66.30 | X-H torsion
[ 10763 10752 10751 10750 ] final -145.01 input  -60.55 | X-H torsion
[ 11005 11000 10999 10996 ] final  133.19 input  -57.11 | X-H torsion

> <Gold.Protein.ActiveResidues>
 VAL166  LYS551  ARG553  GLY616  TRP617  ASP618  TYR619  PRO620  LYS621  CYS622 
 ASP623  PHE694  ASN695  SER759  ASP760  ASP761  ALA762  ILE779  LEU786  VAL792 
 PHE793  MET794  SER795  GLU796  ALA797  LYS798  CYS799  TRP800  GLU811  SER814 

> <Gold.Protein.RotatedAtoms>
  152.5022  134.4130  159.9454 H   0  0  0  0  0  0  0  0  0  0  0  0  # atno 6907 bound_to 6896
  151.4099  133.3724  159.2750 H   0  0  0  0  0  0  0  0  0  0  0  0  # atno 6908 bound_to 6896
  150.9299  134.8736  159.7603 H   0  0  0  0  0  0  0  0  0  0  0  0  # atno 6909 bound_to 6896
  146.0849  140.6008  142.8891 H   0  0  0  0  0  0  0  0  0  0  0  0  # atno 7974 bound_to 7965
  155.2958  140.3382  155.4250 H   0  0  0  0  0  0  0  0  0  0  0  0  # atno 8008 bound_to 7997
  156.2025  140.1738  156.7909 H   0  0  0  0  0  0  0  0  0  0  0  0  # atno 8009 bound_to 7997
  154.5577  140.0693  156.8754 H   0  0  0  0  0  0  0  0  0  0  0  0  # atno 8010 bound_to 7997
  139.7165  144.7067  151.0942 H   0  0  0  0  0  0  0  0  0  0  0  0  # atno 10167 bound_to 10162
  156.0322  130.5536  150.7459 H   0  0  0  0  0  0  0  0  0  0  0  0  # atno 10718 bound_to 10713
  154.8402  135.3424  154.6437 H   0  0  0  0  0  0  0  0  0  0  0  0  # atno 10763 bound_to 10752
  153.7049  135.6967  153.5057 H   0  0  0  0  0  0  0  0  0  0  0  0  # atno 10764 bound_to 10752
  153.2495  135.4358  155.0737 H   0  0  0  0  0  0  0  0  0  0  0  0  # atno 10765 bound_to 10752
  139.9836  134.9540  156.9690 H   0  0  0  0  0  0  0  0  0  0  0  0  # atno 11005 bound_to 11000
  144.7319  140.4696  143.6932 LP  0  0  0  0  0  0  0  0  0  0  0  0  # atno 17320 bound_to 7965
  145.6148  139.1517  143.3056 LP  0  0  0  0  0  0  0  0  0  0  0  0  # atno 17321 bound_to 7965
  140.7745  143.5223  150.9521 LP  0  0  0  0  0  0  0  0  0  0  0  0  # atno 17342 bound_to 10162
  139.8909  143.6954  152.3145 LP  0  0  0  0  0  0  0  0  0  0  0  0  # atno 17343 bound_to 10162
  157.5016  131.0919  151.0307 LP  0  0  0  0  0  0  0  0  0  0  0  0  # atno 17370 bound_to 10713
  157.0686  130.5855  149.5398 LP  0  0  0  0  0  0  0  0  0  0  0  0  # atno 17371 bound_to 10713
  140.5046  134.1063  155.7257 LP  0  0  0  0  0  0  0  0  0  0  0  0  # atno 17394 bound_to 11000
  141.1505  133.8978  157.2110 LP  0  0  0  0  0  0  0  0  0  0  0  0  # atno 17395 bound_to 11000

$$$$
