AV-unprocessed.smi:311|AV-procd|sdf|2302|dock9
  -GOLD-   2262022203D 1   1.00000     0.00000
 Structure written by MMmdl.
 44 46  0  0  0  0  0  0  0  0  2 V2000
  150.3121  135.0878  156.6533 C   0  0  0  0  0  0  0  0  0  0  0  0
  150.4902  133.6138  156.4292 C   0  0  0  0  0  0  0  0  0  0  0  0
  150.8829  132.8429  157.4294 N   0  0  0  0  0  0  0  0  0  0  0  0
  150.9572  131.5476  156.9081 O   0  0  0  0  0  0  0  0  0  0  0  0
  150.6008  131.5903  155.5991 C   0  0  0  0  0  0  0  0  0  0  0  0
  150.6216  130.2961  154.8589 C   0  0  0  0  0  0  0  0  0  0  0  0
  150.2872  132.8700  155.2315 C   0  0  0  0  0  0  0  0  0  0  0  0
  149.8355  133.3819  153.8856 C   0  0  0  0  0  0  0  0  0  0  0  0
  148.3174  133.2565  153.7068 C   0  0  0  0  0  0  0  0  0  0  0  0
  147.7133  132.2382  154.0475 O   0  0  0  0  0  0  0  0  0  0  0  0
  147.7052  134.3203  153.1667 N   0  0  0  0  0  0  0  0  0  0  0  0
  146.2733  134.4108  152.9016 C   0  0  1  0  0  0  0  0  0  0  0  0
  145.8123  135.7895  152.3889 C   0  0  0  0  0  0  0  0  0  0  0  0
  144.7316  135.4918  151.3301 C   0  0  0  0  0  0  0  0  0  0  0  0
  144.5549  134.0271  151.3534 N   0  3  1  0  0  0  0  0  0  0  0  0
  144.0288  133.3892  150.1269 C   0  0  0  0  0  0  0  0  0  0  0  0
  143.8422  131.8791  150.3798 C   0  0  0  0  0  0  0  0  0  0  0  0
  145.1323  131.2223  150.9135 C   0  0  0  0  0  0  0  0  0  0  0  0
  145.6829  131.9866  152.1333 C   0  0  0  0  0  0  0  0  0  0  0  0
  145.8501  133.4716  151.7736 C   0  0  2  0  0  0  0  0  0  0  0  0
  150.7144  135.6610  155.8179 H   0  0  0  0  0  0  0  0  0  0  0  0
  150.8214  135.4234  157.5575 H   0  0  0  0  0  0  0  0  0  0  0  0
  149.2565  135.3410  156.7523 H   0  0  0  0  0  0  0  0  0  0  0  0
  150.7544  130.4607  153.7894 H   0  0  0  0  0  0  0  0  0  0  0  0
  149.6877  129.7535  155.0055 H   0  0  0  0  0  0  0  0  0  0  0  0
  151.4394  129.6636  155.2043 H   0  0  0  0  0  0  0  0  0  0  0  0
  150.1102  134.4290  153.7526 H   0  0  0  0  0  0  0  0  0  0  0  0
  150.3282  132.8360  153.0799 H   0  0  0  0  0  0  0  0  0  0  0  0
  148.2720  135.1176  152.9157 H   0  0  0  0  0  0  0  0  0  0  0  0
  145.7138  134.1568  153.8046 H   0  0  0  0  0  0  0  0  0  0  0  0
  145.4248  136.4009  153.2047 H   0  0  0  0  0  0  0  0  0  0  0  0
  146.6355  136.3398  151.9305 H   0  0  0  0  0  0  0  0  0  0  0  0
  143.7894  135.9974  151.5432 H   0  0  0  0  0  0  0  0  0  0  0  0
  145.0741  135.8138  150.3454 H   0  0  0  0  0  0  0  0  0  0  0  0
  143.0766  133.8463  149.8554 H   0  0  0  0  0  0  0  0  0  0  0  0
  144.7164  133.5560  149.2962 H   0  0  0  0  0  0  0  0  0  0  0  0
  143.0397  131.7321  151.1040 H   0  0  0  0  0  0  0  0  0  0  0  0
  143.5221  131.3829  149.4630 H   0  0  0  0  0  0  0  0  0  0  0  0
  144.9426  130.1814  151.1770 H   0  0  0  0  0  0  0  0  0  0  0  0
  145.8849  131.2087  150.1241 H   0  0  0  0  0  0  0  0  0  0  0  0
  145.0013  131.8779  152.9781 H   0  0  0  0  0  0  0  0  0  0  0  0
  146.6380  131.5614  152.4435 H   0  0  0  0  0  0  0  0  0  0  0  0
  146.5540  133.5677  150.9433 H   0  0  0  0  0  0  0  0  0  0  0  0
  143.9034  133.8290  152.0994 H   0  0  0  0  0  0  0  0  0  0  0  0
  1  2  1  0  0  0  0
  1 21  1  0  0  0  0
  1 22  1  0  0  0  0
  1 23  1  0  0  0  0
  2  7  1  0  0  0  0
  2  3  2  0  0  0  0
  3  4  1  0  0  0  0
  4  5  1  0  0  0  0
  5  6  1  0  0  0  0
  5  7  2  0  0  0  0
  6 24  1  0  0  0  0
  6 25  1  0  0  0  0
  6 26  1  0  0  0  0
  7  8  1  0  0  0  0
  8  9  1  0  0  0  0
  8 27  1  0  0  0  0
  8 28  1  0  0  0  0
  9 10  2  0  0  0  0
  9 11  1  0  0  0  0
 11 12  1  0  0  0  0
 11 29  1  0  0  0  0
 12 20  1  0  0  0  0
 12 13  1  0  0  0  0
 12 30  1  0  0  0  0
 13 14  1  0  0  0  0
 13 31  1  0  0  0  0
 13 32  1  0  0  0  0
 14 15  1  0  0  0  0
 14 33  1  0  0  0  0
 14 34  1  0  0  0  0
 15 20  1  0  0  0  0
 15 16  1  0  0  0  0
 15 44  1  0  0  0  0
 16 17  1  0  0  0  0
 16 35  1  0  0  0  0
 16 36  1  0  0  0  0
 17 18  1  0  0  0  0
 17 37  1  0  0  0  0
 17 38  1  0  0  0  0
 18 19  1  0  0  0  0
 18 39  1  0  0  0  0
 18 40  1  0  0  0  0
 19 20  1  0  0  0  0
 19 41  1  0  0  0  0
 19 42  1  0  0  0  0
 20 43  1  0  0  0  0
M  CHG  1  15   1
M  END
> <s_m_source_file>
AV-unprocessed.smi

> <i_m_source_file_index>
311

> <i_lp_mmshare_version>
43012

> <i_f3d_flags>
0

> <s_epik_input>
W0NIM11jMW5vYyhbQ0gzXSljMVtDSDJdQyg9TylbTkhdW0NASF0oW0NIMl1bQ0gyXTIpW0NAQEhdKE4yMylbQ0gyXVtDSDJdW0NIMl1bQ0gyXTM=

> <s_epik_cmdline>
J2VwaWtfcHl0aG9uJywgJy1waCcsICc3LjAnLCAnLXRuJywgJzgnLCAnLW1hJywgJzIwMCcsICctbWV0YWxfYmluZGluZycsICctaW1hZScsICc8aW5maWxlLm1hZT4nLCAnLW9tYWUnLCAnPG91dGZpbGUubWFlPic=

> <r_epik_Ionization_Penalty>
0.00173669

> <r_epik_Ionization_Penalty_Charging>
0.0017366

> <r_epik_Ionization_Penalty_Neutral>
9.2145e-08

> <r_epik_State_Penalty>
0.00117499

> <r_epik_Charging_Adjusted_Penalty>
0.00291159

> <i_epik_Tot_Q>
1

> <i_epik_Tot_abs_Q>
1

> <r_epik_Metal_State_Penalty>
-0

> <b_epik_Metal_Only>
0

> <s_lp_Force_Field>
OPLS_2005

> <r_lp_Energy>
29.9852

> <b_lp_Chiralities_Consistent>
1

> <s_lp_Variant>
AV-unprocessed.smi:311-6

> <Gold.Version>
5.8.1

> <Gold.Id.Protein>
6NUR|6NUR_protein|mol2

> <Gold.PLP.Fitness>
38.3161

> <Gold.PLP.PLP>
-33.5538

> <Gold.PLP.part.hbond>
-2.0000

> <Gold.PLP.part.metal>
0.0000

> <Gold.PLP.part.buried>
-5.4840

> <Gold.PLP.part.nonpolar>
-26.4111

> <Gold.PLP.part.repulsive>
0.0479

> <Gold.PLP.ligand.clash>
0.0000

> <Gold.PLP.ligand.torsion>
0.6237

> <Gold.PLP.Chemscore.Hbond>
2.0000

> <Gold.PLP.Chemscore.CHOScore>
0.0000

> <Gold.PLP.Chemscore.Metal>
0.0000

> <Gold.Chemscore.Hbonds>
donor molecule, donor type, donor heavy atom, donor atom, acceptor molecule, acceptor atom, score
      L1  H    11    29       P1  7948  1.00
      P1  H  6896  6909       L1     3  1.00

> <Gold.PLP.Chemscore.Internal.Correction>
0.0097

> <Gold.Rescore>
     Score         DG    S(hbond)    S(metal)    S(lipo)     H(rot)  DE(clash)    DE(int)     intcor
     15.69     -18.18       1.80        0.00      86.79       1.36       0.73       1.75       ----

> <Gold.Chemscore.Fitness>
15.6946

> <Gold.Chemscore.DG>
-18.1767

> <Gold.Chemscore.ZeroCoef>
-5.4800

> <Gold.Chemscore.Hbond>
1.8009

> <Gold.Chemscore.Metal>
0.0000

> <Gold.Chemscore.Lipo>
86.7930

> <Gold.Chemscore.Internal_Hbond>
0.0000

> <Gold.Chemscore.DEClash>
0.7331

> <Gold.Chemscore.DEInternal>
1.7490

> <Gold.Chemscore.Rot>
1.3567

> <Gold.Chemscore.Internal.Correction>
   9.000000E+99

> <Gold.Chemscore.Hbonds>
donor molecule, donor type, donor heavy atom, donor atom, acceptor molecule, acceptor atom, score
      L1  H    11    29       P1  7948  0.88
      P1  H  6896  6909       L1     3  0.97

> <Gold.Chemscore.Hbond.Weighted>
-6.0150

> <Gold.Chemscore.Metal.Weighted>
-0.0000

> <Gold.Chemscore.Lipo.Weighted>
-10.1548

> <Gold.Chemscore.Internal_Hbond.Weighted>
0.0000

> <Gold.Chemscore.DEClash.Weighted>
0.7331

> <Gold.Chemscore.DEInternal.Weighted>
1.7490

> <Gold.Chemscore.Rot.Weighted>
3.4731

> <Gold.Chemscore.Internal.Correction.Weighted>
   9.000000E+99

> <Gold.Protein.RotatedTorsions>
[ 6907 6896 6895 6894 ] final  -35.76 input  -60.11 | X-H torsion
[ 7974 7965 7964 7962 ] final    9.10 input  175.53 | X-H torsion
[ 8008 7997 7996 7995 ] final   63.79 input   59.86 | X-H torsion
[ 10167 10162 10161 10158 ] final  -24.89 input  -65.29 | X-H torsion
[ 10718 10713 10712 10709 ] final    8.47 input   66.30 | X-H torsion
[ 10763 10752 10751 10750 ] final  153.94 input  -60.55 | X-H torsion
[ 11005 11000 10999 10996 ] final  -87.34 input  -57.11 | X-H torsion

> <Gold.Protein.ActiveResidues>
 VAL166  LYS551  ARG553  GLY616  TRP617  ASP618  TYR619  PRO620  LYS621  CYS622 
 ASP623  PHE694  ASN695  SER759  ASP760  ASP761  ALA762  ILE779  LEU786  VAL792 
 PHE793  MET794  SER795  GLU796  ALA797  LYS798  CYS799  TRP800  GLU811  SER814 

> <Gold.Protein.RotatedAtoms>
  151.0357  134.9571  159.8134 H   0  0  0  0  0  0  0  0  0  0  0  0  # atno 6907 bound_to 6896
  152.5354  134.2723  159.8986 H   0  0  0  0  0  0  0  0  0  0  0  0  # atno 6908 bound_to 6896
  151.2734  133.4202  159.2656 H   0  0  0  0  0  0  0  0  0  0  0  0  # atno 6909 bound_to 6896
  146.2408  139.9834  142.8433 H   0  0  0  0  0  0  0  0  0  0  0  0  # atno 7974 bound_to 7965
  155.6358  140.3496  155.4698 H   0  0  0  0  0  0  0  0  0  0  0  0  # atno 8008 bound_to 7997
  155.9966  140.1204  157.0611 H   0  0  0  0  0  0  0  0  0  0  0  0  # atno 8009 bound_to 7997
  154.4235  140.1109  156.5625 H   0  0  0  0  0  0  0  0  0  0  0  0  # atno 8010 bound_to 7997
  140.7287  143.4313  151.0798 H   0  0  0  0  0  0  0  0  0  0  0  0  # atno 10167 bound_to 10162
  156.9522  130.5901  149.5657 H   0  0  0  0  0  0  0  0  0  0  0  0  # atno 10718 bound_to 10713
  154.1442  135.2819  155.3152 H   0  0  0  0  0  0  0  0  0  0  0  0  # atno 10763 bound_to 10752
  154.6264  135.5450  153.7635 H   0  0  0  0  0  0  0  0  0  0  0  0  # atno 10764 bound_to 10752
  153.0241  135.6452  154.1588 H   0  0  0  0  0  0  0  0  0  0  0  0  # atno 10765 bound_to 10752
  141.1618  133.7506  156.9292 H   0  0  0  0  0  0  0  0  0  0  0  0  # atno 11005 bound_to 11000
  145.1571  140.9653  143.4399 LP  0  0  0  0  0  0  0  0  0  0  0  0  # atno 17320 bound_to 7965
  145.0151  139.3475  143.6100 LP  0  0  0  0  0  0  0  0  0  0  0  0  # atno 17321 bound_to 7965
  139.7970  143.8138  152.3158 LP  0  0  0  0  0  0  0  0  0  0  0  0  # atno 17342 bound_to 10162
  139.8141  144.7323  150.9658 LP  0  0  0  0  0  0  0  0  0  0  0  0  # atno 17343 bound_to 10162
  156.0358  130.5445  150.8649 LP  0  0  0  0  0  0  0  0  0  0  0  0  # atno 17370 bound_to 10713
  157.5714  131.0946  150.9411 LP  0  0  0  0  0  0  0  0  0  0  0  0  # atno 17371 bound_to 10713
  140.1398  134.9301  157.2451 LP  0  0  0  0  0  0  0  0  0  0  0  0  # atno 17394 bound_to 11000
  140.2851  134.3305  155.7331 LP  0  0  0  0  0  0  0  0  0  0  0  0  # atno 17395 bound_to 11000

$$$$
