AV-unprocessed.smi:3249|AV-procd|sdf|12420|dock1
  -GOLD-   2272018303D 1   1.00000     0.00000
 Structure written by MMmdl.
 44 45  0  0  0  0  0  0  0  0  2 V2000
  151.2155  142.6388  156.7548 C   0  0  0  0  0  0  0  0  0  0  0  0
  150.6005  141.5755  155.8913 C   0  0  0  0  0  0  0  0  0  0  0  0
  149.4926  141.7001  155.0059 C   0  0  0  0  0  0  0  0  0  0  0  0
  149.1978  140.5675  154.3897 N   0  0  0  0  0  0  0  0  0  0  0  0
  150.1050  139.6803  154.8556 N   0  0  0  0  0  0  0  0  0  0  0  0
  150.0837  138.2981  154.3935 C   0  0  1  0  0  0  0  0  0  0  0  0
  151.4388  137.6264  154.6866 C   0  0  0  0  0  0  0  0  0  0  0  0
  148.8796  137.5064  154.9720 C   0  0  1  0  0  0  0  0  0  0  0  0
  147.5287  138.2081  154.7423 C   0  0  0  0  0  0  0  0  0  0  0  0
  148.8200  136.1515  154.3788 N   0  3  0  0  0  0  0  0  0  0  0  0
  149.5357  135.1073  155.1414 C   0  0  0  0  0  0  0  0  0  0  0  0
  149.5269  133.7612  154.4014 C   0  0  2  0  0  0  0  0  0  0  0  0
  148.1315  133.3855  153.8604 C   0  0  0  0  0  0  0  0  0  0  0  0
  148.1580  131.9924  153.2208 C   0  0  0  0  0  0  0  0  0  0  0  0
  148.7418  130.9795  154.2110 C   0  0  0  0  0  0  0  0  0  0  0  0
  150.0976  131.4717  154.7414 C   0  0  0  0  0  0  0  0  0  0  0  0
  149.9504  132.7625  155.3260 O   0  0  0  0  0  0  0  0  0  0  0  0
  150.9610  140.2638  155.7665 C   0  0  0  0  0  0  0  0  0  0  0  0
  150.8137  143.6270  156.5297 H   0  0  0  0  0  0  0  0  0  0  0  0
  152.2957  142.6934  156.6186 H   0  0  0  0  0  0  0  0  0  0  0  0
  151.0332  142.4516  157.8130 H   0  0  0  0  0  0  0  0  0  0  0  0
  148.8967  142.5760  154.7947 H   0  0  0  0  0  0  0  0  0  0  0  0
  149.9668  138.3370  153.3092 H   0  0  0  0  0  0  0  0  0  0  0  0
  151.5063  136.6415  154.2249 H   0  0  0  0  0  0  0  0  0  0  0  0
  151.6014  137.5030  155.7577 H   0  0  0  0  0  0  0  0  0  0  0  0
  152.2631  138.2222  154.2930 H   0  0  0  0  0  0  0  0  0  0  0  0
  149.0120  137.4162  156.0519 H   0  0  0  0  0  0  0  0  0  0  0  0
  147.4801  139.1724  155.2484 H   0  0  0  0  0  0  0  0  0  0  0  0
  146.7055  137.6055  155.1275 H   0  0  0  0  0  0  0  0  0  0  0  0
  147.3467  138.3799  153.6809 H   0  0  0  0  0  0  0  0  0  0  0  0
  147.8496  135.8798  154.3097 H   0  0  0  0  0  0  0  0  0  0  0  0
  150.5667  135.4311  155.2892 H   0  0  0  0  0  0  0  0  0  0  0  0
  149.0905  135.0013  156.1316 H   0  0  0  0  0  0  0  0  0  0  0  0
  150.2465  133.8038  153.5814 H   0  0  0  0  0  0  0  0  0  0  0  0
  147.4049  133.3976  154.6738 H   0  0  0  0  0  0  0  0  0  0  0  0
  147.7937  134.1196  153.1287 H   0  0  0  0  0  0  0  0  0  0  0  0
  147.1545  131.6927  152.9172 H   0  0  0  0  0  0  0  0  0  0  0  0
  148.7668  132.0144  152.3162 H   0  0  0  0  0  0  0  0  0  0  0  0
  148.0524  130.8425  155.0451 H   0  0  0  0  0  0  0  0  0  0  0  0
  148.8531  130.0056  153.7334 H   0  0  0  0  0  0  0  0  0  0  0  0
  150.4758  130.7839  155.4978 H   0  0  0  0  0  0  0  0  0  0  0  0
  150.8399  131.5047  153.9424 H   0  0  0  0  0  0  0  0  0  0  0  0
  151.7500  139.7036  156.2466 H   0  0  0  0  0  0  0  0  0  0  0  0
  149.2073  136.1954  153.4469 H   0  0  0  0  0  0  0  0  0  0  0  0
  1  2  1  0  0  0  0
  1 19  1  0  0  0  0
  1 20  1  0  0  0  0
  1 21  1  0  0  0  0
  2 18  2  0  0  0  0
  2  3  1  0  0  0  0
  3  4  2  0  0  0  0
  3 22  1  0  0  0  0
  4  5  1  0  0  0  0
  5  6  1  0  0  0  0
  5 18  1  0  0  0  0
  6  7  1  0  0  0  0
  6  8  1  0  0  0  0
  6 23  1  0  0  0  0
  7 24  1  0  0  0  0
  7 25  1  0  0  0  0
  7 26  1  0  0  0  0
  8  9  1  0  0  0  0
  8 10  1  0  0  0  0
  8 27  1  0  0  0  0
  9 28  1  0  0  0  0
  9 29  1  0  0  0  0
  9 30  1  0  0  0  0
 10 11  1  0  0  0  0
 10 31  1  0  0  0  0
 10 44  1  0  0  0  0
 11 12  1  0  0  0  0
 11 32  1  0  0  0  0
 11 33  1  0  0  0  0
 12 17  1  0  0  0  0
 12 13  1  0  0  0  0
 12 34  1  0  0  0  0
 13 14  1  0  0  0  0
 13 35  1  0  0  0  0
 13 36  1  0  0  0  0
 14 15  1  0  0  0  0
 14 37  1  0  0  0  0
 14 38  1  0  0  0  0
 15 16  1  0  0  0  0
 15 39  1  0  0  0  0
 15 40  1  0  0  0  0
 16 17  1  0  0  0  0
 16 41  1  0  0  0  0
 16 42  1  0  0  0  0
 18 43  1  0  0  0  0
M  CHG  1  10   1
M  END
> <s_m_source_file>
AV-unprocessed.smi

> <i_m_source_file_index>
3249

> <i_lp_mmshare_version>
43012

> <i_f3d_flags>
0

> <s_epik_input>
W0NIM11jMVtjSF1ubihbY0hdMSlbQ0BIXShbQ0gzXSlbQ0BIXShbQ0gzXSlbTkhdW0NIMl1bQ0BASF0yW0NIMl1bQ0gyXVtDSDJdW0NIMl1PMg==

> <s_epik_cmdline>
J2VwaWtfcHl0aG9uJywgJy1waCcsICc3LjAnLCAnLXRuJywgJzgnLCAnLW1hJywgJzIwMCcsICctbWV0YWxfYmluZGluZycsICctaW1hZScsICc8aW5maWxlLm1hZT4nLCAnLW9tYWUnLCAnPG91dGZpbGUubWFlPic=

> <r_lp_tautomer_probability>
1

> <r_epik_Ionization_Penalty>
0.00659207

> <r_epik_Ionization_Penalty_Charging>
0.00656881

> <r_epik_Ionization_Penalty_Neutral>
2.32662e-05

> <r_epik_State_Penalty>
0.0048654

> <r_epik_Charging_Adjusted_Penalty>
0.0114342

> <i_epik_Tot_Q>
1

> <i_epik_Tot_abs_Q>
1

> <r_epik_Metal_State_Penalty>
-0

> <b_epik_Metal_Only>
0

> <s_lp_Force_Field>
OPLS_2005

> <r_lp_Energy>
19.2424

> <b_lp_Chiralities_Consistent>
1

> <s_lp_Variant>
AV-unprocessed.smi:3249-4

> <Gold.Version>
5.8.1

> <Gold.Id.Protein>
6NUR|6NUR_protein|mol2

> <Gold.PLP.Fitness>
40.6489

> <Gold.PLP.PLP>
-33.4091

> <Gold.PLP.part.hbond>
-0.9394

> <Gold.PLP.part.metal>
0.0000

> <Gold.PLP.part.buried>
-4.0467

> <Gold.PLP.part.nonpolar>
-29.0561

> <Gold.PLP.part.repulsive>
0.1219

> <Gold.PLP.ligand.clash>
0.0000

> <Gold.PLP.ligand.torsion>
0.9671

> <Gold.PLP.Chemscore.Hbond>
2.0000

> <Gold.PLP.Chemscore.CHOScore>
1.0000

> <Gold.PLP.Chemscore.Metal>
0.0000

> <Gold.Chemscore.Hbonds>
donor molecule, donor type, donor heavy atom, donor atom, acceptor molecule, acceptor atom, score
      L1  H    10    44       P1  7948  2.00
      L1  C     3    22       P1  8028  1.00

> <Gold.PLP.Chemscore.Internal.Correction>
0.1741

> <Gold.Rescore>
     Score         DG    S(hbond)    S(metal)    S(lipo)     H(rot)  DE(clash)    DE(int)     intcor
     11.88     -14.05       0.98        0.00      78.77       1.53       0.03       2.14       ----

> <Gold.Chemscore.Fitness>
11.8782

> <Gold.Chemscore.DG>
-14.0490

> <Gold.Chemscore.ZeroCoef>
-5.4800

> <Gold.Chemscore.Hbond>
0.9814

> <Gold.Chemscore.Metal>
0.0000

> <Gold.Chemscore.Lipo>
78.7721

> <Gold.Chemscore.Internal_Hbond>
0.0000

> <Gold.Chemscore.DEClash>
0.0263

> <Gold.Chemscore.DEInternal>
2.1445

> <Gold.Chemscore.Rot>
1.5333

> <Gold.Chemscore.Internal.Correction>
   9.000000E+99

> <Gold.Chemscore.Hbonds>
donor molecule, donor type, donor heavy atom, donor atom, acceptor molecule, acceptor atom, score
      L1  H    10    44       P1  7948  0.81

> <Gold.Chemscore.Hbond.Weighted>
-3.2779

> <Gold.Chemscore.Metal.Weighted>
-0.0000

> <Gold.Chemscore.Lipo.Weighted>
-9.2163

> <Gold.Chemscore.Internal_Hbond.Weighted>
0.0000

> <Gold.Chemscore.DEClash.Weighted>
0.0263

> <Gold.Chemscore.DEInternal.Weighted>
2.1445

> <Gold.Chemscore.Rot.Weighted>
3.9252

> <Gold.Chemscore.Internal.Correction.Weighted>
   9.000000E+99

> <Gold.Protein.RotatedTorsions>
[ 6907 6896 6895 6894 ] final  118.24 input  -60.11 | X-H torsion
[ 7974 7965 7964 7962 ] final -140.12 input  175.53 | X-H torsion
[ 8008 7997 7996 7995 ] final   67.71 input   59.86 | X-H torsion
[ 10167 10162 10161 10158 ] final  -99.37 input  -65.29 | X-H torsion
[ 10718 10713 10712 10709 ] final  149.81 input   66.30 | X-H torsion
[ 10763 10752 10751 10750 ] final   89.02 input  -60.55 | X-H torsion
[ 11005 11000 10999 10996 ] final  176.08 input  -57.11 | X-H torsion

> <Gold.Protein.ActiveResidues>
 VAL166  LYS551  ARG553  GLY616  TRP617  ASP618  TYR619  PRO620  LYS621  CYS622 
 ASP623  PHE694  ASN695  SER759  ASP760  ASP761  ALA762  ILE779  LEU786  VAL792 
 PHE793  MET794  SER795  GLU796  ALA797  LYS798  CYS799  TRP800  GLU811  SER814 

> <Gold.Protein.RotatedAtoms>
  152.4557  133.7718  159.6802 H   0  0  0  0  0  0  0  0  0  0  0  0  # atno 6907 bound_to 6896
  150.8482  133.7818  159.3041 H   0  0  0  0  0  0  0  0  0  0  0  0  # atno 6908 bound_to 6896
  151.5421  135.1071  159.9981 H   0  0  0  0  0  0  0  0  0  0  0  0  # atno 6909 bound_to 6896
  144.8622  140.6238  143.5321 H   0  0  0  0  0  0  0  0  0  0  0  0  # atno 7974 bound_to 7965
  155.6971  140.3495  155.4917 H   0  0  0  0  0  0  0  0  0  0  0  0  # atno 8008 bound_to 7997
  155.9473  140.1112  157.1028 H   0  0  0  0  0  0  0  0  0  0  0  0  # atno 8009 bound_to 7997
  154.4114  140.1201  156.4992 H   0  0  0  0  0  0  0  0  0  0  0  0  # atno 8010 bound_to 7997
  140.2632  143.3394  152.0606 H   0  0  0  0  0  0  0  0  0  0  0  0  # atno 10167 bound_to 10162
  157.2914  131.0854  151.1459 H   0  0  0  0  0  0  0  0  0  0  0  0  # atno 10718 bound_to 10713
  153.1828  135.4485  155.0050 H   0  0  0  0  0  0  0  0  0  0  0  0  # atno 10763 bound_to 10752
  154.8041  135.3267  154.7478 H   0  0  0  0  0  0  0  0  0  0  0  0  # atno 10764 bound_to 10752
  153.7941  135.6968  153.4921 H   0  0  0  0  0  0  0  0  0  0  0  0  # atno 10765 bound_to 10752
  140.3692  134.7045  157.4381 H   0  0  0  0  0  0  0  0  0  0  0  0  # atno 11005 bound_to 11000
  145.4289  139.1552  143.4033 LP  0  0  0  0  0  0  0  0  0  0  0  0  # atno 17320 bound_to 7965
  146.2869  140.4404  142.8754 LP  0  0  0  0  0  0  0  0  0  0  0  0  # atno 17321 bound_to 7965
  139.5011  144.6705  151.6253 LP  0  0  0  0  0  0  0  0  0  0  0  0  # atno 17342 bound_to 10162
  140.5949  143.9713  150.6348 LP  0  0  0  0  0  0  0  0  0  0  0  0  # atno 17343 bound_to 10162
  157.2853  130.6770  149.6087 LP  0  0  0  0  0  0  0  0  0  0  0  0  # atno 17370 bound_to 10713
  155.9667  130.4437  150.5432 LP  0  0  0  0  0  0  0  0  0  0  0  0  # atno 17371 bound_to 10713
  140.0565  134.6056  155.8799 LP  0  0  0  0  0  0  0  0  0  0  0  0  # atno 17394 bound_to 11000
  141.1960  133.6589  156.5669 LP  0  0  0  0  0  0  0  0  0  0  0  0  # atno 17395 bound_to 11000

$$$$
