AV-unprocessed.smi:1180|AV-procd|sdf|4962|dock2
  -GOLD-   22720 3553D 1   1.00000     0.00000
 Structure written by MMmdl.
 38 39  0  0  0  0  0  0  0  0  1 V2000
  151.4614  143.2073  157.0630 C   0  0  0  0  0  0  0  0  0  0  0  0
  150.9352  142.0366  156.2614 C   0  0  0  0  0  0  0  0  0  0  0  0
  149.7612  142.3114  155.5794 N   0  0  0  0  0  0  0  0  0  0  0  0
  149.2017  141.2996  154.8193 C   0  0  0  0  0  0  0  0  0  0  0  0
  147.9165  141.6829  154.1067 C   0  0  0  0  0  0  0  0  0  0  0  0
  149.7862  140.0773  154.7377 C   0  0  0  0  0  0  0  0  0  0  0  0
  149.2081  138.9346  153.9034 C   0  0  0  0  0  0  0  0  0  0  0  0
  147.7801  138.5000  154.2459 C   0  0  0  0  0  0  0  0  0  0  0  0
  147.1120  139.1247  155.0706 O   0  0  0  0  0  0  0  0  0  0  0  0
  147.3231  137.4198  153.5956 N   0  0  0  0  0  0  0  0  0  0  0  0
  145.9913  136.8456  153.7544 C   0  0  0  0  0  0  0  0  0  0  0  0
  145.7802  135.6111  152.8565 C   0  0  2  0  0  0  0  0  0  0  0  0
  145.5642  135.9448  151.3850 C   0  0  0  0  0  0  0  0  0  0  0  0
  144.5078  134.9378  150.9167 C   0  0  0  0  0  0  0  0  0  0  0  0
  144.3240  134.0443  152.0059 O   0  0  0  0  0  0  0  0  0  0  0  0
  144.5456  134.7783  153.1973 C   0  0  0  0  0  0  0  0  0  0  0  0
  151.0473  139.8465  155.4810 C   0  0  0  0  0  0  0  0  0  0  0  0
  151.6338  138.7659  155.4329 O   0  0  0  0  0  0  0  0  0  0  0  0
  151.5679  140.9028  156.2462 N   0  0  0  0  0  0  0  0  0  0  0  0
  149.2957  143.2070  155.6093 H   0  0  0  0  0  0  0  0  0  0  0  0
  152.2704  142.8944  157.7243 H   0  0  0  0  0  0  0  0  0  0  0  0
  150.6698  143.6401  157.6756 H   0  0  0  0  0  0  0  0  0  0  0  0
  151.8455  143.9789  156.3951 H   0  0  0  0  0  0  0  0  0  0  0  0
  147.0863  141.0739  154.4649 H   0  0  0  0  0  0  0  0  0  0  0  0
  148.0165  141.5325  153.0315 H   0  0  0  0  0  0  0  0  0  0  0  0
  147.6606  142.7297  154.2753 H   0  0  0  0  0  0  0  0  0  0  0  0
  149.8521  138.0619  154.0117 H   0  0  0  0  0  0  0  0  0  0  0  0
  149.2551  139.1833  152.8423 H   0  0  0  0  0  0  0  0  0  0  0  0
  147.9393  136.9669  152.9361 H   0  0  0  0  0  0  0  0  0  0  0  0
  145.8680  136.5712  154.8025 H   0  0  0  0  0  0  0  0  0  0  0  0
  145.2330  137.6014  153.5432 H   0  0  0  0  0  0  0  0  0  0  0  0
  146.6524  134.9588  152.9249 H   0  0  0  0  0  0  0  0  0  0  0  0
  145.1969  136.9626  151.2472 H   0  0  0  0  0  0  0  0  0  0  0  0
  146.4937  135.8493  150.8225 H   0  0  0  0  0  0  0  0  0  0  0  0
  143.5649  135.4440  150.7051 H   0  0  0  0  0  0  0  0  0  0  0  0
  144.8123  134.3993  150.0190 H   0  0  0  0  0  0  0  0  0  0  0  0
  144.7041  134.1188  154.0511 H   0  0  0  0  0  0  0  0  0  0  0  0
  143.6818  135.4123  153.4043 H   0  0  0  0  0  0  0  0  0  0  0  0
  1 21  1  0  0  0  0
  1 22  1  0  0  0  0
  1 23  1  0  0  0  0
  1  2  1  0  0  0  0
  2  3  1  0  0  0  0
  2 19  2  0  0  0  0
  3  4  1  0  0  0  0
  3 20  1  0  0  0  0
  4  6  2  0  0  0  0
  4  5  1  0  0  0  0
  5 24  1  0  0  0  0
  5 25  1  0  0  0  0
  5 26  1  0  0  0  0
  6 17  1  0  0  0  0
  6  7  1  0  0  0  0
  7  8  1  0  0  0  0
  7 27  1  0  0  0  0
  7 28  1  0  0  0  0
  8  9  2  0  0  0  0
  8 10  1  0  0  0  0
 10 11  1  0  0  0  0
 10 29  1  0  0  0  0
 11 12  1  0  0  0  0
 11 30  1  0  0  0  0
 11 31  1  0  0  0  0
 12 16  1  0  0  0  0
 12 13  1  0  0  0  0
 12 32  1  0  0  0  0
 13 14  1  0  0  0  0
 13 33  1  0  0  0  0
 13 34  1  0  0  0  0
 14 15  1  0  0  0  0
 14 35  1  0  0  0  0
 14 36  1  0  0  0  0
 15 16  1  0  0  0  0
 16 37  1  0  0  0  0
 16 38  1  0  0  0  0
 17 18  2  0  0  0  0
 17 19  1  0  0  0  0
M  END
> <s_m_source_file>
AV-unprocessed.smi

> <i_m_source_file_index>
1180

> <i_lp_mmshare_version>
43012

> <i_f3d_flags>
0

> <s_epik_input>
W0NIM11jMW5jKFtDSDNdKWMoYyg9TylbbkhdMSlbQ0gyXUMoPU8pW05IXVtDSDJdW0NAQEhdMltDSDJdW0NIMl1PW0NIMl0y

> <s_epik_cmdline>
J2VwaWtfcHl0aG9uJywgJy1waCcsICc3LjAnLCAnLXRuJywgJzgnLCAnLW1hJywgJzIwMCcsICctbWV0YWxfYmluZGluZycsICctaW1hZScsICc8aW5maWxlLm1hZT4nLCAnLW9tYWUnLCAnPG91dGZpbGUubWFlPic=

> <r_lp_tautomer_probability>
0.156392

> <r_epik_Ionization_Penalty>
0.014237

> <r_epik_Ionization_Penalty_Charging>
0.0141173

> <r_epik_Ionization_Penalty_Neutral>
0.000119724

> <r_epik_State_Penalty>
1.52876

> <r_epik_Charging_Adjusted_Penalty>
1.54288

> <i_epik_Tot_Q>
0

> <i_epik_Tot_abs_Q>
0

> <r_epik_Metal_State_Penalty>
1.70686

> <b_epik_Metal_Only>
0

> <s_lp_Force_Field>
OPLS_2005

> <r_lp_Energy>
24.076

> <b_lp_Chiralities_Consistent>
1

> <s_lp_Variant>
AV-unprocessed.smi:1180-3

> <Gold.Version>
5.8.1

> <Gold.Id.Protein>
6NUR|6NUR_protein|mol2

> <Gold.PLP.Fitness>
36.6620

> <Gold.PLP.PLP>
-30.9232

> <Gold.PLP.part.hbond>
-2.0000

> <Gold.PLP.part.metal>
0.0000

> <Gold.PLP.part.buried>
-3.4157

> <Gold.PLP.part.nonpolar>
-26.5100

> <Gold.PLP.part.repulsive>
0.3818

> <Gold.PLP.ligand.clash>
0.0000

> <Gold.PLP.ligand.torsion>
0.1427

> <Gold.PLP.Chemscore.Hbond>
2.0000

> <Gold.PLP.Chemscore.CHOScore>
0.0000

> <Gold.PLP.Chemscore.Metal>
0.0000

> <Gold.Chemscore.Hbonds>
donor molecule, donor type, donor heavy atom, donor atom, acceptor molecule, acceptor atom, score
      L1  H     3    20       P1  8028  1.00
      L1  H    10    29       P1  7948  1.00

> <Gold.PLP.Chemscore.Internal.Correction>
0.0241

> <Gold.Rescore>
     Score         DG    S(hbond)    S(metal)    S(lipo)     H(rot)  DE(clash)    DE(int)     intcor
     14.68     -14.85       1.99        0.00      62.67       1.81       0.07       0.09       ----

> <Gold.Chemscore.Fitness>
14.6838

> <Gold.Chemscore.DG>
-14.8474

> <Gold.Chemscore.ZeroCoef>
-5.4800

> <Gold.Chemscore.Hbond>
1.9937

> <Gold.Chemscore.Metal>
0.0000

> <Gold.Chemscore.Lipo>
62.6750

> <Gold.Chemscore.Internal_Hbond>
0.0000

> <Gold.Chemscore.DEClash>
0.0704

> <Gold.Chemscore.DEInternal>
0.0933

> <Gold.Chemscore.Rot>
1.8065

> <Gold.Chemscore.Internal.Correction>
   9.000000E+99

> <Gold.Chemscore.Hbonds>
donor molecule, donor type, donor heavy atom, donor atom, acceptor molecule, acceptor atom, score
      L1  H     3    20       P1  8028  0.97
      L1  H    10    29       P1  7948  1.00

> <Gold.Chemscore.Hbond.Weighted>
-6.6591

> <Gold.Chemscore.Metal.Weighted>
-0.0000

> <Gold.Chemscore.Lipo.Weighted>
-7.3330

> <Gold.Chemscore.Internal_Hbond.Weighted>
0.0000

> <Gold.Chemscore.DEClash.Weighted>
0.0704

> <Gold.Chemscore.DEInternal.Weighted>
0.0933

> <Gold.Chemscore.Rot.Weighted>
4.6246

> <Gold.Chemscore.Internal.Correction.Weighted>
   9.000000E+99

> <Gold.Protein.RotatedTorsions>
[ 6907 6896 6895 6894 ] final   84.68 input  -60.11 | X-H torsion
[ 7974 7965 7964 7962 ] final  -15.89 input  175.53 | X-H torsion
[ 8008 7997 7996 7995 ] final  -97.46 input   59.86 | X-H torsion
[ 10167 10162 10161 10158 ] final  125.29 input  -65.29 | X-H torsion
[ 10718 10713 10712 10709 ] final  123.97 input   66.30 | X-H torsion
[ 10763 10752 10751 10750 ] final   33.48 input  -60.55 | X-H torsion
[ 11005 11000 10999 10996 ] final  141.79 input  -57.11 | X-H torsion

> <Gold.Protein.ActiveResidues>
 VAL166  LYS551  ARG553  GLY616  TRP617  ASP618  TYR619  PRO620  LYS621  CYS622 
 ASP623  PHE694  ASN695  SER759  ASP760  ASP761  ALA762  ILE779  LEU786  VAL792 
 PHE793  MET794  SER795  GLU796  ALA797  LYS798  CYS799  TRP800  GLU811  SER814 

> <Gold.Protein.RotatedAtoms>
  152.5358  134.2703  159.8968 H   0  0  0  0  0  0  0  0  0  0  0  0  # atno 6907 bound_to 6896
  151.2660  133.4272  159.2626 H   0  0  0  0  0  0  0  0  0  0  0  0  # atno 6908 bound_to 6896
  151.0410  134.9621  159.8218 H   0  0  0  0  0  0  0  0  0  0  0  0  # atno 6909 bound_to 6896
  146.2012  140.3557  142.8422 H   0  0  0  0  0  0  0  0  0  0  0  0  # atno 7974 bound_to 7965
  154.7881  140.0463  157.1179 H   0  0  0  0  0  0  0  0  0  0  0  0  # atno 8008 bound_to 7997
  154.9624  140.3079  155.5005 H   0  0  0  0  0  0  0  0  0  0  0  0  # atno 8009 bound_to 7997
  156.2946  140.2268  156.4711 H   0  0  0  0  0  0  0  0  0  0  0  0  # atno 8010 bound_to 7997
  139.5693  144.6930  151.3822 H   0  0  0  0  0  0  0  0  0  0  0  0  # atno 10167 bound_to 10162
  157.5622  131.1089  150.8518 H   0  0  0  0  0  0  0  0  0  0  0  0  # atno 10718 bound_to 10713
  153.0210  135.6386  154.1518 H   0  0  0  0  0  0  0  0  0  0  0  0  # atno 10763 bound_to 10752
  154.1252  135.2844  155.3200 H   0  0  0  0  0  0  0  0  0  0  0  0  # atno 10764 bound_to 10752
  154.6234  135.5517  153.7662 H   0  0  0  0  0  0  0  0  0  0  0  0  # atno 10765 bound_to 10752
  140.0427  134.9296  157.0874 H   0  0  0  0  0  0  0  0  0  0  0  0  # atno 11005 bound_to 11000
  144.8688  140.7243  143.6060 LP  0  0  0  0  0  0  0  0  0  0  0  0  # atno 17320 bound_to 7965
  145.3477  139.1715  143.4452 LP  0  0  0  0  0  0  0  0  0  0  0  0  # atno 17321 bound_to 7965
  140.6978  143.7707  150.7354 LP  0  0  0  0  0  0  0  0  0  0  0  0  # atno 17342 bound_to 10162
  140.1208  143.4613  152.2314 LP  0  0  0  0  0  0  0  0  0  0  0  0  # atno 17343 bound_to 10162
  156.9012  130.5247  149.5282 LP  0  0  0  0  0  0  0  0  0  0  0  0  # atno 17370 bound_to 10713
  156.0674  130.5714  150.9315 LP  0  0  0  0  0  0  0  0  0  0  0  0  # atno 17371 bound_to 10713
  140.4042  134.2050  155.7163 LP  0  0  0  0  0  0  0  0  0  0  0  0  # atno 17394 bound_to 11000
  141.1891  133.8245  157.0968 LP  0  0  0  0  0  0  0  0  0  0  0  0  # atno 17395 bound_to 11000

$$$$
