AV-unprocessed.smi:196|AV-procd|sdf|1532|dock2
  -GOLD-   2262019383D 1   1.00000     0.00000
 Structure written by MMmdl.
 47 50  0  0  0  0  0  0  0  0  1 V2000
  147.3395  136.2765  156.2356 C   0  0  0  0  0  0  0  0  0  0  0  0
  147.2688  135.3130  155.0407 C   0  0  2  0  0  0  0  0  0  0  0  0
  146.0449  134.5895  155.1272 O   0  0  0  0  0  0  0  0  0  0  0  0
  146.2144  133.3428  154.4779 C   0  0  0  0  0  0  0  0  0  0  0  0
  147.6006  132.9235  154.9428 C   0  0  0  0  0  0  0  0  0  0  0  0
  148.3854  134.2349  154.9354 C   0  0  1  0  0  0  0  0  0  0  0  0
  148.9943  134.3692  153.6624 O   0  0  0  0  0  0  0  0  0  0  0  0
  149.5004  134.2912  156.0131 C   0  0  0  0  0  0  0  0  0  0  0  0
  150.1108  135.6055  156.1475 N   0  0  0  0  0  0  0  0  0  0  0  0
  150.7095  136.3436  155.1505 C   0  0  0  0  0  0  0  0  0  0  0  0
  151.1845  137.5012  155.5219 N   0  0  0  0  0  0  0  0  0  0  0  0
  150.8986  137.5612  156.8795 C   0  0  0  0  0  0  0  0  0  0  0  0
  151.1285  138.5258  157.8949 C   0  0  0  0  0  0  0  0  0  0  0  0
  151.7428  139.7046  157.6403 N   0  0  0  0  0  0  0  0  0  0  0  0
  152.8386  140.0395  158.5475 C   0  0  0  0  0  0  0  0  0  0  0  0
  152.4110  141.3186  159.2588 C   0  0  1  0  0  0  0  0  0  0  0  0
  153.4462  142.0491  159.6719 F   0  0  0  0  0  0  0  0  0  0  0  0
  151.5856  142.0214  158.1915 C   0  0  0  0  0  0  0  0  0  0  0  0
  150.8412  140.8611  157.5094 C   0  0  1  0  0  0  0  0  0  0  0  0
  150.4591  141.2048  156.0583 C   0  0  0  0  0  0  0  0  0  0  0  0
  149.6643  142.2550  155.8303 N   0  0  0  0  0  0  0  0  0  0  0  0
  150.8941  140.5175  155.1369 O   0  0  0  0  0  0  0  0  0  0  0  0
  150.7096  138.2358  159.1553 N   0  0  0  0  0  0  0  0  0  0  0  0
  150.0967  137.0743  159.4037 C   0  0  0  0  0  0  0  0  0  0  0  0
  149.8081  136.0845  158.5556 N   0  0  0  0  0  0  0  0  0  0  0  0
  150.2317  136.3743  157.2918 C   0  0  0  0  0  0  0  0  0  0  0  0
  151.7938  141.0875  160.1281 H   0  0  0  0  0  0  0  0  0  0  0  0
  149.9141  140.6803  158.0574 H   0  0  0  0  0  0  0  0  0  0  0  0
  148.2543  136.8690  156.2151 H   0  0  0  0  0  0  0  0  0  0  0  0
  147.2972  135.7436  157.1857 H   0  0  0  0  0  0  0  0  0  0  0  0
  146.5007  136.9724  156.2162 H   0  0  0  0  0  0  0  0  0  0  0  0
  147.2286  135.9059  154.1247 H   0  0  0  0  0  0  0  0  0  0  0  0
  145.4394  132.6311  154.7630 H   0  0  0  0  0  0  0  0  0  0  0  0
  146.1836  133.4786  153.3957 H   0  0  0  0  0  0  0  0  0  0  0  0
  147.5212  132.5395  155.9605 H   0  0  0  0  0  0  0  0  0  0  0  0
  148.0410  132.1388  154.3262 H   0  0  0  0  0  0  0  0  0  0  0  0
  148.6398  135.1360  153.2387 H   0  0  0  0  0  0  0  0  0  0  0  0
  149.1064  133.9973  156.9868 H   0  0  0  0  0  0  0  0  0  0  0  0
  150.2957  133.5843  155.7755 H   0  0  0  0  0  0  0  0  0  0  0  0
  150.7800  135.9960  154.1299 H   0  0  0  0  0  0  0  0  0  0  0  0
  153.0889  139.2479  159.2563 H   0  0  0  0  0  0  0  0  0  0  0  0
  153.7267  140.2207  157.9408 H   0  0  0  0  0  0  0  0  0  0  0  0
  150.9100  142.7677  158.6108 H   0  0  0  0  0  0  0  0  0  0  0  0
  152.2496  142.5273  157.4876 H   0  0  0  0  0  0  0  0  0  0  0  0
  149.4027  142.4920  154.8838 H   0  0  0  0  0  0  0  0  0  0  0  0
  149.3263  142.8065  156.6054 H   0  0  0  0  0  0  0  0  0  0  0  0
  149.7931  136.9159  160.4280 H   0  0  0  0  0  0  0  0  0  0  0  0
  1  2  1  0  0  0  0
  1 29  1  0  0  0  0
  1 30  1  0  0  0  0
  1 31  1  0  0  0  0
  2  6  1  0  0  0  0
  2  3  1  0  0  0  0
  2 32  1  0  0  0  0
  3  4  1  0  0  0  0
  4  5  1  0  0  0  0
  4 33  1  0  0  0  0
  4 34  1  0  0  0  0
  5  6  1  0  0  0  0
  5 35  1  0  0  0  0
  5 36  1  0  0  0  0
  6  7  1  0  0  0  0
  6  8  1  0  0  0  0
  7 37  1  0  0  0  0
  8  9  1  0  0  0  0
  8 38  1  0  0  0  0
  8 39  1  0  0  0  0
  9 26  1  0  0  0  0
  9 10  1  0  0  0  0
 10 11  2  0  0  0  0
 10 40  1  0  0  0  0
 11 12  1  0  0  0  0
 12 26  2  0  0  0  0
 12 13  1  0  0  0  0
 13 14  1  0  0  0  0
 13 23  2  0  0  0  0
 14 19  1  0  0  0  0
 14 15  1  0  0  0  0
 15 16  1  0  0  0  0
 15 41  1  0  0  0  0
 15 42  1  0  0  0  0
 16 27  1  0  0  0  0
 16 17  1  0  0  0  0
 16 18  1  0  0  0  0
 18 19  1  0  0  0  0
 18 43  1  0  0  0  0
 18 44  1  0  0  0  0
 19 28  1  0  0  0  0
 19 20  1  0  0  0  0
 20 21  1  0  0  0  0
 20 22  2  0  0  0  0
 21 45  1  0  0  0  0
 21 46  1  0  0  0  0
 23 24  1  0  0  0  0
 24 25  2  0  0  0  0
 24 47  1  0  0  0  0
 25 26  1  0  0  0  0
M  END
> <s_m_source_file>
AV-unprocessed.smi

> <i_m_source_file_index>
196

> <i_lp_mmshare_version>
43012

> <i_f3d_flags>
0

> <s_epik_input>
W0NIMl0xW0NIMl1PW0NAQEhdKFtDSDNdKVtDQEBdMShbT0hdKVtDSDJdbihbY0hdbjIpYyhjMjMpbltjSF1uYzNONFtDSDJdW0NASF0oRilbQ0gyXVtDQEhdNEMoPU8pW05IMl0=

> <s_epik_cmdline>
J2VwaWtfcHl0aG9uJywgJy1waCcsICc3LjAnLCAnLXRuJywgJzgnLCAnLW1hJywgJzIwMCcsICctbWV0YWxfYmluZGluZycsICctaW1hZScsICc8aW5maWxlLm1hZT4nLCAnLW9tYWUnLCAnPG91dGZpbGUubWFlPic=

> <r_lp_tautomer_probability>
1

> <r_epik_Ionization_Penalty>
0.000857933

> <r_epik_Ionization_Penalty_Charging>
0

> <r_epik_Ionization_Penalty_Neutral>
0.000857933

> <r_epik_State_Penalty>
0.000462053

> <r_epik_Charging_Adjusted_Penalty>
0.000462053

> <i_epik_Tot_Q>
0

> <i_epik_Tot_abs_Q>
0

> <r_epik_Metal_State_Penalty>
-0

> <b_epik_Metal_Only>
0

> <s_lp_Force_Field>
OPLS_2005

> <r_lp_Energy>
45.3025

> <b_lp_Chiralities_Consistent>
1

> <s_lp_Variant>
AV-unprocessed.smi:196-5

> <Gold.Version>
5.8.1

> <Gold.Id.Protein>
6NUR|6NUR_protein|mol2

> <Gold.PLP.Fitness>
38.4077

> <Gold.PLP.PLP>
-29.2480

> <Gold.PLP.part.hbond>
-4.3783

> <Gold.PLP.part.metal>
0.0000

> <Gold.PLP.part.buried>
-3.9175

> <Gold.PLP.part.nonpolar>
-21.0613

> <Gold.PLP.part.repulsive>
0.3222

> <Gold.PLP.ligand.clash>
0.0000

> <Gold.PLP.ligand.torsion>
0.4459

> <Gold.PLP.Chemscore.Hbond>
2.7038

> <Gold.PLP.Chemscore.CHOScore>
0.6165

> <Gold.PLP.Chemscore.Metal>
0.0000

> <Gold.Chemscore.Hbonds>
donor molecule, donor type, donor heavy atom, donor atom, acceptor molecule, acceptor atom, score
      L1  H     7    37       P1  7948  0.78
      L1  H    21    46       P1  8028  0.03
      P1  H  6896  6909       L1    25  0.53
      P1  H  7989  7998       L1    22  0.99
      L1  C    10    40       P1  7948  0.04
      L1  C    10    40       P1  7949  0.49

> <Gold.PLP.Chemscore.Internal.Correction>
0.0906

> <Gold.Rescore>
     Score         DG    S(hbond)    S(metal)    S(lipo)     H(rot)  DE(clash)    DE(int)     intcor
      6.24      -9.12       1.90        0.00      43.26       3.04       0.14       2.73       ----

> <Gold.Chemscore.Fitness>
6.2390

> <Gold.Chemscore.DG>
-9.1160

> <Gold.Chemscore.ZeroCoef>
-5.4800

> <Gold.Chemscore.Hbond>
1.9042

> <Gold.Chemscore.Metal>
0.0000

> <Gold.Chemscore.Lipo>
43.2615

> <Gold.Chemscore.Internal_Hbond>
0.0000

> <Gold.Chemscore.DEClash>
0.1429

> <Gold.Chemscore.DEInternal>
2.7340

> <Gold.Chemscore.Rot>
3.0413

> <Gold.Chemscore.Internal.Correction>
   9.000000E+99

> <Gold.Chemscore.Hbonds>
donor molecule, donor type, donor heavy atom, donor atom, acceptor molecule, acceptor atom, score
      L1  H     7    37       P1  7948  0.58
      L1  H    21    46       P1  8028  0.06
      P1  H  6896  6909       L1    25  0.25
      P1  H  7989  7998       L1    22  0.94

> <Gold.Chemscore.Hbond.Weighted>
-6.3600

> <Gold.Chemscore.Metal.Weighted>
-0.0000

> <Gold.Chemscore.Lipo.Weighted>
-5.0616

> <Gold.Chemscore.Internal_Hbond.Weighted>
0.0000

> <Gold.Chemscore.DEClash.Weighted>
0.1429

> <Gold.Chemscore.DEInternal.Weighted>
2.7340

> <Gold.Chemscore.Rot.Weighted>
7.7856

> <Gold.Chemscore.Internal.Correction.Weighted>
   9.000000E+99

> <Gold.Protein.RotatedTorsions>
[ 6907 6896 6895 6894 ] final   32.79 input  -60.11 | X-H torsion
[ 7974 7965 7964 7962 ] final  -63.24 input  175.53 | X-H torsion
[ 8008 7997 7996 7995 ] final  130.15 input   59.86 | X-H torsion
[ 10167 10162 10161 10158 ] final   62.58 input  -65.29 | X-H torsion
[ 10718 10713 10712 10709 ] final -160.42 input   66.30 | X-H torsion
[ 10763 10752 10751 10750 ] final   42.94 input  -60.55 | X-H torsion
[ 11005 11000 10999 10996 ] final  -61.05 input  -57.11 | X-H torsion

> <Gold.Protein.ActiveResidues>
 VAL166  LYS551  ARG553  GLY616  TRP617  ASP618  TYR619  PRO620  LYS621  CYS622 
 ASP623  PHE694  ASN695  SER759  ASP760  ASP761  ALA762  ILE779  LEU786  VAL792 
 PHE793  MET794  SER795  GLU796  ALA797  LYS798  CYS799  TRP800  GLU811  SER814 

> <Gold.Protein.RotatedAtoms>
  152.0794  134.9481  160.0573 H   0  0  0  0  0  0  0  0  0  0  0  0  # atno 6907 bound_to 6896
  152.0776  133.4132  159.4495 H   0  0  0  0  0  0  0  0  0  0  0  0  # atno 6908 bound_to 6896
  150.6836  134.2939  159.4722 H   0  0  0  0  0  0  0  0  0  0  0  0  # atno 6909 bound_to 6896
  145.7815  140.8759  143.0328 H   0  0  0  0  0  0  0  0  0  0  0  0  # atno 7974 bound_to 7965
  156.2949  140.2603  156.2715 H   0  0  0  0  0  0  0  0  0  0  0  0  # atno 8008 bound_to 7997
  154.9690  140.0391  157.2244 H   0  0  0  0  0  0  0  0  0  0  0  0  # atno 8009 bound_to 7997
  154.7876  140.2806  155.6020 H   0  0  0  0  0  0  0  0  0  0  0  0  # atno 8010 bound_to 7997
  140.1424  144.4541  150.6804 H   0  0  0  0  0  0  0  0  0  0  0  0  # atno 10167 bound_to 10162
  156.5819  130.8733  151.2867 H   0  0  0  0  0  0  0  0  0  0  0  0  # atno 10718 bound_to 10713
  152.9871  135.6116  154.3031 H   0  0  0  0  0  0  0  0  0  0  0  0  # atno 10763 bound_to 10752
  154.2750  135.2778  155.2723 H   0  0  0  0  0  0  0  0  0  0  0  0  # atno 10764 bound_to 10752
  154.5088  135.5846  153.6645 H   0  0  0  0  0  0  0  0  0  0  0  0  # atno 10765 bound_to 10752
  141.1310  133.6627  156.5316 H   0  0  0  0  0  0  0  0  0  0  0  0  # atno 11005 bound_to 11000
  144.6795  139.9996  143.7484 LP  0  0  0  0  0  0  0  0  0  0  0  0  # atno 17320 bound_to 7965
  146.0069  139.3137  143.0894 LP  0  0  0  0  0  0  0  0  0  0  0  0  # atno 17321 bound_to 7965
  140.6752  143.2302  151.5524 LP  0  0  0  0  0  0  0  0  0  0  0  0  # atno 17342 bound_to 10162
  139.5465  144.2506  152.1452 LP  0  0  0  0  0  0  0  0  0  0  0  0  # atno 17343 bound_to 10162
  157.7324  130.9715  150.1929 LP  0  0  0  0  0  0  0  0  0  0  0  0  # atno 17370 bound_to 10713
  156.2624  130.3712  149.8116 LP  0  0  0  0  0  0  0  0  0  0  0  0  # atno 17371 bound_to 10713
  140.4211  134.7186  157.4890 LP  0  0  0  0  0  0  0  0  0  0  0  0  # atno 17394 bound_to 11000
  140.0359  134.6338  155.9044 LP  0  0  0  0  0  0  0  0  0  0  0  0  # atno 17395 bound_to 11000

$$$$
