AV-unprocessed.smi:3249|AV-procd|sdf|12418|dock9
  -GOLD-   2272018303D 1   1.00000     0.00000
 Structure written by MMmdl.
 44 45  0  0  0  0  0  0  0  0  2 V2000
  151.5300  136.5673  154.3400 C   0  0  0  0  0  0  0  0  0  0  0  0
  150.9627  137.9572  154.3635 C   0  0  0  0  0  0  0  0  0  0  0  0
  151.6203  139.1646  154.7319 C   0  0  0  0  0  0  0  0  0  0  0  0
  150.8311  140.2233  154.6541 N   0  0  0  0  0  0  0  0  0  0  0  0
  149.6492  139.7371  154.2172 N   0  0  0  0  0  0  0  0  0  0  0  0
  148.5164  140.6408  154.0466 C   0  0  1  0  0  0  0  0  0  0  0  0
  147.3320  139.8790  153.4226 C   0  0  0  0  0  0  0  0  0  0  0  0
  148.1679  141.3394  155.3868 C   0  0  2  0  0  0  0  0  0  0  0  0
  146.9267  142.2453  155.2792 C   0  0  0  0  0  0  0  0  0  0  0  0
  149.3296  142.1321  155.8546 N   0  3  0  0  0  0  0  0  0  0  0  0
  150.1036  141.5332  156.9616 C   0  0  0  0  0  0  0  0  0  0  0  0
  151.2672  142.4472  157.3693 C   0  0  2  0  0  0  0  0  0  0  0  0
  152.2247  141.7536  158.3576 C   0  0  0  0  0  0  0  0  0  0  0  0
  153.3235  142.7212  158.8121 C   0  0  0  0  0  0  0  0  0  0  0  0
  152.6889  144.0072  159.3516 C   0  0  0  0  0  0  0  0  0  0  0  0
  151.7003  144.5860  158.3271 C   0  0  0  0  0  0  0  0  0  0  0  0
  150.7201  143.6081  157.9916 O   0  0  0  0  0  0  0  0  0  0  0  0
  149.7001  138.3682  154.0433 C   0  0  0  0  0  0  0  0  0  0  0  0
  152.6100  136.5674  154.4888 H   0  0  0  0  0  0  0  0  0  0  0  0
  151.3379  136.0698  153.3893 H   0  0  0  0  0  0  0  0  0  0  0  0
  151.0982  135.9440  155.1233 H   0  0  0  0  0  0  0  0  0  0  0  0
  152.6409  139.3012  155.0588 H   0  0  0  0  0  0  0  0  0  0  0  0
  148.8146  141.4094  153.3304 H   0  0  0  0  0  0  0  0  0  0  0  0
  146.5342  140.5551  153.1168 H   0  0  0  0  0  0  0  0  0  0  0  0
  146.9078  139.1554  154.1193 H   0  0  0  0  0  0  0  0  0  0  0  0
  147.6450  139.3362  152.5300 H   0  0  0  0  0  0  0  0  0  0  0  0
  147.9661  140.5617  156.1256 H   0  0  0  0  0  0  0  0  0  0  0  0
  146.0335  141.6757  155.0248 H   0  0  0  0  0  0  0  0  0  0  0  0
  147.0615  143.0129  154.5164 H   0  0  0  0  0  0  0  0  0  0  0  0
  146.7138  142.7494  156.2215 H   0  0  0  0  0  0  0  0  0  0  0  0
  149.9598  142.2307  155.0709 H   0  0  0  0  0  0  0  0  0  0  0  0
  149.4569  141.3402  157.8178 H   0  0  0  0  0  0  0  0  0  0  0  0
  150.4968  140.5709  156.6309 H   0  0  0  0  0  0  0  0  0  0  0  0
  151.8203  142.7399  156.4747 H   0  0  0  0  0  0  0  0  0  0  0  0
  151.6663  141.4020  159.2264 H   0  0  0  0  0  0  0  0  0  0  0  0
  152.6730  140.8724  157.8972 H   0  0  0  0  0  0  0  0  0  0  0  0
  153.9496  142.2565  159.5743 H   0  0  0  0  0  0  0  0  0  0  0  0
  153.9762  142.9579  157.9710 H   0  0  0  0  0  0  0  0  0  0  0  0
  152.1633  143.7939  160.2833 H   0  0  0  0  0  0  0  0  0  0  0  0
  153.4611  144.7397  159.5881 H   0  0  0  0  0  0  0  0  0  0  0  0
  151.1979  145.4589  158.7441 H   0  0  0  0  0  0  0  0  0  0  0  0
  152.2210  144.9183  157.4276 H   0  0  0  0  0  0  0  0  0  0  0  0
  148.8409  137.8031  153.7128 H   0  0  0  0  0  0  0  0  0  0  0  0
  149.0150  143.0534  156.1242 H   0  0  0  0  0  0  0  0  0  0  0  0
  1  2  1  0  0  0  0
  1 19  1  0  0  0  0
  1 20  1  0  0  0  0
  1 21  1  0  0  0  0
  2 18  2  0  0  0  0
  2  3  1  0  0  0  0
  3  4  2  0  0  0  0
  3 22  1  0  0  0  0
  4  5  1  0  0  0  0
  5  6  1  0  0  0  0
  5 18  1  0  0  0  0
  6  7  1  0  0  0  0
  6  8  1  0  0  0  0
  6 23  1  0  0  0  0
  7 24  1  0  0  0  0
  7 25  1  0  0  0  0
  7 26  1  0  0  0  0
  8  9  1  0  0  0  0
  8 10  1  0  0  0  0
  8 27  1  0  0  0  0
  9 28  1  0  0  0  0
  9 29  1  0  0  0  0
  9 30  1  0  0  0  0
 10 11  1  0  0  0  0
 10 31  1  0  0  0  0
 10 44  1  0  0  0  0
 11 12  1  0  0  0  0
 11 32  1  0  0  0  0
 11 33  1  0  0  0  0
 12 17  1  0  0  0  0
 12 13  1  0  0  0  0
 12 34  1  0  0  0  0
 13 14  1  0  0  0  0
 13 35  1  0  0  0  0
 13 36  1  0  0  0  0
 14 15  1  0  0  0  0
 14 37  1  0  0  0  0
 14 38  1  0  0  0  0
 15 16  1  0  0  0  0
 15 39  1  0  0  0  0
 15 40  1  0  0  0  0
 16 17  1  0  0  0  0
 16 41  1  0  0  0  0
 16 42  1  0  0  0  0
 18 43  1  0  0  0  0
M  CHG  1  10   1
M  END
> <s_m_source_file>
AV-unprocessed.smi

> <i_m_source_file_index>
3249

> <i_lp_mmshare_version>
43012

> <i_f3d_flags>
0

> <s_epik_input>
W0NIM11jMVtjSF1ubihbY0hdMSlbQ0BIXShbQ0gzXSlbQ0BIXShbQ0gzXSlbTkhdW0NIMl1bQ0BASF0yW0NIMl1bQ0gyXVtDSDJdW0NIMl1PMg==

> <s_epik_cmdline>
J2VwaWtfcHl0aG9uJywgJy1waCcsICc3LjAnLCAnLXRuJywgJzgnLCAnLW1hJywgJzIwMCcsICctbWV0YWxfYmluZGluZycsICctaW1hZScsICc8aW5maWxlLm1hZT4nLCAnLW9tYWUnLCAnPG91dGZpbGUubWFlPic=

> <r_lp_tautomer_probability>
1

> <r_epik_Ionization_Penalty>
0.00659207

> <r_epik_Ionization_Penalty_Charging>
0.00656881

> <r_epik_Ionization_Penalty_Neutral>
2.32662e-05

> <r_epik_State_Penalty>
0.0048654

> <r_epik_Charging_Adjusted_Penalty>
0.0114342

> <i_epik_Tot_Q>
1

> <i_epik_Tot_abs_Q>
1

> <r_epik_Metal_State_Penalty>
-0

> <b_epik_Metal_Only>
0

> <s_lp_Force_Field>
OPLS_2005

> <r_lp_Energy>
17.4327

> <b_lp_Chiralities_Consistent>
1

> <s_lp_Variant>
AV-unprocessed.smi:3249-2

> <Gold.Version>
5.8.1

> <Gold.Id.Protein>
6NUR|6NUR_protein|mol2

> <Gold.PLP.Fitness>
47.8302

> <Gold.PLP.PLP>
-38.2851

> <Gold.PLP.part.hbond>
-2.0000

> <Gold.PLP.part.metal>
0.0000

> <Gold.PLP.part.buried>
-0.1225

> <Gold.PLP.part.nonpolar>
-36.6164

> <Gold.PLP.part.repulsive>
0.8657

> <Gold.PLP.ligand.clash>
0.0000

> <Gold.PLP.ligand.torsion>
0.7623

> <Gold.PLP.Chemscore.Hbond>
3.0000

> <Gold.PLP.Chemscore.CHOScore>
0.6541

> <Gold.PLP.Chemscore.Metal>
0.0000

> <Gold.Chemscore.Hbonds>
donor molecule, donor type, donor heavy atom, donor atom, acceptor molecule, acceptor atom, score
      L1  H    10    44       P1  8028  1.86
      P1  H  7989  7998       L1     4  0.70
      L1  C    18    43       P1  7948  0.83

> <Gold.PLP.Chemscore.Internal.Correction>
0.1075

> <Gold.Rescore>
     Score         DG    S(hbond)    S(metal)    S(lipo)     H(rot)  DE(clash)    DE(int)     intcor
     17.57     -20.34       1.91        0.00     106.15       1.53       0.31       2.46       ----

> <Gold.Chemscore.Fitness>
17.5721

> <Gold.Chemscore.DG>
-20.3388

> <Gold.Chemscore.ZeroCoef>
-5.4800

> <Gold.Chemscore.Hbond>
1.9055

> <Gold.Chemscore.Metal>
0.0000

> <Gold.Chemscore.Lipo>
106.1508

> <Gold.Chemscore.Internal_Hbond>
0.0000

> <Gold.Chemscore.DEClash>
0.3085

> <Gold.Chemscore.DEInternal>
2.4582

> <Gold.Chemscore.Rot>
1.5333

> <Gold.Chemscore.Internal.Correction>
   9.000000E+99

> <Gold.Chemscore.Hbonds>
donor molecule, donor type, donor heavy atom, donor atom, acceptor molecule, acceptor atom, score
      L1  H    10    44       P1  8028  0.90
      P1  H  7989  7998       L1     4  0.05

> <Gold.Chemscore.Hbond.Weighted>
-6.3644

> <Gold.Chemscore.Metal.Weighted>
-0.0000

> <Gold.Chemscore.Lipo.Weighted>
-12.4196

> <Gold.Chemscore.Internal_Hbond.Weighted>
0.0000

> <Gold.Chemscore.DEClash.Weighted>
0.3085

> <Gold.Chemscore.DEInternal.Weighted>
2.4582

> <Gold.Chemscore.Rot.Weighted>
3.9252

> <Gold.Chemscore.Internal.Correction.Weighted>
   9.000000E+99

> <Gold.Protein.RotatedTorsions>
[ 6907 6896 6895 6894 ] final -129.12 input  -60.11 | X-H torsion
[ 7974 7965 7964 7962 ] final   48.57 input  175.53 | X-H torsion
[ 8008 7997 7996 7995 ] final   84.07 input   59.86 | X-H torsion
[ 10167 10162 10161 10158 ] final  121.76 input  -65.29 | X-H torsion
[ 10718 10713 10712 10709 ] final  174.05 input   66.30 | X-H torsion
[ 10763 10752 10751 10750 ] final  105.00 input  -60.55 | X-H torsion
[ 11005 11000 10999 10996 ] final  -30.89 input  -57.11 | X-H torsion

> <Gold.Protein.ActiveResidues>
 VAL166  LYS551  ARG553  GLY616  TRP617  ASP618  TYR619  PRO620  LYS621  CYS622 
 ASP623  PHE694  ASN695  SER759  ASP760  ASP761  ALA762  ILE779  LEU786  VAL792 
 PHE793  MET794  SER795  GLU796  ALA797  LYS798  CYS799  TRP800  GLU811  SER814 

> <Gold.Protein.RotatedAtoms>
  150.9253  133.6831  159.2822 H   0  0  0  0  0  0  0  0  0  0  0  0  # atno 6907 bound_to 6896
  151.4272  135.1004  159.9641 H   0  0  0  0  0  0  0  0  0  0  0  0  # atno 6908 bound_to 6896
  152.4999  133.8691  159.7344 H   0  0  0  0  0  0  0  0  0  0  0  0  # atno 6909 bound_to 6896
  146.0192  139.4631  142.9908 H   0  0  0  0  0  0  0  0  0  0  0  0  # atno 7974 bound_to 7965
  155.9323  140.3414  155.6259 H   0  0  0  0  0  0  0  0  0  0  0  0  # atno 8008 bound_to 7997
  155.7142  140.0775  157.2377 H   0  0  0  0  0  0  0  0  0  0  0  0  # atno 8009 bound_to 7997
  154.4087  140.1617  156.2317 H   0  0  0  0  0  0  0  0  0  0  0  0  # atno 8010 bound_to 7997
  139.5900  144.7021  151.3315 H   0  0  0  0  0  0  0  0  0  0  0  0  # atno 10167 bound_to 10162
  156.9553  131.0044  151.2939 H   0  0  0  0  0  0  0  0  0  0  0  0  # atno 10718 bound_to 10713
  153.3734  135.3924  155.1805 H   0  0  0  0  0  0  0  0  0  0  0  0  # atno 10763 bound_to 10752
  154.8697  135.3708  154.4948 H   0  0  0  0  0  0  0  0  0  0  0  0  # atno 10764 bound_to 10752
  153.5418  135.7084  153.5693 H   0  0  0  0  0  0  0  0  0  0  0  0  # atno 10765 bound_to 10752
  140.9421  133.7272  156.1092 H   0  0  0  0  0  0  0  0  0  0  0  0  # atno 11005 bound_to 11000
  145.7220  141.0071  143.1397 LP  0  0  0  0  0  0  0  0  0  0  0  0  # atno 17320 bound_to 7965
  144.6983  139.8882  143.7451 LP  0  0  0  0  0  0  0  0  0  0  0  0  # atno 17321 bound_to 7965
  140.7164  143.7254  150.7664 LP  0  0  0  0  0  0  0  0  0  0  0  0  # atno 17342 bound_to 10162
  140.0807  143.4971  152.2531 LP  0  0  0  0  0  0  0  0  0  0  0  0  # atno 17343 bound_to 10162
  157.5694  130.8300  149.8371 LP  0  0  0  0  0  0  0  0  0  0  0  0  # atno 17370 bound_to 10713
  156.0345  130.3755  150.1598 LP  0  0  0  0  0  0  0  0  0  0  0  0  # atno 17371 bound_to 10713
  140.7719  134.3823  157.5506 LP  0  0  0  0  0  0  0  0  0  0  0  0  # atno 17394 bound_to 11000
  139.8823  134.9027  156.2839 LP  0  0  0  0  0  0  0  0  0  0  0  0  # atno 17395 bound_to 11000

$$$$
