AV-unprocessed.smi:3118|AV-procd|sdf|11889|dock3
  -GOLD-   2272017273D 1   1.00000     0.00000
 Structure written by MMmdl.
 32 33  0  0  0  0  0  0  0  0  1 V2000
  149.5336  140.4028  157.0163 C   0  0  0  0  0  0  0  0  0  0  0  0
  150.3713  141.3495  156.1354 C   0  0  1  0  0  0  0  0  0  0  0  0
  149.8150  141.4929  154.7045 C   0  0  0  0  0  0  0  0  0  0  0  0
  148.3993  141.1868  154.6169 N   0  0  0  0  0  0  0  0  0  0  0  0
  147.8056  140.1839  153.8614 C   0  0  0  0  0  0  0  0  0  0  0  0
  146.4502  140.2734  154.0849 C   0  0  0  0  0  0  0  0  0  0  0  0
  146.1882  141.3215  154.9640 N   0  0  0  0  0  0  0  0  0  0  0  0
  147.3893  141.8168  155.2331 C   0  0  0  0  0  0  0  0  0  0  0  0
  150.4532  142.6726  156.7481 N   0  0  0  0  0  0  0  0  0  0  0  0
  151.0087  142.9488  157.9382 C   0  0  0  0  0  0  0  0  0  0  0  0
  151.5207  142.0918  158.6597 O   0  0  0  0  0  0  0  0  0  0  0  0
  150.9793  144.4221  158.3659 C   0  0  0  0  0  0  0  0  0  0  0  0
  152.3563  145.0434  158.6645 C   0  0  0  0  0  0  0  0  0  0  0  0
  151.7491  145.6830  159.9165 C   0  0  0  0  0  0  0  0  0  0  0  0
  150.6279  144.6419  159.8473 C   0  0  0  0  0  0  0  0  0  0  0  0
  149.5138  139.3917  156.6095 H   0  0  0  0  0  0  0  0  0  0  0  0
  148.5028  140.7484  157.0997 H   0  0  0  0  0  0  0  0  0  0  0  0
  149.9430  140.3330  158.0245 H   0  0  0  0  0  0  0  0  0  0  0  0
  151.3809  140.9411  156.0605 H   0  0  0  0  0  0  0  0  0  0  0  0
  149.9734  142.5078  154.3363 H   0  0  0  0  0  0  0  0  0  0  0  0
  150.3464  140.8265  154.0238 H   0  0  0  0  0  0  0  0  0  0  0  0
  148.3813  139.5075  153.2467 H   0  0  0  0  0  0  0  0  0  0  0  0
  145.6498  139.6703  153.6821 H   0  0  0  0  0  0  0  0  0  0  0  0
  147.5376  142.6559  155.8971 H   0  0  0  0  0  0  0  0  0  0  0  0
  150.0584  143.4404  156.2245 H   0  0  0  0  0  0  0  0  0  0  0  0
  150.3823  145.0549  157.7060 H   0  0  0  0  0  0  0  0  0  0  0  0
  153.1391  144.3211  158.9014 H   0  0  0  0  0  0  0  0  0  0  0  0
  152.6952  145.7638  157.9195 H   0  0  0  0  0  0  0  0  0  0  0  0
  152.3736  145.6209  160.8082 H   0  0  0  0  0  0  0  0  0  0  0  0
  151.3932  146.6990  159.7399 H   0  0  0  0  0  0  0  0  0  0  0  0
  149.6317  145.0513  160.0168 H   0  0  0  0  0  0  0  0  0  0  0  0
  150.8163  143.7761  160.4849 H   0  0  0  0  0  0  0  0  0  0  0  0
  1  2  1  0  0  0  0
  1 16  1  0  0  0  0
  1 17  1  0  0  0  0
  1 18  1  0  0  0  0
  2  3  1  0  0  0  0
  2  9  1  0  0  0  0
  2 19  1  0  0  0  0
  3  4  1  0  0  0  0
  3 20  1  0  0  0  0
  3 21  1  0  0  0  0
  4  8  1  0  0  0  0
  4  5  1  0  0  0  0
  5  6  2  0  0  0  0
  5 22  1  0  0  0  0
  6  7  1  0  0  0  0
  6 23  1  0  0  0  0
  7  8  2  0  0  0  0
  8 24  1  0  0  0  0
  9 10  1  0  0  0  0
  9 25  1  0  0  0  0
 10 11  2  0  0  0  0
 10 12  1  0  0  0  0
 12 15  1  0  0  0  0
 12 13  1  0  0  0  0
 12 26  1  0  0  0  0
 13 14  1  0  0  0  0
 13 27  1  0  0  0  0
 13 28  1  0  0  0  0
 14 15  1  0  0  0  0
 14 29  1  0  0  0  0
 14 30  1  0  0  0  0
 15 31  1  0  0  0  0
 15 32  1  0  0  0  0
M  END
> <s_m_source_file>
AV-unprocessed.smi

> <i_m_source_file_index>
3118

> <i_lp_mmshare_version>
43012

> <i_f3d_flags>
0

> <s_epik_input>
W0NIMl0xW0NIMl1bQ0gyXVtDSF0xQyg9TylbTkhdW0NASF0oW0NIM10pW0NIMl1uMltjSF1bY0hdbltjSF0y

> <s_epik_cmdline>
J2VwaWtfcHl0aG9uJywgJy1waCcsICc3LjAnLCAnLXRuJywgJzgnLCAnLW1hJywgJzIwMCcsICctbWV0YWxfYmluZGluZycsICctaW1hZScsICc8aW5maWxlLm1hZT4nLCAnLW9tYWUnLCAnPG91dGZpbGUubWFlPic=

> <r_lp_tautomer_probability>
1

> <r_epik_Ionization_Penalty>
0.642614

> <r_epik_Ionization_Penalty_Charging>
0.642614

> <r_epik_Ionization_Penalty_Neutral>
2.50867e-08

> <r_epik_State_Penalty>
0.660429

> <r_epik_Charging_Adjusted_Penalty>
1.30304

> <i_epik_Tot_Q>
0

> <i_epik_Tot_abs_Q>
0

> <r_epik_Metal_State_Penalty>
0.312239

> <b_epik_Metal_Only>
0

> <s_lp_Force_Field>
OPLS_2005

> <r_lp_Energy>
13.1137

> <b_lp_Chiralities_Consistent>
1

> <s_lp_Variant>
AV-unprocessed.smi:3118-4

> <Gold.Version>
5.8.1

> <Gold.Id.Protein>
6NUR|6NUR_protein|mol2

> <Gold.PLP.Fitness>
41.3943

> <Gold.PLP.PLP>
-30.5725

> <Gold.PLP.part.hbond>
-1.0000

> <Gold.PLP.part.metal>
0.0000

> <Gold.PLP.part.buried>
-1.3220

> <Gold.PLP.part.nonpolar>
-27.8900

> <Gold.PLP.part.repulsive>
0.1768

> <Gold.PLP.ligand.clash>
0.0000

> <Gold.PLP.ligand.torsion>
0.8034

> <Gold.PLP.Chemscore.Hbond>
1.0000

> <Gold.PLP.Chemscore.CHOScore>
2.9958

> <Gold.PLP.Chemscore.Metal>
0.0000

> <Gold.Chemscore.Hbonds>
donor molecule, donor type, donor heavy atom, donor atom, acceptor molecule, acceptor atom, score
      L1  H     9    25       P1  8028  1.00
      L1  C     5    22       P1  7957  0.95
      L1  C     6    23       P1 10175  0.93
      L1  C     8    24       P1  8028  1.00

> <Gold.PLP.Chemscore.Internal.Correction>
0.4413

> <Gold.Rescore>
     Score         DG    S(hbond)    S(metal)    S(lipo)     H(rot)  DE(clash)    DE(int)     intcor
     12.39     -13.36       1.00        0.00      77.97       1.79       0.17       0.80       ----

> <Gold.Chemscore.Fitness>
12.3892

> <Gold.Chemscore.DG>
-13.3627

> <Gold.Chemscore.ZeroCoef>
-5.4800

> <Gold.Chemscore.Hbond>
1.0000

> <Gold.Chemscore.Metal>
0.0000

> <Gold.Chemscore.Lipo>
77.9680

> <Gold.Chemscore.Internal_Hbond>
0.0000

> <Gold.Chemscore.DEClash>
0.1716

> <Gold.Chemscore.DEInternal>
0.8019

> <Gold.Chemscore.Rot>
1.7889

> <Gold.Chemscore.Internal.Correction>
   9.000000E+99

> <Gold.Chemscore.Hbonds>
donor molecule, donor type, donor heavy atom, donor atom, acceptor molecule, acceptor atom, score
      L1  H     9    25       P1  8028  1.00

> <Gold.Chemscore.Hbond.Weighted>
-3.3400

> <Gold.Chemscore.Metal.Weighted>
-0.0000

> <Gold.Chemscore.Lipo.Weighted>
-9.1223

> <Gold.Chemscore.Internal_Hbond.Weighted>
0.0000

> <Gold.Chemscore.DEClash.Weighted>
0.1716

> <Gold.Chemscore.DEInternal.Weighted>
0.8019

> <Gold.Chemscore.Rot.Weighted>
4.5795

> <Gold.Chemscore.Internal.Correction.Weighted>
   9.000000E+99

> <Gold.Protein.RotatedTorsions>
[ 6907 6896 6895 6894 ] final  -78.34 input  -60.11 | X-H torsion
[ 7974 7965 7964 7962 ] final   25.23 input  175.53 | X-H torsion
[ 8008 7997 7996 7995 ] final -156.04 input   59.86 | X-H torsion
[ 10167 10162 10161 10158 ] final   78.63 input  -65.29 | X-H torsion
[ 10718 10713 10712 10709 ] final  173.13 input   66.30 | X-H torsion
[ 10763 10752 10751 10750 ] final   52.40 input  -60.55 | X-H torsion
[ 11005 11000 10999 10996 ] final   23.99 input  -57.11 | X-H torsion

> <Gold.Protein.ActiveResidues>
 VAL166  LYS551  ARG553  GLY616  TRP617  ASP618  TYR619  PRO620  LYS621  CYS622 
 ASP623  PHE694  ASN695  SER759  ASP760  ASP761  ALA762  ILE779  LEU786  VAL792 
 PHE793  MET794  SER795  GLU796  ALA797  LYS798  CYS799  TRP800  GLU811  SER814 

> <Gold.Protein.RotatedAtoms>
  150.6975  134.4286  159.5237 H   0  0  0  0  0  0  0  0  0  0  0  0  # atno 6907 bound_to 6896
  152.2017  134.8579  160.0516 H   0  0  0  0  0  0  0  0  0  0  0  0  # atno 6908 bound_to 6896
  151.9497  133.3627  159.4032 H   0  0  0  0  0  0  0  0  0  0  0  0  # atno 6909 bound_to 6896
  146.1899  139.7495  142.8839 H   0  0  0  0  0  0  0  0  0  0  0  0  # atno 7974 bound_to 7965
  155.7111  140.0778  157.2370 H   0  0  0  0  0  0  0  0  0  0  0  0  # atno 8008 bound_to 7997
  154.4058  140.1630  156.2351 H   0  0  0  0  0  0  0  0  0  0  0  0  # atno 8009 bound_to 7997
  155.9282  140.3393  155.6230 H   0  0  0  0  0  0  0  0  0  0  0  0  # atno 8010 bound_to 7997
  139.9689  144.5909  150.8004 H   0  0  0  0  0  0  0  0  0  0  0  0  # atno 10167 bound_to 10162
  156.9687  131.0083  151.2910 H   0  0  0  0  0  0  0  0  0  0  0  0  # atno 10718 bound_to 10713
  152.9789  135.5814  154.4572 H   0  0  0  0  0  0  0  0  0  0  0  0  # atno 10763 bound_to 10752
  154.4153  135.2770  155.2012 H   0  0  0  0  0  0  0  0  0  0  0  0  # atno 10764 bound_to 10752
  154.3785  135.6152  153.5832 H   0  0  0  0  0  0  0  0  0  0  0  0  # atno 10765 bound_to 10752
  140.3636  134.2098  155.7670 H   0  0  0  0  0  0  0  0  0  0  0  0  # atno 11005 bound_to 11000
  145.3825  141.0360  143.3169 LP  0  0  0  0  0  0  0  0  0  0  0  0  # atno 17320 bound_to 7965
  144.8467  139.5386  143.6875 LP  0  0  0  0  0  0  0  0  0  0  0  0  # atno 17321 bound_to 7965
  140.7528  143.2998  151.3110 LP  0  0  0  0  0  0  0  0  0  0  0  0  # atno 17342 bound_to 10162
  139.6496  144.0386  152.2617 LP  0  0  0  0  0  0  0  0  0  0  0  0  # atno 17343 bound_to 10162
  157.5607  130.8244  149.8262 LP  0  0  0  0  0  0  0  0  0  0  0  0  # atno 17370 bound_to 10713
  156.0291  130.3770  150.1737 LP  0  0  0  0  0  0  0  0  0  0  0  0  # atno 17371 bound_to 10713
  141.1976  133.8054  157.0619 LP  0  0  0  0  0  0  0  0  0  0  0  0  # atno 17394 bound_to 11000
  140.0607  134.9756  157.1299 LP  0  0  0  0  0  0  0  0  0  0  0  0  # atno 17395 bound_to 11000

$$$$
