AV-unprocessed.smi:48|AV-procd|sdf|453|dock2
  -GOLD-   2262016323D 1   1.00000     0.00000
 Structure written by MMmdl.
 30 32  0  0  0  0  0  0  0  0  1 V2000
  150.7222  137.0928  154.1596 O   0  0  0  0  0  0  0  0  0  0  0  0
  151.3302  138.3654  154.0983 C   0  0  0  0  0  0  0  0  0  0  0  0
  150.7836  139.2625  155.2188 C   0  0  1  0  0  0  0  0  0  0  0  0
  151.4655  140.5099  155.2176 O   0  0  0  0  0  0  0  0  0  0  0  0
  150.7022  141.4513  155.9060 C   0  0  2  0  0  0  0  0  0  0  0  0
  151.1034  141.4381  157.3508 N   0  0  0  0  0  0  0  0  0  0  0  0
  151.2166  140.3954  158.2025 C   0  0  0  0  0  0  0  0  0  0  0  0
  151.6217  140.6587  159.4448 N   0  0  0  0  0  0  0  0  0  0  0  0
  151.8130  142.0291  159.3890 C   0  0  0  0  0  0  0  0  0  0  0  0
  152.2461  142.9806  160.3444 C   0  0  0  0  0  0  0  0  0  0  0  0
  152.6514  142.5048  161.9529 Cl  0  0  0  0  0  0  0  0  0  0  0  0
  152.3385  144.2779  159.9657 N   0  0  0  0  0  0  0  0  0  0  0  0
  152.0222  144.6196  158.7102 C   0  0  0  0  0  0  0  0  0  0  0  0
  151.6017  143.8401  157.7069 N   0  0  0  0  0  0  0  0  0  0  0  0
  151.5059  142.5336  158.0941 C   0  0  0  0  0  0  0  0  0  0  0  0
  149.2304  141.0229  155.7543 C   0  0  1  0  0  0  0  0  0  0  0  0
  148.4936  141.9619  154.9990 O   0  0  0  0  0  0  0  0  0  0  0  0
  149.3289  139.6928  155.0072 C   0  0  2  0  0  0  0  0  0  0  0  0
  148.4504  138.7398  155.5708 O   0  0  0  0  0  0  0  0  0  0  0  0
  150.8905  138.7816  156.1933 H   0  0  0  0  0  0  0  0  0  0  0  0
  150.9220  142.4676  155.5759 H   0  0  0  0  0  0  0  0  0  0  0  0
  148.7691  140.9035  156.7363 H   0  0  0  0  0  0  0  0  0  0  0  0
  149.1229  139.8222  153.9430 H   0  0  0  0  0  0  0  0  0  0  0  0
  151.0822  136.5546  153.4714 H   0  0  0  0  0  0  0  0  0  0  0  0
  152.4152  138.2728  154.1557 H   0  0  0  0  0  0  0  0  0  0  0  0
  151.0922  138.7952  153.1248 H   0  0  0  0  0  0  0  0  0  0  0  0
  150.9907  139.3835  157.8994 H   0  0  0  0  0  0  0  0  0  0  0  0
  152.1201  145.6690  158.4744 H   0  0  0  0  0  0  0  0  0  0  0  0
  148.8947  142.8112  155.1048 H   0  0  0  0  0  0  0  0  0  0  0  0
  148.7437  138.5467  156.4482 H   0  0  0  0  0  0  0  0  0  0  0  0
  1  2  1  0  0  0  0
  1 24  1  0  0  0  0
  2  3  1  0  0  0  0
  2 25  1  0  0  0  0
  2 26  1  0  0  0  0
  3 20  1  0  0  0  0
  3 18  1  0  0  0  0
  3  4  1  0  0  0  0
  4  5  1  0  0  0  0
  5 21  1  0  0  0  0
  5  6  1  0  0  0  0
  5 16  1  0  0  0  0
  6 15  1  0  0  0  0
  6  7  1  0  0  0  0
  7  8  2  0  0  0  0
  7 27  1  0  0  0  0
  8  9  1  0  0  0  0
  9 15  2  0  0  0  0
  9 10  1  0  0  0  0
 10 11  1  0  0  0  0
 10 12  2  0  0  0  0
 12 13  1  0  0  0  0
 13 14  2  0  0  0  0
 13 28  1  0  0  0  0
 14 15  1  0  0  0  0
 16 22  1  0  0  0  0
 16 17  1  0  0  0  0
 16 18  1  0  0  0  0
 17 29  1  0  0  0  0
 18 23  1  0  0  0  0
 18 19  1  0  0  0  0
 19 30  1  0  0  0  0
M  END
> <s_m_source_file>
AV-unprocessed.smi

> <i_m_source_file_index>
48

> <i_lp_mmshare_version>
43012

> <i_f3d_flags>
0

> <s_epik_input>
W09IXVtDSDJdW0NASF0xT1tDQEhdKFtDQEhdKFtPSF0pW0NAQEhdMVtPSF0pbihbY0hdbjIpYyhjMjMpbltjSF1uYzNDbA==

> <s_epik_cmdline>
J2VwaWtfcHl0aG9uJywgJy1waCcsICc3LjAnLCAnLXRuJywgJzgnLCAnLW1hJywgJzIwMCcsICctbWV0YWxfYmluZGluZycsICctaW1hZScsICc8aW5maWxlLm1hZT4nLCAnLW9tYWUnLCAnPG91dGZpbGUubWFlPic=

> <r_lp_tautomer_probability>
1

> <r_epik_Ionization_Penalty>
3.45505e-06

> <r_epik_Ionization_Penalty_Charging>
0

> <r_epik_Ionization_Penalty_Neutral>
3.45505e-06

> <r_epik_State_Penalty>
-0

> <r_epik_Charging_Adjusted_Penalty>
0

> <i_epik_Tot_Q>
0

> <i_epik_Tot_abs_Q>
0

> <r_epik_Metal_State_Penalty>
-0

> <b_epik_Metal_Only>
0

> <s_epik_Chemistry_Notes>
This compound contains an acetal/aminal-like group ( X-CH(R)-Y where X, Y are N, S, or O) that may be acid/base labile, releasing an aldehyde.

> <s_lp_Force_Field>
OPLS_2005

> <r_lp_Energy>
31.0033

> <b_lp_Chiralities_Consistent>
1

> <s_lp_Variant>
AV-unprocessed.smi:48-7

> <Gold.Version>
5.8.1

> <Gold.Id.Protein>
6NUR|6NUR_protein|mol2

> <Gold.PLP.Fitness>
46.7298

> <Gold.PLP.PLP>
-38.3093

> <Gold.PLP.part.hbond>
-4.0000

> <Gold.PLP.part.metal>
0.0000

> <Gold.PLP.part.buried>
-6.7935

> <Gold.PLP.part.nonpolar>
-27.7280

> <Gold.PLP.part.repulsive>
0.1735

> <Gold.PLP.ligand.clash>
0.0000

> <Gold.PLP.ligand.torsion>
0.1123

> <Gold.PLP.Chemscore.Hbond>
2.8713

> <Gold.PLP.Chemscore.CHOScore>
0.0000

> <Gold.PLP.Chemscore.Metal>
0.0000

> <Gold.Chemscore.Hbonds>
donor molecule, donor type, donor heavy atom, donor atom, acceptor molecule, acceptor atom, score
      L1  H     1    24       P1  7949  0.93
      L1  H    17    29       P1  8028  1.00
      P1  H  7989  7998       L1     4  0.86

> <Gold.PLP.Chemscore.Internal.Correction>
0.0313

> <Gold.Rescore>
     Score         DG    S(hbond)    S(metal)    S(lipo)     H(rot)  DE(clash)    DE(int)     intcor
      8.44      -8.71       1.90        0.00      56.56       3.80       0.01       0.26       ----

> <Gold.Chemscore.Fitness>
8.4413

> <Gold.Chemscore.DG>
-8.7126

> <Gold.Chemscore.ZeroCoef>
-5.4800

> <Gold.Chemscore.Hbond>
1.9005

> <Gold.Chemscore.Metal>
0.0000

> <Gold.Chemscore.Lipo>
56.5587

> <Gold.Chemscore.Internal_Hbond>
0.0000

> <Gold.Chemscore.DEClash>
0.0134

> <Gold.Chemscore.DEInternal>
0.2580

> <Gold.Chemscore.Rot>
3.8017

> <Gold.Chemscore.Internal.Correction>
   9.000000E+99

> <Gold.Chemscore.Hbonds>
donor molecule, donor type, donor heavy atom, donor atom, acceptor molecule, acceptor atom, score
      L1  H     1    24       P1  7949  0.29
      L1  H    17    29       P1  8028  0.95
      P1  H  7989  7998       L1     4  0.32

> <Gold.Chemscore.Hbond.Weighted>
-6.3476

> <Gold.Chemscore.Metal.Weighted>
-0.0000

> <Gold.Chemscore.Lipo.Weighted>
-6.6174

> <Gold.Chemscore.Internal_Hbond.Weighted>
0.0000

> <Gold.Chemscore.DEClash.Weighted>
0.0134

> <Gold.Chemscore.DEInternal.Weighted>
0.2580

> <Gold.Chemscore.Rot.Weighted>
9.7324

> <Gold.Chemscore.Internal.Correction.Weighted>
   9.000000E+99

> <Gold.Protein.RotatedTorsions>
[ 6907 6896 6895 6894 ] final  -84.21 input  -60.11 | X-H torsion
[ 7974 7965 7964 7962 ] final  -81.41 input  175.53 | X-H torsion
[ 8008 7997 7996 7995 ] final   66.77 input   59.86 | X-H torsion
[ 10167 10162 10161 10158 ] final   62.28 input  -65.29 | X-H torsion
[ 10718 10713 10712 10709 ] final  146.83 input   66.30 | X-H torsion
[ 10763 10752 10751 10750 ] final  -42.52 input  -60.55 | X-H torsion
[ 11005 11000 10999 10996 ] final  168.22 input  -57.11 | X-H torsion

> <Gold.Protein.ActiveResidues>
 VAL166  LYS551  ARG553  GLY616  TRP617  ASP618  TYR619  PRO620  LYS621  CYS622 
 ASP623  PHE694  ASN695  SER759  ASP760  ASP761  ALA762  ILE779  LEU786  VAL792 
 PHE793  MET794  SER795  GLU796  ALA797  LYS798  CYS799  TRP800  GLU811  SER814 

> <Gold.Protein.RotatedAtoms>
  150.6878  134.3393  159.4860 H   0  0  0  0  0  0  0  0  0  0  0  0  # atno 6907 bound_to 6896
  152.1248  134.9176  160.0570 H   0  0  0  0  0  0  0  0  0  0  0  0  # atno 6908 bound_to 6896
  152.0368  133.3926  159.4357 H   0  0  0  0  0  0  0  0  0  0  0  0  # atno 6909 bound_to 6896
  145.5471  140.9502  143.1519 H   0  0  0  0  0  0  0  0  0  0  0  0  # atno 7974 bound_to 7965
  155.6826  140.3496  155.4861 H   0  0  0  0  0  0  0  0  0  0  0  0  # atno 8008 bound_to 7997
  155.9594  140.1134  157.0931 H   0  0  0  0  0  0  0  0  0  0  0  0  # atno 8009 bound_to 7997
  154.4139  140.1178  156.5144 H   0  0  0  0  0  0  0  0  0  0  0  0  # atno 8010 bound_to 7997
  140.1456  144.4512  150.6787 H   0  0  0  0  0  0  0  0  0  0  0  0  # atno 10167 bound_to 10162
  157.3284  131.0916  151.1182 H   0  0  0  0  0  0  0  0  0  0  0  0  # atno 10718 bound_to 10713
  153.9804  135.6717  153.4750 H   0  0  0  0  0  0  0  0  0  0  0  0  # atno 10763 bound_to 10752
  153.0751  135.4953  154.8384 H   0  0  0  0  0  0  0  0  0  0  0  0  # atno 10764 bound_to 10752
  154.7168  135.3108  154.9073 H   0  0  0  0  0  0  0  0  0  0  0  0  # atno 10765 bound_to 10752
  140.2850  134.7719  157.3790 H   0  0  0  0  0  0  0  0  0  0  0  0  # atno 11005 bound_to 11000
  144.7548  139.7102  143.7258 LP  0  0  0  0  0  0  0  0  0  0  0  0  # atno 17320 bound_to 7965
  146.1942  139.5199  142.9785 LP  0  0  0  0  0  0  0  0  0  0  0  0  # atno 17321 bound_to 7965
  140.6734  143.2295  151.5569 LP  0  0  0  0  0  0  0  0  0  0  0  0  # atno 17342 bound_to 10162
  139.5450  144.2544  152.1426 LP  0  0  0  0  0  0  0  0  0  0  0  0  # atno 17343 bound_to 10162
  157.2440  130.6583  149.5902 LP  0  0  0  0  0  0  0  0  0  0  0  0  # atno 17370 bound_to 10713
  155.9693  130.4559  150.5906 LP  0  0  0  0  0  0  0  0  0  0  0  0  # atno 17371 bound_to 10713
  140.1248  134.5172  155.8154 LP  0  0  0  0  0  0  0  0  0  0  0  0  # atno 17394 bound_to 11000
  141.2156  133.6769  156.6932 LP  0  0  0  0  0  0  0  0  0  0  0  0  # atno 17395 bound_to 11000

$$$$
