AV-unprocessed.smi:1661|AV-procd|sdf|6655|dock8
  -GOLD-   22720 7363D 1   1.00000     0.00000
 Structure written by MMmdl.
 37 38  0  0  0  0  0  0  0  0  3 V2000
  151.7354  145.2522  159.0936 C   0  0  0  0  0  0  0  0  0  0  0  0
  152.2325  143.8229  158.8349 C   0  0  2  0  0  0  0  0  0  0  0  0
  151.1977  142.9918  158.0583 C   0  0  0  0  0  0  0  0  0  0  0  0
  151.6919  141.5527  157.8332 C   0  0  0  0  0  0  0  0  0  0  0  0
  152.0249  140.8894  159.1204 N   0  3  1  0  0  0  0  0  0  0  0  0
  152.3768  139.4588  158.9388 C   0  0  0  0  0  0  0  0  0  0  0  0
  151.3915  138.7272  158.0145 C   0  0  0  0  0  0  0  0  0  0  0  0
  150.8846  137.5263  158.6630 N   0  0  0  0  0  0  0  0  0  0  0  0
  149.6126  137.3313  159.0337 C   0  0  0  0  0  0  0  0  0  0  0  0
  148.7722  138.2095  158.8263 O   0  0  0  0  0  0  0  0  0  0  0  0
  149.3953  136.1325  159.6195 N   0  5  0  0  0  0  0  0  0  0  0  0
  148.5604  136.0391  160.6679 C   0  0  0  0  0  0  0  0  0  0  0  0
  148.1209  137.1193  161.3337 N   0  0  0  0  0  0  0  0  0  0  0  0
  147.2721  136.8041  162.3861 N   0  0  0  0  0  0  0  0  0  0  0  0
  147.0983  135.4868  162.4921 C   0  0  0  0  0  0  0  0  0  0  0  0
  147.9589  134.5119  161.3194 S   0  0  0  0  0  0  0  0  0  0  0  0
  153.0514  141.6555  159.8764 C   0  0  0  0  0  0  0  0  0  0  0  0
  152.5842  143.0962  160.1439 C   0  0  0  0  0  0  0  0  0  0  0  0
  150.8270  145.2544  159.6969 H   0  0  0  0  0  0  0  0  0  0  0  0
  151.5146  145.7660  158.1576 H   0  0  0  0  0  0  0  0  0  0  0  0
  152.4873  145.8395  159.6216 H   0  0  0  0  0  0  0  0  0  0  0  0
  153.1379  143.8913  158.2297 H   0  0  0  0  0  0  0  0  0  0  0  0
  150.2534  142.9706  158.6044 H   0  0  0  0  0  0  0  0  0  0  0  0
  150.9872  143.4613  157.0965 H   0  0  0  0  0  0  0  0  0  0  0  0
  150.9148  140.9878  157.3169 H   0  0  0  0  0  0  0  0  0  0  0  0
  152.5693  141.5517  157.1842 H   0  0  0  0  0  0  0  0  0  0  0  0
  153.3702  139.3874  158.4932 H   0  0  0  0  0  0  0  0  0  0  0  0
  152.4385  138.9661  159.9104 H   0  0  0  0  0  0  0  0  0  0  0  0
  150.5453  139.3645  157.7581 H   0  0  0  0  0  0  0  0  0  0  0  0
  151.8858  138.4520  157.0814 H   0  0  0  0  0  0  0  0  0  0  0  0
  151.5438  136.7850  158.8507 H   0  0  0  0  0  0  0  0  0  0  0  0
  146.4627  135.0866  163.2677 H   0  0  0  0  0  0  0  0  0  0  0  0
  153.2607  141.1738  160.8307 H   0  0  0  0  0  0  0  0  0  0  0  0
  153.9876  141.6633  159.3160 H   0  0  0  0  0  0  0  0  0  0  0  0
  153.3651  143.6416  160.6751 H   0  0  0  0  0  0  0  0  0  0  0  0
  151.7157  143.0798  160.8044 H   0  0  0  0  0  0  0  0  0  0  0  0
  151.1785  140.9050  159.6716 H   0  0  0  0  0  0  0  0  0  0  0  0
  1  2  1  0  0  0  0
  1 19  1  0  0  0  0
  1 20  1  0  0  0  0
  1 21  1  0  0  0  0
  2 18  1  0  0  0  0
  2  3  1  0  0  0  0
  2 22  1  0  0  0  0
  3  4  1  0  0  0  0
  3 23  1  0  0  0  0
  3 24  1  0  0  0  0
  4  5  1  0  0  0  0
  4 25  1  0  0  0  0
  4 26  1  0  0  0  0
  5  6  1  0  0  0  0
  5 17  1  0  0  0  0
  5 37  1  0  0  0  0
  6  7  1  0  0  0  0
  6 27  1  0  0  0  0
  6 28  1  0  0  0  0
  7  8  1  0  0  0  0
  7 29  1  0  0  0  0
  7 30  1  0  0  0  0
  8  9  1  0  0  0  0
  8 31  1  0  0  0  0
  9 10  2  0  0  0  0
  9 11  1  0  0  0  0
 11 12  1  0  0  0  0
 12 16  1  0  0  0  0
 12 13  2  0  0  0  0
 13 14  1  0  0  0  0
 14 15  2  0  0  0  0
 15 16  1  0  0  0  0
 15 32  1  0  0  0  0
 17 18  1  0  0  0  0
 17 33  1  0  0  0  0
 17 34  1  0  0  0  0
 18 35  1  0  0  0  0
 18 36  1  0  0  0  0
M  CHG  1   5   1
M  CHG  1  11  -1
M  END
> <s_m_source_file>
AV-unprocessed.smi

> <i_m_source_file_index>
1661

> <i_lp_mmshare_version>
43012

> <i_f3d_flags>
0

> <s_epik_input>
W0NIM11bQ0hdMVtDSDJdW0NIMl1OKFtDSDJdW0NIMl0xKVtDSDJdW0NIMl1bTkhdQyg9TylbTkhdYzJubltjSF1zMg==

> <s_epik_cmdline>
J2VwaWtfcHl0aG9uJywgJy1waCcsICc3LjAnLCAnLXRuJywgJzgnLCAnLW1hJywgJzIwMCcsICctbWV0YWxfYmluZGluZycsICctaW1hZScsICc8aW5maWxlLm1hZT4nLCAnLW9tYWUnLCAnPG91dGZpbGUubWFlPic=

> <r_lp_tautomer_probability>
1

> <r_epik_Ionization_Penalty>
3.04466

> <r_epik_Ionization_Penalty_Charging>
3.01305

> <r_epik_Ionization_Penalty_Neutral>
0.0316037

> <r_epik_State_Penalty>
3.00821

> <r_epik_Charging_Adjusted_Penalty>
6.02127

> <i_epik_Tot_Q>
0

> <i_epik_Tot_abs_Q>
2

> <r_epik_Metal_State_Penalty>
0.454395

> <b_epik_Metal_Only>
1

> <s_lp_Force_Field>
OPLS_2005

> <r_lp_Energy>
9.82396

> <b_lp_Chiralities_Consistent>
1

> <s_lp_Variant>
AV-unprocessed.smi:1661-3

> <Gold.Version>
5.8.1

> <Gold.Id.Protein>
6NUR|6NUR_protein|mol2

> <Gold.PLP.Fitness>
47.2561

> <Gold.PLP.PLP>
-38.2098

> <Gold.PLP.part.hbond>
-3.9182

> <Gold.PLP.part.metal>
0.0000

> <Gold.PLP.part.buried>
-5.4951

> <Gold.PLP.part.nonpolar>
-29.7204

> <Gold.PLP.part.repulsive>
0.2934

> <Gold.PLP.ligand.clash>
0.0000

> <Gold.PLP.ligand.torsion>
0.7757

> <Gold.PLP.Chemscore.Hbond>
3.5152

> <Gold.PLP.Chemscore.CHOScore>
0.0000

> <Gold.PLP.Chemscore.Metal>
0.0000

> <Gold.Chemscore.Hbonds>
donor molecule, donor type, donor heavy atom, donor atom, acceptor molecule, acceptor atom, score
      P1  H  6896  6908       L1    11  2.00
      P1  H  6931  6943       L1    13  1.00
      P1  H  6934  6947       L1    13  0.34

> <Gold.PLP.Chemscore.Internal.Correction>
0.0520

> <Gold.Rescore>
     Score         DG    S(hbond)    S(metal)    S(lipo)     H(rot)  DE(clash)    DE(int)     intcor
     15.92     -18.07       1.85        0.00      91.55       1.68       0.10       2.05       ----

> <Gold.Chemscore.Fitness>
15.9154

> <Gold.Chemscore.DG>
-18.0680

> <Gold.Chemscore.ZeroCoef>
-5.4800

> <Gold.Chemscore.Hbond>
1.8477

> <Gold.Chemscore.Metal>
0.0000

> <Gold.Chemscore.Lipo>
91.5527

> <Gold.Chemscore.Internal_Hbond>
0.0000

> <Gold.Chemscore.DEClash>
0.0998

> <Gold.Chemscore.DEInternal>
2.0528

> <Gold.Chemscore.Rot>
1.6777

> <Gold.Chemscore.Internal.Correction>
   9.000000E+99

> <Gold.Chemscore.Hbonds>
donor molecule, donor type, donor heavy atom, donor atom, acceptor molecule, acceptor atom, score
      P1  H  6896  6908       L1    11  0.78
      P1  H  6931  6943       L1    13  0.42
      P1  H  6934  6947       L1    13  0.04

> <Gold.Chemscore.Hbond.Weighted>
-6.1713

> <Gold.Chemscore.Metal.Weighted>
-0.0000

> <Gold.Chemscore.Lipo.Weighted>
-10.7117

> <Gold.Chemscore.Internal_Hbond.Weighted>
0.0000

> <Gold.Chemscore.DEClash.Weighted>
0.0998

> <Gold.Chemscore.DEInternal.Weighted>
2.0528

> <Gold.Chemscore.Rot.Weighted>
4.2950

> <Gold.Chemscore.Internal.Correction.Weighted>
   9.000000E+99

> <Gold.Protein.RotatedTorsions>
[ 6907 6896 6895 6894 ] final -166.14 input  -60.11 | X-H torsion
[ 7974 7965 7964 7962 ] final  -10.17 input  175.53 | X-H torsion
[ 8008 7997 7996 7995 ] final  127.70 input   59.86 | X-H torsion
[ 10167 10162 10161 10158 ] final   42.79 input  -65.29 | X-H torsion
[ 10718 10713 10712 10709 ] final -105.35 input   66.30 | X-H torsion
[ 10763 10752 10751 10750 ] final  -16.23 input  -60.55 | X-H torsion
[ 11005 11000 10999 10996 ] final   49.56 input  -57.11 | X-H torsion

> <Gold.Protein.ActiveResidues>
 VAL166  LYS551  ARG553  GLY616  TRP617  ASP618  TYR619  PRO620  LYS621  CYS622 
 ASP623  PHE694  ASN695  SER759  ASP760  ASP761  ALA762  ILE779  LEU786  VAL792 
 PHE793  MET794  SER795  GLU796  ALA797  LYS798  CYS799  TRP800  GLU811  SER814 

> <Gold.Protein.RotatedAtoms>
  151.4389  133.3649  159.2778 H   0  0  0  0  0  0  0  0  0  0  0  0  # atno 6907 bound_to 6896
  150.9172  134.8591  159.7475 H   0  0  0  0  0  0  0  0  0  0  0  0  # atno 6908 bound_to 6896
  152.4963  134.4324  159.9568 H   0  0  0  0  0  0  0  0  0  0  0  0  # atno 6909 bound_to 6896
  146.2229  140.2724  142.8357 H   0  0  0  0  0  0  0  0  0  0  0  0  # atno 7974 bound_to 7965
  156.2897  140.2662  156.2316 H   0  0  0  0  0  0  0  0  0  0  0  0  # atno 8008 bound_to 7997
  155.0066  140.0387  157.2400 H   0  0  0  0  0  0  0  0  0  0  0  0  # atno 8009 bound_to 7997
  154.7554  140.2751  155.6262 H   0  0  0  0  0  0  0  0  0  0  0  0  # atno 8010 bound_to 7997
  140.3509  144.2352  150.6146 H   0  0  0  0  0  0  0  0  0  0  0  0  # atno 10167 bound_to 10162
  156.0342  130.5559  150.7526 H   0  0  0  0  0  0  0  0  0  0  0  0  # atno 10718 bound_to 10713
  153.5554  135.7011  153.5572 H   0  0  0  0  0  0  0  0  0  0  0  0  # atno 10763 bound_to 10752
  153.3477  135.4003  155.1621 H   0  0  0  0  0  0  0  0  0  0  0  0  # atno 10764 bound_to 10752
  154.8655  135.3758  154.5068 H   0  0  0  0  0  0  0  0  0  0  0  0  # atno 10765 bound_to 10752
  140.1093  134.4976  155.8692 H   0  0  0  0  0  0  0  0  0  0  0  0  # atno 11005 bound_to 11000
  144.9258  140.7919  143.5720 LP  0  0  0  0  0  0  0  0  0  0  0  0  # atno 17320 bound_to 7965
  145.2664  139.1971  143.4864 LP  0  0  0  0  0  0  0  0  0  0  0  0  # atno 17321 bound_to 7965
  140.5220  143.2263  151.8374 LP  0  0  0  0  0  0  0  0  0  0  0  0  # atno 17342 bound_to 10162
  139.4826  144.4825  151.9288 LP  0  0  0  0  0  0  0  0  0  0  0  0  # atno 17343 bound_to 10162
  157.5067  131.0922  151.0249 LP  0  0  0  0  0  0  0  0  0  0  0  0  # atno 17370 bound_to 10713
  157.0615  130.5827  149.5386 LP  0  0  0  0  0  0  0  0  0  0  0  0  # atno 17371 bound_to 10713
  141.2126  133.6722  156.6673 LP  0  0  0  0  0  0  0  0  0  0  0  0  # atno 17394 bound_to 11000
  140.3113  134.8084  157.4178 LP  0  0  0  0  0  0  0  0  0  0  0  0  # atno 17395 bound_to 11000

$$$$
