AV-unprocessed.smi:1374|AV-procd|sdf|5587|dock8
  -GOLD-   22720 5183D 1   1.00000     0.00000
 Structure written by MMmdl.
 43 44  0  0  0  0  0  0  0  0  1 V2000
  151.8761  143.9748  158.8975 C   0  0  0  0  0  0  0  0  0  0  0  0
  151.5542  143.3952  157.5159 C   0  0  0  0  0  0  0  0  0  0  0  0
  151.3439  141.8757  157.5496 C   0  0  0  0  0  0  0  0  0  0  0  0
  151.0211  141.2981  156.1613 C   0  0  0  0  0  0  0  0  0  0  0  0
  151.0315  139.8490  156.1481 N   0  0  0  0  0  0  0  0  0  0  0  0
  150.1676  139.0627  156.9162 C   0  0  0  0  0  0  0  0  0  0  0  0
  149.2674  139.7113  157.7491 N   0  0  0  0  0  0  0  0  0  0  0  0
  150.2325  137.6971  156.8994 C   0  0  0  0  0  0  0  0  0  0  0  0
  149.3509  136.9048  157.6657 N   0  0  0  0  0  0  0  0  0  0  0  0
  148.4560  136.0160  156.9151 C   0  0  0  0  0  0  0  0  0  0  0  0
  149.3198  136.8726  159.0305 C   0  0  0  0  0  0  0  0  0  0  0  0
  149.9120  137.7257  159.6955 O   0  0  0  0  0  0  0  0  0  0  0  0
  148.5932  135.7639  159.6587 C   0  0  0  0  0  0  0  0  0  0  0  0
  147.7966  136.0275  160.7200 C   0  0  0  0  0  0  0  0  0  0  0  0
  147.1140  135.0658  161.4224 O   0  0  0  0  0  0  0  0  0  0  0  0
  147.4903  133.7272  161.1208 C   0  0  0  0  0  0  0  0  0  0  0  0
  147.7262  133.5641  159.6130 C   0  0  0  0  0  0  0  0  0  0  0  0
  148.7240  134.4793  159.1792 O   0  0  0  0  0  0  0  0  0  0  0  0
  151.1982  137.0081  156.0294 C   0  0  0  0  0  0  0  0  0  0  0  0
  151.3089  135.7895  155.9007 O   0  0  0  0  0  0  0  0  0  0  0  0
  152.0452  137.8484  155.3123 N   0  0  0  0  0  0  0  0  0  0  0  0
  152.0229  139.2377  155.3437 C   0  0  0  0  0  0  0  0  0  0  0  0
  152.8488  139.8694  154.6837 O   0  0  0  0  0  0  0  0  0  0  0  0
  152.7379  137.4115  154.7222 H   0  0  0  0  0  0  0  0  0  0  0  0
  152.0207  145.0539  158.8420 H   0  0  0  0  0  0  0  0  0  0  0  0
  152.7878  143.5377  159.3053 H   0  0  0  0  0  0  0  0  0  0  0  0
  151.0672  143.7836  159.6031 H   0  0  0  0  0  0  0  0  0  0  0  0
  150.6596  143.8799  157.1230 H   0  0  0  0  0  0  0  0  0  0  0  0
  152.3644  143.6367  156.8271 H   0  0  0  0  0  0  0  0  0  0  0  0
  152.2388  141.3960  157.9481 H   0  0  0  0  0  0  0  0  0  0  0  0
  150.5335  141.6374  158.2401 H   0  0  0  0  0  0  0  0  0  0  0  0
  150.0366  141.6120  155.8155 H   0  0  0  0  0  0  0  0  0  0  0  0
  151.7144  141.6519  155.3960 H   0  0  0  0  0  0  0  0  0  0  0  0
  149.2288  140.7191  157.8065 H   0  0  0  0  0  0  0  0  0  0  0  0
  148.5639  139.2063  158.2685 H   0  0  0  0  0  0  0  0  0  0  0  0
  147.4124  136.2278  157.1522 H   0  0  0  0  0  0  0  0  0  0  0  0
  148.6578  134.9707  157.1538 H   0  0  0  0  0  0  0  0  0  0  0  0
  148.5781  136.1280  155.8368 H   0  0  0  0  0  0  0  0  0  0  0  0
  147.6424  137.0101  161.1426 H   0  0  0  0  0  0  0  0  0  0  0  0
  148.3949  133.4759  161.6761 H   0  0  0  0  0  0  0  0  0  0  0  0
  146.7059  133.0509  161.4602 H   0  0  0  0  0  0  0  0  0  0  0  0
  148.0487  132.5491  159.3805 H   0  0  0  0  0  0  0  0  0  0  0  0
  146.8052  133.7448  159.0570 H   0  0  0  0  0  0  0  0  0  0  0  0
  1  2  1  0  0  0  0
  1 25  1  0  0  0  0
  1 26  1  0  0  0  0
  1 27  1  0  0  0  0
  2  3  1  0  0  0  0
  2 28  1  0  0  0  0
  2 29  1  0  0  0  0
  3  4  1  0  0  0  0
  3 30  1  0  0  0  0
  3 31  1  0  0  0  0
  4  5  1  0  0  0  0
  4 32  1  0  0  0  0
  4 33  1  0  0  0  0
  5 22  1  0  0  0  0
  5  6  1  0  0  0  0
  6  7  1  0  0  0  0
  6  8  2  0  0  0  0
  7 34  1  0  0  0  0
  7 35  1  0  0  0  0
  8  9  1  0  0  0  0
  8 19  1  0  0  0  0
  9 10  1  0  0  0  0
  9 11  1  0  0  0  0
 10 36  1  0  0  0  0
 10 37  1  0  0  0  0
 10 38  1  0  0  0  0
 11 12  2  0  0  0  0
 11 13  1  0  0  0  0
 13 18  1  0  0  0  0
 13 14  2  0  0  0  0
 14 15  1  0  0  0  0
 14 39  1  0  0  0  0
 15 16  1  0  0  0  0
 16 17  1  0  0  0  0
 16 40  1  0  0  0  0
 16 41  1  0  0  0  0
 17 18  1  0  0  0  0
 17 42  1  0  0  0  0
 17 43  1  0  0  0  0
 19 20  2  0  0  0  0
 19 21  1  0  0  0  0
 21 24  1  0  0  0  0
 21 22  1  0  0  0  0
 22 23  2  0  0  0  0
M  END
> <s_m_source_file>
AV-unprocessed.smi

> <i_m_source_file_index>
1374

> <i_lp_mmshare_version>
43012

> <i_f3d_flags>
0

> <s_epik_input>
W0NIM11bQ0gyXVtDSDJdW0NIMl1uMWMoW05IMl0pYyhjKD1PKVtuSF1jMT1PKU4oW0NIM10pQyg9TylDMj1bQ0hdT1tDSDJdW0NIMl1PMg==

> <s_epik_cmdline>
J2VwaWtfcHl0aG9uJywgJy1waCcsICc3LjAnLCAnLXRuJywgJzgnLCAnLW1hJywgJzIwMCcsICctbWV0YWxfYmluZGluZycsICctaW1hZScsICc8aW5maWxlLm1hZT4nLCAnLW9tYWUnLCAnPG91dGZpbGUubWFlPic=

> <r_lp_tautomer_probability>
1

> <r_epik_Ionization_Penalty>
3.28524e-05

> <r_epik_Ionization_Penalty_Charging>
2.39265e-05

> <r_epik_Ionization_Penalty_Neutral>
8.92594e-06

> <r_epik_State_Penalty>
-0

> <r_epik_Charging_Adjusted_Penalty>
2.39265e-05

> <i_epik_Tot_Q>
0

> <i_epik_Tot_abs_Q>
0

> <r_epik_Metal_State_Penalty>
0.0232519

> <b_epik_Metal_Only>
0

> <s_epik_Chemistry_Notes>
This compound has an imine and may undergo hydrolysis.

> <s_lp_Force_Field>
OPLS_2005

> <r_lp_Energy>
27.3757

> <b_lp_Chiralities_Consistent>
1

> <s_lp_Variant>
AV-unprocessed.smi:1374-1

> <Gold.Version>
5.8.1

> <Gold.Id.Protein>
6NUR|6NUR_protein|mol2

> <Gold.PLP.Fitness>
42.5298

> <Gold.PLP.PLP>
-32.9943

> <Gold.PLP.part.hbond>
-4.9967

> <Gold.PLP.part.metal>
0.0000

> <Gold.PLP.part.buried>
-3.6274

> <Gold.PLP.part.nonpolar>
-24.5211

> <Gold.PLP.part.repulsive>
0.3829

> <Gold.PLP.ligand.clash>
0.0201

> <Gold.PLP.ligand.torsion>
2.0111

> <Gold.PLP.Chemscore.Hbond>
3.3941

> <Gold.PLP.Chemscore.CHOScore>
0.0000

> <Gold.PLP.Chemscore.Metal>
0.0000

> <Gold.Chemscore.Hbonds>
donor molecule, donor type, donor heavy atom, donor atom, acceptor molecule, acceptor atom, score
      P1  H  6896  6907       L1    18  0.98
      P1  H  7989  7998       L1    23  0.38
      P1  H  7997  8010       L1    23  1.00
      P1  H 10752 10765       L1    20  1.00

> <Gold.PLP.Chemscore.Internal.Correction>
3.3957

> <Gold.Rescore>
     Score         DG    S(hbond)    S(metal)    S(lipo)     H(rot)  DE(clash)    DE(int)     intcor
     11.07     -16.69       2.40        0.00      59.77       1.49       0.17       5.45       ----

> <Gold.Chemscore.Fitness>
11.0695

> <Gold.Chemscore.DG>
-16.6938

> <Gold.Chemscore.ZeroCoef>
-5.4800

> <Gold.Chemscore.Hbond>
2.4037

> <Gold.Chemscore.Metal>
0.0000

> <Gold.Chemscore.Lipo>
59.7743

> <Gold.Chemscore.Internal_Hbond>
0.0000

> <Gold.Chemscore.DEClash>
0.1736

> <Gold.Chemscore.DEInternal>
5.4507

> <Gold.Chemscore.Rot>
1.4875

> <Gold.Chemscore.Internal.Correction>
   9.000000E+99

> <Gold.Chemscore.Hbonds>
donor molecule, donor type, donor heavy atom, donor atom, acceptor molecule, acceptor atom, score
      P1  H  6896  6907       L1    18  0.41
      P1  H  6931  6943       L1    12  0.01
      P1  H  7989  7998       L1    23  0.11
      P1  H  7997  8010       L1    23  0.65
      P1  H 10752 10765       L1    20  0.52

> <Gold.Chemscore.Hbond.Weighted>
-8.0283

> <Gold.Chemscore.Metal.Weighted>
-0.0000

> <Gold.Chemscore.Lipo.Weighted>
-6.9936

> <Gold.Chemscore.Internal_Hbond.Weighted>
0.0000

> <Gold.Chemscore.DEClash.Weighted>
0.1736

> <Gold.Chemscore.DEInternal.Weighted>
5.4507

> <Gold.Chemscore.Rot.Weighted>
3.8081

> <Gold.Chemscore.Internal.Correction.Weighted>
   9.000000E+99

> <Gold.Protein.RotatedTorsions>
[ 6907 6896 6895 6894 ] final -100.94 input  -60.11 | X-H torsion
[ 7974 7965 7964 7962 ] final  138.69 input  175.53 | X-H torsion
[ 8008 7997 7996 7995 ] final  108.92 input   59.86 | X-H torsion
[ 10167 10162 10161 10158 ] final  -34.64 input  -65.29 | X-H torsion
[ 10718 10713 10712 10709 ] final -129.04 input   66.30 | X-H torsion
[ 10763 10752 10751 10750 ] final -161.54 input  -60.55 | X-H torsion
[ 11005 11000 10999 10996 ] final   55.02 input  -57.11 | X-H torsion

> <Gold.Protein.ActiveResidues>
 VAL166  LYS551  ARG553  GLY616  TRP617  ASP618  TYR619  PRO620  LYS621  CYS622 
 ASP623  PHE694  ASN695  SER759  ASP760  ASP761  ALA762  ILE779  LEU786  VAL792 
 PHE793  MET794  SER795  GLU796  ALA797  LYS798  CYS799  TRP800  GLU811  SER814 

> <Gold.Protein.RotatedAtoms>
  150.7135  134.0809  159.3897 H   0  0  0  0  0  0  0  0  0  0  0  0  # atno 6907 bound_to 6896
  151.8793  135.0457  160.0496 H   0  0  0  0  0  0  0  0  0  0  0  0  # atno 6908 bound_to 6896
  152.2580  133.5237  159.5401 H   0  0  0  0  0  0  0  0  0  0  0  0  # atno 6909 bound_to 6896
  144.9349  139.5001  143.5600 H   0  0  0  0  0  0  0  0  0  0  0  0  # atno 7974 bound_to 7965
  156.1940  140.3067  155.9389 H   0  0  0  0  0  0  0  0  0  0  0  0  # atno 8008 bound_to 7997
  155.3109  140.0451  157.3052 H   0  0  0  0  0  0  0  0  0  0  0  0  # atno 8009 bound_to 7997
  154.5486  140.2284  155.8531 H   0  0  0  0  0  0  0  0  0  0  0  0  # atno 8010 bound_to 7997
  140.7181  143.3534  151.2109 H   0  0  0  0  0  0  0  0  0  0  0  0  # atno 10167 bound_to 10162
  156.2009  130.6856  151.0538 H   0  0  0  0  0  0  0  0  0  0  0  0  # atno 10718 bound_to 10713
  154.7294  135.3043  154.8916 H   0  0  0  0  0  0  0  0  0  0  0  0  # atno 10763 bound_to 10752
  153.9763  135.6735  153.4752 H   0  0  0  0  0  0  0  0  0  0  0  0  # atno 10764 bound_to 10752
  153.0905  135.4962  154.8600 H   0  0  0  0  0  0  0  0  0  0  0  0  # atno 10765 bound_to 10752
  140.0640  134.5562  155.9120 H   0  0  0  0  0  0  0  0  0  0  0  0  # atno 11005 bound_to 11000
  146.3262  139.8326  142.8905 LP  0  0  0  0  0  0  0  0  0  0  0  0  # atno 17320 bound_to 7965
  145.3083  141.0213  143.3569 LP  0  0  0  0  0  0  0  0  0  0  0  0  # atno 17321 bound_to 7965
  139.7070  143.9440  152.2931 LP  0  0  0  0  0  0  0  0  0  0  0  0  # atno 17342 bound_to 10162
  139.9152  144.6833  150.8520 LP  0  0  0  0  0  0  0  0  0  0  0  0  # atno 17343 bound_to 10162
  157.6985  131.0785  150.6895 LP  0  0  0  0  0  0  0  0  0  0  0  0  # atno 17370 bound_to 10713
  156.6952  130.4607  149.5588 LP  0  0  0  0  0  0  0  0  0  0  0  0  # atno 17371 bound_to 10713
  141.1985  133.6602  156.5796 LP  0  0  0  0  0  0  0  0  0  0  0  0  # atno 17394 bound_to 11000
  140.3726  134.7592  157.4609 LP  0  0  0  0  0  0  0  0  0  0  0  0  # atno 17395 bound_to 11000

$$$$
