#       Name:                AV-unprocessed.smi:1591
#       Creating user name   scv26
#       Creation time:       Fri Mar 27 07:03:29 2020


#       File generated by GOLD software.
#

@<TRIPOS>MOLECULE
AV-unprocessed.smi:1591
    58    61     1
SMALL
NO_CHARGES


@<TRIPOS>ATOM
      1 ****        -0.3572   0.4924   4.0290 C.3            1 S1                 0.0000
      2 ****        -0.9223  -0.1343   2.7450 C.3            1 S1                 0.0000
      3 ****        -0.6921   0.7176   1.4713 C.3            1 S1                 0.0000
      4 ****         0.7427   0.9376   1.2898 N.am           1 S1                 0.0000
      5 ****         1.4173   2.0915   1.4269 C.2            1 S1                 0.0000
      6 ****         0.8964   3.1343   1.8199 O.2            1 S1                 0.0000
      7 ****         2.9083   2.0852   1.0470 C.3            1 S1                 0.0000
      8 ****         3.3359   0.8753   0.3227 N.am           1 S1                 0.0000
      9 ****         3.9073  -0.1865   1.0098 C.2            1 S1                 0.0000
     10 ****         4.2731  -1.3478   0.4169 C.2            1 S1                 0.0000
     11 ****         4.0751  -1.5402  -1.0159 C.2            1 S1                 0.0000
     12 ****         4.3682  -2.5559  -1.6424 O.2            1 S1                 0.0000
     13 ****         3.5016  -0.4484  -1.6729 N.am           1 S1                 0.0000
     14 ****         3.1251   0.7518  -1.0689 C.2            1 S1                 0.0000
     15 ****         2.6188   1.6487  -1.7415 O.2            1 S1                 0.0000
     16 ****        -1.3008   0.1319   0.1531 C.3            1 S1                 0.0000
     17 ****        -1.1104   1.1565  -1.0065 C.3            1 S1                 0.0000
     18 ****        -1.7010   0.6214  -2.3264 C.3            1 S1                 0.0000
     19 ****        -0.9943  -0.6951  -2.7084 C.3            1 S1                 0.0000
     20 ****        -1.2156  -1.7314  -1.5881 C.3            1 S1                 0.0000
     21 ****        -2.7264  -1.9853  -1.4070 C.3            1 S1                 0.0000
     22 ****        -3.4218  -0.6615  -1.0276 C.3            1 S1                 0.0000
     23 ****        -3.2113   0.3740  -2.1494 C.3            1 S1                 0.0000
     24 ****        -2.8283  -0.1289   0.2949 C.3            1 S1                 0.0000
     25 ****        -0.6157  -1.2029  -0.2678 C.3            1 S1                 0.0000
     26 ****         3.3453  -0.5353  -2.6667 H              1 S1                 0.0000
     27 ****        -0.6203  -0.1088   4.8994 H              1 S1                 0.0000
     28 ****        -0.7564   1.4947   4.1855 H              1 S1                 0.0000
     29 ****         0.7302   0.5638   4.0002 H              1 S1                 0.0000
     30 ****        -0.4895  -1.1269   2.6220 H              1 S1                 0.0000
     31 ****        -1.9889  -0.2826   2.9057 H              1 S1                 0.0000
     32 ****        -1.1803   1.6779   1.6470 H              1 S1                 0.0000
     33 ****         1.2704   0.1400   0.9659 H              1 S1                 0.0000
     34 ****         3.1291   2.9785   0.4597 H              1 S1                 0.0000
     35 ****         3.4888   2.1957   1.9639 H              1 S1                 0.0000
     36 ****         4.0633  -0.0919   2.0751 H              1 S1                 0.0000
     37 ****         4.7101  -2.1405   1.0067 H              1 S1                 0.0000
     38 ****        -1.5820   2.1062  -0.7503 H              1 S1                 0.0000
     39 ****        -0.0557   1.3791  -1.1648 H              1 S1                 0.0000
     40 ****        -1.5457   1.3569  -3.1162 H              1 S1                 0.0000
     41 ****        -1.3832  -1.0721  -3.6551 H              1 S1                 0.0000
     42 ****         0.0725  -0.5228  -2.8587 H              1 S1                 0.0000
     43 ****        -0.7225  -2.6655  -1.8592 H              1 S1                 0.0000
     44 ****        -3.1550  -2.3882  -2.3256 H              1 S1                 0.0000
     45 ****        -2.8932  -2.7359  -0.6335 H              1 S1                 0.0000
     46 ****        -4.4897  -0.8393  -0.8976 H              1 S1                 0.0000
     47 ****        -3.7220   1.3063  -1.9053 H              1 S1                 0.0000
     48 ****        -3.6484   0.0165  -3.0826 H              1 S1                 0.0000
     49 ****        -3.0276  -0.8633   1.0743 H              1 S1                 0.0000
     50 ****        -3.3428   0.7853   0.5941 H              1 S1                 0.0000
     51 ****         0.4591  -1.0688  -0.3947 H              1 S1                 0.0000
     52 ****        -0.7383  -1.9590   0.5077 H              1 S1                 0.0000
     53 ****        -0.0754   3.1500   2.0553 LP             1 S1                 0.0000
     54 ****         1.4447   3.9663   1.9040 LP             1 S1                 0.0000
     55 ****         4.7774  -3.3353  -1.1680 LP             1 S1                 0.0000
     56 ****         4.1975  -2.6030  -2.6266 LP             1 S1                 0.0000
     57 ****         2.3396   2.5041  -1.3052 LP             1 S1                 0.0000
     58 ****         2.4864   1.5224  -2.7246 LP             1 S1                 0.0000
@<TRIPOS>BOND
    1    1    2 1     
    2    1   27 1     
    3    1   28 1     
    4    1   29 1     
    5    2    3 1     
    6    2   30 1     
    7    2   31 1     
    8    3    4 1     
    9    3   16 1     
   10    3   32 1     
   11    4    5 am    
   12    4   33 1     
   13    5    6 2     
   14    5    7 1     
   15    7    8 1     
   16    7   34 1     
   17    7   35 1     
   18    8   14 1     
   19    8    9 1     
   20    9   10 2     
   21    9   36 1     
   22   10   11 1     
   23   10   37 1     
   24   11   12 2     
   25   11   13 1     
   26   13   26 1     
   27   13   14 1     
   28   14   15 2     
   29   16   24 1     
   30   16   25 1     
   31   16   17 1     
   32   17   18 1     
   33   17   38 1     
   34   17   39 1     
   35   18   23 1     
   36   18   19 1     
   37   18   40 1     
   38   19   20 1     
   39   19   41 1     
   40   19   42 1     
   41   20   21 1     
   42   20   25 1     
   43   20   43 1     
   44   21   22 1     
   45   21   44 1     
   46   21   45 1     
   47   22   23 1     
   48   22   24 1     
   49   22   46 1     
   50   23   47 1     
   51   23   48 1     
   52   24   49 1     
   53   24   50 1     
   54   25   51 1     
   55   25   52 1     
   56    6   53 1     
   57    6   54 1     
   58   12   55 1     
   59   12   56 1     
   60   15   57 1     
   61   15   58 1     
@<TRIPOS>SUBSTRUCTURE
      1 S1             1
@<TRIPOS>SET
LONE_PAIRS      STATIC     ATOMS    <user>   **** ""
6 53 54 55 56 57 58
DONOR_HYDROGENS      STATIC     ATOMS    <user>   **** ""
2 33 26
ATOM$BLUE        STATIC     ATOMS    COLORGROUP SYSTEM
6 53 54 55 56 57 58
ATOM$RED        STATIC     ATOMS    COLORGROUP SYSTEM
2 33 26
