AV-unprocessed.smi:2100|AV-procd|sdf|8573|dock7
  -GOLD-   2272011303D 1   1.00000     0.00000
 Structure written by MMmdl.
 41 42  0  0  0  0  0  0  0  0  1 V2000
  150.4201  142.0665  155.7903 C   0  0  0  0  0  0  0  0  0  0  0  0
  150.6202  140.5482  155.7322 C   0  0  2  0  0  0  0  0  0  0  0  0
  151.9349  140.1165  156.4037 C   0  0  0  0  0  0  0  0  0  0  0  0
  152.1689  138.6753  156.2200 N   0  0  0  0  0  0  0  0  0  0  0  0
  153.3985  137.9351  157.1869 S   0  0  0  0  0  0  0  0  0  0  0  0
  153.5073  136.5161  156.8148 O   0  0  0  0  0  0  0  0  0  0  0  0
  154.5822  138.8082  157.1903 O   0  0  0  0  0  0  0  0  0  0  0  0
  152.6339  138.0226  158.7325 N   0  0  0  0  0  0  0  0  0  0  0  0
  152.2404  139.3222  159.2797 C   0  0  0  0  0  0  0  0  0  0  0  0
  153.4654  140.1721  159.6534 C   0  0  0  0  0  0  0  0  0  0  0  0
  153.0717  141.5444  160.1662 C   0  0  0  0  0  0  0  0  0  0  0  0
  152.2936  142.4150  159.3735 C   0  0  0  0  0  0  0  0  0  0  0  0
  151.9483  143.6743  159.9015 C   0  0  0  0  0  0  0  0  0  0  0  0
  152.3905  144.0119  161.1951 C   0  0  0  0  0  0  0  0  0  0  0  0
  153.1620  143.0713  161.9065 C   0  0  0  0  0  0  0  0  0  0  0  0
  153.4987  141.8616  161.4095 N   0  0  0  0  0  0  0  0  0  0  0  0
  152.0857  138.2553  154.8126 C   0  0  0  0  0  0  0  0  0  0  0  0
  150.7920  138.7607  154.1451 C   0  0  1  0  0  0  0  0  0  0  0  0
  149.5431  137.9573  154.5509 C   0  0  0  0  0  0  0  0  0  0  0  0
  150.6262  140.1597  154.3634 O   0  0  0  0  0  0  0  0  0  0  0  0
  150.3967  142.4206  156.8212 H   0  0  0  0  0  0  0  0  0  0  0  0
  149.4794  142.3532  155.3195 H   0  0  0  0  0  0  0  0  0  0  0  0
  151.2245  142.5912  155.2739 H   0  0  0  0  0  0  0  0  0  0  0  0
  149.7792  140.0811  156.2451 H   0  0  0  0  0  0  0  0  0  0  0  0
  152.7772  140.6651  155.9796 H   0  0  0  0  0  0  0  0  0  0  0  0
  151.9023  140.3582  157.4657 H   0  0  0  0  0  0  0  0  0  0  0  0
  153.0781  137.4140  159.4196 H   0  0  0  0  0  0  0  0  0  0  0  0
  151.6465  139.8441  158.5289 H   0  0  0  0  0  0  0  0  0  0  0  0
  151.5945  139.1684  160.1450 H   0  0  0  0  0  0  0  0  0  0  0  0
  154.0550  139.6755  160.4247 H   0  0  0  0  0  0  0  0  0  0  0  0
  154.1214  140.2839  158.7888 H   0  0  0  0  0  0  0  0  0  0  0  0
  151.9668  142.1263  158.3852 H   0  0  0  0  0  0  0  0  0  0  0  0
  151.3544  144.3681  159.3249 H   0  0  0  0  0  0  0  0  0  0  0  0
  152.1444  144.9682  161.6322 H   0  0  0  0  0  0  0  0  0  0  0  0
  153.5180  143.2963  162.9009 H   0  0  0  0  0  0  0  0  0  0  0  0
  152.9540  138.6508  154.2839 H   0  0  0  0  0  0  0  0  0  0  0  0
  152.1435  137.1689  154.7425 H   0  0  0  0  0  0  0  0  0  0  0  0
  150.9065  138.6372  153.0678 H   0  0  0  0  0  0  0  0  0  0  0  0
  149.6335  136.9180  154.2343 H   0  0  0  0  0  0  0  0  0  0  0  0
  148.6476  138.3672  154.0834 H   0  0  0  0  0  0  0  0  0  0  0  0
  149.3871  137.9521  155.6294 H   0  0  0  0  0  0  0  0  0  0  0  0
  1  2  1  0  0  0  0
  1 21  1  0  0  0  0
  1 22  1  0  0  0  0
  1 23  1  0  0  0  0
  2 20  1  0  0  0  0
  2  3  1  0  0  0  0
  2 24  1  0  0  0  0
  3  4  1  0  0  0  0
  3 25  1  0  0  0  0
  3 26  1  0  0  0  0
  4  5  1  0  0  0  0
  4 17  1  0  0  0  0
  5  6  2  0  0  0  0
  5  7  2  0  0  0  0
  5  8  1  0  0  0  0
  8  9  1  0  0  0  0
  8 27  1  0  0  0  0
  9 10  1  0  0  0  0
  9 28  1  0  0  0  0
  9 29  1  0  0  0  0
 10 11  1  0  0  0  0
 10 30  1  0  0  0  0
 10 31  1  0  0  0  0
 11 16  1  0  0  0  0
 11 12  2  0  0  0  0
 12 13  1  0  0  0  0
 12 32  1  0  0  0  0
 13 14  2  0  0  0  0
 13 33  1  0  0  0  0
 14 15  1  0  0  0  0
 14 34  1  0  0  0  0
 15 16  2  0  0  0  0
 15 35  1  0  0  0  0
 17 18  1  0  0  0  0
 17 36  1  0  0  0  0
 17 37  1  0  0  0  0
 18 19  1  0  0  0  0
 18 20  1  0  0  0  0
 18 38  1  0  0  0  0
 19 39  1  0  0  0  0
 19 40  1  0  0  0  0
 19 41  1  0  0  0  0
M  END
> <s_m_source_file>
AV-unprocessed.smi

> <i_m_source_file_index>
2100

> <i_lp_mmshare_version>
43012

> <i_f3d_flags>
0

> <s_epik_input>
W0NIM11bQ0BASF0xW0NIMl1OKFtDSDJdW0NASF0oTzEpW0NIM10pUyg9TykoPU8pW05IXVtDSDJdW0NIMl1jMltjSF1bY0hdW2NIXVtjSF1uMg==

> <s_epik_cmdline>
J2VwaWtfcHl0aG9uJywgJy1waCcsICc3LjAnLCAnLXRuJywgJzgnLCAnLW1hJywgJzIwMCcsICctbWV0YWxfYmluZGluZycsICctaW1hZScsICc8aW5maWxlLm1hZT4nLCAnLW9tYWUnLCAnPG91dGZpbGUubWFlPic=

> <r_epik_Ionization_Penalty>
0.085378

> <r_epik_Ionization_Penalty_Charging>
0

> <r_epik_Ionization_Penalty_Neutral>
0.085378

> <r_epik_State_Penalty>
0.0441186

> <r_epik_Charging_Adjusted_Penalty>
0.0441186

> <i_epik_Tot_Q>
0

> <i_epik_Tot_abs_Q>
0

> <r_epik_Metal_State_Penalty>
0.24397

> <b_epik_Metal_Only>
0

> <s_lp_Force_Field>
OPLS_2005

> <r_lp_Energy>
7.96462

> <b_lp_Chiralities_Consistent>
1

> <s_lp_Variant>
AV-unprocessed.smi:2100-1

> <Gold.Version>
5.8.1

> <Gold.Id.Protein>
6NUR|6NUR_protein|mol2

> <Gold.PLP.Fitness>
47.8203

> <Gold.PLP.PLP>
-40.8894

> <Gold.PLP.part.hbond>
-2.1724

> <Gold.PLP.part.metal>
0.0000

> <Gold.PLP.part.buried>
-6.2939

> <Gold.PLP.part.nonpolar>
-31.9425

> <Gold.PLP.part.repulsive>
0.0847

> <Gold.PLP.ligand.clash>
0.0243

> <Gold.PLP.ligand.torsion>
0.7283

> <Gold.PLP.Chemscore.Hbond>
2.5580

> <Gold.PLP.Chemscore.CHOScore>
0.0000

> <Gold.PLP.Chemscore.Metal>
0.0000

> <Gold.Chemscore.Hbonds>
donor molecule, donor type, donor heavy atom, donor atom, acceptor molecule, acceptor atom, score
      P1  H  7989  7998       L1    20  0.93
      P1  H  7997  8010       L1     7  0.07
      P1  H 10752 10765       L1     6  1.00

> <Gold.PLP.Chemscore.Internal.Correction>
0.7379

> <Gold.Rescore>
     Score         DG    S(hbond)    S(metal)    S(lipo)     H(rot)  DE(clash)    DE(int)     intcor
     20.69     -22.56       2.58        0.00     109.57       1.71       0.06       1.81       ----

> <Gold.Chemscore.Fitness>
20.6883

> <Gold.Chemscore.DG>
-22.5581

> <Gold.Chemscore.ZeroCoef>
-5.4800

> <Gold.Chemscore.Hbond>
2.5827

> <Gold.Chemscore.Metal>
0.0000

> <Gold.Chemscore.Lipo>
109.5665

> <Gold.Chemscore.Internal_Hbond>
0.0000

> <Gold.Chemscore.DEClash>
0.0570

> <Gold.Chemscore.DEInternal>
1.8129

> <Gold.Chemscore.Rot>
1.7060

> <Gold.Chemscore.Internal.Correction>
   9.000000E+99

> <Gold.Chemscore.Hbonds>
donor molecule, donor type, donor heavy atom, donor atom, acceptor molecule, acceptor atom, score
      P1  H  7989  7998       L1    20  0.49
      P1  H  7997  8010       L1     7  0.09
      P1  H 10752 10765       L1     6  0.95

> <Gold.Chemscore.Hbond.Weighted>
-8.6262

> <Gold.Chemscore.Metal.Weighted>
-0.0000

> <Gold.Chemscore.Lipo.Weighted>
-12.8193

> <Gold.Chemscore.Internal_Hbond.Weighted>
0.0000

> <Gold.Chemscore.DEClash.Weighted>
0.0570

> <Gold.Chemscore.DEInternal.Weighted>
1.8129

> <Gold.Chemscore.Rot.Weighted>
4.3674

> <Gold.Chemscore.Internal.Correction.Weighted>
   9.000000E+99

> <Gold.Protein.RotatedTorsions>
[ 6907 6896 6895 6894 ] final  143.48 input  -60.11 | X-H torsion
[ 7974 7965 7964 7962 ] final   86.57 input  175.53 | X-H torsion
[ 8008 7997 7996 7995 ] final   23.43 input   59.86 | X-H torsion
[ 10167 10162 10161 10158 ] final -140.15 input  -65.29 | X-H torsion
[ 10718 10713 10712 10709 ] final  158.03 input   66.30 | X-H torsion
[ 10763 10752 10751 10750 ] final -110.98 input  -60.55 | X-H torsion
[ 11005 11000 10999 10996 ] final   50.74 input  -57.11 | X-H torsion

> <Gold.Protein.ActiveResidues>
 VAL166  LYS551  ARG553  GLY616  TRP617  ASP618  TYR619  PRO620  LYS621  CYS622 
 ASP623  PHE694  ASN695  SER759  ASP760  ASP761  ALA762  ILE779  LEU786  VAL792 
 PHE793  MET794  SER795  GLU796  ALA797  LYS798  CYS799  TRP800  GLU811  SER814 

> <Gold.Protein.RotatedAtoms>
  152.2057  133.4874  159.5082 H   0  0  0  0  0  0  0  0  0  0  0  0  # atno 6907 bound_to 6896
  150.6979  134.1532  159.4157 H   0  0  0  0  0  0  0  0  0  0  0  0  # atno 6908 bound_to 6896
  151.9450  135.0195  160.0589 H   0  0  0  0  0  0  0  0  0  0  0  0  # atno 6909 bound_to 6896
  145.5704  139.2313  143.2409 H   0  0  0  0  0  0  0  0  0  0  0  0  # atno 7974 bound_to 7965
  154.9809  140.3102  155.4947 H   0  0  0  0  0  0  0  0  0  0  0  0  # atno 8008 bound_to 7997
  156.2953  140.2267  156.4847 H   0  0  0  0  0  0  0  0  0  0  0  0  # atno 8009 bound_to 7997
  154.7790  140.0447  157.1100 H   0  0  0  0  0  0  0  0  0  0  0  0  # atno 8010 bound_to 7997
  139.8310  143.7447  152.2666 H   0  0  0  0  0  0  0  0  0  0  0  0  # atno 10167 bound_to 10162
  157.1834  131.0637  151.2119 H   0  0  0  0  0  0  0  0  0  0  0  0  # atno 10718 bound_to 10713
  154.8277  135.4544  154.0969 H   0  0  0  0  0  0  0  0  0  0  0  0  # atno 10763 bound_to 10752
  153.2269  135.6901  153.7941 H   0  0  0  0  0  0  0  0  0  0  0  0  # atno 10764 bound_to 10752
  153.7338  135.3323  155.3267 H   0  0  0  0  0  0  0  0  0  0  0  0  # atno 10765 bound_to 10752
  140.0991  134.5105  155.8779 H   0  0  0  0  0  0  0  0  0  0  0  0  # atno 11005 bound_to 11000
  146.1788  140.6530  142.9199 LP  0  0  0  0  0  0  0  0  0  0  0  0  # atno 17320 bound_to 7965
  144.7440  140.5019  143.6849 LP  0  0  0  0  0  0  0  0  0  0  0  0  # atno 17321 bound_to 7965
  139.7655  144.7493  151.0301 LP  0  0  0  0  0  0  0  0  0  0  0  0  # atno 17342 bound_to 10162
  140.7806  143.4703  151.0155 LP  0  0  0  0  0  0  0  0  0  0  0  0  # atno 17343 bound_to 10162
  157.3931  130.7292  149.6712 LP  0  0  0  0  0  0  0  0  0  0  0  0  # atno 17370 bound_to 10713
  155.9721  130.4141  150.4115 LP  0  0  0  0  0  0  0  0  0  0  0  0  # atno 17371 bound_to 10713
  141.2100  133.6690  156.6483 LP  0  0  0  0  0  0  0  0  0  0  0  0  # atno 17394 bound_to 11000
  140.3244  134.7981  157.4278 LP  0  0  0  0  0  0  0  0  0  0  0  0  # atno 17395 bound_to 11000

$$$$
