#       Name:                AV-unprocessed.smi:278
#       Creating user name   scv26
#       Creation time:       Thu Mar 26 21:36:35 2020


#       File generated by GOLD software.
#

@<TRIPOS>MOLECULE
AV-unprocessed.smi:278
    57    61     1
SMALL
NO_CHARGES


@<TRIPOS>ATOM
      1 ****         0.3051   4.1041  -1.2386 O.2            1 S1                 0.0000
      2 ****        -0.6163   5.1843  -0.8529 S.o2           1 S1                 0.0000
      3 ****        -0.1027   6.4560  -0.3218 O.2            1 S1                 0.0000
      4 ****        -1.7456   5.5366  -2.2557 C.3            1 S1                 0.0000
      5 ****        -3.1714   5.3742  -1.7116 C.3            1 S1                 0.0000
      6 ****        -3.1604   4.3475  -0.5641 C.3            1 S1                 0.0000
      7 ****        -3.0278   2.8945  -1.0328 C.3            1 S1                 0.0000
      8 ****        -2.3317   2.2025   0.0440 N.pl3          1 S1                 0.0000
      9 ****        -1.8624   0.9386  -0.1287 C.ar           1 S1                 0.0000
     10 ****        -2.1550   0.2811  -1.2829 N.ar           1 S1                 0.0000
     11 ****        -1.6989  -0.9562  -1.4964 C.ar           1 S1                 0.0000
     12 ****        -0.9482  -1.7169  -0.6988 N.ar           1 S1                 0.0000
     13 ****        -0.6655  -1.0747   0.4698 C.ar           1 S1                 0.0000
     14 ****        -1.0810   0.2376   0.8376 C.ar           1 S1                 0.0000
     15 ****        -0.6082   0.5350   2.1121 N.2            1 S1                 0.0000
     16 ****         0.0582  -0.5288   2.4679 C.2            1 S1                 0.0000
     17 ****         0.0814  -1.5406   1.5365 N.pl3          1 S1                 0.0000
     18 ****         0.7523  -2.8227   1.6574 C.3            1 S1                 0.0000
     19 ****         2.0636  -2.8740   0.8482 C.3            1 S1                 0.0000
     20 ****         2.9296  -1.8525   1.3058 O.3            1 S1                 0.0000
     21 ****         2.7792  -4.2313   0.9760 C.3            1 S1                 0.0000
     22 ****         4.0730  -4.3418   0.1655 C.3            1 S1                 0.0000
     23 ****         4.1859  -5.8356  -0.0306 C.3            1 S1                 0.0000
     24 ****         2.7292  -6.2250  -0.2583 C.3            1 S1                 0.0000
     25 ****         1.9525  -5.2799   0.4733 O.3            1 S1                 0.0000
     26 ****        -1.5850   3.1554   0.8562 C.3            1 S1                 0.0000
     27 ****        -1.9106   4.5457   0.2940 C.3            1 S1                 0.0000
     28 ****        -4.0551   4.4413   0.0532 H              1 S1                 0.0000
     29 ****        -2.0621   5.2878   1.0782 H              1 S1                 0.0000
     30 ****        -1.5525   6.5328  -2.6542 H              1 S1                 0.0000
     31 ****        -1.5442   4.8063  -3.0397 H              1 S1                 0.0000
     32 ****        -3.5028   6.3337  -1.3130 H              1 S1                 0.0000
     33 ****        -3.8749   5.1000  -2.4983 H              1 S1                 0.0000
     34 ****        -4.0032   2.4472  -1.2276 H              1 S1                 0.0000
     35 ****        -2.4360   2.8313  -1.9471 H              1 S1                 0.0000
     36 ****        -1.9721  -1.3985  -2.4432 H              1 S1                 0.0000
     37 ****         0.5601  -0.6021   3.4219 H              1 S1                 0.0000
     38 ****         0.9458  -3.0186   2.7130 H              1 S1                 0.0000
     39 ****         0.0644  -3.5977   1.3172 H              1 S1                 0.0000
     40 ****         1.8459  -2.6828  -0.2035 H              1 S1                 0.0000
     41 ****         2.5066  -1.0189   1.1667 H              1 S1                 0.0000
     42 ****         2.9931  -4.4512   2.0234 H              1 S1                 0.0000
     43 ****         3.9672  -3.8465  -0.8011 H              1 S1                 0.0000
     44 ****         4.9343  -3.9118   0.6774 H              1 S1                 0.0000
     45 ****         4.8379  -6.1139  -0.8590 H              1 S1                 0.0000
     46 ****         4.5649  -6.3049   0.8782 H              1 S1                 0.0000
     47 ****         2.4727  -6.1377  -1.3148 H              1 S1                 0.0000
     48 ****         2.5170  -7.2464   0.0585 H              1 S1                 0.0000
     49 ****        -1.9351   3.0765   1.8857 H              1 S1                 0.0000
     50 ****        -0.5128   2.9593   0.8548 H              1 S1                 0.0000
     51 ****        -2.7171   0.7284  -1.9785 LP             1 S1                 0.0000
     52 ****        -0.6337  -2.6380  -0.9280 LP             1 S1                 0.0000
     53 ****        -0.7477   1.3747   2.6370 LP             1 S1                 0.0000
     54 ****         3.7891  -1.8845   0.7957 LP             1 S1                 0.0000
     55 ****         3.1156  -1.9785   2.2803 LP             1 S1                 0.0000
     56 ****         1.2568  -4.8894  -0.1296 LP             1 S1                 0.0000
     57 ****         1.5074  -5.7433   1.2396 LP             1 S1                 0.0000
@<TRIPOS>BOND
    1    1    2 2     
    2    2   27 1     
    3    2    3 2     
    4    2    4 1     
    5    4    5 1     
    6    4   30 1     
    7    4   31 1     
    8    5    6 1     
    9    5   32 1     
   10    5   33 1     
   11    6   28 1     
   12    6   27 1     
   13    6    7 1     
   14    7    8 1     
   15    7   34 1     
   16    7   35 1     
   17    8    9 1     
   18    8   26 1     
   19    9   14 ar    
   20    9   10 ar    
   21   10   11 ar    
   22   11   12 ar    
   23   11   36 1     
   24   12   13 ar    
   25   13   17 1     
   26   13   14 ar    
   27   14   15 1     
   28   15   16 2     
   29   16   17 1     
   30   16   37 1     
   31   17   18 1     
   32   18   19 1     
   33   18   38 1     
   34   18   39 1     
   35   19   20 1     
   36   19   21 1     
   37   19   40 1     
   38   20   41 1     
   39   21   25 1     
   40   21   22 1     
   41   21   42 1     
   42   22   23 1     
   43   22   43 1     
   44   22   44 1     
   45   23   24 1     
   46   23   45 1     
   47   23   46 1     
   48   24   25 1     
   49   24   47 1     
   50   24   48 1     
   51   26   27 1     
   52   26   49 1     
   53   26   50 1     
   54   27   29 1     
   55   10   51 1     
   56   12   52 1     
   57   15   53 1     
   58   20   54 1     
   59   20   55 1     
   60   25   56 1     
   61   25   57 1     
@<TRIPOS>SUBSTRUCTURE
      1 S1             1
@<TRIPOS>SET
LONE_PAIRS      STATIC     ATOMS    <user>   **** ""
9 1 3 51 52 53 54 55 56 57
DONOR_HYDROGENS      STATIC     ATOMS    <user>   **** ""
1 41
ATOM$BLUE        STATIC     ATOMS    COLORGROUP SYSTEM
9 1 3 51 52 53 54 55 56 57
ATOM$RED        STATIC     ATOMS    COLORGROUP SYSTEM
1 41
