#       Name:                AV-unprocessed.smi:2886
#       Creating user name   scv26
#       Creation time:       Fri Mar 27 15:56:09 2020


#       File generated by GOLD software.
#

@<TRIPOS>MOLECULE
AV-unprocessed.smi:2886
    33    35     1
SMALL
NO_CHARGES


@<TRIPOS>ATOM
      1 ****        -4.3638  -2.8726   0.8487 O.2            1 S1                 0.0000
      2 ****        -3.7504  -1.8153   0.7171 C.2            1 S1                 0.0000
      3 ****        -4.3942  -0.6252   0.6749 N.am           1 S1                 0.0000
      4 ****        -3.8178   0.6123   0.5225 N.2            1 S1                 0.0000
      5 ****        -2.5351   0.6825   0.4145 C.2            1 S1                 0.0000
      6 ****        -1.6721  -0.4936   0.4533 C.2            1 S1                 0.0000
      7 ****        -0.2903  -0.4167   0.3363 N.pl3          1 S1                 0.0000
      8 ****         0.5442   0.7646   0.1620 C.3            1 S1                 0.0000
      9 ****         1.8619   0.6873   0.9340 C.3            1 S1                 0.0000
     10 ****         2.8868   0.9615  -0.1764 C.3            1 S1                 0.0000
     11 ****         3.0609  -0.2558  -1.0938 C.3            1 S1                 0.0000
     12 ****         1.7509  -0.2428  -1.8795 C.3            1 S1                 0.0000
     13 ****         1.0325   0.9785  -1.2810 C.3            1 S1                 0.0000
     14 ****         2.1449   1.8204  -1.0278 O.3            1 S1                 0.0000
     15 ****        -2.2908  -1.6990   0.5926 C.2            1 S1                 0.0000
     16 ****        -1.3651  -3.1623   0.6353 Cl             1 S1                 0.0000
     17 ****        -5.4008  -0.6061   0.7547 H              1 S1                 0.0000
     18 ****        -2.0354   1.6414   0.2822 H              1 S1                 0.0000
     19 ****         0.2229  -1.2658   0.5274 H              1 S1                 0.0000
     20 ****         0.0106   1.6534   0.4988 H              1 S1                 0.0000
     21 ****         1.8984   1.4622   1.7001 H              1 S1                 0.0000
     22 ****         2.0319  -0.2756   1.4180 H              1 S1                 0.0000
     23 ****         3.8263   1.3830   0.1820 H              1 S1                 0.0000
     24 ****         3.9099  -0.1187  -1.7646 H              1 S1                 0.0000
     25 ****         3.2119  -1.1800  -0.5351 H              1 S1                 0.0000
     26 ****         1.9486  -0.0879  -2.9406 H              1 S1                 0.0000
     27 ****         1.1827  -1.1674  -1.7760 H              1 S1                 0.0000
     28 ****         0.2805   1.4145  -1.9392 H              1 S1                 0.0000
     29 ****        -3.8658  -3.7393   0.8775 LP             1 S1                 0.0000
     30 ****        -5.3607  -2.8659   0.9270 LP             1 S1                 0.0000
     31 ****        -4.3798   1.4390   0.4960 LP             1 S1                 0.0000
     32 ****         2.6454   2.0418  -1.8648 LP             1 S1                 0.0000
     33 ****         1.8773   2.6660  -0.5659 LP             1 S1                 0.0000
@<TRIPOS>BOND
    1    1    2 2     
    2    2   15 1     
    3    2    3 am    
    4    3   17 1     
    5    3    4 1     
    6    4    5 2     
    7    5    6 1     
    8    5   18 1     
    9    6    7 1     
   10    6   15 2     
   11    7    8 1     
   12    7   19 1     
   13    8   13 1     
   14    8    9 1     
   15    8   20 1     
   16    9   10 1     
   17    9   21 1     
   18    9   22 1     
   19   10   14 1     
   20   10   11 1     
   21   10   23 1     
   22   11   12 1     
   23   11   24 1     
   24   11   25 1     
   25   12   13 1     
   26   12   26 1     
   27   12   27 1     
   28   13   14 1     
   29   13   28 1     
   30   15   16 1     
   31    1   29 1     
   32    1   30 1     
   33    4   31 1     
   34   14   32 1     
   35   14   33 1     
@<TRIPOS>SUBSTRUCTURE
      1 S1             1
@<TRIPOS>SET
LONE_PAIRS      STATIC     ATOMS    <user>   **** ""
5 29 30 31 32 33
DONOR_HYDROGENS      STATIC     ATOMS    <user>   **** ""
2 17 19
ATOM$BLUE        STATIC     ATOMS    COLORGROUP SYSTEM
5 29 30 31 32 33
ATOM$RED        STATIC     ATOMS    COLORGROUP SYSTEM
2 17 19
