AV-unprocessed.smi:1986|AV-procd|sdf|8046|dock7
  -GOLD-   2272010243D 1   1.00000     0.00000
 Structure written by MMmdl.
 46 47  0  0  0  0  0  0  0  0  2 V2000
  151.6274  138.8443  155.4762 C   0  0  0  0  0  0  0  0  0  0  0  0
  152.1937  139.7848  156.5547 C   0  0  0  0  0  0  0  0  0  0  0  0
  151.2935  139.9768  157.8189 C   0  0  1  0  0  0  0  0  0  0  0  0
  149.9281  140.5124  157.3118 C   0  0  0  0  0  0  0  0  0  0  0  0
  151.0565  138.5751  158.4784 C   0  0  0  0  0  0  0  0  0  0  0  0
  149.6947  138.3498  158.9641 N   0  0  0  0  0  0  0  0  0  0  0  0
  149.0333  137.1825  158.9471 C   0  0  0  0  0  0  0  0  0  0  0  0
  149.4992  136.1475  158.4684 O   0  0  0  0  0  0  0  0  0  0  0  0
  147.6271  137.1978  159.5642 C   0  0  0  0  0  0  0  0  0  0  0  0
  147.5934  136.6918  160.9442 N   0  0  0  0  0  0  0  0  0  0  0  0
  147.8519  137.7124  161.9561 N   0  5  0  0  0  0  0  0  0  0  0  0
  147.8062  137.3685  163.2706 C   0  0  0  0  0  0  0  0  0  0  0  0
  147.9868  138.1771  164.1780 O   0  0  0  0  0  0  0  0  0  0  0  0
  147.5370  135.9798  163.6055 C   0  0  0  0  0  0  0  0  0  0  0  0
  147.3374  135.0514  162.6494 C   0  0  0  0  0  0  0  0  0  0  0  0
  147.3687  135.3766  161.2286 C   0  0  0  0  0  0  0  0  0  0  0  0
  147.1994  134.5308  160.3495 O   0  0  0  0  0  0  0  0  0  0  0  0
  151.9299  140.9083  158.7995 N   0  0  0  0  0  0  0  0  0  0  0  0
  152.1072  142.2875  158.3247 C   0  0  0  0  0  0  0  0  0  0  0  0
  152.6490  143.2185  159.4232 C   0  0  0  0  0  0  0  0  0  0  0  0
  153.8738  142.7049  159.9303 O   0  0  0  0  0  0  0  0  0  0  0  0
  153.7290  141.3945  160.4620 C   0  0  0  0  0  0  0  0  0  0  0  0
  153.2040  140.4479  159.3697 C   0  0  0  0  0  0  0  0  0  0  0  0
  152.3294  138.7488  154.6481 H   0  0  0  0  0  0  0  0  0  0  0  0
  150.6901  139.2175  155.0643 H   0  0  0  0  0  0  0  0  0  0  0  0
  151.4476  137.8434  155.8682 H   0  0  0  0  0  0  0  0  0  0  0  0
  153.1831  139.4310  156.8425 H   0  0  0  0  0  0  0  0  0  0  0  0
  152.4027  140.7476  156.0878 H   0  0  0  0  0  0  0  0  0  0  0  0
  149.5009  139.8638  156.5472 H   0  0  0  0  0  0  0  0  0  0  0  0
  150.0130  141.4976  156.8549 H   0  0  0  0  0  0  0  0  0  0  0  0
  149.1914  140.5803  158.1121 H   0  0  0  0  0  0  0  0  0  0  0  0
  151.2753  137.7851  157.7594 H   0  0  0  0  0  0  0  0  0  0  0  0
  151.7447  138.4105  159.3073 H   0  0  0  0  0  0  0  0  0  0  0  0
  149.2261  139.1446  159.3740 H   0  0  0  0  0  0  0  0  0  0  0  0
  147.2247  138.2125  159.5457 H   0  0  0  0  0  0  0  0  0  0  0  0
  146.9716  136.6093  158.9196 H   0  0  0  0  0  0  0  0  0  0  0  0
  147.4993  135.6855  164.6440 H   0  0  0  0  0  0  0  0  0  0  0  0
  147.1426  134.0312  162.9441 H   0  0  0  0  0  0  0  0  0  0  0  0
  152.7919  142.3089  157.4765 H   0  0  0  0  0  0  0  0  0  0  0  0
  151.1656  142.7113  157.9833 H   0  0  0  0  0  0  0  0  0  0  0  0
  152.8219  144.2168  159.0209 H   0  0  0  0  0  0  0  0  0  0  0  0
  151.9250  143.3213  160.2332 H   0  0  0  0  0  0  0  0  0  0  0  0
  154.6967  141.0505  160.8275 H   0  0  0  0  0  0  0  0  0  0  0  0
  153.0515  141.4119  161.3170 H   0  0  0  0  0  0  0  0  0  0  0  0
  153.1008  139.4632  159.8201 H   0  0  0  0  0  0  0  0  0  0  0  0
  153.9605  140.3635  158.5898 H   0  0  0  0  0  0  0  0  0  0  0  0
  1  2  1  0  0  0  0
  1 24  1  0  0  0  0
  1 25  1  0  0  0  0
  1 26  1  0  0  0  0
  2  3  1  0  0  0  0
  2 27  1  0  0  0  0
  2 28  1  0  0  0  0
  3  4  1  0  0  0  0
  3  5  1  0  0  0  0
  3 18  1  0  0  0  0
  4 29  1  0  0  0  0
  4 30  1  0  0  0  0
  4 31  1  0  0  0  0
  5  6  1  0  0  0  0
  5 32  1  0  0  0  0
  5 33  1  0  0  0  0
  6  7  1  0  0  0  0
  6 34  1  0  0  0  0
  7  8  2  0  0  0  0
  7  9  1  0  0  0  0
  9 35  1  0  0  0  0
  9 36  1  0  0  0  0
  9 10  1  0  0  0  0
 10 11  1  0  0  0  0
 10 16  1  0  0  0  0
 11 12  1  0  0  0  0
 12 13  2  0  0  0  0
 12 14  1  0  0  0  0
 14 37  1  0  0  0  0
 14 15  2  0  0  0  0
 15 38  1  0  0  0  0
 15 16  1  0  0  0  0
 16 17  2  0  0  0  0
 18 23  1  0  0  0  0
 18 19  1  0  0  0  0
 19 20  1  0  0  0  0
 19 39  1  0  0  0  0
 19 40  1  0  0  0  0
 20 21  1  0  0  0  0
 20 41  1  0  0  0  0
 20 42  1  0  0  0  0
 21 22  1  0  0  0  0
 22 23  1  0  0  0  0
 22 43  1  0  0  0  0
 22 44  1  0  0  0  0
 23 45  1  0  0  0  0
 23 46  1  0  0  0  0
M  CHG  1  11  -1
M  END
> <s_m_source_file>
AV-unprocessed.smi

> <i_m_source_file_index>
1986

> <i_lp_mmshare_version>
43012

> <i_f3d_flags>
0

> <s_epik_input>
W0NIMl0xW0NIMl1PW0NIMl1bQ0gyXU4xW0NAQF0oW0NIM10pKFtDSDJdW0NIM10pW0NIMl1bTkhdQyg9TylbQ0gyXW4yW25IXWMoPU8pW2NIXVtjSF1jMj1P

> <s_epik_cmdline>
J2VwaWtfcHl0aG9uJywgJy1waCcsICc3LjAnLCAnLXRuJywgJzgnLCAnLW1hJywgJzIwMCcsICctbWV0YWxfYmluZGluZycsICctaW1hZScsICc8aW5maWxlLm1hZT4nLCAnLW9tYWUnLCAnPG91dGZpbGUubWFlPic=

> <r_lp_tautomer_probability>
1

> <r_epik_Ionization_Penalty>
0.416475

> <r_epik_Ionization_Penalty_Charging>
0.0978085

> <r_epik_Ionization_Penalty_Neutral>
0.318667

> <r_epik_State_Penalty>
0.355037

> <r_epik_Charging_Adjusted_Penalty>
0.452845

> <i_epik_Tot_Q>
-1

> <i_epik_Tot_abs_Q>
1

> <r_epik_Metal_State_Penalty>
0.355037

> <b_epik_Metal_Only>
0

> <s_lp_Force_Field>
OPLS_2005

> <r_lp_Energy>
59.1101

> <b_lp_Chiralities_Consistent>
1

> <s_lp_Variant>
AV-unprocessed.smi:1986-1

> <Gold.Version>
5.8.1

> <Gold.Id.Protein>
6NUR|6NUR_protein|mol2

> <Gold.PLP.Fitness>
49.5811

> <Gold.PLP.PLP>
-41.2457

> <Gold.PLP.part.hbond>
-4.3576

> <Gold.PLP.part.metal>
0.0000

> <Gold.PLP.part.buried>
-3.9042

> <Gold.PLP.part.nonpolar>
-34.3102

> <Gold.PLP.part.repulsive>
0.2642

> <Gold.PLP.ligand.clash>
0.6670

> <Gold.PLP.ligand.torsion>
1.6737

> <Gold.PLP.Chemscore.Hbond>
4.0640

> <Gold.PLP.Chemscore.CHOScore>
0.0000

> <Gold.PLP.Chemscore.Metal>
0.0000

> <Gold.Chemscore.Hbonds>
donor molecule, donor type, donor heavy atom, donor atom, acceptor molecule, acceptor atom, score
      P1  H  6896  6909       L1     8  0.41
      P1  H  6931  6943       L1    11  0.56
      P1  H  6934  6947       L1    11  0.58

> <Gold.PLP.Chemscore.Internal.Correction>
0.1579

> <Gold.Rescore>
     Score         DG    S(hbond)    S(metal)    S(lipo)     H(rot)  DE(clash)    DE(int)     intcor
     12.40     -14.39       1.60        0.00      83.41       2.42       0.08       1.91       ----

> <Gold.Chemscore.Fitness>
12.4005

> <Gold.Chemscore.DG>
-14.3928

> <Gold.Chemscore.ZeroCoef>
-5.4800

> <Gold.Chemscore.Hbond>
1.6013

> <Gold.Chemscore.Metal>
0.0000

> <Gold.Chemscore.Lipo>
83.4084

> <Gold.Chemscore.Internal_Hbond>
0.0000

> <Gold.Chemscore.DEClash>
0.0808

> <Gold.Chemscore.DEInternal>
1.9115

> <Gold.Chemscore.Rot>
2.4197

> <Gold.Chemscore.Internal.Correction>
   9.000000E+99

> <Gold.Chemscore.Hbonds>
donor molecule, donor type, donor heavy atom, donor atom, acceptor molecule, acceptor atom, score
      P1  H  6896  6909       L1     8  0.37
      P1  H  6931  6943       L1    11  0.06
      P1  H  6934  6947       L1    11  0.03

> <Gold.Chemscore.Hbond.Weighted>
-5.3483

> <Gold.Chemscore.Metal.Weighted>
-0.0000

> <Gold.Chemscore.Lipo.Weighted>
-9.7588

> <Gold.Chemscore.Internal_Hbond.Weighted>
0.0000

> <Gold.Chemscore.DEClash.Weighted>
0.0808

> <Gold.Chemscore.DEInternal.Weighted>
1.9115

> <Gold.Chemscore.Rot.Weighted>
6.1943

> <Gold.Chemscore.Internal.Correction.Weighted>
   9.000000E+99

> <Gold.Protein.RotatedTorsions>
[ 6907 6896 6895 6894 ] final   42.67 input  -60.11 | X-H torsion
[ 7974 7965 7964 7962 ] final   34.46 input  175.53 | X-H torsion
[ 8008 7997 7996 7995 ] final  144.06 input   59.86 | X-H torsion
[ 10167 10162 10161 10158 ] final   97.91 input  -65.29 | X-H torsion
[ 10718 10713 10712 10709 ] final  -86.82 input   66.30 | X-H torsion
[ 10763 10752 10751 10750 ] final  148.69 input  -60.55 | X-H torsion
[ 11005 11000 10999 10996 ] final  140.48 input  -57.11 | X-H torsion

> <Gold.Protein.ActiveResidues>
 VAL166  LYS551  ARG553  GLY616  TRP617  ASP618  TYR619  PRO620  LYS621  CYS622 
 ASP623  PHE694  ASN695  SER759  ASP760  ASP761  ALA762  ILE779  LEU786  VAL792 
 PHE793  MET794  SER795  GLU796  ALA797  LYS798  CYS799  TRP800  GLU811  SER814 

> <Gold.Protein.RotatedAtoms>
  152.2107  134.8504  160.0497 H   0  0  0  0  0  0  0  0  0  0  0  0  # atno 6907 bound_to 6896
  151.9324  133.3609  159.3943 H   0  0  0  0  0  0  0  0  0  0  0  0  # atno 6908 bound_to 6896
  150.6975  134.4449  159.5353 H   0  0  0  0  0  0  0  0  0  0  0  0  # atno 6909 bound_to 6896
  146.1351  139.6267  142.9200 H   0  0  0  0  0  0  0  0  0  0  0  0  # atno 7974 bound_to 7965
  156.2917  140.2246  156.4991 H   0  0  0  0  0  0  0  0  0  0  0  0  # atno 8008 bound_to 7997
  154.7705  140.0467  157.1069 H   0  0  0  0  0  0  0  0  0  0  0  0  # atno 8009 bound_to 7997
  154.9880  140.3086  155.4921 H   0  0  0  0  0  0  0  0  0  0  0  0  # atno 8010 bound_to 7997
  139.7757  144.6906  151.0093 H   0  0  0  0  0  0  0  0  0  0  0  0  # atno 10167 bound_to 10162
  155.9988  130.4778  150.4773 H   0  0  0  0  0  0  0  0  0  0  0  0  # atno 10718 bound_to 10713
  154.0589  135.2875  155.3328 H   0  0  0  0  0  0  0  0  0  0  0  0  # atno 10763 bound_to 10752
  154.6821  135.5259  153.8280 H   0  0  0  0  0  0  0  0  0  0  0  0  # atno 10764 bound_to 10752
  153.0530  135.6584  154.0779 H   0  0  0  0  0  0  0  0  0  0  0  0  # atno 10765 bound_to 10752
  140.0331  134.9342  157.0700 H   0  0  0  0  0  0  0  0  0  0  0  0  # atno 11005 bound_to 11000
  145.5173  141.0433  143.2455 LP  0  0  0  0  0  0  0  0  0  0  0  0  # atno 17320 bound_to 7965
  144.7731  139.6689  143.7186 LP  0  0  0  0  0  0  0  0  0  0  0  0  # atno 17321 bound_to 7965
  140.7816  143.4539  151.0374 LP  0  0  0  0  0  0  0  0  0  0  0  0  # atno 17342 bound_to 10162
  139.8221  143.7806  152.3177 LP  0  0  0  0  0  0  0  0  0  0  0  0  # atno 17343 bound_to 10162
  157.2782  131.0601  151.2215 LP  0  0  0  0  0  0  0  0  0  0  0  0  # atno 17370 bound_to 10713
  157.3271  130.6966  149.6302 LP  0  0  0  0  0  0  0  0  0  0  0  0  # atno 17371 bound_to 10713
  140.4193  134.1898  155.7164 LP  0  0  0  0  0  0  0  0  0  0  0  0  # atno 17394 bound_to 11000
  141.1842  133.8349  157.1148 LP  0  0  0  0  0  0  0  0  0  0  0  0  # atno 17395 bound_to 11000

$$$$
