#       Name:                AV-unprocessed.smi:2740
#       Creating user name   scv26
#       Creation time:       Fri Mar 27 15:00:41 2020


#       File generated by GOLD software.
#

@<TRIPOS>MOLECULE
AV-unprocessed.smi:2740
    36    37     1
SMALL
NO_CHARGES


@<TRIPOS>ATOM
      1 ****        -6.4119   1.9089   0.4767 C.3            1 S1                 0.0000
      2 ****        -5.0645   1.2703   0.4723 C.2            1 S1                 0.0000
      3 ****        -4.7261   0.0313  -0.0158 C.2            1 S1                 0.0000
      4 ****        -3.3727  -0.2831   0.1271 N.2            1 S1                 0.0000
      5 ****        -2.6884   0.7040   0.7155 C.2            1 S1                 0.0000
      6 ****        -1.2968   0.6600   0.9929 N.am           1 S1                 0.0000
      7 ****        -0.4299  -0.3361   0.7393 C.2            1 S1                 0.0000
      8 ****        -0.7109  -1.4030   0.1924 O.2            1 S1                 0.0000
      9 ****         0.8043  -0.0246   1.1598 N.am           1 S1                 0.0000
     10 ****         1.9737  -0.8863   1.0299 C.3            1 S1                 0.0000
     11 ****         2.5852  -0.8043  -0.3783 C.3            1 S1                 0.0000
     12 ****         3.7716  -1.7413  -0.5876 C.3            1 S1                 0.0000
     13 ****         4.4835  -1.0724  -1.7414 C.3            1 S1                 0.0000
     14 ****         4.2957   0.4078  -1.4166 C.3            1 S1                 0.0000
     15 ****         3.1132   0.4963  -0.6240 O.3            1 S1                 0.0000
     16 ****        -3.6754   2.0961   1.1321 S.3            1 S1                 0.0000
     17 ****        -7.2001   1.1596   0.3987 H              1 S1                 0.0000
     18 ****        -6.5154   2.5965  -0.3627 H              1 S1                 0.0000
     19 ****        -6.5741   2.4707   1.3968 H              1 S1                 0.0000
     20 ****        -5.3824  -0.6902  -0.4795 H              1 S1                 0.0000
     21 ****        -0.9184   1.4798   1.4438 H              1 S1                 0.0000
     22 ****         0.9494   0.8752   1.5937 H              1 S1                 0.0000
     23 ****         2.7092  -0.5849   1.7764 H              1 S1                 0.0000
     24 ****         1.7005  -1.9167   1.2630 H              1 S1                 0.0000
     25 ****         1.8314  -1.0147  -1.1389 H              1 S1                 0.0000
     26 ****         4.4155  -1.7530   0.2931 H              1 S1                 0.0000
     27 ****         3.4702  -2.7660  -0.8064 H              1 S1                 0.0000
     28 ****         5.5314  -1.3609  -1.8272 H              1 S1                 0.0000
     29 ****         3.9832  -1.3172  -2.6794 H              1 S1                 0.0000
     30 ****         5.1347   0.7808  -0.8283 H              1 S1                 0.0000
     31 ****         4.2155   1.0181  -2.3164 H              1 S1                 0.0000
     32 ****        -2.9638  -1.1443  -0.1748 LP             1 S1                 0.0000
     33 ****        -1.6497  -1.5819  -0.1022 LP             1 S1                 0.0000
     34 ****        -0.0004  -2.0906   0.0428 LP             1 S1                 0.0000
     35 ****         3.3324   0.9337   0.2481 LP             1 S1                 0.0000
     36 ****         2.4309   1.0433  -1.1091 LP             1 S1                 0.0000
@<TRIPOS>BOND
    1    1    2 1     
    2    1   17 1     
    3    1   18 1     
    4    1   19 1     
    5    2   16 1     
    6    2    3 2     
    7    3    4 1     
    8    3   20 1     
    9    4    5 2     
   10    5    6 1     
   11    5   16 1     
   12    6    7 am    
   13    6   21 1     
   14    7    8 2     
   15    7    9 am    
   16    9   10 1     
   17    9   22 1     
   18   10   11 1     
   19   10   23 1     
   20   10   24 1     
   21   11   15 1     
   22   11   12 1     
   23   11   25 1     
   24   12   13 1     
   25   12   26 1     
   26   12   27 1     
   27   13   14 1     
   28   13   28 1     
   29   13   29 1     
   30   14   15 1     
   31   14   30 1     
   32   14   31 1     
   33    4   32 1     
   34    8   33 1     
   35    8   34 1     
   36   15   35 1     
   37   15   36 1     
@<TRIPOS>SUBSTRUCTURE
      1 S1             1
@<TRIPOS>SET
LONE_PAIRS      STATIC     ATOMS    <user>   **** ""
5 32 33 34 35 36
DONOR_HYDROGENS      STATIC     ATOMS    <user>   **** ""
2 21 22
ATOM$BLUE        STATIC     ATOMS    COLORGROUP SYSTEM
5 32 33 34 35 36
ATOM$RED        STATIC     ATOMS    COLORGROUP SYSTEM
2 21 22
