AV-unprocessed.smi:213|AV-procd|sdf|1633|dock9
  -GOLD-   2262019593D 1   1.00000     0.00000
 Structure written by MMmdl.
 59 62  0  0  0  0  0  0  0  0  2 V2000
  147.3476  134.0506  156.6822 C   0  0  0  0  0  0  0  0  0  0  0  0
  148.4408  134.6039  155.7534 C   0  0  2  0  0  0  0  0  0  0  0  0
  148.5471  133.7702  154.4525 C   0  0  0  0  0  0  0  0  0  0  0  0
  147.6209  134.2323  153.3871 N   0  3  0  0  0  0  0  0  0  0  0  0
  147.3667  133.2064  152.3507 C   0  0  0  0  0  0  0  0  0  0  0  0
  146.4876  133.7929  151.2333 C   0  0  0  0  0  0  0  0  0  0  0  0
  145.2714  134.2802  151.7875 O   0  0  0  0  0  0  0  0  0  0  0  0
  145.4935  135.3201  152.7327 C   0  0  0  0  0  0  0  0  0  0  0  0
  146.3418  134.7840  153.8978 C   0  0  0  0  0  0  0  0  0  0  0  0
  149.7285  134.7338  156.4541 N   0  0  0  0  0  0  0  0  0  0  0  0
  150.9356  134.1730  155.8470 C   0  0  0  0  0  0  0  0  0  0  0  0
  149.8898  135.8513  157.2118 C   0  0  0  0  0  0  0  0  0  0  0  0
  149.0262  136.0926  158.2354 N   0  0  0  0  0  0  0  0  0  0  0  0
  149.2014  137.1481  159.0350 C   0  0  0  0  0  0  0  0  0  0  0  0
  150.1644  138.0697  158.9976 N   0  0  0  0  0  0  0  0  0  0  0  0
  151.0257  137.8442  157.9652 C   0  0  0  0  0  0  0  0  0  0  0  0
  150.9598  136.7734  157.0296 C   0  0  0  0  0  0  0  0  0  0  0  0
  152.0064  136.8777  156.1206 N   0  0  0  0  0  0  0  0  0  0  0  0
  152.6589  137.9414  156.5025 C   0  0  0  0  0  0  0  0  0  0  0  0
  152.1451  138.5754  157.6103 N   0  0  0  0  0  0  0  0  0  0  0  0
  152.6784  139.7627  158.2565 C   0  0  0  0  0  0  0  0  0  0  0  0
  151.7117  140.9645  158.1756 C   0  0  2  0  0  0  0  0  0  0  0  0
  151.3681  141.1690  156.8178 O   0  0  0  0  0  0  0  0  0  0  0  0
  152.3277  142.2735  158.7093 C   0  0  2  0  0  0  0  0  0  0  0  0
  152.4807  142.3411  160.2294 C   0  0  0  0  0  0  0  0  0  0  0  0
  152.5415  143.8328  160.5053 C   0  0  0  0  0  0  0  0  0  0  0  0
  151.8521  144.4547  159.2885 C   0  0  0  0  0  0  0  0  0  0  0  0
  151.4379  143.3574  158.4839 O   0  0  0  0  0  0  0  0  0  0  0  0
  146.3739  134.0785  156.1924 H   0  0  0  0  0  0  0  0  0  0  0  0
  147.2713  134.6435  157.5942 H   0  0  0  0  0  0  0  0  0  0  0  0
  147.5360  133.0157  156.9678 H   0  0  0  0  0  0  0  0  0  0  0  0
  148.0932  135.5953  155.4714 H   0  0  0  0  0  0  0  0  0  0  0  0
  149.5729  133.8266  154.0859 H   0  0  0  0  0  0  0  0  0  0  0  0
  148.3594  132.7152  154.6580 H   0  0  0  0  0  0  0  0  0  0  0  0
  148.3120  132.8629  151.9290 H   0  0  0  0  0  0  0  0  0  0  0  0
  146.8796  132.3403  152.8014 H   0  0  0  0  0  0  0  0  0  0  0  0
  147.0093  134.5960  150.7096 H   0  0  0  0  0  0  0  0  0  0  0  0
  146.2571  133.0263  150.4934 H   0  0  0  0  0  0  0  0  0  0  0  0
  145.9832  136.1681  152.2519 H   0  0  0  0  0  0  0  0  0  0  0  0
  144.5315  135.6769  153.1007 H   0  0  0  0  0  0  0  0  0  0  0  0
  145.7941  134.0071  154.4335 H   0  0  0  0  0  0  0  0  0  0  0  0
  146.5258  135.5905  154.6063 H   0  0  0  0  0  0  0  0  0  0  0  0
  151.7621  134.1688  156.5588 H   0  0  0  0  0  0  0  0  0  0  0  0
  151.2390  134.7512  154.9739 H   0  0  0  0  0  0  0  0  0  0  0  0
  150.7778  133.1417  155.5341 H   0  0  0  0  0  0  0  0  0  0  0  0
  148.4724  137.2654  159.8233 H   0  0  0  0  0  0  0  0  0  0  0  0
  153.5435  138.2904  155.9893 H   0  0  0  0  0  0  0  0  0  0  0  0
  152.8910  139.5090  159.2954 H   0  0  0  0  0  0  0  0  0  0  0  0
  153.6348  140.0145  157.7963 H   0  0  0  0  0  0  0  0  0  0  0  0
  150.8041  140.7316  158.7343 H   0  0  0  0  0  0  0  0  0  0  0  0
  152.0995  141.5811  156.3850 H   0  0  0  0  0  0  0  0  0  0  0  0
  153.2897  142.4782  158.2347 H   0  0  0  0  0  0  0  0  0  0  0  0
  151.6017  141.9150  160.7155 H   0  0  0  0  0  0  0  0  0  0  0  0
  153.3609  141.8098  160.5928 H   0  0  0  0  0  0  0  0  0  0  0  0
  152.0452  144.0904  161.4412 H   0  0  0  0  0  0  0  0  0  0  0  0
  153.5758  144.1732  160.5666 H   0  0  0  0  0  0  0  0  0  0  0  0
  150.9954  145.0688  159.5666 H   0  0  0  0  0  0  0  0  0  0  0  0
  152.5494  145.0768  158.7261 H   0  0  0  0  0  0  0  0  0  0  0  0
  148.0963  134.9885  152.9142 H   0  0  0  0  0  0  0  0  0  0  0  0
  1  2  1  0  0  0  0
  1 29  1  0  0  0  0
  1 30  1  0  0  0  0
  1 31  1  0  0  0  0
  2  3  1  0  0  0  0
  2 10  1  0  0  0  0
  2 32  1  0  0  0  0
  3  4  1  0  0  0  0
  3 33  1  0  0  0  0
  3 34  1  0  0  0  0
  4  9  1  0  0  0  0
  4  5  1  0  0  0  0
  4 59  1  0  0  0  0
  5  6  1  0  0  0  0
  5 35  1  0  0  0  0
  5 36  1  0  0  0  0
  6  7  1  0  0  0  0
  6 37  1  0  0  0  0
  6 38  1  0  0  0  0
  7  8  1  0  0  0  0
  8  9  1  0  0  0  0
  8 39  1  0  0  0  0
  8 40  1  0  0  0  0
  9 41  1  0  0  0  0
  9 42  1  0  0  0  0
 10 11  1  0  0  0  0
 10 12  1  0  0  0  0
 11 43  1  0  0  0  0
 11 44  1  0  0  0  0
 11 45  1  0  0  0  0
 12 17  1  0  0  0  0
 12 13  2  0  0  0  0
 13 14  1  0  0  0  0
 14 15  2  0  0  0  0
 14 46  1  0  0  0  0
 15 16  1  0  0  0  0
 16 20  1  0  0  0  0
 16 17  2  0  0  0  0
 17 18  1  0  0  0  0
 18 19  2  0  0  0  0
 19 20  1  0  0  0  0
 19 47  1  0  0  0  0
 20 21  1  0  0  0  0
 21 22  1  0  0  0  0
 21 48  1  0  0  0  0
 21 49  1  0  0  0  0
 22 23  1  0  0  0  0
 22 24  1  0  0  0  0
 22 50  1  0  0  0  0
 23 51  1  0  0  0  0
 24 28  1  0  0  0  0
 24 25  1  0  0  0  0
 24 52  1  0  0  0  0
 25 26  1  0  0  0  0
 25 53  1  0  0  0  0
 25 54  1  0  0  0  0
 26 27  1  0  0  0  0
 26 55  1  0  0  0  0
 26 56  1  0  0  0  0
 27 28  1  0  0  0  0
 27 57  1  0  0  0  0
 27 58  1  0  0  0  0
M  CHG  1   4   1
M  END
> <s_m_source_file>
AV-unprocessed.smi

> <i_m_source_file_index>
213

> <i_lp_mmshare_version>
43012

> <i_f3d_flags>
0

> <s_epik_input>
W0NIMl0xW0NIMl1PW0NIMl1bQ0gyXU4xW0NIMl1bQ0BASF0oW0NIM10pTihbQ0gzXSljKG5bY0hdbjIpYyhjMjMpbltjSF1uM1tDSDJdW0NASF0oW09IXSlbQ0BASF00W0NIMl1bQ0gyXVtDSDJdTzQ=

> <s_epik_cmdline>
J2VwaWtfcHl0aG9uJywgJy1waCcsICc3LjAnLCAnLXRuJywgJzgnLCAnLW1hJywgJzIwMCcsICctbWV0YWxfYmluZGluZycsICctaW1hZScsICc8aW5maWxlLm1hZT4nLCAnLW9tYWUnLCAnPG91dGZpbGUubWFlPic=

> <r_lp_tautomer_probability>
1

> <r_epik_Ionization_Penalty>
0.399679

> <r_epik_Ionization_Penalty_Charging>
0.399433

> <r_epik_Ionization_Penalty_Neutral>
0.000246213

> <r_epik_State_Penalty>
0.286032

> <r_epik_Charging_Adjusted_Penalty>
0.685465

> <i_epik_Tot_Q>
1

> <i_epik_Tot_abs_Q>
1

> <r_epik_Metal_State_Penalty>
0.286072

> <b_epik_Metal_Only>
0

> <s_lp_Force_Field>
OPLS_2005

> <r_lp_Energy>
46.7886

> <b_lp_Chiralities_Consistent>
1

> <s_lp_Variant>
AV-unprocessed.smi:213-1

> <Gold.Version>
5.8.1

> <Gold.Id.Protein>
6NUR|6NUR_protein|mol2

> <Gold.PLP.Fitness>
44.7044

> <Gold.PLP.PLP>
-38.3235

> <Gold.PLP.part.hbond>
-2.3444

> <Gold.PLP.part.metal>
0.0000

> <Gold.PLP.part.buried>
-6.5383

> <Gold.PLP.part.nonpolar>
-29.6265

> <Gold.PLP.part.repulsive>
0.1652

> <Gold.PLP.ligand.clash>
0.0000

> <Gold.PLP.ligand.torsion>
1.8666

> <Gold.PLP.Chemscore.Hbond>
3.0000

> <Gold.PLP.Chemscore.CHOScore>
0.0000

> <Gold.PLP.Chemscore.Metal>
0.0000

> <Gold.Chemscore.Hbonds>
donor molecule, donor type, donor heavy atom, donor atom, acceptor molecule, acceptor atom, score
      L1  H     4    59       P1  7948  2.00
      P1  H 10752 10763       L1    18  0.84

> <Gold.PLP.Chemscore.Internal.Correction>
1.1141

> <Gold.Rescore>
     Score         DG    S(hbond)    S(metal)    S(lipo)     H(rot)  DE(clash)    DE(int)     intcor
     11.45     -15.22       1.83        0.00      92.74       2.83       0.04       3.73       ----

> <Gold.Chemscore.Fitness>
11.4496

> <Gold.Chemscore.DG>
-15.2227

> <Gold.Chemscore.ZeroCoef>
-5.4800

> <Gold.Chemscore.Hbond>
1.8339

> <Gold.Chemscore.Metal>
0.0000

> <Gold.Chemscore.Lipo>
92.7382

> <Gold.Chemscore.Internal_Hbond>
0.0000

> <Gold.Chemscore.DEClash>
0.0405

> <Gold.Chemscore.DEInternal>
3.7326

> <Gold.Chemscore.Rot>
2.8254

> <Gold.Chemscore.Internal.Correction>
   9.000000E+99

> <Gold.Chemscore.Hbonds>
donor molecule, donor type, donor heavy atom, donor atom, acceptor molecule, acceptor atom, score
      L1  H     4    59       P1  7948  0.93
      P1  H 10752 10763       L1    18  0.75

> <Gold.Chemscore.Hbond.Weighted>
-6.1253

> <Gold.Chemscore.Metal.Weighted>
-0.0000

> <Gold.Chemscore.Lipo.Weighted>
-10.8504

> <Gold.Chemscore.Internal_Hbond.Weighted>
0.0000

> <Gold.Chemscore.DEClash.Weighted>
0.0405

> <Gold.Chemscore.DEInternal.Weighted>
3.7326

> <Gold.Chemscore.Rot.Weighted>
7.2330

> <Gold.Chemscore.Internal.Correction.Weighted>
   9.000000E+99

> <Gold.Protein.RotatedTorsions>
[ 6907 6896 6895 6894 ] final   77.89 input  -60.11 | X-H torsion
[ 7974 7965 7964 7962 ] final  130.49 input  175.53 | X-H torsion
[ 8008 7997 7996 7995 ] final  -73.43 input   59.86 | X-H torsion
[ 10167 10162 10161 10158 ] final -173.92 input  -65.29 | X-H torsion
[ 10718 10713 10712 10709 ] final -169.49 input   66.30 | X-H torsion
[ 10763 10752 10751 10750 ] final   87.88 input  -60.55 | X-H torsion
[ 11005 11000 10999 10996 ] final  106.46 input  -57.11 | X-H torsion

> <Gold.Protein.ActiveResidues>
 VAL166  LYS551  ARG553  GLY616  TRP617  ASP618  TYR619  PRO620  LYS621  CYS622 
 ASP623  PHE694  ASN695  SER759  ASP760  ASP761  ALA762  ILE779  LEU786  VAL792 
 PHE793  MET794  SER795  GLU796  ALA797  LYS798  CYS799  TRP800  GLU811  SER814 

> <Gold.Protein.RotatedAtoms>
  152.5136  134.3748  159.9330 H   0  0  0  0  0  0  0  0  0  0  0  0  # atno 6907 bound_to 6896
  151.3704  133.3851  159.2707 H   0  0  0  0  0  0  0  0  0  0  0  0  # atno 6908 bound_to 6896
  150.9582  134.8993  159.7773 H   0  0  0  0  0  0  0  0  0  0  0  0  # atno 6909 bound_to 6896
  145.0173  139.4164  143.5215 H   0  0  0  0  0  0  0  0  0  0  0  0  # atno 7974 bound_to 7965
  154.5246  140.0779  156.8235 H   0  0  0  0  0  0  0  0  0  0  0  0  # atno 8008 bound_to 7997
  155.3502  140.3412  155.4221 H   0  0  0  0  0  0  0  0  0  0  0  0  # atno 8009 bound_to 7997
  156.1718  140.1622  156.8420 H   0  0  0  0  0  0  0  0  0  0  0  0  # atno 8010 bound_to 7997
  139.5662  144.1751  152.1315 H   0  0  0  0  0  0  0  0  0  0  0  0  # atno 10167 bound_to 10162
  156.7123  130.9238  151.3090 H   0  0  0  0  0  0  0  0  0  0  0  0  # atno 10718 bound_to 10713
  153.1712  135.4527  154.9905 H   0  0  0  0  0  0  0  0  0  0  0  0  # atno 10763 bound_to 10752
  154.7967  135.3240  154.7652 H   0  0  0  0  0  0  0  0  0  0  0  0  # atno 10764 bound_to 10752
  153.8128  135.6953  153.4893 H   0  0  0  0  0  0  0  0  0  0  0  0  # atno 10765 bound_to 10752
  139.8814  134.9370  156.5670 H   0  0  0  0  0  0  0  0  0  0  0  0  # atno 11005 bound_to 11000
  146.3480  139.9651  142.8713 LP  0  0  0  0  0  0  0  0  0  0  0  0  # atno 17320 bound_to 7965
  145.1942  140.9825  143.4193 LP  0  0  0  0  0  0  0  0  0  0  0  0  # atno 17321 bound_to 7965
  140.1274  144.5319  150.6824 LP  0  0  0  0  0  0  0  0  0  0  0  0  # atno 17342 bound_to 10162
  140.6945  143.2395  151.5039 LP  0  0  0  0  0  0  0  0  0  0  0  0  # atno 17343 bound_to 10162
  157.6931  130.9254  150.0569 LP  0  0  0  0  0  0  0  0  0  0  0  0  # atno 17370 bound_to 10713
  156.1652  130.3645  149.9242 LP  0  0  0  0  0  0  0  0  0  0  0  0  # atno 17371 bound_to 10713
  140.8126  133.8417  155.8824 LP  0  0  0  0  0  0  0  0  0  0  0  0  # atno 17394 bound_to 11000
  140.9492  134.1801  157.4740 LP  0  0  0  0  0  0  0  0  0  0  0  0  # atno 17395 bound_to 11000

$$$$
