AV-unprocessed.smi:160|AV-procd|sdf|1347|dock1
  -GOLD-   2262019 43D 1   1.00000     0.00000
 Structure written by MMmdl.
 29 30  0  0  0  0  0  0  0  0  1 V2000
  147.4925  136.5989  158.1042 N   0  0  0  0  0  0  0  0  0  0  0  0
  148.7490  136.1684  157.9544 C   0  0  0  0  0  0  0  0  0  0  0  0
  149.2113  135.2398  158.6155 O   0  0  0  0  0  0  0  0  0  0  0  0
  149.5746  136.8869  156.9238 C   0  0  0  0  0  0  0  0  0  0  0  0
  150.8746  136.5481  156.6679 N   0  0  0  0  0  0  0  0  0  0  0  0
  151.1361  137.4363  155.7176 C   0  0  0  0  0  0  0  0  0  0  0  0
  150.1164  138.2569  155.4381 N   0  0  0  0  0  0  0  0  0  0  0  0
  149.9809  139.3320  154.4060 C   0  0  2  0  0  0  0  0  0  0  0  0
  150.8237  140.3889  154.7639 O   0  0  0  0  0  0  0  0  0  0  0  0
  150.0813  141.4771  155.3102 C   0  0  2  0  0  0  0  0  0  0  0  0
  149.9276  141.3122  156.8401 C   0  0  0  0  0  0  0  0  0  0  0  0
  149.2435  142.4244  157.3760 O   0  0  0  0  0  0  0  0  0  0  0  0
  148.7763  141.3887  154.5062 C   0  0  2  0  0  0  0  0  0  0  0  0
  147.6873  142.0258  155.1446 O   0  0  0  0  0  0  0  0  0  0  0  0
  148.5447  139.8899  154.3584 C   0  0  1  0  0  0  0  0  0  0  0  0
  147.9188  139.6235  153.1197 O   0  0  0  0  0  0  0  0  0  0  0  0
  149.0620  137.8856  156.2055 N   0  0  0  0  0  0  0  0  0  0  0  0
  150.3195  138.8647  153.4802 H   0  0  0  0  0  0  0  0  0  0  0  0
  150.5869  142.4199  155.0971 H   0  0  0  0  0  0  0  0  0  0  0  0
  148.9377  141.8454  153.5280 H   0  0  0  0  0  0  0  0  0  0  0  0
  147.9529  139.5007  155.1887 H   0  0  0  0  0  0  0  0  0  0  0  0
  146.8863  136.1587  158.7805 H   0  0  0  0  0  0  0  0  0  0  0  0
  147.1588  137.3651  157.5373 H   0  0  0  0  0  0  0  0  0  0  0  0
  152.0918  137.4912  155.2169 H   0  0  0  0  0  0  0  0  0  0  0  0
  149.3210  140.4365  157.0705 H   0  0  0  0  0  0  0  0  0  0  0  0
  150.8813  141.1724  157.3466 H   0  0  0  0  0  0  0  0  0  0  0  0
  149.0848  143.0432  156.6795 H   0  0  0  0  0  0  0  0  0  0  0  0
  148.0029  142.8212  155.5460 H   0  0  0  0  0  0  0  0  0  0  0  0
  148.4884  139.9231  152.4272 H   0  0  0  0  0  0  0  0  0  0  0  0
  1  2  1  0  0  0  0
  1 22  1  0  0  0  0
  1 23  1  0  0  0  0
  2  3  2  0  0  0  0
  2  4  1  0  0  0  0
  4 17  2  0  0  0  0
  4  5  1  0  0  0  0
  5  6  2  0  0  0  0
  6  7  1  0  0  0  0
  6 24  1  0  0  0  0
  7  8  1  0  0  0  0
  7 17  1  0  0  0  0
  8 18  1  0  0  0  0
  8 15  1  0  0  0  0
  8  9  1  0  0  0  0
  9 10  1  0  0  0  0
 10 19  1  0  0  0  0
 10 11  1  0  0  0  0
 10 13  1  0  0  0  0
 11 12  1  0  0  0  0
 11 25  1  0  0  0  0
 11 26  1  0  0  0  0
 12 27  1  0  0  0  0
 13 20  1  0  0  0  0
 13 14  1  0  0  0  0
 13 15  1  0  0  0  0
 14 28  1  0  0  0  0
 15 21  1  0  0  0  0
 15 16  1  0  0  0  0
 16 29  1  0  0  0  0
M  END
> <s_m_source_file>
AV-unprocessed.smi

> <i_m_source_file_index>
160

> <i_lp_mmshare_version>
43012

> <i_f3d_flags>
0

> <s_epik_input>
W05IMl1DKD1PKWMxbltjSF1uKG4xKVtDQEBIXTJPW0NASF0oW0NIMl1bT0hdKVtDQEBIXShbT0hdKVtDQEhdMltPSF0=

> <s_epik_cmdline>
J2VwaWtfcHl0aG9uJywgJy1waCcsICc3LjAnLCAnLXRuJywgJzgnLCAnLW1hJywgJzIwMCcsICctbWV0YWxfYmluZGluZycsICctaW1hZScsICc8aW5maWxlLm1hZT4nLCAnLW9tYWUnLCAnPG91dGZpbGUubWFlPic=

> <r_lp_tautomer_probability>
1

> <r_epik_Ionization_Penalty>
1.06932e-05

> <r_epik_Ionization_Penalty_Charging>
0

> <r_epik_Ionization_Penalty_Neutral>
1.06932e-05

> <r_epik_State_Penalty>
-0

> <r_epik_Charging_Adjusted_Penalty>
0

> <i_epik_Tot_Q>
0

> <i_epik_Tot_abs_Q>
0

> <r_epik_Metal_State_Penalty>
0.0142097

> <b_epik_Metal_Only>
0

> <s_epik_Chemistry_Notes>
This compound contains an acetal/aminal-like group ( X-CH(R)-Y where X, Y are N, S, or O) that may be acid/base labile, releasing an aldehyde.

> <s_lp_Force_Field>
OPLS_2005

> <r_lp_Energy>
36.3531

> <b_lp_Chiralities_Consistent>
1

> <s_lp_Variant>
AV-unprocessed.smi:160-5

> <Gold.Version>
5.8.1

> <Gold.Id.Protein>
6NUR|6NUR_protein|mol2

> <Gold.PLP.Fitness>
35.9940

> <Gold.PLP.PLP>
-21.1173

> <Gold.PLP.part.hbond>
-4.9785

> <Gold.PLP.part.metal>
0.0000

> <Gold.PLP.part.buried>
-3.5452

> <Gold.PLP.part.nonpolar>
-12.5380

> <Gold.PLP.part.repulsive>
0.1261

> <Gold.PLP.ligand.clash>
0.0000

> <Gold.PLP.ligand.torsion>
0.0899

> <Gold.PLP.Chemscore.Hbond>
5.0000

> <Gold.PLP.Chemscore.CHOScore>
0.0000

> <Gold.PLP.Chemscore.Metal>
0.0000

> <Gold.Chemscore.Hbonds>
donor molecule, donor type, donor heavy atom, donor atom, acceptor molecule, acceptor atom, score
      L1  H    12    27       P1  8028  1.00
      L1  H    14    28       P1  8028  0.89
      L1  H    16    29       P1  7957  1.00
      P1  H  6896  6909       L1     3  1.00
      P1  H  7989  7998       L1     9  1.00

> <Gold.PLP.Chemscore.Internal.Correction>
0.0565

> <Gold.Rescore>
     Score         DG    S(hbond)    S(metal)    S(lipo)     H(rot)  DE(clash)    DE(int)     intcor
     12.91     -12.97       4.42        0.00      26.59       4.06       0.01       0.06       ----

> <Gold.Chemscore.Fitness>
12.9094

> <Gold.Chemscore.DG>
-12.9724

> <Gold.Chemscore.ZeroCoef>
-5.4800

> <Gold.Chemscore.Hbond>
4.4237

> <Gold.Chemscore.Metal>
0.0000

> <Gold.Chemscore.Lipo>
26.5890

> <Gold.Chemscore.Internal_Hbond>
0.0000

> <Gold.Chemscore.DEClash>
0.0060

> <Gold.Chemscore.DEInternal>
0.0570

> <Gold.Chemscore.Rot>
4.0600

> <Gold.Chemscore.Internal.Correction>
   9.000000E+99

> <Gold.Chemscore.Hbonds>
donor molecule, donor type, donor heavy atom, donor atom, acceptor molecule, acceptor atom, score
      L1  H    12    27       P1  8028  0.97
      L1  H    14    28       P1  8028  0.72
      L1  H    16    29       P1  7957  1.00
      P1  H  6896  6909       L1     3  0.98
      P1  H  7989  7998       L1     9  0.50

> <Gold.Chemscore.Hbond.Weighted>
-14.7751

> <Gold.Chemscore.Metal.Weighted>
-0.0000

> <Gold.Chemscore.Lipo.Weighted>
-3.1109

> <Gold.Chemscore.Internal_Hbond.Weighted>
0.0000

> <Gold.Chemscore.DEClash.Weighted>
0.0060

> <Gold.Chemscore.DEInternal.Weighted>
0.0570

> <Gold.Chemscore.Rot.Weighted>
10.3936

> <Gold.Chemscore.Internal.Correction.Weighted>
   9.000000E+99

> <Gold.Protein.RotatedTorsions>
[ 6907 6896 6895 6894 ] final   27.33 input  -60.11 | X-H torsion
[ 7974 7965 7964 7962 ] final   54.44 input  175.53 | X-H torsion
[ 8008 7997 7996 7995 ] final  125.67 input   59.86 | X-H torsion
[ 10167 10162 10161 10158 ] final -100.88 input  -65.29 | X-H torsion
[ 10718 10713 10712 10709 ] final  129.09 input   66.30 | X-H torsion
[ 10763 10752 10751 10750 ] final  177.86 input  -60.55 | X-H torsion
[ 11005 11000 10999 10996 ] final   68.73 input  -57.11 | X-H torsion

> <Gold.Protein.ActiveResidues>
 VAL166  LYS551  ARG553  GLY616  TRP617  ASP618  TYR619  PRO620  LYS621  CYS622 
 ASP623  PHE694  ASN695  SER759  ASP760  ASP761  ALA762  ILE779  LEU786  VAL792 
 PHE793  MET794  SER795  GLU796  ALA797  LYS798  CYS799  TRP800  GLU811  SER814 

> <Gold.Protein.RotatedAtoms>
  152.0007  134.9930  160.0564 H   0  0  0  0  0  0  0  0  0  0  0  0  # atno 6907 bound_to 6896
  152.1522  133.4524  159.4827 H   0  0  0  0  0  0  0  0  0  0  0  0  # atno 6908 bound_to 6896
  150.6877  134.2093  159.4396 H   0  0  0  0  0  0  0  0  0  0  0  0  # atno 6909 bound_to 6896
  145.9608  139.4057  143.0249 H   0  0  0  0  0  0  0  0  0  0  0  0  # atno 7974 bound_to 7965
  156.2841  140.2711  156.1987 H   0  0  0  0  0  0  0  0  0  0  0  0  # atno 8008 bound_to 7997
  155.0383  140.0386  157.2518 H   0  0  0  0  0  0  0  0  0  0  0  0  # atno 8009 bound_to 7997
  154.7296  140.2704  155.6473 H   0  0  0  0  0  0  0  0  0  0  0  0  # atno 8010 bound_to 7997
  140.2472  143.3497  152.0748 H   0  0  0  0  0  0  0  0  0  0  0  0  # atno 10167 bound_to 10162
  157.5185  131.1098  150.9188 H   0  0  0  0  0  0  0  0  0  0  0  0  # atno 10718 bound_to 10713
  154.5001  135.2783  155.1428 H   0  0  0  0  0  0  0  0  0  0  0  0  # atno 10763 bound_to 10752
  154.3065  135.6237  153.5450 H   0  0  0  0  0  0  0  0  0  0  0  0  # atno 10764 bound_to 10752
  152.9901  135.5709  154.5441 H   0  0  0  0  0  0  0  0  0  0  0  0  # atno 10765 bound_to 10752
  139.9694  134.6925  156.0477 H   0  0  0  0  0  0  0  0  0  0  0  0  # atno 11005 bound_to 11000
  145.8043  140.9756  143.0982 LP  0  0  0  0  0  0  0  0  0  0  0  0  # atno 17320 bound_to 7965
  144.6814  139.9840  143.7484 LP  0  0  0  0  0  0  0  0  0  0  0  0  # atno 17321 bound_to 7965
  139.5058  144.6801  151.6029 LP  0  0  0  0  0  0  0  0  0  0  0  0  # atno 17342 bound_to 10162
  140.6068  143.9509  150.6425 LP  0  0  0  0  0  0  0  0  0  0  0  0  # atno 17343 bound_to 10162
  156.9806  130.5525  149.5296 LP  0  0  0  0  0  0  0  0  0  0  0  0  # atno 17370 bound_to 10713
  156.0337  130.5426  150.8600 LP  0  0  0  0  0  0  0  0  0  0  0  0  # atno 17371 bound_to 10713
  141.1374  133.6572  156.3633 LP  0  0  0  0  0  0  0  0  0  0  0  0  # atno 17394 bound_to 11000
  140.5325  134.6199  157.5354 LP  0  0  0  0  0  0  0  0  0  0  0  0  # atno 17395 bound_to 11000

$$$$
