AV-unprocessed.smi:1762|AV-procd|sdf|7110|dock4
  -GOLD-   22720 8333D 1   1.00000     0.00000
 Structure written by MMmdl.
 53 54  0  0  0  0  0  0  0  0  2 V2000
  151.0411  142.1022  156.4634 C   0  0  0  0  0  0  0  0  0  0  0  0
  150.4760  140.7493  156.0162 C   0  0  1  0  0  0  0  0  0  0  0  0
  148.9502  140.7962  155.8194 C   0  0  0  0  0  0  0  0  0  0  0  0
  148.4024  139.5347  155.3089 N   0  0  0  0  0  0  0  0  0  0  0  0
  146.9156  139.5561  155.2026 C   0  0  1  0  0  0  0  0  0  0  0  0
  146.3048  138.2047  154.7574 C   0  0  0  0  0  0  0  0  0  0  0  0
  146.4603  137.1906  155.4372 O   0  0  0  0  0  0  0  0  0  0  0  0
  145.6424  138.2006  153.5892 N   0  0  0  0  0  0  0  0  0  0  0  0
  145.0604  137.0184  152.9607 C   0  0  0  0  0  0  0  0  0  0  0  0
  145.6813  136.6891  151.5894 C   0  0  0  0  0  0  0  0  0  0  0  0
  145.6023  135.2179  151.2217 C   0  0  0  0  0  0  0  0  0  0  0  0
  144.3737  134.5836  150.9364 C   0  0  0  0  0  0  0  0  0  0  0  0
  144.3655  133.2112  150.6111 C   0  0  0  0  0  0  0  0  0  0  0  0
  145.5840  132.5017  150.5793 C   0  0  0  0  0  0  0  0  0  0  0  0
  146.7817  133.1843  150.8734 C   0  0  0  0  0  0  0  0  0  0  0  0
  146.7476  134.4995  151.1805 N   0  3  0  0  0  0  0  0  0  0  0  0
  146.1836  140.1319  156.4630 C   0  0  0  0  0  0  0  0  0  0  0  0
  146.4845  139.3689  157.7687 C   0  0  0  0  0  0  0  0  0  0  0  0
  144.6628  140.2952  156.2764 C   0  0  0  0  0  0  0  0  0  0  0  0
  149.1122  139.1879  154.0647 C   0  0  0  0  0  0  0  0  0  0  0  0
  150.6469  139.1730  154.2150 C   0  0  2  0  0  0  0  0  0  0  0  0
  151.1734  137.9464  154.9809 C   0  0  0  0  0  0  0  0  0  0  0  0
  151.1038  140.3952  154.7890 O   0  0  0  0  0  0  0  0  0  0  0  0
  150.6063  142.4145  157.4132 H   0  0  0  0  0  0  0  0  0  0  0  0
  150.8327  142.8800  155.7281 H   0  0  0  0  0  0  0  0  0  0  0  0
  152.1220  142.0491  156.5948 H   0  0  0  0  0  0  0  0  0  0  0  0
  150.7219  140.0095  156.7784 H   0  0  0  0  0  0  0  0  0  0  0  0
  148.5166  141.0464  156.7850 H   0  0  0  0  0  0  0  0  0  0  0  0
  148.6940  141.6120  155.1409 H   0  0  0  0  0  0  0  0  0  0  0  0
  146.6738  140.2485  154.3931 H   0  0  0  0  0  0  0  0  0  0  0  0
  145.5740  139.0706  153.0808 H   0  0  0  0  0  0  0  0  0  0  0  0
  145.2059  136.1770  153.6385 H   0  0  0  0  0  0  0  0  0  0  0  0
  143.9813  137.1457  152.8620 H   0  0  0  0  0  0  0  0  0  0  0  0
  145.1792  137.2708  150.8156 H   0  0  0  0  0  0  0  0  0  0  0  0
  146.7256  137.0046  151.5690 H   0  0  0  0  0  0  0  0  0  0  0  0
  143.4482  135.1401  150.9679 H   0  0  0  0  0  0  0  0  0  0  0  0
  143.4351  132.7088  150.3896 H   0  0  0  0  0  0  0  0  0  0  0  0
  145.5992  131.4500  150.3327 H   0  0  0  0  0  0  0  0  0  0  0  0
  147.7582  132.7224  150.8731 H   0  0  0  0  0  0  0  0  0  0  0  0
  146.5374  141.1508  156.6102 H   0  0  0  0  0  0  0  0  0  0  0  0
  146.0816  138.3571  157.7558 H   0  0  0  0  0  0  0  0  0  0  0  0
  146.0432  139.8795  158.6253 H   0  0  0  0  0  0  0  0  0  0  0  0
  147.5559  139.2983  157.9556 H   0  0  0  0  0  0  0  0  0  0  0  0
  144.1500  139.3341  156.2348 H   0  0  0  0  0  0  0  0  0  0  0  0
  144.4368  140.8423  155.3610 H   0  0  0  0  0  0  0  0  0  0  0  0
  144.2281  140.8546  157.1052 H   0  0  0  0  0  0  0  0  0  0  0  0
  148.8226  138.2039  153.6969 H   0  0  0  0  0  0  0  0  0  0  0  0
  148.8414  139.9014  153.2845 H   0  0  0  0  0  0  0  0  0  0  0  0
  151.0797  139.1286  153.2152 H   0  0  0  0  0  0  0  0  0  0  0  0
  150.9259  137.0253  154.4531 H   0  0  0  0  0  0  0  0  0  0  0  0
  150.7461  137.8713  155.9806 H   0  0  0  0  0  0  0  0  0  0  0  0
  152.2580  137.9866  155.0815 H   0  0  0  0  0  0  0  0  0  0  0  0
  147.6261  134.9738  151.3916 H   0  0  0  0  0  0  0  0  0  0  0  0
  1  2  1  0  0  0  0
  1 24  1  0  0  0  0
  1 25  1  0  0  0  0
  1 26  1  0  0  0  0
  2 23  1  0  0  0  0
  2  3  1  0  0  0  0
  2 27  1  0  0  0  0
  3  4  1  0  0  0  0
  3 28  1  0  0  0  0
  3 29  1  0  0  0  0
  4  5  1  0  0  0  0
  4 20  1  0  0  0  0
  5  6  1  0  0  0  0
  5 17  1  0  0  0  0
  5 30  1  0  0  0  0
  6  7  2  0  0  0  0
  6  8  1  0  0  0  0
  8  9  1  0  0  0  0
  8 31  1  0  0  0  0
  9 10  1  0  0  0  0
  9 32  1  0  0  0  0
  9 33  1  0  0  0  0
 10 11  1  0  0  0  0
 10 34  1  0  0  0  0
 10 35  1  0  0  0  0
 11 16  1  0  0  0  0
 11 12  2  0  0  0  0
 12 13  1  0  0  0  0
 12 36  1  0  0  0  0
 13 14  2  0  0  0  0
 13 37  1  0  0  0  0
 14 15  1  0  0  0  0
 14 38  1  0  0  0  0
 15 16  2  0  0  0  0
 15 39  1  0  0  0  0
 16 53  1  0  0  0  0
 17 18  1  0  0  0  0
 17 19  1  0  0  0  0
 17 40  1  0  0  0  0
 18 41  1  0  0  0  0
 18 42  1  0  0  0  0
 18 43  1  0  0  0  0
 19 44  1  0  0  0  0
 19 45  1  0  0  0  0
 19 46  1  0  0  0  0
 20 21  1  0  0  0  0
 20 47  1  0  0  0  0
 20 48  1  0  0  0  0
 21 22  1  0  0  0  0
 21 23  1  0  0  0  0
 21 49  1  0  0  0  0
 22 50  1  0  0  0  0
 22 51  1  0  0  0  0
 22 52  1  0  0  0  0
M  CHG  1  16   1
M  END
> <s_m_source_file>
AV-unprocessed.smi

> <i_m_source_file_index>
1762

> <i_lp_mmshare_version>
43012

> <i_f3d_flags>
0

> <s_epik_input>
W0NIM11bQ0BASF0xW0NIMl1OKFtDSDJdW0NASF0oTzEpW0NIM10pW0NAQEhdKFtDSF0oW0NIM10pW0NIM10pQyg9TylbTkhdW0NIMl1bQ0gyXWMyW2NIXVtjSF1bY0hdW2NIXW4y

> <s_epik_cmdline>
J2VwaWtfcHl0aG9uJywgJy1waCcsICc3LjAnLCAnLXRuJywgJzgnLCAnLW1hJywgJzIwMCcsICctbWV0YWxfYmluZGluZycsICctaW1hZScsICc8aW5maWxlLm1hZT4nLCAnLW9tYWUnLCAnPG91dGZpbGUubWFlPic=

> <r_epik_Ionization_Penalty>
1.86475

> <r_epik_Ionization_Penalty_Charging>
1.85347

> <r_epik_Ionization_Penalty_Neutral>
0.0112771

> <r_epik_State_Penalty>
1.99714

> <r_epik_Charging_Adjusted_Penalty>
3.85061

> <i_epik_Tot_Q>
1

> <i_epik_Tot_abs_Q>
1

> <r_epik_Metal_State_Penalty>
2.02271

> <b_epik_Metal_Only>
0

> <s_lp_Force_Field>
OPLS_2005

> <r_lp_Energy>
36.5288

> <b_lp_Chiralities_Consistent>
1

> <s_lp_Variant>
AV-unprocessed.smi:1762-12

> <Gold.Version>
5.8.1

> <Gold.Id.Protein>
6NUR|6NUR_protein|mol2

> <Gold.PLP.Fitness>
42.3196

> <Gold.PLP.PLP>
-33.6792

> <Gold.PLP.part.hbond>
-3.0000

> <Gold.PLP.part.metal>
0.0000

> <Gold.PLP.part.buried>
-4.0378

> <Gold.PLP.part.nonpolar>
-27.2924

> <Gold.PLP.part.repulsive>
0.1957

> <Gold.PLP.ligand.clash>
0.0000

> <Gold.PLP.ligand.torsion>
0.4400

> <Gold.PLP.Chemscore.Hbond>
3.0494

> <Gold.PLP.Chemscore.CHOScore>
0.0000

> <Gold.PLP.Chemscore.Metal>
0.0000

> <Gold.Chemscore.Hbonds>
donor molecule, donor type, donor heavy atom, donor atom, acceptor molecule, acceptor atom, score
      L1  H    16    53       P1  7948  2.00
      P1  H  7989  7998       L1    23  0.55

> <Gold.PLP.Chemscore.Internal.Correction>
0.3722

> <Gold.Rescore>
     Score         DG    S(hbond)    S(metal)    S(lipo)     H(rot)  DE(clash)    DE(int)     intcor
     16.24     -17.03       1.65        0.00      89.12       1.72       0.26       0.52       ----

> <Gold.Chemscore.Fitness>
16.2389

> <Gold.Chemscore.DG>
-17.0254

> <Gold.Chemscore.ZeroCoef>
-5.4800

> <Gold.Chemscore.Hbond>
1.6510

> <Gold.Chemscore.Metal>
0.0000

> <Gold.Chemscore.Lipo>
89.1245

> <Gold.Chemscore.Internal_Hbond>
0.0000

> <Gold.Chemscore.DEClash>
0.2624

> <Gold.Chemscore.DEInternal>
0.5241

> <Gold.Chemscore.Rot>
1.7174

> <Gold.Chemscore.Internal.Correction>
   9.000000E+99

> <Gold.Chemscore.Hbonds>
donor molecule, donor type, donor heavy atom, donor atom, acceptor molecule, acceptor atom, score
      L1  H     8    31       P1 10175  0.04
      L1  H    16    53       P1  7948  0.35
      P1  H  7989  7998       L1    23  0.05

> <Gold.Chemscore.Hbond.Weighted>
-5.5144

> <Gold.Chemscore.Metal.Weighted>
-0.0000

> <Gold.Chemscore.Lipo.Weighted>
-10.4276

> <Gold.Chemscore.Internal_Hbond.Weighted>
0.0000

> <Gold.Chemscore.DEClash.Weighted>
0.2624

> <Gold.Chemscore.DEInternal.Weighted>
0.5241

> <Gold.Chemscore.Rot.Weighted>
4.3966

> <Gold.Chemscore.Internal.Correction.Weighted>
   9.000000E+99

> <Gold.Protein.RotatedTorsions>
[ 6907 6896 6895 6894 ] final   89.97 input  -60.11 | X-H torsion
[ 7974 7965 7964 7962 ] final   26.88 input  175.53 | X-H torsion
[ 8008 7997 7996 7995 ] final  -48.60 input   59.86 | X-H torsion
[ 10167 10162 10161 10158 ] final   99.40 input  -65.29 | X-H torsion
[ 10718 10713 10712 10709 ] final  136.25 input   66.30 | X-H torsion
[ 10763 10752 10751 10750 ] final   43.87 input  -60.55 | X-H torsion
[ 11005 11000 10999 10996 ] final -135.21 input  -57.11 | X-H torsion

> <Gold.Protein.ActiveResidues>
 VAL166  LYS551  ARG553  GLY616  TRP617  ASP618  TYR619  PRO620  LYS621  CYS622 
 ASP623  PHE694  ASN695  SER759  ASP760  ASP761  ALA762  ILE779  LEU786  VAL792 
 PHE793  MET794  SER795  GLU796  ALA797  LYS798  CYS799  TRP800  GLU811  SER814 

> <Gold.Protein.RotatedAtoms>
  152.5441  134.1884  159.8663 H   0  0  0  0  0  0  0  0  0  0  0  0  # atno 6907 bound_to 6896
  151.1881  133.4677  159.2602 H   0  0  0  0  0  0  0  0  0  0  0  0  # atno 6908 bound_to 6896
  151.1110  135.0038  159.8549 H   0  0  0  0  0  0  0  0  0  0  0  0  # atno 6909 bound_to 6896
  146.1814  139.7268  142.8897 H   0  0  0  0  0  0  0  0  0  0  0  0  # atno 7974 bound_to 7965
  154.4031  140.1317  156.4366 H   0  0  0  0  0  0  0  0  0  0  0  0  # atno 8008 bound_to 7997
  155.7499  140.3488  155.5125 H   0  0  0  0  0  0  0  0  0  0  0  0  # atno 8009 bound_to 7997
  155.8959  140.1011  157.1375 H   0  0  0  0  0  0  0  0  0  0  0  0  # atno 8010 bound_to 7997
  139.7621  144.6951  151.0277 H   0  0  0  0  0  0  0  0  0  0  0  0  # atno 10167 bound_to 10162
  157.4486  131.1064  151.0059 H   0  0  0  0  0  0  0  0  0  0  0  0  # atno 10718 bound_to 10713
  152.9852  135.6088  154.3182 H   0  0  0  0  0  0  0  0  0  0  0  0  # atno 10763 bound_to 10752
  154.2893  135.2775  155.2664 H   0  0  0  0  0  0  0  0  0  0  0  0  # atno 10764 bound_to 10752
  154.4967  135.5878  153.6556 H   0  0  0  0  0  0  0  0  0  0  0  0  # atno 10765 bound_to 10752
  140.8919  134.1801  157.4522 H   0  0  0  0  0  0  0  0  0  0  0  0  # atno 11005 bound_to 11000
  145.4065  141.0391  143.3041 LP  0  0  0  0  0  0  0  0  0  0  0  0  # atno 17320 bound_to 7965
  144.8322  139.5610  143.6938 LP  0  0  0  0  0  0  0  0  0  0  0  0  # atno 17321 bound_to 7965
  140.7808  143.4685  151.0179 LP  0  0  0  0  0  0  0  0  0  0  0  0  # atno 17342 bound_to 10162
  139.8371  143.7613  152.3180 LP  0  0  0  0  0  0  0  0  0  0  0  0  # atno 17343 bound_to 10162
  157.0897  130.5937  149.5437 LP  0  0  0  0  0  0  0  0  0  0  0  0  # atno 17370 bound_to 10713
  155.9978  130.5050  150.7547 LP  0  0  0  0  0  0  0  0  0  0  0  0  # atno 17371 bound_to 10713
  139.8731  134.9862  156.5314 LP  0  0  0  0  0  0  0  0  0  0  0  0  # atno 17394 bound_to 11000
  140.8336  133.8259  155.9008 LP  0  0  0  0  0  0  0  0  0  0  0  0  # atno 17395 bound_to 11000

$$$$
