AV-unprocessed.smi:2199|AV-procd|sdf|8924|dock4
  -GOLD-   2272012143D 1   1.00000     0.00000
 Structure written by MMmdl.
 25 26  0  0  0  0  0  0  0  0  2 V2000
  151.4159  141.9497  158.5038 O   0  0  0  0  0  0  0  0  0  0  0  0
  150.7403  142.4786  157.6196 C   0  0  0  0  0  0  0  0  0  0  0  0
  149.7314  141.6532  156.8092 C   0  0  0  0  0  0  0  0  0  0  0  0
  150.3548  140.5201  156.1065 N   0  0  0  0  0  0  0  0  0  0  0  0
  151.1069  139.6099  156.8702 C   0  0  0  0  0  0  0  0  0  0  0  0
  151.7191  138.5490  156.3107 C   0  0  0  0  0  0  0  0  0  0  0  0
  151.5864  138.3550  154.8720 C   0  0  0  0  0  0  0  0  0  0  0  0
  152.1355  137.3894  154.3448 O   0  0  0  0  0  0  0  0  0  0  0  0
  150.8489  139.2675  154.1738 N   0  5  0  0  0  0  0  0  0  0  0  0
  150.2349  140.3440  154.7560 C   0  0  0  0  0  0  0  0  0  0  0  0
  149.5778  141.1585  154.1065 O   0  0  0  0  0  0  0  0  0  0  0  0
  150.8077  143.7841  157.3209 N   0  0  0  0  0  0  0  0  0  0  0  0
  151.6667  144.7350  157.9486 C   0  0  0  0  0  0  0  0  0  0  0  0
  153.0462  144.2710  158.3635 C   0  0  0  0  0  0  0  0  0  0  0  0
  151.9970  144.5245  159.4106 C   0  0  0  0  0  0  0  0  0  0  0  0
  148.9580  141.2987  157.4918 H   0  0  0  0  0  0  0  0  0  0  0  0
  149.2108  142.2961  156.0968 H   0  0  0  0  0  0  0  0  0  0  0  0
  151.1606  139.8297  157.9262 H   0  0  0  0  0  0  0  0  0  0  0  0
  152.2965  137.8608  156.9103 H   0  0  0  0  0  0  0  0  0  0  0  0
  150.2124  144.1277  156.5812 H   0  0  0  0  0  0  0  0  0  0  0  0
  151.5894  145.7712  157.6221 H   0  0  0  0  0  0  0  0  0  0  0  0
  153.3171  143.2358  158.1643 H   0  0  0  0  0  0  0  0  0  0  0  0
  153.8606  144.9883  158.2846 H   0  0  0  0  0  0  0  0  0  0  0  0
  152.1111  145.4107  160.0316 H   0  0  0  0  0  0  0  0  0  0  0  0
  151.5659  143.6588  159.9099 H   0  0  0  0  0  0  0  0  0  0  0  0
  1  2  2  0  0  0  0
  2  3  1  0  0  0  0
  2 12  1  0  0  0  0
  3  4  1  0  0  0  0
  3 16  1  0  0  0  0
  3 17  1  0  0  0  0
  4 10  1  0  0  0  0
  4  5  1  0  0  0  0
  5  6  2  0  0  0  0
  5 18  1  0  0  0  0
  6  7  1  0  0  0  0
  6 19  1  0  0  0  0
  7  8  2  0  0  0  0
  7  9  1  0  0  0  0
  9 10  1  0  0  0  0
 10 11  2  0  0  0  0
 12 13  1  0  0  0  0
 12 20  1  0  0  0  0
 13 15  1  0  0  0  0
 13 14  1  0  0  0  0
 13 21  1  0  0  0  0
 14 15  1  0  0  0  0
 14 22  1  0  0  0  0
 14 23  1  0  0  0  0
 15 24  1  0  0  0  0
 15 25  1  0  0  0  0
M  CHG  1   9  -1
M  END
> <s_m_source_file>
AV-unprocessed.smi

> <i_m_source_file_index>
2199

> <i_lp_mmshare_version>
43012

> <i_f3d_flags>
0

> <s_epik_input>
W0NIMl0xW0NIMl1bQ0hdMVtOSF1DKD1PKVtDSDJdbjJbY0hdW2NIXWMoPU8pW25IXWMyPU8=

> <s_epik_cmdline>
J2VwaWtfcHl0aG9uJywgJy1waCcsICc3LjAnLCAnLXRuJywgJzgnLCAnLW1hJywgJzIwMCcsICctbWV0YWxfYmluZGluZycsICctaW1hZScsICc8aW5maWxlLm1hZT4nLCAnLW9tYWUnLCAnPG91dGZpbGUubWFlPic=

> <r_lp_tautomer_probability>
0.999537

> <r_epik_Ionization_Penalty>
3.07884

> <r_epik_Ionization_Penalty_Charging>
2.69291e-08

> <r_epik_Ionization_Penalty_Neutral>
3.07884

> <r_epik_State_Penalty>
3.07787

> <r_epik_Charging_Adjusted_Penalty>
3.07787

> <i_epik_Tot_Q>
-1

> <i_epik_Tot_abs_Q>
1

> <r_epik_Metal_State_Penalty>
0.459857

> <b_epik_Metal_Only>
1

> <s_lp_Force_Field>
OPLS_2005

> <r_lp_Energy>
24.3409

> <b_lp_Chiralities_Consistent>
1

> <s_lp_Variant>
AV-unprocessed.smi:2199-2

> <Gold.Version>
5.8.1

> <Gold.Id.Protein>
6NUR|6NUR_protein|mol2

> <Gold.PLP.Fitness>
37.8707

> <Gold.PLP.PLP>
-31.3410

> <Gold.PLP.part.hbond>
-5.0000

> <Gold.PLP.part.metal>
0.0000

> <Gold.PLP.part.buried>
-1.5234

> <Gold.PLP.part.nonpolar>
-24.3061

> <Gold.PLP.part.repulsive>
0.5531

> <Gold.PLP.ligand.clash>
0.0000

> <Gold.PLP.ligand.torsion>
0.3863

> <Gold.PLP.Chemscore.Hbond>
2.4221

> <Gold.PLP.Chemscore.CHOScore>
0.0000

> <Gold.PLP.Chemscore.Metal>
0.0000

> <Gold.Chemscore.Hbonds>
donor molecule, donor type, donor heavy atom, donor atom, acceptor molecule, acceptor atom, score
      L1  H    12    20       P1  8028  1.00
      P1  H  8011  8017       L1    11  0.48
      P1  H 10752 10765       L1     8  0.80

> <Gold.PLP.Chemscore.Internal.Correction>
0.0360

> <Gold.Rescore>
     Score         DG    S(hbond)    S(metal)    S(lipo)     H(rot)  DE(clash)    DE(int)     intcor
     10.83     -15.61       2.39        0.00      56.73       1.75       0.52       4.26       ----

> <Gold.Chemscore.Fitness>
10.8277

> <Gold.Chemscore.DG>
-15.6143

> <Gold.Chemscore.ZeroCoef>
-5.4800

> <Gold.Chemscore.Hbond>
2.3881

> <Gold.Chemscore.Metal>
0.0000

> <Gold.Chemscore.Lipo>
56.7338

> <Gold.Chemscore.Internal_Hbond>
0.0000

> <Gold.Chemscore.DEClash>
0.5240

> <Gold.Chemscore.DEInternal>
4.2626

> <Gold.Chemscore.Rot>
1.7499

> <Gold.Chemscore.Internal.Correction>
   9.000000E+99

> <Gold.Chemscore.Hbonds>
donor molecule, donor type, donor heavy atom, donor atom, acceptor molecule, acceptor atom, score
      L1  H    12    20       P1  8028  1.00
      P1  H  8011  8017       L1    11  0.49
      P1  H 10752 10765       L1     8  0.79

> <Gold.Chemscore.Hbond.Weighted>
-7.9763

> <Gold.Chemscore.Metal.Weighted>
-0.0000

> <Gold.Chemscore.Lipo.Weighted>
-6.6379

> <Gold.Chemscore.Internal_Hbond.Weighted>
0.0000

> <Gold.Chemscore.DEClash.Weighted>
0.5240

> <Gold.Chemscore.DEInternal.Weighted>
4.2626

> <Gold.Chemscore.Rot.Weighted>
4.4798

> <Gold.Chemscore.Internal.Correction.Weighted>
   9.000000E+99

> <Gold.Protein.RotatedTorsions>
[ 6907 6896 6895 6894 ] final   43.86 input  -60.11 | X-H torsion
[ 7974 7965 7964 7962 ] final  -25.16 input  175.53 | X-H torsion
[ 8008 7997 7996 7995 ] final   22.03 input   59.86 | X-H torsion
[ 10167 10162 10161 10158 ] final   56.52 input  -65.29 | X-H torsion
[ 10718 10713 10712 10709 ] final  -75.31 input   66.30 | X-H torsion
[ 10763 10752 10751 10750 ] final  145.83 input  -60.55 | X-H torsion
[ 11005 11000 10999 10996 ] final -152.31 input  -57.11 | X-H torsion

> <Gold.Protein.ActiveResidues>
 VAL166  LYS551  ARG553  GLY616  TRP617  ASP618  TYR619  PRO620  LYS621  CYS622 
 ASP623  PHE694  ASN695  SER759  ASP760  ASP761  ALA762  ILE779  LEU786  VAL792 
 PHE793  MET794  SER795  GLU796  ALA797  LYS798  CYS799  TRP800  GLU811  SER814 

> <Gold.Protein.RotatedAtoms>
  152.2255  134.8372  160.0480 H   0  0  0  0  0  0  0  0  0  0  0  0  # atno 6907 bound_to 6896
  151.9140  133.3563  159.3882 H   0  0  0  0  0  0  0  0  0  0  0  0  # atno 6908 bound_to 6896
  150.7011  134.4628  159.5433 H   0  0  0  0  0  0  0  0  0  0  0  0  # atno 6909 bound_to 6896
  146.1509  140.4849  142.8612 H   0  0  0  0  0  0  0  0  0  0  0  0  # atno 7974 bound_to 7965
  154.9596  140.3076  155.5037 H   0  0  0  0  0  0  0  0  0  0  0  0  # atno 8008 bound_to 7997
  156.2978  140.2304  156.4618 H   0  0  0  0  0  0  0  0  0  0  0  0  # atno 8009 bound_to 7997
  154.7978  140.0436  157.1238 H   0  0  0  0  0  0  0  0  0  0  0  0  # atno 8010 bound_to 7997
  140.2078  144.3920  150.6501 H   0  0  0  0  0  0  0  0  0  0  0  0  # atno 10167 bound_to 10162
  156.0212  130.4438  150.3024 H   0  0  0  0  0  0  0  0  0  0  0  0  # atno 10718 bound_to 10713
  154.0118  135.2914  155.3391 H   0  0  0  0  0  0  0  0  0  0  0  0  # atno 10763 bound_to 10752
  154.7099  135.5154  153.8653 H   0  0  0  0  0  0  0  0  0  0  0  0  # atno 10764 bound_to 10752
  153.0720  135.6651  154.0349 H   0  0  0  0  0  0  0  0  0  0  0  0  # atno 10765 bound_to 10752
  140.7202  134.3735  157.5184 H   0  0  0  0  0  0  0  0  0  0  0  0  # atno 11005 bound_to 11000
  144.7903  140.6018  143.6546 LP  0  0  0  0  0  0  0  0  0  0  0  0  # atno 17320 bound_to 7965
  145.4826  139.1494  143.3754 LP  0  0  0  0  0  0  0  0  0  0  0  0  # atno 17321 bound_to 7965
  140.6345  143.2192  151.6425 LP  0  0  0  0  0  0  0  0  0  0  0  0  # atno 17342 bound_to 10162
  139.5191  144.3262  152.0867 LP  0  0  0  0  0  0  0  0  0  0  0  0  # atno 17343 bound_to 10162
  157.1127  131.0225  151.3041 LP  0  0  0  0  0  0  0  0  0  0  0  0  # atno 17370 bound_to 10713
  157.4692  130.7698  149.7307 LP  0  0  0  0  0  0  0  0  0  0  0  0  # atno 17371 bound_to 10713
  139.8850  134.8950  156.2670 LP  0  0  0  0  0  0  0  0  0  0  0  0  # atno 17394 bound_to 11000
  141.0009  133.7152  156.0959 LP  0  0  0  0  0  0  0  0  0  0  0  0  # atno 17395 bound_to 11000

$$$$
