AV-unprocessed.smi:110|AV-procd|sdf|1068|dock5
  -GOLD-   2262018153D 1   1.00000     0.00000
 Structure written by MMmdl.
 46 50  0  0  0  0  0  0  0  0  1 V2000
  144.6941  143.4833  154.1342 O   0  0  0  0  0  0  0  0  0  0  0  0
  145.9015  143.2587  153.4379 C   0  0  0  0  0  0  0  0  0  0  0  0
  146.7122  142.1475  154.1278 C   0  0  2  0  0  0  0  0  0  0  0  0
  148.0813  142.5225  154.2740 O   0  0  0  0  0  0  0  0  0  0  0  0
  148.9058  141.3949  154.2543 C   0  0  1  0  0  0  0  0  0  0  0  0
  149.6528  141.2920  155.5509 N   0  0  0  0  0  0  0  0  0  0  0  0
  149.3641  141.9511  156.7241 C   0  0  0  0  0  0  0  0  0  0  0  0
  150.1641  141.6948  157.7222 N   0  0  0  0  0  0  0  0  0  0  0  0
  151.0714  140.7766  157.2075 C   0  0  0  0  0  0  0  0  0  0  0  0
  152.1982  140.0839  157.7363 C   0  0  0  0  0  0  0  0  0  0  0  0
  152.6428  140.1983  159.0095 N   0  0  0  0  0  0  0  0  0  0  0  0
  153.5413  139.1711  159.5560 C   0  0  0  0  0  0  0  0  0  0  0  0
  154.2332  139.7708  160.7951 C   0  0  0  0  0  0  0  0  0  0  0  0
  153.5398  141.0911  160.8982 C   0  0  0  0  0  0  0  0  0  0  0  0
  153.7058  142.0650  161.8982 C   0  0  0  0  0  0  0  0  0  0  0  0
  152.9276  143.2398  161.8178 C   0  0  0  0  0  0  0  0  0  0  0  0
  152.0030  143.4142  160.7618 C   0  0  0  0  0  0  0  0  0  0  0  0
  151.8519  142.4211  159.7692 C   0  0  0  0  0  0  0  0  0  0  0  0
  152.6491  141.2600  159.8428 C   0  0  0  0  0  0  0  0  0  0  0  0
  152.9032  139.2909  156.8905 N   0  0  0  0  0  0  0  0  0  0  0  0
  152.5094  139.1460  155.6226 C   0  0  0  0  0  0  0  0  0  0  0  0
  151.4676  139.7044  155.0052 N   0  0  0  0  0  0  0  0  0  0  0  0
  150.7690  140.5288  155.8377 C   0  0  0  0  0  0  0  0  0  0  0  0
  148.0261  140.1652  153.9513 C   0  0  1  0  0  0  0  0  0  0  0  0
  147.7100  139.3869  155.0922 O   0  0  0  0  0  0  0  0  0  0  0  0
  146.7738  140.8096  153.3779 C   0  0  2  0  0  0  0  0  0  0  0  0
  146.9119  141.0095  151.9822 O   0  0  0  0  0  0  0  0  0  0  0  0
  146.2947  141.9496  155.1156 H   0  0  0  0  0  0  0  0  0  0  0  0
  149.6827  141.5479  153.5041 H   0  0  0  0  0  0  0  0  0  0  0  0
  148.5322  139.5193  153.2324 H   0  0  0  0  0  0  0  0  0  0  0  0
  145.8793  140.2074  153.5444 H   0  0  0  0  0  0  0  0  0  0  0  0
  144.5680  144.4153  154.2252 H   0  0  0  0  0  0  0  0  0  0  0  0
  145.6400  142.9571  152.4230 H   0  0  0  0  0  0  0  0  0  0  0  0
  146.4737  144.1842  153.3661 H   0  0  0  0  0  0  0  0  0  0  0  0
  148.5350  142.6373  156.8170 H   0  0  0  0  0  0  0  0  0  0  0  0
  152.9551  138.2944  159.8339 H   0  0  0  0  0  0  0  0  0  0  0  0
  154.2746  138.8598  158.8108 H   0  0  0  0  0  0  0  0  0  0  0  0
  154.0760  139.1684  161.6902 H   0  0  0  0  0  0  0  0  0  0  0  0
  155.3024  139.9144  160.6364 H   0  0  0  0  0  0  0  0  0  0  0  0
  154.4054  141.9169  162.7075 H   0  0  0  0  0  0  0  0  0  0  0  0
  153.0325  144.0058  162.5716 H   0  0  0  0  0  0  0  0  0  0  0  0
  151.4040  144.3118  160.7159 H   0  0  0  0  0  0  0  0  0  0  0  0
  151.1326  142.5543  158.9746 H   0  0  0  0  0  0  0  0  0  0  0  0
  153.1148  138.4887  155.0160 H   0  0  0  0  0  0  0  0  0  0  0  0
  147.9834  138.4964  154.9325 H   0  0  0  0  0  0  0  0  0  0  0  0
  147.6710  140.5321  151.6842 H   0  0  0  0  0  0  0  0  0  0  0  0
  1  2  1  0  0  0  0
  1 32  1  0  0  0  0
  2  3  1  0  0  0  0
  2 33  1  0  0  0  0
  2 34  1  0  0  0  0
  3 28  1  0  0  0  0
  3 26  1  0  0  0  0
  3  4  1  0  0  0  0
  4  5  1  0  0  0  0
  5 29  1  0  0  0  0
  5  6  1  0  0  0  0
  5 24  1  0  0  0  0
  6 23  1  0  0  0  0
  6  7  1  0  0  0  0
  7  8  2  0  0  0  0
  7 35  1  0  0  0  0
  8  9  1  0  0  0  0
  9 23  2  0  0  0  0
  9 10  1  0  0  0  0
 10 11  1  0  0  0  0
 10 20  2  0  0  0  0
 11 19  1  0  0  0  0
 11 12  1  0  0  0  0
 12 13  1  0  0  0  0
 12 36  1  0  0  0  0
 12 37  1  0  0  0  0
 13 14  1  0  0  0  0
 13 38  1  0  0  0  0
 13 39  1  0  0  0  0
 14 19  2  0  0  0  0
 14 15  1  0  0  0  0
 15 16  2  0  0  0  0
 15 40  1  0  0  0  0
 16 17  1  0  0  0  0
 16 41  1  0  0  0  0
 17 18  2  0  0  0  0
 17 42  1  0  0  0  0
 18 19  1  0  0  0  0
 18 43  1  0  0  0  0
 20 21  1  0  0  0  0
 21 22  2  0  0  0  0
 21 44  1  0  0  0  0
 22 23  1  0  0  0  0
 24 30  1  0  0  0  0
 24 25  1  0  0  0  0
 24 26  1  0  0  0  0
 25 45  1  0  0  0  0
 26 31  1  0  0  0  0
 26 27  1  0  0  0  0
 27 46  1  0  0  0  0
M  END
> <s_m_source_file>
AV-unprocessed.smi

> <i_m_source_file_index>
110

> <i_lp_mmshare_version>
43012

> <i_f3d_flags>
0

> <s_epik_input>
W09IXVtDSDJdW0NASF0xT1tDQEhdKFtDQEhdKFtPSF0pW0NAQEhdMVtPSF0pbihbY0hdbjIpYyhjMjMpbltjSF1uYzNOKFtDSDJdW0NIMl00KWMoYzQ1KVtjSF1bY0hdW2NIXVtjSF01

> <s_epik_cmdline>
J2VwaWtfcHl0aG9uJywgJy1waCcsICc3LjAnLCAnLXRuJywgJzgnLCAnLW1hJywgJzIwMCcsICctbWV0YWxfYmluZGluZycsICctaW1hZScsICc8aW5maWxlLm1hZT4nLCAnLW9tYWUnLCAnPG91dGZpbGUubWFlPic=

> <r_lp_tautomer_probability>
1

> <r_epik_Ionization_Penalty>
0.00068475

> <r_epik_Ionization_Penalty_Charging>
0

> <r_epik_Ionization_Penalty_Neutral>
0.00068475

> <r_epik_State_Penalty>
0.000417442

> <r_epik_Charging_Adjusted_Penalty>
0.000417442

> <i_epik_Tot_Q>
0

> <i_epik_Tot_abs_Q>
0

> <r_epik_Metal_State_Penalty>
-0

> <b_epik_Metal_Only>
0

> <s_epik_Chemistry_Notes>
This compound contains an acetal/aminal-like group ( X-CH(R)-Y where X, Y are N, S, or O) that may be acid/base labile, releasing an aldehyde.

> <s_lp_Force_Field>
OPLS_2005

> <r_lp_Energy>
62.6904

> <b_lp_Chiralities_Consistent>
1

> <s_lp_Variant>
AV-unprocessed.smi:110-6

> <Gold.Version>
5.8.1

> <Gold.Id.Protein>
6NUR|6NUR_protein|mol2

> <Gold.PLP.Fitness>
57.8437

> <Gold.PLP.PLP>
-49.1432

> <Gold.PLP.part.hbond>
-5.2538

> <Gold.PLP.part.metal>
0.0000

> <Gold.PLP.part.buried>
-0.4323

> <Gold.PLP.part.nonpolar>
-45.7058

> <Gold.PLP.part.repulsive>
3.0483

> <Gold.PLP.ligand.clash>
0.0000

> <Gold.PLP.ligand.torsion>
1.4020

> <Gold.PLP.Chemscore.Hbond>
3.1290

> <Gold.PLP.Chemscore.CHOScore>
0.6843

> <Gold.PLP.Chemscore.Metal>
0.0000

> <Gold.Chemscore.Hbonds>
donor molecule, donor type, donor heavy atom, donor atom, acceptor molecule, acceptor atom, score
      L1  H    27    46       P1  7957  1.00
      P1  H  7989  7998       L1    22  1.00
      P1  H  7997  8010       L1    20  1.00
      P1  H  8022  8030       L1     4  0.11
      L1  C     7    35       P1  8028  0.68

> <Gold.PLP.Chemscore.Internal.Correction>
0.0648

> <Gold.Rescore>
     Score         DG    S(hbond)    S(metal)    S(lipo)     H(rot)  DE(clash)    DE(int)     intcor
      9.47     -12.47       1.10        0.00     102.44       3.38       0.22       2.78       ----

> <Gold.Chemscore.Fitness>
9.4699

> <Gold.Chemscore.DG>
-12.4702

> <Gold.Chemscore.ZeroCoef>
-5.4800

> <Gold.Chemscore.Hbond>
1.0978

> <Gold.Chemscore.Metal>
0.0000

> <Gold.Chemscore.Lipo>
102.4435

> <Gold.Chemscore.Internal_Hbond>
0.0000

> <Gold.Chemscore.DEClash>
0.2190

> <Gold.Chemscore.DEInternal>
2.7813

> <Gold.Chemscore.Rot>
3.3837

> <Gold.Chemscore.Internal.Correction>
   9.000000E+99

> <Gold.Chemscore.Hbonds>
donor molecule, donor type, donor heavy atom, donor atom, acceptor molecule, acceptor atom, score
      L1  H    27    46       P1  7957  0.93
      P1  H  7989  7998       L1    22  0.25
      P1  H  7997  8010       L1    20  0.17
      P1  H  8022  8030       L1     4  0.12

> <Gold.Chemscore.Hbond.Weighted>
-3.6665

> <Gold.Chemscore.Metal.Weighted>
-0.0000

> <Gold.Chemscore.Lipo.Weighted>
-11.9859

> <Gold.Chemscore.Internal_Hbond.Weighted>
0.0000

> <Gold.Chemscore.DEClash.Weighted>
0.2190

> <Gold.Chemscore.DEInternal.Weighted>
2.7813

> <Gold.Chemscore.Rot.Weighted>
8.6622

> <Gold.Chemscore.Internal.Correction.Weighted>
   9.000000E+99

> <Gold.Protein.RotatedTorsions>
[ 6907 6896 6895 6894 ] final  -16.80 input  -60.11 | X-H torsion
[ 7974 7965 7964 7962 ] final  -79.26 input  175.53 | X-H torsion
[ 8008 7997 7996 7995 ] final   55.39 input   59.86 | X-H torsion
[ 10167 10162 10161 10158 ] final  -55.05 input  -65.29 | X-H torsion
[ 10718 10713 10712 10709 ] final -131.02 input   66.30 | X-H torsion
[ 10763 10752 10751 10750 ] final   26.59 input  -60.55 | X-H torsion
[ 11005 11000 10999 10996 ] final -177.41 input  -57.11 | X-H torsion

> <Gold.Protein.ActiveResidues>
 VAL166  LYS551  ARG553  GLY616  TRP617  ASP618  TYR619  PRO620  LYS621  CYS622 
 ASP623  PHE694  ASN695  SER759  ASP760  ASP761  ALA762  ILE779  LEU786  VAL792 
 PHE793  MET794  SER795  GLU796  ALA797  LYS798  CYS799  TRP800  GLU811  SER814 

> <Gold.Protein.RotatedAtoms>
  151.3031  135.0774  159.9245 H   0  0  0  0  0  0  0  0  0  0  0  0  # atno 6907 bound_to 6896
  152.5293  133.9813  159.7818 H   0  0  0  0  0  0  0  0  0  0  0  0  # atno 6908 bound_to 6896
  151.0103  133.5920  159.2714 H   0  0  0  0  0  0  0  0  0  0  0  0  # atno 6909 bound_to 6896
  145.5756  140.9458  143.1372 H   0  0  0  0  0  0  0  0  0  0  0  0  # atno 7974 bound_to 7965
  155.5003  140.3474  155.4370 H   0  0  0  0  0  0  0  0  0  0  0  0  # atno 8008 bound_to 7997
  156.0918  140.1412  156.9610 H   0  0  0  0  0  0  0  0  0  0  0  0  # atno 8009 bound_to 7997
  154.4639  140.0924  156.6946 H   0  0  0  0  0  0  0  0  0  0  0  0  # atno 8010 bound_to 7997
  140.6396  143.2501  151.5024 H   0  0  0  0  0  0  0  0  0  0  0  0  # atno 10167 bound_to 10162
  156.2202  130.6973  151.0747 H   0  0  0  0  0  0  0  0  0  0  0  0  # atno 10718 bound_to 10713
  153.0612  135.6556  154.0459 H   0  0  0  0  0  0  0  0  0  0  0  0  # atno 10763 bound_to 10752
  154.0126  135.2927  155.3392 H   0  0  0  0  0  0  0  0  0  0  0  0  # atno 10764 bound_to 10752
  154.6951  135.5267  153.8515 H   0  0  0  0  0  0  0  0  0  0  0  0  # atno 10765 bound_to 10752
  140.4413  134.6429  157.4758 H   0  0  0  0  0  0  0  0  0  0  0  0  # atno 11005 bound_to 11000
  144.7417  139.7429  143.7308 LP  0  0  0  0  0  0  0  0  0  0  0  0  # atno 17320 bound_to 7965
  146.1753  139.4921  142.9901 LP  0  0  0  0  0  0  0  0  0  0  0  0  # atno 17321 bound_to 7965
  139.5606  144.2167  152.1684 LP  0  0  0  0  0  0  0  0  0  0  0  0  # atno 17342 bound_to 10162
  140.1433  144.5182  150.6731 LP  0  0  0  0  0  0  0  0  0  0  0  0  # atno 17343 bound_to 10162
  157.7083  131.0746  150.6589 LP  0  0  0  0  0  0  0  0  0  0  0  0  # atno 17370 bound_to 10713
  156.6651  130.4523  149.5675 LP  0  0  0  0  0  0  0  0  0  0  0  0  # atno 17371 bound_to 10713
  140.0068  134.6751  155.9442 LP  0  0  0  0  0  0  0  0  0  0  0  0  # atno 17394 bound_to 11000
  141.1704  133.6537  156.4632 LP  0  0  0  0  0  0  0  0  0  0  0  0  # atno 17395 bound_to 11000

$$$$
