AV-unprocessed.smi:2144|AV-procd|sdf|8732|dock7
  -GOLD-   2272011503D 1   1.00000     0.00000
 Structure written by MMmdl.
 41 43  0  0  0  0  0  0  0  0  2 V2000
  147.6094  142.7278  155.3346 O   0  0  0  0  0  0  0  0  0  0  0  0
  148.1170  141.4669  155.7095 C   0  0  0  0  0  0  0  0  0  0  0  0
  149.2806  141.5794  156.6380 C   0  0  0  0  0  0  0  0  0  0  0  0
  149.8918  142.7374  157.0156 N   0  3  0  0  0  0  0  0  0  0  0  0
  150.9483  142.4532  157.8816 C   0  0  0  0  0  0  0  0  0  0  0  0
  151.8524  143.2954  158.5216 C   0  0  0  0  0  0  0  0  0  0  0  0
  152.8157  142.6797  159.3475 C   0  0  0  0  0  0  0  0  0  0  0  0
  152.8545  141.2797  159.5114 C   0  0  0  0  0  0  0  0  0  0  0  0
  151.9338  140.4359  158.8560 C   0  0  0  0  0  0  0  0  0  0  0  0
  150.9847  141.0523  158.0404 C   0  0  0  0  0  0  0  0  0  0  0  0
  149.9381  140.5552  157.2538 N   0  0  0  0  0  0  0  0  0  0  0  0
  149.6986  139.1049  157.1842 C   0  0  0  0  0  0  0  0  0  0  0  0
  149.5531  138.4563  158.5754 C   0  0  2  0  0  0  0  0  0  0  0  0
  150.3937  137.3241  158.6714 O   0  0  0  0  0  0  0  0  0  0  0  0
  148.1104  138.0232  158.8731 C   0  0  0  0  0  0  0  0  0  0  0  0
  147.9778  137.8142  160.2727 O   0  0  0  0  0  0  0  0  0  0  0  0
  147.3125  136.6877  160.7073 C   0  0  0  0  0  0  0  0  0  0  0  0
  146.9643  135.5970  159.8703 C   0  0  0  0  0  0  0  0  0  0  0  0
  146.2833  134.4822  160.3971 C   0  0  0  0  0  0  0  0  0  0  0  0
  145.9430  134.4419  161.7617 C   0  0  0  0  0  0  0  0  0  0  0  0
  146.2847  135.5189  162.6000 C   0  0  0  0  0  0  0  0  0  0  0  0
  146.9652  136.6343  162.0744 C   0  0  0  0  0  0  0  0  0  0  0  0
  147.2875  137.6652  162.8919 F   0  0  0  0  0  0  0  0  0  0  0  0
  148.2840  143.3761  155.4693 H   0  0  0  0  0  0  0  0  0  0  0  0
  147.3246  140.8916  156.1888 H   0  0  0  0  0  0  0  0  0  0  0  0
  148.4129  140.9207  154.8137 H   0  0  0  0  0  0  0  0  0  0  0  0
  151.8246  144.3681  158.3977 H   0  0  0  0  0  0  0  0  0  0  0  0
  153.5384  143.2931  159.8659 H   0  0  0  0  0  0  0  0  0  0  0  0
  153.6057  140.8431  160.1535 H   0  0  0  0  0  0  0  0  0  0  0  0
  151.9721  139.3654  158.9931 H   0  0  0  0  0  0  0  0  0  0  0  0
  148.7842  138.9605  156.6077 H   0  0  0  0  0  0  0  0  0  0  0  0
  150.4934  138.6321  156.6069 H   0  0  0  0  0  0  0  0  0  0  0  0
  149.8728  139.1616  159.3433 H   0  0  0  0  0  0  0  0  0  0  0  0
  150.8331  137.2079  157.8431 H   0  0  0  0  0  0  0  0  0  0  0  0
  147.4093  138.7838  158.5249 H   0  0  0  0  0  0  0  0  0  0  0  0
  147.8914  137.0925  158.3463 H   0  0  0  0  0  0  0  0  0  0  0  0
  147.2092  135.5900  158.8192 H   0  0  0  0  0  0  0  0  0  0  0  0
  146.0225  133.6565  159.7516 H   0  0  0  0  0  0  0  0  0  0  0  0
  145.4210  133.5865  162.1645 H   0  0  0  0  0  0  0  0  0  0  0  0
  146.0247  135.4905  163.6479 H   0  0  0  0  0  0  0  0  0  0  0  0
  149.6068  143.6545  156.6969 H   0  0  0  0  0  0  0  0  0  0  0  0
  1  2  1  0  0  0  0
  1 24  1  0  0  0  0
  2  3  1  0  0  0  0
  2 25  1  0  0  0  0
  2 26  1  0  0  0  0
  3 11  1  0  0  0  0
  3  4  2  0  0  0  0
  4  5  1  0  0  0  0
  4 41  1  0  0  0  0
  5 10  2  0  0  0  0
  5  6  1  0  0  0  0
  6  7  2  0  0  0  0
  6 27  1  0  0  0  0
  7  8  1  0  0  0  0
  7 28  1  0  0  0  0
  8  9  2  0  0  0  0
  8 29  1  0  0  0  0
  9 10  1  0  0  0  0
  9 30  1  0  0  0  0
 10 11  1  0  0  0  0
 11 12  1  0  0  0  0
 12 13  1  0  0  0  0
 12 31  1  0  0  0  0
 12 32  1  0  0  0  0
 13 14  1  0  0  0  0
 13 15  1  0  0  0  0
 13 33  1  0  0  0  0
 14 34  1  0  0  0  0
 15 16  1  0  0  0  0
 15 35  1  0  0  0  0
 15 36  1  0  0  0  0
 16 17  1  0  0  0  0
 17 22  1  0  0  0  0
 17 18  2  0  0  0  0
 18 19  1  0  0  0  0
 18 37  1  0  0  0  0
 19 20  2  0  0  0  0
 19 38  1  0  0  0  0
 20 21  1  0  0  0  0
 20 39  1  0  0  0  0
 21 22  2  0  0  0  0
 21 40  1  0  0  0  0
 22 23  1  0  0  0  0
M  CHG  1   4   1
M  END
> <s_m_source_file>
AV-unprocessed.smi

> <i_m_source_file_index>
2144

> <i_lp_mmshare_version>
43012

> <i_f3d_flags>
0

> <s_epik_input>
W2NIXTFbY0hdW2NIXVtjSF1jKGMxMiluKGMobjIpW0NIMl1bT0hdKVtDSDJdW0NASF0oW09IXSlbQ0gyXU9jM1tjSF1bY0hdW2NIXVtjSF1jM0Y=

> <s_epik_cmdline>
J2VwaWtfcHl0aG9uJywgJy1waCcsICc3LjAnLCAnLXRuJywgJzgnLCAnLW1hJywgJzIwMCcsICctbWV0YWxfYmluZGluZycsICctaW1hZScsICc8aW5maWxlLm1hZT4nLCAnLW9tYWUnLCAnPG91dGZpbGUubWFlPic=

> <r_lp_tautomer_probability>
1

> <r_epik_Ionization_Penalty>
1.44003

> <r_epik_Ionization_Penalty_Charging>
1.43917

> <r_epik_Ionization_Penalty_Neutral>
0.000858184

> <r_epik_State_Penalty>
1.52442

> <r_epik_Charging_Adjusted_Penalty>
2.96359

> <i_epik_Tot_Q>
1

> <i_epik_Tot_abs_Q>
1

> <r_epik_Metal_State_Penalty>
5.57019

> <b_epik_Metal_Only>
0

> <s_lp_Force_Field>
OPLS_2005

> <r_lp_Energy>
18.2987

> <b_lp_Chiralities_Consistent>
1

> <s_lp_Variant>
AV-unprocessed.smi:2144-3

> <Gold.Version>
5.8.1

> <Gold.Id.Protein>
6NUR|6NUR_protein|mol2

> <Gold.PLP.Fitness>
58.4381

> <Gold.PLP.PLP>
-47.7330

> <Gold.PLP.part.hbond>
-4.6339

> <Gold.PLP.part.metal>
0.0000

> <Gold.PLP.part.buried>
-4.1122

> <Gold.PLP.part.nonpolar>
-39.6831

> <Gold.PLP.part.repulsive>
0.0184

> <Gold.PLP.ligand.clash>
0.0000

> <Gold.PLP.ligand.torsion>
1.3419

> <Gold.PLP.Chemscore.Hbond>
4.4396

> <Gold.PLP.Chemscore.CHOScore>
0.0000

> <Gold.PLP.Chemscore.Metal>
0.0000

> <Gold.Chemscore.Hbonds>
donor molecule, donor type, donor heavy atom, donor atom, acceptor molecule, acceptor atom, score
      L1  H     1    24       P1  8028  0.83
      L1  H     4    41       P1  8028  2.00
      P1  H  6931  6943       L1    16  0.40
      P1  H  6934  6947       L1    16  0.58

> <Gold.PLP.Chemscore.Internal.Correction>
0.0701

> <Gold.Rescore>
     Score         DG    S(hbond)    S(metal)    S(lipo)     H(rot)  DE(clash)    DE(int)     intcor
     16.99     -17.83       2.58        0.00     104.41       3.31       0.07       0.77       ----

> <Gold.Chemscore.Fitness>
16.9870

> <Gold.Chemscore.DG>
-17.8301

> <Gold.Chemscore.ZeroCoef>
-5.4800

> <Gold.Chemscore.Hbond>
2.5797

> <Gold.Chemscore.Metal>
0.0000

> <Gold.Chemscore.Lipo>
104.4113

> <Gold.Chemscore.Internal_Hbond>
0.0000

> <Gold.Chemscore.DEClash>
0.0708

> <Gold.Chemscore.DEInternal>
0.7723

> <Gold.Chemscore.Rot>
3.3134

> <Gold.Chemscore.Internal.Correction>
   9.000000E+99

> <Gold.Chemscore.Hbonds>
donor molecule, donor type, donor heavy atom, donor atom, acceptor molecule, acceptor atom, score
      L1  H     1    24       P1  8028  0.75
      L1  H     4    41       P1  8028  0.97
      P1  H  6931  6943       L1    16  0.12
      P1  H  6934  6947       L1    16  0.22

> <Gold.Chemscore.Hbond.Weighted>
-8.6163

> <Gold.Chemscore.Metal.Weighted>
-0.0000

> <Gold.Chemscore.Lipo.Weighted>
-12.2161

> <Gold.Chemscore.Internal_Hbond.Weighted>
0.0000

> <Gold.Chemscore.DEClash.Weighted>
0.0708

> <Gold.Chemscore.DEInternal.Weighted>
0.7723

> <Gold.Chemscore.Rot.Weighted>
8.4823

> <Gold.Chemscore.Internal.Correction.Weighted>
   9.000000E+99

> <Gold.Protein.RotatedTorsions>
[ 6907 6896 6895 6894 ] final  107.49 input  -60.11 | X-H torsion
[ 7974 7965 7964 7962 ] final   48.18 input  175.53 | X-H torsion
[ 8008 7997 7996 7995 ] final   64.37 input   59.86 | X-H torsion
[ 10167 10162 10161 10158 ] final   52.45 input  -65.29 | X-H torsion
[ 10718 10713 10712 10709 ] final  -33.39 input   66.30 | X-H torsion
[ 10763 10752 10751 10750 ] final   17.35 input  -60.55 | X-H torsion
[ 11005 11000 10999 10996 ] final  109.86 input  -57.11 | X-H torsion

> <Gold.Protein.ActiveResidues>
 VAL166  LYS551  ARG553  GLY616  TRP617  ASP618  TYR619  PRO620  LYS621  CYS622 
 ASP623  PHE694  ASN695  SER759  ASP760  ASP761  ALA762  ILE779  LEU786  VAL792 
 PHE793  MET794  SER795  GLU796  ALA797  LYS798  CYS799  TRP800  GLU811  SER814 

> <Gold.Protein.RotatedAtoms>
  152.5152  133.9227  159.7541 H   0  0  0  0  0  0  0  0  0  0  0  0  # atno 6907 bound_to 6896
  150.9595  133.6452  159.2764 H   0  0  0  0  0  0  0  0  0  0  0  0  # atno 6908 bound_to 6896
  151.3702  135.0926  159.9516 H   0  0  0  0  0  0  0  0  0  0  0  0  # atno 6909 bound_to 6896
  146.0228  139.4671  142.9886 H   0  0  0  0  0  0  0  0  0  0  0  0  # atno 7974 bound_to 7965
  155.6449  140.3497  155.4728 H   0  0  0  0  0  0  0  0  0  0  0  0  # atno 8008 bound_to 7997
  155.9895  140.1191  157.0675 H   0  0  0  0  0  0  0  0  0  0  0  0  # atno 8009 bound_to 7997
  154.4215  140.1122  156.5532 H   0  0  0  0  0  0  0  0  0  0  0  0  # atno 8010 bound_to 7997
  140.2512  144.3477  150.6347 H   0  0  0  0  0  0  0  0  0  0  0  0  # atno 10167 bound_to 10162
  156.3632  130.4327  149.7606 H   0  0  0  0  0  0  0  0  0  0  0  0  # atno 10718 bound_to 10713
  153.1346  135.6747  153.9123 H   0  0  0  0  0  0  0  0  0  0  0  0  # atno 10763 bound_to 10752
  153.8598  135.3083  155.3438 H   0  0  0  0  0  0  0  0  0  0  0  0  # atno 10764 bound_to 10752
  154.7737  135.4926  153.9783 H   0  0  0  0  0  0  0  0  0  0  0  0  # atno 10765 bound_to 10752
  139.8870  134.9469  156.6191 H   0  0  0  0  0  0  0  0  0  0  0  0  # atno 11005 bound_to 11000
  145.7165  141.0089  143.1425 LP  0  0  0  0  0  0  0  0  0  0  0  0  # atno 17320 bound_to 7965
  144.6997  139.8820  143.7447 LP  0  0  0  0  0  0  0  0  0  0  0  0  # atno 17321 bound_to 7965
  140.6039  143.2167  151.7019 LP  0  0  0  0  0  0  0  0  0  0  0  0  # atno 17342 bound_to 10162
  139.5046  144.3749  152.0433 LP  0  0  0  0  0  0  0  0  0  0  0  0  # atno 17343 bound_to 10162
  156.4762  130.8020  151.3036 LP  0  0  0  0  0  0  0  0  0  0  0  0  # atno 17370 bound_to 10713
  157.7476  131.0020  150.2985 LP  0  0  0  0  0  0  0  0  0  0  0  0  # atno 17371 bound_to 10713
  140.7753  133.8704  155.8524 LP  0  0  0  0  0  0  0  0  0  0  0  0  # atno 17394 bound_to 11000
  140.9807  134.1409  157.4497 LP  0  0  0  0  0  0  0  0  0  0  0  0  # atno 17395 bound_to 11000

$$$$
