AV-unprocessed.smi:212|AV-procd|sdf|1627|dock5
  -GOLD-   2262019573D 1   1.00000     0.00000
 Structure written by MMmdl.
 65 68  0  0  0  0  0  0  0  0  2 V2000
  148.9387  129.0918  152.9932 C   0  0  0  0  0  0  0  0  0  0  0  0
  147.9532  129.7874  153.9474 C   0  0  2  0  0  0  0  0  0  0  0  0
  146.6208  130.1394  153.2528 C   0  0  0  0  0  0  0  0  0  0  0  0
  146.7815  131.2721  152.3028 N   0  3  1  0  0  0  0  0  0  0  0  0
  145.5545  131.5585  151.5134 C   0  0  0  0  0  0  0  0  0  0  0  0
  145.8113  132.5463  150.3510 C   0  0  0  0  0  0  0  0  0  0  0  0
  144.7169  132.3995  149.2804 C   0  0  0  0  0  0  0  0  0  0  0  0
  145.8917  134.0069  150.8324 C   0  0  0  0  0  0  0  0  0  0  0  0
  147.0343  132.2181  149.7226 O   0  0  0  0  0  0  0  0  0  0  0  0
  147.3494  132.4752  152.9615 C   0  0  0  0  0  0  0  0  0  0  0  0
  148.6787  132.1434  153.6643 C   0  0  0  0  0  0  0  0  0  0  0  0
  148.5393  130.9871  154.5515 N   0  0  0  0  0  0  0  0  0  0  0  0
  148.2483  131.1982  155.8621 C   0  0  0  0  0  0  0  0  0  0  0  0
  147.8210  130.1663  156.6376 N   0  0  0  0  0  0  0  0  0  0  0  0
  147.5438  130.3617  157.9303 C   0  0  0  0  0  0  0  0  0  0  0  0
  147.6219  131.4892  158.6391 N   0  0  0  0  0  0  0  0  0  0  0  0
  148.0413  132.5308  157.8656 C   0  0  0  0  0  0  0  0  0  0  0  0
  148.3736  132.4736  156.4827 C   0  0  0  0  0  0  0  0  0  0  0  0
  148.7521  133.7342  156.0350 N   0  0  0  0  0  0  0  0  0  0  0  0
  148.6585  134.4908  157.0945 C   0  0  0  0  0  0  0  0  0  0  0  0
  148.2422  133.8483  158.2379 N   0  0  0  0  0  0  0  0  0  0  0  0
  148.0502  134.4499  159.5458 C   0  0  0  0  0  0  0  0  0  0  0  0
  146.6415  134.1737  160.1349 C   0  0  2  0  0  0  0  0  0  0  0  0
  145.5395  134.2939  159.0549 C   0  0  0  0  0  0  0  0  0  0  0  0
  145.5991  135.5427  158.3978 O   0  0  0  0  0  0  0  0  0  0  0  0
  146.3272  135.0448  161.3848 C   0  0  1  0  0  0  0  0  0  0  0  0
  147.3178  134.8620  162.5386 C   0  0  0  0  0  0  0  0  0  0  0  0
  147.7094  136.2861  162.9258 C   0  0  0  0  0  0  0  0  0  0  0  0
  147.5439  137.0139  161.7214 O   0  0  0  0  0  0  0  0  0  0  0  0
  146.3312  136.5629  161.1401 C   0  0  0  0  0  0  0  0  0  0  0  0
  148.5113  128.1702  152.5978 H   0  0  0  0  0  0  0  0  0  0  0  0
  149.8612  128.8283  153.5114 H   0  0  0  0  0  0  0  0  0  0  0  0
  149.2022  129.7212  152.1430 H   0  0  0  0  0  0  0  0  0  0  0  0
  147.7154  129.0625  154.7255 H   0  0  0  0  0  0  0  0  0  0  0  0
  146.2285  129.2617  152.7391 H   0  0  0  0  0  0  0  0  0  0  0  0
  145.8794  130.4140  154.0052 H   0  0  0  0  0  0  0  0  0  0  0  0
  145.1201  130.6285  151.1427 H   0  0  0  0  0  0  0  0  0  0  0  0
  144.7936  131.9924  152.1644 H   0  0  0  0  0  0  0  0  0  0  0  0
  143.7344  132.6466  149.6844 H   0  0  0  0  0  0  0  0  0  0  0  0
  144.6677  131.3797  148.8965 H   0  0  0  0  0  0  0  0  0  0  0  0
  144.8969  133.0610  148.4320 H   0  0  0  0  0  0  0  0  0  0  0  0
  144.9731  134.3049  151.3390 H   0  0  0  0  0  0  0  0  0  0  0  0
  146.0416  134.6916  149.9967 H   0  0  0  0  0  0  0  0  0  0  0  0
  146.7173  134.1613  151.5278 H   0  0  0  0  0  0  0  0  0  0  0  0
  147.4533  131.5304  150.2177 H   0  0  0  0  0  0  0  0  0  0  0  0
  147.5193  133.2568  152.2201 H   0  0  0  0  0  0  0  0  0  0  0  0
  146.6266  132.8682  153.6780 H   0  0  0  0  0  0  0  0  0  0  0  0
  149.4396  131.9133  152.9184 H   0  0  0  0  0  0  0  0  0  0  0  0
  149.0527  133.0125  154.2072 H   0  0  0  0  0  0  0  0  0  0  0  0
  147.2131  129.4897  158.4751 H   0  0  0  0  0  0  0  0  0  0  0  0
  148.8922  135.5455  157.0721 H   0  0  0  0  0  0  0  0  0  0  0  0
  148.8348  134.0665  160.1968 H   0  0  0  0  0  0  0  0  0  0  0  0
  148.2297  135.5214  159.4603 H   0  0  0  0  0  0  0  0  0  0  0  0
  146.6361  133.1349  160.4698 H   0  0  0  0  0  0  0  0  0  0  0  0
  145.6218  133.4938  158.3190 H   0  0  0  0  0  0  0  0  0  0  0  0
  144.5464  134.2162  159.4956 H   0  0  0  0  0  0  0  0  0  0  0  0
  145.6049  136.2259  159.0509 H   0  0  0  0  0  0  0  0  0  0  0  0
  145.3398  134.7718  161.7582 H   0  0  0  0  0  0  0  0  0  0  0  0
  146.8794  134.3246  163.3801 H   0  0  0  0  0  0  0  0  0  0  0  0
  148.2005  134.3032  162.2303 H   0  0  0  0  0  0  0  0  0  0  0  0
  147.0347  136.6824  163.6864 H   0  0  0  0  0  0  0  0  0  0  0  0
  148.7301  136.3554  163.3021 H   0  0  0  0  0  0  0  0  0  0  0  0
  146.2616  136.8454  160.0900 H   0  0  0  0  0  0  0  0  0  0  0  0
  145.4952  137.0329  161.6605 H   0  0  0  0  0  0  0  0  0  0  0  0
  147.4749  130.9774  151.6302 H   0  0  0  0  0  0  0  0  0  0  0  0
  1  2  1  0  0  0  0
  1 31  1  0  0  0  0
  1 32  1  0  0  0  0
  1 33  1  0  0  0  0
  2 12  1  0  0  0  0
  2  3  1  0  0  0  0
  2 34  1  0  0  0  0
  3  4  1  0  0  0  0
  3 35  1  0  0  0  0
  3 36  1  0  0  0  0
  4  5  1  0  0  0  0
  4 10  1  0  0  0  0
  4 65  1  0  0  0  0
  5  6  1  0  0  0  0
  5 37  1  0  0  0  0
  5 38  1  0  0  0  0
  6  7  1  0  0  0  0
  6  8  1  0  0  0  0
  6  9  1  0  0  0  0
  7 39  1  0  0  0  0
  7 40  1  0  0  0  0
  7 41  1  0  0  0  0
  8 42  1  0  0  0  0
  8 43  1  0  0  0  0
  8 44  1  0  0  0  0
  9 45  1  0  0  0  0
 10 11  1  0  0  0  0
 10 46  1  0  0  0  0
 10 47  1  0  0  0  0
 11 12  1  0  0  0  0
 11 48  1  0  0  0  0
 11 49  1  0  0  0  0
 12 13  1  0  0  0  0
 13 18  1  0  0  0  0
 13 14  2  0  0  0  0
 14 15  1  0  0  0  0
 15 16  2  0  0  0  0
 15 50  1  0  0  0  0
 16 17  1  0  0  0  0
 17 21  1  0  0  0  0
 17 18  2  0  0  0  0
 18 19  1  0  0  0  0
 19 20  2  0  0  0  0
 20 21  1  0  0  0  0
 20 51  1  0  0  0  0
 21 22  1  0  0  0  0
 22 23  1  0  0  0  0
 22 52  1  0  0  0  0
 22 53  1  0  0  0  0
 23 24  1  0  0  0  0
 23 26  1  0  0  0  0
 23 54  1  0  0  0  0
 24 25  1  0  0  0  0
 24 55  1  0  0  0  0
 24 56  1  0  0  0  0
 25 57  1  0  0  0  0
 26 30  1  0  0  0  0
 26 27  1  0  0  0  0
 26 58  1  0  0  0  0
 27 28  1  0  0  0  0
 27 59  1  0  0  0  0
 27 60  1  0  0  0  0
 28 29  1  0  0  0  0
 28 61  1  0  0  0  0
 28 62  1  0  0  0  0
 29 30  1  0  0  0  0
 30 63  1  0  0  0  0
 30 64  1  0  0  0  0
M  CHG  1   4   1
M  END
> <s_m_source_file>
AV-unprocessed.smi

> <i_m_source_file_index>
212

> <i_lp_mmshare_version>
43012

> <i_f3d_flags>
0

> <s_epik_input>
W0NIM11bQ0BASF0xW0NIMl1OKFtDSDJdQyhbQ0gzXSkoW0NIM10pW09IXSlbQ0gyXVtDSDJdTjFjKG5bY0hdbjIpYyhjMjMpbltjSF1uM1tDSDJdW0NASF0oW0NIMl1bT0hdKVtDQEBIXTRbQ0gyXVtDSDJdT1tDSDJdNA==

> <s_epik_cmdline>
J2VwaWtfcHl0aG9uJywgJy1waCcsICc3LjAnLCAnLXRuJywgJzgnLCAnLW1hJywgJzIwMCcsICctbWV0YWxfYmluZGluZycsICctaW1hZScsICc8aW5maWxlLm1hZT4nLCAnLW9tYWUnLCAnPG91dGZpbGUubWFlPic=

> <r_lp_tautomer_probability>
1

> <r_epik_Ionization_Penalty>
0.00182193

> <r_epik_Ionization_Penalty_Charging>
0.00173996

> <r_epik_Ionization_Penalty_Neutral>
8.19718e-05

> <r_epik_State_Penalty>
-0

> <r_epik_Charging_Adjusted_Penalty>
0.00173996

> <i_epik_Tot_Q>
1

> <i_epik_Tot_abs_Q>
1

> <r_epik_Metal_State_Penalty>
-0

> <b_epik_Metal_Only>
0

> <s_lp_Force_Field>
OPLS_2005

> <r_lp_Energy>
60.0337

> <b_lp_Chiralities_Consistent>
1

> <s_lp_Variant>
AV-unprocessed.smi:212-11

> <Gold.Version>
5.8.1

> <Gold.Id.Protein>
6NUR|6NUR_protein|mol2

> <Gold.PLP.Fitness>
49.3504

> <Gold.PLP.PLP>
-40.8897

> <Gold.PLP.part.hbond>
-4.0631

> <Gold.PLP.part.metal>
0.0000

> <Gold.PLP.part.buried>
-4.8706

> <Gold.PLP.part.nonpolar>
-31.5547

> <Gold.PLP.part.repulsive>
0.0054

> <Gold.PLP.ligand.clash>
0.0000

> <Gold.PLP.ligand.torsion>
0.6674

> <Gold.PLP.Chemscore.Hbond>
2.9400

> <Gold.PLP.Chemscore.CHOScore>
0.0000

> <Gold.PLP.Chemscore.Metal>
0.0000

> <Gold.Chemscore.Hbonds>
donor molecule, donor type, donor heavy atom, donor atom, acceptor molecule, acceptor atom, score
      L1  H     4    65       P1 10747  1.00
      L1  H     9    45       P1 10747  0.70
      P1  H  6931  6943       L1    29  0.95
      P1  H  6934  6947       L1    29  0.27

> <Gold.PLP.Chemscore.Internal.Correction>
0.9754

> <Gold.Rescore>
     Score         DG    S(hbond)    S(metal)    S(lipo)     H(rot)  DE(clash)    DE(int)     intcor
     13.06     -17.70       2.48        0.00     107.88       3.40       0.57       4.07       ----

> <Gold.Chemscore.Fitness>
13.0613

> <Gold.Chemscore.DG>
-17.6969

> <Gold.Chemscore.ZeroCoef>
-5.4800

> <Gold.Chemscore.Hbond>
2.4837

> <Gold.Chemscore.Metal>
0.0000

> <Gold.Chemscore.Lipo>
107.8790

> <Gold.Chemscore.Internal_Hbond>
0.0000

> <Gold.Chemscore.DEClash>
0.5691

> <Gold.Chemscore.DEInternal>
4.0665

> <Gold.Chemscore.Rot>
3.3986

> <Gold.Chemscore.Internal.Correction>
   9.000000E+99

> <Gold.Chemscore.Hbonds>
donor molecule, donor type, donor heavy atom, donor atom, acceptor molecule, acceptor atom, score
      L1  H     4    65       P1 10747  0.93
      L1  H     9    45       P1 10747  0.70
      P1  H  6931  6943       L1    29  0.21
      P1  H  6934  6947       L1    29  0.02

> <Gold.Chemscore.Hbond.Weighted>
-8.2955

> <Gold.Chemscore.Metal.Weighted>
-0.0000

> <Gold.Chemscore.Lipo.Weighted>
-12.6218

> <Gold.Chemscore.Internal_Hbond.Weighted>
0.0000

> <Gold.Chemscore.DEClash.Weighted>
0.5691

> <Gold.Chemscore.DEInternal.Weighted>
4.0665

> <Gold.Chemscore.Rot.Weighted>
8.7005

> <Gold.Chemscore.Internal.Correction.Weighted>
   9.000000E+99

> <Gold.Protein.RotatedTorsions>
[ 6907 6896 6895 6894 ] final  -84.33 input  -60.11 | X-H torsion
[ 7974 7965 7964 7962 ] final -108.34 input  175.53 | X-H torsion
[ 8008 7997 7996 7995 ] final   -8.93 input   59.86 | X-H torsion
[ 10167 10162 10161 10158 ] final  173.90 input  -65.29 | X-H torsion
[ 10718 10713 10712 10709 ] final   76.53 input   66.30 | X-H torsion
[ 10763 10752 10751 10750 ] final -159.02 input  -60.55 | X-H torsion
[ 11005 11000 10999 10996 ] final   58.38 input  -57.11 | X-H torsion

> <Gold.Protein.ActiveResidues>
 VAL166  LYS551  ARG553  GLY616  TRP617  ASP618  TYR619  PRO620  LYS621  CYS622 
 ASP623  PHE694  ASN695  SER759  ASP760  ASP761  ALA762  ILE779  LEU786  VAL792 
 PHE793  MET794  SER795  GLU796  ALA797  LYS798  CYS799  TRP800  GLU811  SER814 

> <Gold.Protein.RotatedAtoms>
  150.6877  134.3375  159.4853 H   0  0  0  0  0  0  0  0  0  0  0  0  # atno 6907 bound_to 6896
  152.1233  134.9187  160.0571 H   0  0  0  0  0  0  0  0  0  0  0  0  # atno 6908 bound_to 6896
  152.0385  133.3932  159.4364 H   0  0  0  0  0  0  0  0  0  0  0  0  # atno 6909 bound_to 6896
  145.1941  140.9027  143.3407 H   0  0  0  0  0  0  0  0  0  0  0  0  # atno 7974 bound_to 7965
  154.5694  140.2368  155.8214 H   0  0  0  0  0  0  0  0  0  0  0  0  # atno 8008 bound_to 7997
  156.2094  140.3030  155.9658 H   0  0  0  0  0  0  0  0  0  0  0  0  # atno 8009 bound_to 7997
  155.2740  140.0419  157.3000 H   0  0  0  0  0  0  0  0  0  0  0  0  # atno 8010 bound_to 7997
  139.5124  144.3208  152.0204 H   0  0  0  0  0  0  0  0  0  0  0  0  # atno 10167 bound_to 10162
  157.6677  130.9779  150.1510 H   0  0  0  0  0  0  0  0  0  0  0  0  # atno 10718 bound_to 10713
  154.7509  135.3092  154.8559 H   0  0  0  0  0  0  0  0  0  0  0  0  # atno 10763 bound_to 10752
  153.9346  135.6781  153.4749 H   0  0  0  0  0  0  0  0  0  0  0  0  # atno 10764 bound_to 10752
  153.1105  135.4868  154.8955 H   0  0  0  0  0  0  0  0  0  0  0  0  # atno 10765 bound_to 10752
  140.0382  134.5912  155.9416 H   0  0  0  0  0  0  0  0  0  0  0  0  # atno 11005 bound_to 11000
  145.0012  139.3596  143.6166 LP  0  0  0  0  0  0  0  0  0  0  0  0  # atno 17320 bound_to 7965
  146.3430  139.9236  142.8763 LP  0  0  0  0  0  0  0  0  0  0  0  0  # atno 17321 bound_to 7965
  140.2650  144.4026  150.6172 LP  0  0  0  0  0  0  0  0  0  0  0  0  # atno 17342 bound_to 10162
  140.6130  143.2170  151.6848 LP  0  0  0  0  0  0  0  0  0  0  0  0  # atno 17343 bound_to 10162
  156.2310  130.3682  149.8445 LP  0  0  0  0  0  0  0  0  0  0  0  0  # atno 17370 bound_to 10713
  156.6272  130.8651  151.3488 LP  0  0  0  0  0  0  0  0  0  0  0  0  # atno 17371 bound_to 10713
  141.1869  133.6558  156.5258 LP  0  0  0  0  0  0  0  0  0  0  0  0  # atno 17394 bound_to 11000
  140.4112  134.7270  157.4837 LP  0  0  0  0  0  0  0  0  0  0  0  0  # atno 17395 bound_to 11000

$$$$
