AV-unprocessed.smi:93|AV-procd|sdf|850|dock5
  -GOLD-   2262017293D 1   1.00000     0.00000
 Structure written by MMmdl.
 50 52  0  0  0  0  0  0  0  0  1 V2000
  144.6648  135.7346  149.8954 C   0  0  0  0  0  0  0  0  0  0  0  0
  144.5963  135.2725  151.2774 N   0  0  0  0  0  0  0  0  0  0  0  0
  144.1776  133.8937  151.5603 C   0  0  0  0  0  0  0  0  0  0  0  0
  144.9009  132.7948  150.7231 C   0  0  0  0  0  0  0  0  0  0  0  0
  146.4078  133.1098  150.5764 C   0  0  0  0  0  0  0  0  0  0  0  0
  144.7248  131.4372  151.4552 C   0  0  0  0  0  0  0  0  0  0  0  0
  145.4239  131.3848  152.6837 O   0  0  0  0  0  0  0  0  0  0  0  0
  144.2519  132.6933  149.3169 C   0  0  0  0  0  0  0  0  0  0  0  0
  142.9618  132.1147  149.3488 O   0  0  0  0  0  0  0  0  0  0  0  0
  144.8908  136.1407  152.2842 C   0  0  0  0  0  0  0  0  0  0  0  0
  144.3919  135.8948  153.5246 N   0  0  0  0  0  0  0  0  0  0  0  0
  144.6639  136.7117  154.5450 C   0  0  0  0  0  0  0  0  0  0  0  0
  145.4097  137.8166  154.5514 N   0  0  0  0  0  0  0  0  0  0  0  0
  145.9235  138.0718  153.3149 C   0  0  0  0  0  0  0  0  0  0  0  0
  145.7106  137.3005  152.1352 C   0  0  0  0  0  0  0  0  0  0  0  0
  146.4007  137.8785  151.0744 N   0  0  0  0  0  0  0  0  0  0  0  0
  146.9803  138.9249  151.5935 C   0  0  0  0  0  0  0  0  0  0  0  0
  146.7612  139.1083  152.9391 N   0  0  0  0  0  0  0  0  0  0  0  0
  147.2978  140.1735  153.7730 C   0  0  0  0  0  0  0  0  0  0  0  0
  148.3480  139.6855  154.8000 C   0  0  2  0  0  0  0  0  0  0  0  0
  147.7165  138.8306  155.7372 O   0  0  0  0  0  0  0  0  0  0  0  0
  149.0084  140.8267  155.5625 C   0  0  0  0  0  0  0  0  0  0  0  0
  150.3712  140.2472  155.9165 C   0  0  0  0  0  0  0  0  0  0  0  0
  150.7246  139.5280  154.7472 O   0  0  0  0  0  0  0  0  0  0  0  0
  149.5526  138.9363  154.1931 C   0  0  0  0  0  0  0  0  0  0  0  0
  144.2428  136.7358  149.8004 H   0  0  0  0  0  0  0  0  0  0  0  0
  144.1024  135.0769  149.2321 H   0  0  0  0  0  0  0  0  0  0  0  0
  145.6963  135.7580  149.5450 H   0  0  0  0  0  0  0  0  0  0  0  0
  144.2745  133.6832  152.6254 H   0  0  0  0  0  0  0  0  0  0  0  0
  143.1063  133.8273  151.3683 H   0  0  0  0  0  0  0  0  0  0  0  0
  146.9443  132.2863  150.1047 H   0  0  0  0  0  0  0  0  0  0  0  0
  146.8773  133.2887  151.5440 H   0  0  0  0  0  0  0  0  0  0  0  0
  146.5765  133.9939  149.9619 H   0  0  0  0  0  0  0  0  0  0  0  0
  143.6697  131.2454  151.6539 H   0  0  0  0  0  0  0  0  0  0  0  0
  145.0816  130.6110  150.8395 H   0  0  0  0  0  0  0  0  0  0  0  0
  146.0000  130.6359  152.6694 H   0  0  0  0  0  0  0  0  0  0  0  0
  144.1756  133.6796  148.8577 H   0  0  0  0  0  0  0  0  0  0  0  0
  144.8606  132.0799  148.6531 H   0  0  0  0  0  0  0  0  0  0  0  0
  142.3229  132.8089  149.4020 H   0  0  0  0  0  0  0  0  0  0  0  0
  144.2248  136.4378  155.4928 H   0  0  0  0  0  0  0  0  0  0  0  0
  147.5951  139.5900  151.0047 H   0  0  0  0  0  0  0  0  0  0  0  0
  147.7363  140.9268  153.1171 H   0  0  0  0  0  0  0  0  0  0  0  0
  146.4677  140.6616  154.2854 H   0  0  0  0  0  0  0  0  0  0  0  0
  146.7994  139.0548  155.7780 H   0  0  0  0  0  0  0  0  0  0  0  0
  149.1482  141.6886  154.9086 H   0  0  0  0  0  0  0  0  0  0  0  0
  148.4426  141.1592  156.4339 H   0  0  0  0  0  0  0  0  0  0  0  0
  151.1086  141.0137  156.1556 H   0  0  0  0  0  0  0  0  0  0  0  0
  150.2987  139.5606  156.7614 H   0  0  0  0  0  0  0  0  0  0  0  0
  149.5285  137.8670  154.4092 H   0  0  0  0  0  0  0  0  0  0  0  0
  149.6059  139.0493  153.1109 H   0  0  0  0  0  0  0  0  0  0  0  0
  1  2  1  0  0  0  0
  1 26  1  0  0  0  0
  1 27  1  0  0  0  0
  1 28  1  0  0  0  0
  2  3  1  0  0  0  0
  2 10  1  0  0  0  0
  3  4  1  0  0  0  0
  3 29  1  0  0  0  0
  3 30  1  0  0  0  0
  4  5  1  0  0  0  0
  4  6  1  0  0  0  0
  4  8  1  0  0  0  0
  5 31  1  0  0  0  0
  5 32  1  0  0  0  0
  5 33  1  0  0  0  0
  6  7  1  0  0  0  0
  6 34  1  0  0  0  0
  6 35  1  0  0  0  0
  7 36  1  0  0  0  0
  8  9  1  0  0  0  0
  8 37  1  0  0  0  0
  8 38  1  0  0  0  0
  9 39  1  0  0  0  0
 10 15  1  0  0  0  0
 10 11  2  0  0  0  0
 11 12  1  0  0  0  0
 12 13  2  0  0  0  0
 12 40  1  0  0  0  0
 13 14  1  0  0  0  0
 14 18  1  0  0  0  0
 14 15  2  0  0  0  0
 15 16  1  0  0  0  0
 16 17  2  0  0  0  0
 17 18  1  0  0  0  0
 17 41  1  0  0  0  0
 18 19  1  0  0  0  0
 19 20  1  0  0  0  0
 19 42  1  0  0  0  0
 19 43  1  0  0  0  0
 20 25  1  0  0  0  0
 20 21  1  0  0  0  0
 20 22  1  0  0  0  0
 21 44  1  0  0  0  0
 22 23  1  0  0  0  0
 22 45  1  0  0  0  0
 22 46  1  0  0  0  0
 23 24  1  0  0  0  0
 23 47  1  0  0  0  0
 23 48  1  0  0  0  0
 24 25  1  0  0  0  0
 25 49  1  0  0  0  0
 25 50  1  0  0  0  0
M  END
> <s_m_source_file>
AV-unprocessed.smi

> <i_m_source_file_index>
93

> <i_lp_mmshare_version>
43012

> <i_f3d_flags>
0

> <s_epik_input>
W09IXVtDSDJdQyhbQ0gzXSkoW0NIMl1bT0hdKVtDSDJdTihbQ0gzXSljKG5bY0hdbjEpYyhjMTIpbltjSF1uMltDSDJdW0NAQF0zKFtPSF0pW0NIMl1bQ0gyXU9bQ0gyXTM=

> <s_epik_cmdline>
J2VwaWtfcHl0aG9uJywgJy1waCcsICc3LjAnLCAnLXRuJywgJzgnLCAnLW1hJywgJzIwMCcsICctbWV0YWxfYmluZGluZycsICctaW1hZScsICc8aW5maWxlLm1hZT4nLCAnLW9tYWUnLCAnPG91dGZpbGUubWFlPic=

> <r_lp_tautomer_probability>
1

> <r_epik_Ionization_Penalty>
0.00325397

> <r_epik_Ionization_Penalty_Charging>
0

> <r_epik_Ionization_Penalty_Neutral>
0.00325397

> <r_epik_State_Penalty>
0.00225047

> <r_epik_Charging_Adjusted_Penalty>
0.00225047

> <i_epik_Tot_Q>
0

> <i_epik_Tot_abs_Q>
0

> <r_epik_Metal_State_Penalty>
-0

> <b_epik_Metal_Only>
0

> <s_lp_Force_Field>
OPLS_2005

> <r_lp_Energy>
41.2901

> <b_lp_Chiralities_Consistent>
1

> <s_lp_Variant>
AV-unprocessed.smi:93-2

> <Gold.Version>
5.8.1

> <Gold.Id.Protein>
6NUR|6NUR_protein|mol2

> <Gold.PLP.Fitness>
48.5740

> <Gold.PLP.PLP>
-39.1039

> <Gold.PLP.part.hbond>
-4.9102

> <Gold.PLP.part.metal>
0.0000

> <Gold.PLP.part.buried>
3.0364

> <Gold.PLP.part.nonpolar>
-39.9972

> <Gold.PLP.part.repulsive>
2.5085

> <Gold.PLP.ligand.clash>
0.0000

> <Gold.PLP.ligand.torsion>
0.8916

> <Gold.PLP.Chemscore.Hbond>
2.7713

> <Gold.PLP.Chemscore.CHOScore>
0.8865

> <Gold.PLP.Chemscore.Metal>
0.0000

> <Gold.Chemscore.Hbonds>
donor molecule, donor type, donor heavy atom, donor atom, acceptor molecule, acceptor atom, score
      L1  H     9    39       P1 10186  0.88
      P1  H  7954  7966       L1    16  0.08
      P1  H  7989  7998       L1    24  0.96
      P1  H 10785 10796       L1     9  0.88
      L1  C    17    41       P1  7957  0.95

> <Gold.PLP.Chemscore.Internal.Correction>
0.2802

> <Gold.Rescore>
     Score         DG    S(hbond)    S(metal)    S(lipo)     H(rot)  DE(clash)    DE(int)     intcor
      6.13     -11.22       2.33        0.00      83.25       4.60       3.14       1.95       ----

> <Gold.Chemscore.Fitness>
6.1309

> <Gold.Chemscore.DG>
-11.2215

> <Gold.Chemscore.ZeroCoef>
-5.4800

> <Gold.Chemscore.Hbond>
2.3292

> <Gold.Chemscore.Metal>
0.0000

> <Gold.Chemscore.Lipo>
83.2546

> <Gold.Chemscore.Internal_Hbond>
0.0000

> <Gold.Chemscore.DEClash>
3.1441

> <Gold.Chemscore.DEInternal>
1.9464

> <Gold.Chemscore.Rot>
4.6010

> <Gold.Chemscore.Internal.Correction>
   9.000000E+99

> <Gold.Chemscore.Hbonds>
donor molecule, donor type, donor heavy atom, donor atom, acceptor molecule, acceptor atom, score
      L1  H     9    39       P1 10186  0.86
      P1  H  7989  7998       L1    24  0.47
      P1  H 10785 10796       L1     9  0.47

> <Gold.Chemscore.Hbond.Weighted>
-7.7794

> <Gold.Chemscore.Metal.Weighted>
-0.0000

> <Gold.Chemscore.Lipo.Weighted>
-9.7408

> <Gold.Chemscore.Internal_Hbond.Weighted>
0.0000

> <Gold.Chemscore.DEClash.Weighted>
3.1441

> <Gold.Chemscore.DEInternal.Weighted>
1.9464

> <Gold.Chemscore.Rot.Weighted>
11.7787

> <Gold.Chemscore.Internal.Correction.Weighted>
   9.000000E+99

> <Gold.Protein.RotatedTorsions>
[ 6907 6896 6895 6894 ] final -100.43 input  -60.11 | X-H torsion
[ 7974 7965 7964 7962 ] final -129.15 input  175.53 | X-H torsion
[ 8008 7997 7996 7995 ] final -140.81 input   59.86 | X-H torsion
[ 10167 10162 10161 10158 ] final  169.80 input  -65.29 | X-H torsion
[ 10718 10713 10712 10709 ] final  -40.42 input   66.30 | X-H torsion
[ 10763 10752 10751 10750 ] final -133.62 input  -60.55 | X-H torsion
[ 11005 11000 10999 10996 ] final -157.75 input  -57.11 | X-H torsion

> <Gold.Protein.ActiveResidues>
 VAL166  LYS551  ARG553  GLY616  TRP617  ASP618  TYR619  PRO620  LYS621  CYS622 
 ASP623  PHE694  ASN695  SER759  ASP760  ASP761  ALA762  ILE779  LEU786  VAL792 
 PHE793  MET794  SER795  GLU796  ALA797  LYS798  CYS799  TRP800  GLU811  SER814 

> <Gold.Protein.RotatedAtoms>
  150.7116  134.0888  159.3924 H   0  0  0  0  0  0  0  0  0  0  0  0  # atno 6907 bound_to 6896
  151.8873  135.0428  160.0504 H   0  0  0  0  0  0  0  0  0  0  0  0  # atno 6908 bound_to 6896
  152.2520  133.5187  159.5367 H   0  0  0  0  0  0  0  0  0  0  0  0  # atno 6909 bound_to 6896
  144.9600  140.7436  143.4735 H   0  0  0  0  0  0  0  0  0  0  0  0  # atno 7974 bound_to 7965
  155.4675  140.0550  157.2983 H   0  0  0  0  0  0  0  0  0  0  0  0  # atno 8008 bound_to 7997
  154.4712  140.2041  155.9945 H   0  0  0  0  0  0  0  0  0  0  0  0  # atno 8009 bound_to 7997
  156.1058  140.3212  155.8009 H   0  0  0  0  0  0  0  0  0  0  0  0  # atno 8010 bound_to 7997
  139.5002  144.3666  151.9769 H   0  0  0  0  0  0  0  0  0  0  0  0  # atno 10167 bound_to 10162
  156.2816  130.4218  149.8331 H   0  0  0  0  0  0  0  0  0  0  0  0  # atno 10718 bound_to 10713
  154.8730  135.3760  154.4602 H   0  0  0  0  0  0  0  0  0  0  0  0  # atno 10763 bound_to 10752
  153.5271  135.7028  153.5707 H   0  0  0  0  0  0  0  0  0  0  0  0  # atno 10764 bound_to 10752
  153.3928  135.3968  155.1900 H   0  0  0  0  0  0  0  0  0  0  0  0  # atno 10765 bound_to 10752
  140.6612  134.4348  157.5234 H   0  0  0  0  0  0  0  0  0  0  0  0  # atno 11005 bound_to 11000
  145.2714  139.1953  143.4839 LP  0  0  0  0  0  0  0  0  0  0  0  0  # atno 17320 bound_to 7965
  146.3350  140.2661  142.8604 LP  0  0  0  0  0  0  0  0  0  0  0  0  # atno 17321 bound_to 7965
  140.3102  144.3547  150.6036 LP  0  0  0  0  0  0  0  0  0  0  0  0  # atno 17342 bound_to 10162
  140.5805  143.2173  151.7437 LP  0  0  0  0  0  0  0  0  0  0  0  0  # atno 17343 bound_to 10162
  156.5777  130.8452  151.3374 LP  0  0  0  0  0  0  0  0  0  0  0  0  # atno 17370 bound_to 10713
  157.7316  130.9702  150.1887 LP  0  0  0  0  0  0  0  0  0  0  0  0  # atno 17371 bound_to 10713
  139.9012  134.8551  156.1887 LP  0  0  0  0  0  0  0  0  0  0  0  0  # atno 17394 bound_to 11000
  141.0464  133.6911  156.1691 LP  0  0  0  0  0  0  0  0  0  0  0  0  # atno 17395 bound_to 11000

$$$$
