AV-unprocessed.smi:2618|AV-procd|sdf|10221|dock10
  -GOLD-   2272014223D 1   1.00000     0.00000
 Structure written by MMmdl.
 38 39  0  0  0  0  0  0  0  0  2 V2000
  149.3874  135.7935  160.0066 C   0  0  0  0  0  0  0  0  0  0  0  0
  150.3746  136.0144  159.0147 O   0  0  0  0  0  0  0  0  0  0  0  0
  149.8859  135.7852  157.7033 C   0  0  0  0  0  0  0  0  0  0  0  0
  150.9640  136.2078  156.6899 C   0  0  0  0  0  0  0  0  0  0  0  0
  151.2664  137.6860  156.7046 C   0  0  0  0  0  0  0  0  0  0  0  0
  151.8161  138.3051  157.6845 N   0  0  0  0  0  0  0  0  0  0  0  0
  151.9626  139.6053  157.4224 N   0  0  0  0  0  0  0  0  0  0  0  0
  152.4735  140.4983  158.3868 C   0  0  0  0  0  0  0  0  0  0  0  0
  152.1268  141.7980  158.3461 N   0  0  0  0  0  0  0  0  0  0  0  0
  152.6401  142.6224  159.2827 C   0  0  0  0  0  0  0  0  0  0  0  0
  152.2167  144.0737  159.2124 C   0  0  0  0  0  0  0  0  0  0  0  0
  153.5263  142.1583  160.2746 C   0  0  0  0  0  0  0  0  0  0  0  0
  153.8376  140.7851  160.2277 C   0  0  0  0  0  0  0  0  0  0  0  0
  154.7826  140.1523  161.2264 C   0  0  0  0  0  0  0  0  0  0  0  0
  153.3134  139.9671  159.2905 N   0  0  0  0  0  0  0  0  0  0  0  0
  151.4289  139.9396  156.0832 C   0  0  2  0  0  0  0  0  0  0  0  0
  152.3756  140.3750  155.2822 O   0  5  0  0  0  0  0  0  0  0  0  0
  150.2688  140.9727  156.1475 C   0  0  0  0  0  0  0  0  0  0  0  0
  149.4514  140.6811  157.1614 F   0  0  0  0  0  0  0  0  0  0  0  0
  150.7168  142.2167  156.3248 F   0  0  0  0  0  0  0  0  0  0  0  0
  149.5554  140.9430  155.0195 F   0  0  0  0  0  0  0  0  0  0  0  0
  150.9481  138.5787  155.5594 C   0  0  0  0  0  0  0  0  0  0  0  0
  149.8104  135.9818  160.9934 H   0  0  0  0  0  0  0  0  0  0  0  0
  149.0301  134.7631  159.9846 H   0  0  0  0  0  0  0  0  0  0  0  0
  148.5363  136.4622  159.8717 H   0  0  0  0  0  0  0  0  0  0  0  0
  149.6430  134.7278  157.5816 H   0  0  0  0  0  0  0  0  0  0  0  0
  148.9699  136.3581  157.5474 H   0  0  0  0  0  0  0  0  0  0  0  0
  151.8828  135.6548  156.8863 H   0  0  0  0  0  0  0  0  0  0  0  0
  150.6431  135.9234  155.6873 H   0  0  0  0  0  0  0  0  0  0  0  0
  152.5517  144.6245  160.0916 H   0  0  0  0  0  0  0  0  0  0  0  0
  151.1304  144.1507  159.1562 H   0  0  0  0  0  0  0  0  0  0  0  0
  152.6418  144.5475  158.3275 H   0  0  0  0  0  0  0  0  0  0  0  0
  153.9425  142.8156  161.0237 H   0  0  0  0  0  0  0  0  0  0  0  0
  155.0948  140.8718  161.9839 H   0  0  0  0  0  0  0  0  0  0  0  0
  155.6737  139.7806  160.7198 H   0  0  0  0  0  0  0  0  0  0  0  0
  154.2985  139.3152  161.7299 H   0  0  0  0  0  0  0  0  0  0  0  0
  151.4643  138.2419  154.6580 H   0  0  0  0  0  0  0  0  0  0  0  0
  149.8771  138.5658  155.3554 H   0  0  0  0  0  0  0  0  0  0  0  0
  1  2  1  0  0  0  0
  1 23  1  0  0  0  0
  1 24  1  0  0  0  0
  1 25  1  0  0  0  0
  2  3  1  0  0  0  0
  3  4  1  0  0  0  0
  3 26  1  0  0  0  0
  3 27  1  0  0  0  0
  4  5  1  0  0  0  0
  4 28  1  0  0  0  0
  4 29  1  0  0  0  0
  5 22  1  0  0  0  0
  5  6  2  0  0  0  0
  6  7  1  0  0  0  0
  7  8  1  0  0  0  0
  7 16  1  0  0  0  0
  8 15  1  0  0  0  0
  8  9  2  0  0  0  0
  9 10  1  0  0  0  0
 10 11  1  0  0  0  0
 10 12  2  0  0  0  0
 11 30  1  0  0  0  0
 11 31  1  0  0  0  0
 11 32  1  0  0  0  0
 12 13  1  0  0  0  0
 12 33  1  0  0  0  0
 13 14  1  0  0  0  0
 13 15  2  0  0  0  0
 14 34  1  0  0  0  0
 14 35  1  0  0  0  0
 14 36  1  0  0  0  0
 16 17  1  0  0  0  0
 16 18  1  0  0  0  0
 16 22  1  0  0  0  0
 18 19  1  0  0  0  0
 18 20  1  0  0  0  0
 18 21  1  0  0  0  0
 22 37  1  0  0  0  0
 22 38  1  0  0  0  0
M  CHG  1  17  -1
M  END
> <s_m_source_file>
AV-unprocessed.smi

> <i_m_source_file_index>
2618

> <i_lp_mmshare_version>
43012

> <i_f3d_flags>
0

> <s_epik_input>
W0NIM11PW0NIMl1bQ0gyXUMoW0NIMl0xKT1OTihbQ0BAXTEoW09IXSlDKEYpKEYpRiljMm5jKFtDSDNdKVtjSF1jKG4yKVtDSDNd

> <s_epik_cmdline>
J2VwaWtfcHl0aG9uJywgJy1waCcsICc3LjAnLCAnLXRuJywgJzgnLCAnLW1hJywgJzIwMCcsICctbWV0YWxfYmluZGluZycsICctaW1hZScsICc8aW5maWxlLm1hZT4nLCAnLW9tYWUnLCAnPG91dGZpbGUubWFlPic=

> <r_lp_tautomer_probability>
1

> <r_epik_Ionization_Penalty>
1.35617

> <r_epik_Ionization_Penalty_Charging>
1.35566

> <r_epik_Ionization_Penalty_Neutral>
0.000506926

> <r_epik_State_Penalty>
1.43411

> <r_epik_Charging_Adjusted_Penalty>
2.78977

> <i_epik_Tot_Q>
-1

> <i_epik_Tot_abs_Q>
1

> <r_epik_Metal_State_Penalty>
1.43499

> <b_epik_Metal_Only>
0

> <s_epik_Chemistry_Notes>
This compound has an imine and may undergo hydrolysis.

> <s_lp_Force_Field>
OPLS_2005

> <r_lp_Energy>
21.8368

> <b_lp_Chiralities_Consistent>
1

> <s_lp_Variant>
AV-unprocessed.smi:2618-4

> <Gold.Version>
5.8.1

> <Gold.Id.Protein>
6NUR|6NUR_protein|mol2

> <Gold.PLP.Fitness>
47.5060

> <Gold.PLP.PLP>
-38.8518

> <Gold.PLP.part.hbond>
-3.0000

> <Gold.PLP.part.metal>
0.0000

> <Gold.PLP.part.buried>
-2.0554

> <Gold.PLP.part.nonpolar>
-32.3101

> <Gold.PLP.part.repulsive>
0.0037

> <Gold.PLP.ligand.clash>
0.0065

> <Gold.PLP.ligand.torsion>
0.8400

> <Gold.PLP.Chemscore.Hbond>
3.4004

> <Gold.PLP.Chemscore.CHOScore>
0.0000

> <Gold.PLP.Chemscore.Metal>
0.0000

> <Gold.Chemscore.Hbonds>
donor molecule, donor type, donor heavy atom, donor atom, acceptor molecule, acceptor atom, score
      P1  H  7989  7998       L1    17  0.53
      P1  H  7997  8008       L1    17  1.40

> <Gold.PLP.Chemscore.Internal.Correction>
0.1394

> <Gold.Rescore>
     Score         DG    S(hbond)    S(metal)    S(lipo)     H(rot)  DE(clash)    DE(int)     intcor
     13.28     -17.61       1.93        0.00      80.83       1.47       0.78       3.54       ----

> <Gold.Chemscore.Fitness>
13.2822

> <Gold.Chemscore.DG>
-17.6110

> <Gold.Chemscore.ZeroCoef>
-5.4800

> <Gold.Chemscore.Hbond>
1.9304

> <Gold.Chemscore.Metal>
0.0000

> <Gold.Chemscore.Lipo>
80.8335

> <Gold.Chemscore.Internal_Hbond>
0.0000

> <Gold.Chemscore.DEClash>
0.7843

> <Gold.Chemscore.DEInternal>
3.5445

> <Gold.Chemscore.Rot>
1.4742

> <Gold.Chemscore.Internal.Correction>
   9.000000E+99

> <Gold.Chemscore.Hbonds>
donor molecule, donor type, donor heavy atom, donor atom, acceptor molecule, acceptor atom, score
      P1  H  7989  7998       L1    17  0.45
      P1  H  7997  8008       L1    17  0.63

> <Gold.Chemscore.Hbond.Weighted>
-6.4475

> <Gold.Chemscore.Metal.Weighted>
-0.0000

> <Gold.Chemscore.Lipo.Weighted>
-9.4575

> <Gold.Chemscore.Internal_Hbond.Weighted>
0.0000

> <Gold.Chemscore.DEClash.Weighted>
0.7843

> <Gold.Chemscore.DEInternal.Weighted>
3.5445

> <Gold.Chemscore.Rot.Weighted>
3.7740

> <Gold.Chemscore.Internal.Correction.Weighted>
   9.000000E+99

> <Gold.Protein.RotatedTorsions>
[ 6907 6896 6895 6894 ] final -166.16 input  -60.11 | X-H torsion
[ 7974 7965 7964 7962 ] final  -95.42 input  175.53 | X-H torsion
[ 8008 7997 7996 7995 ] final  -24.35 input   59.86 | X-H torsion
[ 10167 10162 10161 10158 ] final  -84.65 input  -65.29 | X-H torsion
[ 10718 10713 10712 10709 ] final  -87.62 input   66.30 | X-H torsion
[ 10763 10752 10751 10750 ] final  -43.51 input  -60.55 | X-H torsion
[ 11005 11000 10999 10996 ] final   22.64 input  -57.11 | X-H torsion

> <Gold.Protein.ActiveResidues>
 VAL166  LYS551  ARG553  GLY616  TRP617  ASP618  TYR619  PRO620  LYS621  CYS622 
 ASP623  PHE694  ASN695  SER759  ASP760  ASP761  ALA762  ILE779  LEU786  VAL792 
 PHE793  MET794  SER795  GLU796  ALA797  LYS798  CYS799  TRP800  GLU811  SER814 

> <Gold.Protein.RotatedAtoms>
  151.4391  133.3648  159.2779 H   0  0  0  0  0  0  0  0  0  0  0  0  # atno 6907 bound_to 6896
  150.9170  134.8589  159.7474 H   0  0  0  0  0  0  0  0  0  0  0  0  # atno 6908 bound_to 6896
  152.4962  134.4326  159.9569 H   0  0  0  0  0  0  0  0  0  0  0  0  # atno 6909 bound_to 6896
  145.3602  140.9490  143.2505 H   0  0  0  0  0  0  0  0  0  0  0  0  # atno 7974 bound_to 7965
  154.4534  140.1956  156.0450 H   0  0  0  0  0  0  0  0  0  0  0  0  # atno 8008 bound_to 7997
  156.0696  140.3286  155.7532 H   0  0  0  0  0  0  0  0  0  0  0  0  # atno 8009 bound_to 7997
  155.5284  140.0576  157.2884 H   0  0  0  0  0  0  0  0  0  0  0  0  # atno 8010 bound_to 7997
  140.4112  143.2622  151.9015 H   0  0  0  0  0  0  0  0  0  0  0  0  # atno 10167 bound_to 10162
  155.9985  130.4806  150.4894 H   0  0  0  0  0  0  0  0  0  0  0  0  # atno 10718 bound_to 10713
  153.9967  135.6698  153.4757 H   0  0  0  0  0  0  0  0  0  0  0  0  # atno 10763 bound_to 10752
  153.0681  135.4990  154.8240 H   0  0  0  0  0  0  0  0  0  0  0  0  # atno 10764 bound_to 10752
  154.7077  135.3091  154.9208 H   0  0  0  0  0  0  0  0  0  0  0  0  # atno 10765 bound_to 10752
  140.3784  134.1947  155.7664 H   0  0  0  0  0  0  0  0  0  0  0  0  # atno 11005 bound_to 11000
  144.8652  139.5119  143.6794 LP  0  0  0  0  0  0  0  0  0  0  0  0  # atno 17320 bound_to 7965
  146.2930  139.7195  142.9147 LP  0  0  0  0  0  0  0  0  0  0  0  0  # atno 17321 bound_to 7965
  139.4782  144.5534  151.8350 LP  0  0  0  0  0  0  0  0  0  0  0  0  # atno 17342 bound_to 10162
  140.4635  144.1688  150.5909 LP  0  0  0  0  0  0  0  0  0  0  0  0  # atno 17343 bound_to 10162
  157.2891  131.0622  151.2146 LP  0  0  0  0  0  0  0  0  0  0  0  0  # atno 17370 bound_to 10713
  157.3165  130.6916  149.6245 LP  0  0  0  0  0  0  0  0  0  0  0  0  # atno 17371 bound_to 10713
  141.1932  133.8157  157.0810 LP  0  0  0  0  0  0  0  0  0  0  0  0  # atno 17394 bound_to 11000
  140.0498  134.9811  157.1115 LP  0  0  0  0  0  0  0  0  0  0  0  0  # atno 17395 bound_to 11000

$$$$
