AV-unprocessed.smi:3129|AV-procd|sdf|11923|dock4
  -GOLD-   2272017303D 1   1.00000     0.00000
 Structure written by MMmdl.
 40 40  0  0  0  0  0  0  0  0  2 V2000
  151.9314  139.3359  155.6837 C   0  0  0  0  0  0  0  0  0  0  0  0
  150.7764  138.5642  155.0215 C   0  0  0  0  0  0  0  0  0  0  0  0
  151.3123  137.3598  154.2336 C   0  0  0  0  0  0  0  0  0  0  0  0
  149.9090  139.4641  154.1203 C   0  0  0  0  0  0  0  0  0  0  0  0
  148.7928  138.7270  153.5413 N   0  0  0  0  0  0  0  0  0  0  0  0
  147.5138  139.1263  153.5882 C   0  0  0  0  0  0  0  0  0  0  0  0
  147.1528  140.1695  154.1344 O   0  0  0  0  0  0  0  0  0  0  0  0
  146.4838  138.1979  152.9288 C   0  0  1  0  0  0  0  0  0  0  0  0
  146.3762  138.5157  151.4295 C   0  0  0  0  0  0  0  0  0  0  0  0
  146.8341  136.7715  153.1124 N   0  3  0  0  0  0  0  0  0  0  0  0
  145.7359  135.8147  152.8520 C   0  0  0  0  0  0  0  0  0  0  0  0
  145.4868  135.6449  151.3430 C   0  0  0  0  0  0  0  0  0  0  0  0
  145.3008  134.2576  150.9500 N   0  0  0  0  0  0  0  0  0  0  0  0
  144.1377  133.6311  150.5533 C   0  0  0  0  0  0  0  0  0  0  0  0
  144.4434  132.3241  150.3033 C   0  0  0  0  0  0  0  0  0  0  0  0
  145.8335  132.2403  150.5937 C   0  0  0  0  0  0  0  0  0  0  0  0
  146.3413  133.3964  150.9890 N   0  0  0  0  0  0  0  0  0  0  0  0
  152.5928  139.7753  154.9362 H   0  0  0  0  0  0  0  0  0  0  0  0
  152.5326  138.6771  156.3111 H   0  0  0  0  0  0  0  0  0  0  0  0
  151.5662  140.1419  156.3203 H   0  0  0  0  0  0  0  0  0  0  0  0
  150.1410  138.1736  155.8174 H   0  0  0  0  0  0  0  0  0  0  0  0
  151.9623  137.6777  153.4176 H   0  0  0  0  0  0  0  0  0  0  0  0
  150.4979  136.7765  153.8028 H   0  0  0  0  0  0  0  0  0  0  0  0
  151.8874  136.6933  154.8769 H   0  0  0  0  0  0  0  0  0  0  0  0
  149.5256  140.3104  154.6929 H   0  0  0  0  0  0  0  0  0  0  0  0
  150.5154  139.8754  153.3117 H   0  0  0  0  0  0  0  0  0  0  0  0
  149.0099  137.8540  153.0827 H   0  0  0  0  0  0  0  0  0  0  0  0
  145.5065  138.3700  153.3833 H   0  0  0  0  0  0  0  0  0  0  0  0
  146.0883  139.5546  151.2624 H   0  0  0  0  0  0  0  0  0  0  0  0
  145.6230  137.8894  150.9501 H   0  0  0  0  0  0  0  0  0  0  0  0
  147.3232  138.3465  150.9148 H   0  0  0  0  0  0  0  0  0  0  0  0
  147.5923  136.5487  152.4840 H   0  0  0  0  0  0  0  0  0  0  0  0
  145.9628  134.8482  153.3037 H   0  0  0  0  0  0  0  0  0  0  0  0
  144.8278  136.1782  153.3336 H   0  0  0  0  0  0  0  0  0  0  0  0
  144.5979  136.2032  151.0466 H   0  0  0  0  0  0  0  0  0  0  0  0
  146.3209  136.0598  150.7759 H   0  0  0  0  0  0  0  0  0  0  0  0
  143.1993  134.1613  150.4797 H   0  0  0  0  0  0  0  0  0  0  0  0
  143.7744  131.5447  149.9696 H   0  0  0  0  0  0  0  0  0  0  0  0
  146.4833  131.3795  150.5334 H   0  0  0  0  0  0  0  0  0  0  0  0
  147.1542  136.6471  154.0628 H   0  0  0  0  0  0  0  0  0  0  0  0
  1  2  1  0  0  0  0
  1 18  1  0  0  0  0
  1 19  1  0  0  0  0
  1 20  1  0  0  0  0
  2  3  1  0  0  0  0
  2  4  1  0  0  0  0
  2 21  1  0  0  0  0
  3 22  1  0  0  0  0
  3 23  1  0  0  0  0
  3 24  1  0  0  0  0
  4  5  1  0  0  0  0
  4 25  1  0  0  0  0
  4 26  1  0  0  0  0
  5  6  1  0  0  0  0
  5 27  1  0  0  0  0
  6  7  2  0  0  0  0
  6  8  1  0  0  0  0
  8  9  1  0  0  0  0
  8 10  1  0  0  0  0
  8 28  1  0  0  0  0
  9 29  1  0  0  0  0
  9 30  1  0  0  0  0
  9 31  1  0  0  0  0
 10 11  1  0  0  0  0
 10 32  1  0  0  0  0
 10 40  1  0  0  0  0
 11 12  1  0  0  0  0
 11 33  1  0  0  0  0
 11 34  1  0  0  0  0
 12 13  1  0  0  0  0
 12 35  1  0  0  0  0
 12 36  1  0  0  0  0
 13 17  1  0  0  0  0
 13 14  1  0  0  0  0
 14 15  2  0  0  0  0
 14 37  1  0  0  0  0
 15 16  1  0  0  0  0
 15 38  1  0  0  0  0
 16 17  2  0  0  0  0
 16 39  1  0  0  0  0
M  CHG  1  10   1
M  END
> <s_m_source_file>
AV-unprocessed.smi

> <i_m_source_file_index>
3129

> <i_lp_mmshare_version>
43012

> <i_f3d_flags>
0

> <s_epik_input>
W0NIM11bQ0hdKFtDSDNdKVtDSDJdW05IXUMoPU8pW0NASF0oW0NIM10pW05IXVtDSDJdW0NIMl1uMVtjSF1bY0hdW2NIXW4x

> <s_epik_cmdline>
J2VwaWtfcHl0aG9uJywgJy1waCcsICc3LjAnLCAnLXRuJywgJzgnLCAnLW1hJywgJzIwMCcsICctbWV0YWxfYmluZGluZycsICctaW1hZScsICc8aW5maWxlLm1hZT4nLCAnLW9tYWUnLCAnPG91dGZpbGUubWFlPic=

> <r_lp_tautomer_probability>
1

> <r_epik_Ionization_Penalty>
0.20724

> <r_epik_Ionization_Penalty_Charging>
0.207237

> <r_epik_Ionization_Penalty_Neutral>
3.32432e-06

> <r_epik_State_Penalty>
0.197234

> <r_epik_Charging_Adjusted_Penalty>
0.404471

> <i_epik_Tot_Q>
1

> <i_epik_Tot_abs_Q>
1

> <r_epik_Metal_State_Penalty>
0.197522

> <b_epik_Metal_Only>
0

> <s_lp_Force_Field>
OPLS_2005

> <r_lp_Energy>
6.88256

> <b_lp_Chiralities_Consistent>
1

> <s_lp_Variant>
AV-unprocessed.smi:3129-2

> <Gold.Version>
5.8.1

> <Gold.Id.Protein>
6NUR|6NUR_protein|mol2

> <Gold.PLP.Fitness>
46.7378

> <Gold.PLP.PLP>
-34.3237

> <Gold.PLP.part.hbond>
-2.9931

> <Gold.PLP.part.metal>
0.0000

> <Gold.PLP.part.buried>
-0.1498

> <Gold.PLP.part.nonpolar>
-32.5738

> <Gold.PLP.part.repulsive>
0.4242

> <Gold.PLP.ligand.clash>
0.0000

> <Gold.PLP.ligand.torsion>
1.3241

> <Gold.PLP.Chemscore.Hbond>
2.9588

> <Gold.PLP.Chemscore.CHOScore>
2.0000

> <Gold.PLP.Chemscore.Metal>
0.0000

> <Gold.Chemscore.Hbonds>
donor molecule, donor type, donor heavy atom, donor atom, acceptor molecule, acceptor atom, score
      L1  H     5    27       P1  7948  1.00
      L1  H    10    32       P1  7948  1.95
      L1  C    14    37       P1 10186  1.00
      L1  C    16    39       P1 10747  0.94

> <Gold.PLP.Chemscore.Internal.Correction>
0.1860

> <Gold.Rescore>
     Score         DG    S(hbond)    S(metal)    S(lipo)     H(rot)  DE(clash)    DE(int)     intcor
     13.36     -15.51       1.78        0.00      83.63       2.22       0.70       1.45       ----

> <Gold.Chemscore.Fitness>
13.3560

> <Gold.Chemscore.DG>
-15.5126

> <Gold.Chemscore.ZeroCoef>
-5.4800

> <Gold.Chemscore.Hbond>
1.7794

> <Gold.Chemscore.Metal>
0.0000

> <Gold.Chemscore.Lipo>
83.6336

> <Gold.Chemscore.Internal_Hbond>
0.0000

> <Gold.Chemscore.DEClash>
0.7037

> <Gold.Chemscore.DEInternal>
1.4529

> <Gold.Chemscore.Rot>
2.2249

> <Gold.Chemscore.Internal.Correction>
   9.000000E+99

> <Gold.Chemscore.Hbonds>
donor molecule, donor type, donor heavy atom, donor atom, acceptor molecule, acceptor atom, score
      L1  H     5    27       P1  7948  0.96
      L1  H    10    32       P1  7948  0.92

> <Gold.Chemscore.Hbond.Weighted>
-5.9432

> <Gold.Chemscore.Metal.Weighted>
-0.0000

> <Gold.Chemscore.Lipo.Weighted>
-9.7851

> <Gold.Chemscore.Internal_Hbond.Weighted>
0.0000

> <Gold.Chemscore.DEClash.Weighted>
0.7037

> <Gold.Chemscore.DEInternal.Weighted>
1.4529

> <Gold.Chemscore.Rot.Weighted>
5.6957

> <Gold.Chemscore.Internal.Correction.Weighted>
   9.000000E+99

> <Gold.Protein.RotatedTorsions>
[ 6907 6896 6895 6894 ] final -106.41 input  -60.11 | X-H torsion
[ 7974 7965 7964 7962 ] final   42.05 input  175.53 | X-H torsion
[ 8008 7997 7996 7995 ] final   77.76 input   59.86 | X-H torsion
[ 10167 10162 10161 10158 ] final  -39.51 input  -65.29 | X-H torsion
[ 10718 10713 10712 10709 ] final  -32.40 input   66.30 | X-H torsion
[ 10763 10752 10751 10750 ] final  -33.78 input  -60.55 | X-H torsion
[ 11005 11000 10999 10996 ] final  157.57 input  -57.11 | X-H torsion

> <Gold.Protein.ActiveResidues>
 VAL166  LYS551  ARG553  GLY616  TRP617  ASP618  TYR619  PRO620  LYS621  CYS622 
 ASP623  PHE694  ASN695  SER759  ASP760  ASP761  ALA762  ILE779  LEU786  VAL792 
 PHE793  MET794  SER795  GLU796  ALA797  LYS798  CYS799  TRP800  GLU811  SER814 

> <Gold.Protein.RotatedAtoms>
  150.7388  133.9981  159.3628 H   0  0  0  0  0  0  0  0  0  0  0  0  # atno 6907 bound_to 6896
  151.7933  135.0727  160.0399 H   0  0  0  0  0  0  0  0  0  0  0  0  # atno 6908 bound_to 6896
  152.3192  133.5799  159.5769 H   0  0  0  0  0  0  0  0  0  0  0  0  # atno 6909 bound_to 6896
  146.0773  139.5345  142.9559 H   0  0  0  0  0  0  0  0  0  0  0  0  # atno 7974 bound_to 7965
  155.8462  140.3460  155.5664 H   0  0  0  0  0  0  0  0  0  0  0  0  # atno 8008 bound_to 7997
  155.8087  140.0895  157.1936 H   0  0  0  0  0  0  0  0  0  0  0  0  # atno 8009 bound_to 7997
  154.4006  140.1452  156.3348 H   0  0  0  0  0  0  0  0  0  0  0  0  # atno 8010 bound_to 7997
  140.7062  143.3210  151.2793 H   0  0  0  0  0  0  0  0  0  0  0  0  # atno 10167 bound_to 10162
  156.3754  130.4347  149.7511 H   0  0  0  0  0  0  0  0  0  0  0  0  # atno 10718 bound_to 10713
  153.8358  135.6862  153.4809 H   0  0  0  0  0  0  0  0  0  0  0  0  # atno 10763 bound_to 10752
  153.1483  135.4628  154.9597 H   0  0  0  0  0  0  0  0  0  0  0  0  # atno 10764 bound_to 10752
  154.7867  135.3287  154.7816 H   0  0  0  0  0  0  0  0  0  0  0  0  # atno 10765 bound_to 10752
  140.1782  134.8494  157.2772 H   0  0  0  0  0  0  0  0  0  0  0  0  # atno 11005 bound_to 11000
  145.6283  141.0309  143.1877 LP  0  0  0  0  0  0  0  0  0  0  0  0  # atno 17320 bound_to 7965
  144.7270  139.7845  143.7361 LP  0  0  0  0  0  0  0  0  0  0  0  0  # atno 17321 bound_to 7965
  139.6663  144.0099  152.2725 LP  0  0  0  0  0  0  0  0  0  0  0  0  # atno 17342 bound_to 10162
  139.9683  144.6511  150.8014 LP  0  0  0  0  0  0  0  0  0  0  0  0  # atno 17343 bound_to 10162
  156.4623  130.7957  151.2977 LP  0  0  0  0  0  0  0  0  0  0  0  0  # atno 17370 bound_to 10713
  157.7488  131.0062  150.3142 LP  0  0  0  0  0  0  0  0  0  0  0  0  # atno 17371 bound_to 10713
  140.2298  134.3923  155.7527 LP  0  0  0  0  0  0  0  0  0  0  0  0  # atno 17394 bound_to 11000
  141.2221  133.7209  156.8622 LP  0  0  0  0  0  0  0  0  0  0  0  0  # atno 17395 bound_to 11000

$$$$
