AV-unprocessed.smi:247|AV-procd|sdf|1888|dock2
  -GOLD-   2262020543D 1   1.00000     0.00000
 Structure written by MMmdl.
 61 65  0  0  0  0  0  0  0  0  1 V2000
  147.2214  131.2628  152.1283 O   0  0  0  0  0  0  0  0  0  0  0  0
  146.9697  132.6489  152.0074 C   0  0  0  0  0  0  0  0  0  0  0  0
  145.7045  132.9774  151.1666 C   0  0  0  0  0  0  0  0  0  0  0  0
  145.5065  134.5263  151.1586 C   0  0  0  0  0  0  0  0  0  0  0  0
  145.3842  135.1413  152.4732 N   0  0  0  0  0  0  0  0  0  0  0  0
  146.4055  135.3953  153.3625 C   0  0  0  0  0  0  0  0  0  0  0  0
  146.0461  135.9656  154.4797 N   0  0  0  0  0  0  0  0  0  0  0  0
  144.6758  136.1378  154.3409 C   0  0  0  0  0  0  0  0  0  0  0  0
  143.6667  136.7004  155.1635 C   0  0  0  0  0  0  0  0  0  0  0  0
  143.9509  137.2242  156.3764 N   0  0  0  0  0  0  0  0  0  0  0  0
  143.2640  136.5890  157.4962 C   0  0  0  0  0  0  0  0  0  0  0  0
  142.9444  137.7005  158.5063 C   0  0  0  0  0  0  0  0  0  0  0  0
  143.7663  138.8962  158.0294 C   0  0  0  0  0  0  0  0  0  0  0  0
  143.8092  138.6697  156.5160 C   0  0  1  0  0  0  0  0  0  0  0  0
  144.8723  139.4757  155.7198 C   0  0  2  0  0  0  0  0  0  0  0  0
  146.3260  139.1863  156.1640 C   0  0  0  0  0  0  0  0  0  0  0  0
  147.2454  139.8972  155.3423 O   0  0  0  0  0  0  0  0  0  0  0  0
  147.1083  141.3091  155.4513 C   0  0  0  0  0  0  0  0  0  0  0  0
  145.7146  141.7306  154.9640 C   0  0  0  0  0  0  0  0  0  0  0  0
  144.6223  140.9983  155.7565 C   0  0  1  0  0  0  0  0  0  0  0  0
  143.3665  141.3156  155.1896 O   0  0  0  0  0  0  0  0  0  0  0  0
  142.3916  136.7097  154.6931 N   0  0  0  0  0  0  0  0  0  0  0  0
  142.1240  136.2012  153.4861 C   0  0  0  0  0  0  0  0  0  0  0  0
  142.9638  135.6473  152.6079 N   0  0  0  0  0  0  0  0  0  0  0  0
  144.2426  135.6340  153.0834 C   0  0  0  0  0  0  0  0  0  0  0  0
  145.8611  132.4022  149.7350 C   0  0  0  0  0  0  0  0  0  0  0  0
  144.5566  132.4921  148.9232 C   0  0  0  0  0  0  0  0  0  0  0  0
  143.5146  131.8097  149.6099 O   0  0  0  0  0  0  0  0  0  0  0  0
  143.2167  132.3794  150.8788 C   0  0  0  0  0  0  0  0  0  0  0  0
  144.4531  132.3120  151.7967 C   0  0  0  0  0  0  0  0  0  0  0  0
  148.0208  131.0613  151.6663 H   0  0  0  0  0  0  0  0  0  0  0  0
  146.8758  133.0625  153.0121 H   0  0  0  0  0  0  0  0  0  0  0  0
  147.8571  133.0978  151.5620 H   0  0  0  0  0  0  0  0  0  0  0  0
  146.3252  135.0296  150.6468 H   0  0  0  0  0  0  0  0  0  0  0  0
  144.6130  134.7799  150.5868 H   0  0  0  0  0  0  0  0  0  0  0  0
  147.4344  135.1373  153.1583 H   0  0  0  0  0  0  0  0  0  0  0  0
  142.3582  136.0618  157.1924 H   0  0  0  0  0  0  0  0  0  0  0  0
  143.9382  135.8563  157.9402 H   0  0  0  0  0  0  0  0  0  0  0  0
  141.8822  137.9437  158.4571 H   0  0  0  0  0  0  0  0  0  0  0  0
  143.1742  137.4143  159.5331 H   0  0  0  0  0  0  0  0  0  0  0  0
  143.3183  139.8513  158.3055 H   0  0  0  0  0  0  0  0  0  0  0  0
  144.7624  138.8476  158.4686 H   0  0  0  0  0  0  0  0  0  0  0  0
  142.8258  138.9406  156.1286 H   0  0  0  0  0  0  0  0  0  0  0  0
  144.7965  139.1661  154.6760 H   0  0  0  0  0  0  0  0  0  0  0  0
  146.4918  139.4585  157.2065 H   0  0  0  0  0  0  0  0  0  0  0  0
  146.5501  138.1238  156.0766 H   0  0  0  0  0  0  0  0  0  0  0  0
  147.2743  141.6257  156.4822 H   0  0  0  0  0  0  0  0  0  0  0  0
  147.8779  141.7854  154.8436 H   0  0  0  0  0  0  0  0  0  0  0  0
  145.5947  142.8103  155.0603 H   0  0  0  0  0  0  0  0  0  0  0  0
  145.6238  141.4990  153.9016 H   0  0  0  0  0  0  0  0  0  0  0  0
  144.6313  141.3522  156.7880 H   0  0  0  0  0  0  0  0  0  0  0  0
  143.3313  140.9581  154.3155 H   0  0  0  0  0  0  0  0  0  0  0  0
  141.0893  136.2458  153.1798 H   0  0  0  0  0  0  0  0  0  0  0  0
  146.6758  132.8882  149.1998 H   0  0  0  0  0  0  0  0  0  0  0  0
  146.1395  131.3492  149.7879 H   0  0  0  0  0  0  0  0  0  0  0  0
  144.2692  133.5265  148.7332 H   0  0  0  0  0  0  0  0  0  0  0  0
  144.6950  132.0234  147.9489 H   0  0  0  0  0  0  0  0  0  0  0  0
  142.8564  133.4008  150.7569 H   0  0  0  0  0  0  0  0  0  0  0  0
  142.3966  131.8167  151.3248 H   0  0  0  0  0  0  0  0  0  0  0  0
  144.6478  131.2585  151.9989 H   0  0  0  0  0  0  0  0  0  0  0  0
  144.2252  132.7643  152.7626 H   0  0  0  0  0  0  0  0  0  0  0  0
  1  2  1  0  0  0  0
  1 31  1  0  0  0  0
  2  3  1  0  0  0  0
  2 32  1  0  0  0  0
  2 33  1  0  0  0  0
  3 30  1  0  0  0  0
  3  4  1  0  0  0  0
  3 26  1  0  0  0  0
  4  5  1  0  0  0  0
  4 34  1  0  0  0  0
  4 35  1  0  0  0  0
  5 25  1  0  0  0  0
  5  6  1  0  0  0  0
  6  7  2  0  0  0  0
  6 36  1  0  0  0  0
  7  8  1  0  0  0  0
  8 25  2  0  0  0  0
  8  9  1  0  0  0  0
  9 10  1  0  0  0  0
  9 22  2  0  0  0  0
 10 14  1  0  0  0  0
 10 11  1  0  0  0  0
 11 12  1  0  0  0  0
 11 37  1  0  0  0  0
 11 38  1  0  0  0  0
 12 13  1  0  0  0  0
 12 39  1  0  0  0  0
 12 40  1  0  0  0  0
 13 14  1  0  0  0  0
 13 41  1  0  0  0  0
 13 42  1  0  0  0  0
 14 15  1  0  0  0  0
 14 43  1  0  0  0  0
 15 20  1  0  0  0  0
 15 16  1  0  0  0  0
 15 44  1  0  0  0  0
 16 17  1  0  0  0  0
 16 45  1  0  0  0  0
 16 46  1  0  0  0  0
 17 18  1  0  0  0  0
 18 19  1  0  0  0  0
 18 47  1  0  0  0  0
 18 48  1  0  0  0  0
 19 20  1  0  0  0  0
 19 49  1  0  0  0  0
 19 50  1  0  0  0  0
 20 21  1  0  0  0  0
 20 51  1  0  0  0  0
 21 52  1  0  0  0  0
 22 23  1  0  0  0  0
 23 24  2  0  0  0  0
 23 53  1  0  0  0  0
 24 25  1  0  0  0  0
 26 27  1  0  0  0  0
 26 54  1  0  0  0  0
 26 55  1  0  0  0  0
 27 28  1  0  0  0  0
 27 56  1  0  0  0  0
 27 57  1  0  0  0  0
 28 29  1  0  0  0  0
 29 30  1  0  0  0  0
 29 58  1  0  0  0  0
 29 59  1  0  0  0  0
 30 60  1  0  0  0  0
 30 61  1  0  0  0  0
M  END
> <s_m_source_file>
AV-unprocessed.smi

> <i_m_source_file_index>
247

> <i_lp_mmshare_version>
43012

> <i_f3d_flags>
0

> <s_epik_input>
W0NIMl0xW0NIMl1PW0NIMl1bQ0gyXUMxKFtDSDJdW09IXSlbQ0gyXW4oW2NIXW4yKWMoYzIzKW5bY0hdbmMzTjRbQ0gyXVtDSDJdW0NIMl1bQ0BIXTRbQ0BASF01W0NIMl1PW0NIMl1bQ0gyXVtDQEhdNVtPSF0=

> <s_epik_cmdline>
J2VwaWtfcHl0aG9uJywgJy1waCcsICc3LjAnLCAnLXRuJywgJzgnLCAnLW1hJywgJzIwMCcsICctbWV0YWxfYmluZGluZycsICctaW1hZScsICc8aW5maWxlLm1hZT4nLCAnLW9tYWUnLCAnPG91dGZpbGUubWFlPic=

> <r_lp_tautomer_probability>
1

> <r_epik_Ionization_Penalty>
0.00362597

> <r_epik_Ionization_Penalty_Charging>
0

> <r_epik_Ionization_Penalty_Neutral>
0.00362597

> <r_epik_State_Penalty>
0.00241433

> <r_epik_Charging_Adjusted_Penalty>
0.00241433

> <i_epik_Tot_Q>
0

> <i_epik_Tot_abs_Q>
0

> <r_epik_Metal_State_Penalty>
-0

> <b_epik_Metal_Only>
0

> <s_lp_Force_Field>
OPLS_2005

> <r_lp_Energy>
58.6296

> <b_lp_Chiralities_Consistent>
1

> <s_lp_Variant>
AV-unprocessed.smi:247-1

> <Gold.Version>
5.8.1

> <Gold.Id.Protein>
6NUR|6NUR_protein|mol2

> <Gold.PLP.Fitness>
40.1052

> <Gold.PLP.PLP>
-28.5718

> <Gold.PLP.part.hbond>
-3.1618

> <Gold.PLP.part.metal>
0.0000

> <Gold.PLP.part.buried>
-3.5556

> <Gold.PLP.part.nonpolar>
-23.3568

> <Gold.PLP.part.repulsive>
0.6980

> <Gold.PLP.ligand.clash>
0.0000

> <Gold.PLP.ligand.torsion>
0.2832

> <Gold.PLP.Chemscore.Hbond>
2.9920

> <Gold.PLP.Chemscore.CHOScore>
0.9696

> <Gold.PLP.Chemscore.Metal>
0.0000

> <Gold.Chemscore.Hbonds>
donor molecule, donor type, donor heavy atom, donor atom, acceptor molecule, acceptor atom, score
      L1  H     1    31       P1 10747  1.00
      L1  H    21    52       P1 10175  1.00
      P1  H 10785 10796       L1    28  1.00
      L1  C     6    36       P1  7948  0.99

> <Gold.PLP.Chemscore.Internal.Correction>
0.2150

> <Gold.Rescore>
     Score         DG    S(hbond)    S(metal)    S(lipo)     H(rot)  DE(clash)    DE(int)     intcor
     13.99     -14.97       2.80        0.00      71.93       3.23       0.57       0.41       ----

> <Gold.Chemscore.Fitness>
13.9924

> <Gold.Chemscore.DG>
-14.9703

> <Gold.Chemscore.ZeroCoef>
-5.4800

> <Gold.Chemscore.Hbond>
2.7956

> <Gold.Chemscore.Metal>
0.0000

> <Gold.Chemscore.Lipo>
71.9339

> <Gold.Chemscore.Internal_Hbond>
0.0000

> <Gold.Chemscore.DEClash>
0.5658

> <Gold.Chemscore.DEInternal>
0.4121

> <Gold.Chemscore.Rot>
3.2278

> <Gold.Chemscore.Internal.Correction>
   9.000000E+99

> <Gold.Chemscore.Hbonds>
donor molecule, donor type, donor heavy atom, donor atom, acceptor molecule, acceptor atom, score
      L1  H     1    31       P1 10747  0.98
      L1  H    21    52       P1 10175  0.74
      P1  H 10785 10796       L1    28  0.66

> <Gold.Chemscore.Hbond.Weighted>
-9.3373

> <Gold.Chemscore.Metal.Weighted>
-0.0000

> <Gold.Chemscore.Lipo.Weighted>
-8.4163

> <Gold.Chemscore.Internal_Hbond.Weighted>
0.0000

> <Gold.Chemscore.DEClash.Weighted>
0.5658

> <Gold.Chemscore.DEInternal.Weighted>
0.4121

> <Gold.Chemscore.Rot.Weighted>
8.2633

> <Gold.Chemscore.Internal.Correction.Weighted>
   9.000000E+99

> <Gold.Protein.RotatedTorsions>
[ 6907 6896 6895 6894 ] final   50.84 input  -60.11 | X-H torsion
[ 7974 7965 7964 7962 ] final   33.28 input  175.53 | X-H torsion
[ 8008 7997 7996 7995 ] final  -41.50 input   59.86 | X-H torsion
[ 10167 10162 10161 10158 ] final  -88.74 input  -65.29 | X-H torsion
[ 10718 10713 10712 10709 ] final  -54.15 input   66.30 | X-H torsion
[ 10763 10752 10751 10750 ] final   94.25 input  -60.55 | X-H torsion
[ 11005 11000 10999 10996 ] final -167.21 input  -57.11 | X-H torsion

> <Gold.Protein.ActiveResidues>
 VAL166  LYS551  ARG553  GLY616  TRP617  ASP618  TYR619  PRO620  LYS621  CYS622 
 ASP623  PHE694  ASN695  SER759  ASP760  ASP761  ALA762  ILE779  LEU786  VAL792 
 PHE793  MET794  SER795  GLU796  ALA797  LYS798  CYS799  TRP800  GLU811  SER814 

> <Gold.Protein.RotatedAtoms>
  152.3062  134.7552  160.0346 H   0  0  0  0  0  0  0  0  0  0  0  0  # atno 6907 bound_to 6896
  151.8048  133.3369  159.3546 H   0  0  0  0  0  0  0  0  0  0  0  0  # atno 6908 bound_to 6896
  150.7297  134.5649  159.5905 H   0  0  0  0  0  0  0  0  0  0  0  0  # atno 6909 bound_to 6896
  146.1431  139.6417  142.9150 H   0  0  0  0  0  0  0  0  0  0  0  0  # atno 7974 bound_to 7965
  154.4004  140.1498  156.3201 H   0  0  0  0  0  0  0  0  0  0  0  0  # atno 8008 bound_to 7997
  155.8537  140.3456  155.5689 H   0  0  0  0  0  0  0  0  0  0  0  0  # atno 8009 bound_to 7997
  155.7956  140.0863  157.1976 H   0  0  0  0  0  0  0  0  0  0  0  0  # atno 8010 bound_to 7997
  140.3717  143.2791  151.9492 H   0  0  0  0  0  0  0  0  0  0  0  0  # atno 10167 bound_to 10162
  156.1474  130.4152  150.0001 H   0  0  0  0  0  0  0  0  0  0  0  0  # atno 10718 bound_to 10713
  153.2395  135.4296  155.0683 H   0  0  0  0  0  0  0  0  0  0  0  0  # atno 10763 bound_to 10752
  154.8334  135.3399  154.6670 H   0  0  0  0  0  0  0  0  0  0  0  0  # atno 10764 bound_to 10752
  153.7094  135.7023  153.5098 H   0  0  0  0  0  0  0  0  0  0  0  0  # atno 10765 bound_to 10752
  140.5558  134.5383  157.5132 H   0  0  0  0  0  0  0  0  0  0  0  0  # atno 11005 bound_to 11000
  145.5001  141.0437  143.2545 LP  0  0  0  0  0  0  0  0  0  0  0  0  # atno 17320 bound_to 7965
  144.7815  139.6516  143.7152 LP  0  0  0  0  0  0  0  0  0  0  0  0  # atno 17321 bound_to 7965
  139.4803  144.5900  151.7787 LP  0  0  0  0  0  0  0  0  0  0  0  0  # atno 17342 bound_to 10162
  140.5026  144.1146  150.5975 LP  0  0  0  0  0  0  0  0  0  0  0  0  # atno 17343 bound_to 10162
  156.7868  130.9241  151.3646 LP  0  0  0  0  0  0  0  0  0  0  0  0  # atno 17370 bound_to 10713
  157.6628  130.8981  149.9868 LP  0  0  0  0  0  0  0  0  0  0  0  0  # atno 17371 bound_to 10713
  139.9432  134.7749  156.0626 LP  0  0  0  0  0  0  0  0  0  0  0  0  # atno 17394 bound_to 11000
  141.1144  133.6632  156.3058 LP  0  0  0  0  0  0  0  0  0  0  0  0  # atno 17395 bound_to 11000

$$$$
