AV-unprocessed.smi:919|AV-procd|sdf|4166|dock4
  -GOLD-   22720 2 73D 1   1.00000     0.00000
 Structure written by MMmdl.
 43 45  0  0  0  0  0  0  0  0  1 V2000
  147.3847  142.4583  154.5402 C   0  0  0  0  0  0  0  0  0  0  0  0
  148.4434  141.3946  154.5984 C   0  0  0  0  0  0  0  0  0  0  0  0
  149.6108  141.6629  155.1589 N   0  0  0  0  0  0  0  0  0  0  0  0
  150.3637  140.4890  155.0549 O   0  0  0  0  0  0  0  0  0  0  0  0
  149.6105  139.5488  154.4292 C   0  0  0  0  0  0  0  0  0  0  0  0
  150.2473  138.2170  154.2195 C   0  0  0  0  0  0  0  0  0  0  0  0
  148.3797  140.0563  154.1161 C   0  0  0  0  0  0  0  0  0  0  0  0
  147.2263  139.3820  153.4255 C   0  0  0  0  0  0  0  0  0  0  0  0
  146.9046  138.0240  154.0685 C   0  0  0  0  0  0  0  0  0  0  0  0
  146.9442  136.9491  153.0855 N   0  0  0  0  0  0  0  0  0  0  0  0
  145.8667  136.4102  152.4907 C   0  0  0  0  0  0  0  0  0  0  0  0
  144.7163  136.7929  152.6962 O   0  0  0  0  0  0  0  0  0  0  0  0
  146.1394  135.4042  151.6415 N   0  0  0  0  0  0  0  0  0  0  0  0
  145.1919  134.6189  150.8460 C   0  0  2  0  0  0  0  0  0  0  0  0
  144.0563  134.0551  151.7284 C   0  0  0  0  0  0  0  0  0  0  0  0
  144.1583  132.5357  151.5019 C   0  0  2  0  0  0  0  0  0  0  0  0
  145.4201  131.9929  152.1996 C   0  0  0  0  0  0  0  0  0  0  0  0
  146.5566  132.5040  151.2942 C   0  0  0  0  0  0  0  0  0  0  0  0
  145.7967  133.3285  150.2327 C   0  0  1  0  0  0  0  0  0  0  0  0
  144.5537  132.4680  150.0330 C   0  0  0  0  0  0  0  0  0  0  0  0
  146.8189  142.3981  153.6101 H   0  0  0  0  0  0  0  0  0  0  0  0
  147.8157  143.4586  154.5985 H   0  0  0  0  0  0  0  0  0  0  0  0
  146.6795  142.3498  155.3645 H   0  0  0  0  0  0  0  0  0  0  0  0
  149.6943  137.6294  153.4865 H   0  0  0  0  0  0  0  0  0  0  0  0
  150.2783  137.6535  155.1519 H   0  0  0  0  0  0  0  0  0  0  0  0
  151.2694  138.3291  153.8573 H   0  0  0  0  0  0  0  0  0  0  0  0
  146.3378  140.0138  153.4533 H   0  0  0  0  0  0  0  0  0  0  0  0
  147.4508  139.2409  152.3677 H   0  0  0  0  0  0  0  0  0  0  0  0
  147.5994  137.8098  154.8825 H   0  0  0  0  0  0  0  0  0  0  0  0
  145.9075  138.0469  154.5094 H   0  0  0  0  0  0  0  0  0  0  0  0
  147.8526  136.5754  152.8519 H   0  0  0  0  0  0  0  0  0  0  0  0
  147.1145  135.1737  151.5155 H   0  0  0  0  0  0  0  0  0  0  0  0
  144.7566  135.2428  150.0631 H   0  0  0  0  0  0  0  0  0  0  0  0
  144.1557  134.3167  152.7832 H   0  0  0  0  0  0  0  0  0  0  0  0
  143.0903  134.4303  151.3883 H   0  0  0  0  0  0  0  0  0  0  0  0
  143.2480  131.9942  151.7606 H   0  0  0  0  0  0  0  0  0  0  0  0
  145.5109  132.3545  153.2246 H   0  0  0  0  0  0  0  0  0  0  0  0
  145.4138  130.9027  152.2278 H   0  0  0  0  0  0  0  0  0  0  0  0
  147.3063  133.0768  151.8399 H   0  0  0  0  0  0  0  0  0  0  0  0
  147.0709  131.6642  150.8248 H   0  0  0  0  0  0  0  0  0  0  0  0
  146.3762  133.5046  149.3259 H   0  0  0  0  0  0  0  0  0  0  0  0
  144.7755  131.4557  149.6900 H   0  0  0  0  0  0  0  0  0  0  0  0
  143.8175  132.9186  149.3650 H   0  0  0  0  0  0  0  0  0  0  0  0
  1  2  1  0  0  0  0
  1 21  1  0  0  0  0
  1 22  1  0  0  0  0
  1 23  1  0  0  0  0
  2  7  1  0  0  0  0
  2  3  2  0  0  0  0
  3  4  1  0  0  0  0
  4  5  1  0  0  0  0
  5  6  1  0  0  0  0
  5  7  2  0  0  0  0
  6 24  1  0  0  0  0
  6 25  1  0  0  0  0
  6 26  1  0  0  0  0
  7  8  1  0  0  0  0
  8  9  1  0  0  0  0
  8 27  1  0  0  0  0
  8 28  1  0  0  0  0
  9 10  1  0  0  0  0
  9 29  1  0  0  0  0
  9 30  1  0  0  0  0
 10 11  1  0  0  0  0
 10 31  1  0  0  0  0
 11 12  2  0  0  0  0
 11 13  1  0  0  0  0
 13 14  1  0  0  0  0
 13 32  1  0  0  0  0
 14 19  1  0  0  0  0
 14 15  1  0  0  0  0
 14 33  1  0  0  0  0
 15 16  1  0  0  0  0
 15 34  1  0  0  0  0
 15 35  1  0  0  0  0
 16 20  1  0  0  0  0
 16 17  1  0  0  0  0
 16 36  1  0  0  0  0
 17 18  1  0  0  0  0
 17 37  1  0  0  0  0
 17 38  1  0  0  0  0
 18 19  1  0  0  0  0
 18 39  1  0  0  0  0
 18 40  1  0  0  0  0
 19 20  1  0  0  0  0
 19 41  1  0  0  0  0
 20 42  1  0  0  0  0
 20 43  1  0  0  0  0
M  END
> <s_m_source_file>
AV-unprocessed.smi

> <i_m_source_file_index>
919

> <i_lp_mmshare_version>
43012

> <i_f3d_flags>
0

> <s_epik_input>
W0NIM11jMW5vYyhbQ0gzXSljMVtDSDJdW0NIMl1bTkhdQyg9TylbTkhdW0NASF0oW0NIMl1bQ0BASF0yMylbQ0BASF0oW0NIMl0zKVtDSDJdW0NIMl0y

> <s_epik_cmdline>
J2VwaWtfcHl0aG9uJywgJy1waCcsICc3LjAnLCAnLXRuJywgJzgnLCAnLW1hJywgJzIwMCcsICctbWV0YWxfYmluZGluZycsICctaW1hZScsICc8aW5maWxlLm1hZT4nLCAnLW9tYWUnLCAnPG91dGZpbGUubWFlPic=

> <r_lp_tautomer_probability>
1

> <r_epik_Ionization_Penalty>
6.40771e-05

> <r_epik_Ionization_Penalty_Charging>
0

> <r_epik_Ionization_Penalty_Neutral>
6.40771e-05

> <r_epik_State_Penalty>
-0

> <r_epik_Charging_Adjusted_Penalty>
0

> <i_epik_Tot_Q>
0

> <i_epik_Tot_abs_Q>
0

> <r_epik_Metal_State_Penalty>
-0

> <b_epik_Metal_Only>
0

> <s_lp_Force_Field>
OPLS_2005

> <r_lp_Energy>
47.1923

> <b_lp_Chiralities_Consistent>
1

> <s_lp_Variant>
AV-unprocessed.smi:919-3

> <Gold.Version>
5.8.1

> <Gold.Id.Protein>
6NUR|6NUR_protein|mol2

> <Gold.PLP.Fitness>
40.9548

> <Gold.PLP.PLP>
-34.9411

> <Gold.PLP.part.hbond>
-3.1818

> <Gold.PLP.part.metal>
0.0000

> <Gold.PLP.part.buried>
0.2794

> <Gold.PLP.part.nonpolar>
-31.6844

> <Gold.PLP.part.repulsive>
0.4931

> <Gold.PLP.ligand.clash>
0.0000

> <Gold.PLP.ligand.torsion>
0.7209

> <Gold.PLP.Chemscore.Hbond>
2.4801

> <Gold.PLP.Chemscore.CHOScore>
0.0000

> <Gold.PLP.Chemscore.Metal>
0.0000

> <Gold.Chemscore.Hbonds>
donor molecule, donor type, donor heavy atom, donor atom, acceptor molecule, acceptor atom, score
      L1  H    10    31       P1  7948  0.98
      L1  H    13    32       P1  7948  0.58
      P1  H  7989  7998       L1     4  0.82

> <Gold.PLP.Chemscore.Internal.Correction>
0.0153

> <Gold.Rescore>
     Score         DG    S(hbond)    S(metal)    S(lipo)     H(rot)  DE(clash)    DE(int)     intcor
     14.70     -17.82       1.63        0.00      92.08       1.52       1.73       1.39       ----

> <Gold.Chemscore.Fitness>
14.7014

> <Gold.Chemscore.DG>
-17.8240

> <Gold.Chemscore.ZeroCoef>
-5.4800

> <Gold.Chemscore.Hbond>
1.6321

> <Gold.Chemscore.Metal>
0.0000

> <Gold.Chemscore.Lipo>
92.0846

> <Gold.Chemscore.Internal_Hbond>
0.0000

> <Gold.Chemscore.DEClash>
1.7284

> <Gold.Chemscore.DEInternal>
1.3941

> <Gold.Chemscore.Rot>
1.5161

> <Gold.Chemscore.Internal.Correction>
   9.000000E+99

> <Gold.Chemscore.Hbonds>
donor molecule, donor type, donor heavy atom, donor atom, acceptor molecule, acceptor atom, score
      L1  H    10    31       P1  7948  0.88
      L1  H    13    32       P1  7948  0.51
      P1  H  7989  7998       L1     4  0.05

> <Gold.Chemscore.Hbond.Weighted>
-5.4514

> <Gold.Chemscore.Metal.Weighted>
-0.0000

> <Gold.Chemscore.Lipo.Weighted>
-10.7739

> <Gold.Chemscore.Internal_Hbond.Weighted>
0.0000

> <Gold.Chemscore.DEClash.Weighted>
1.7284

> <Gold.Chemscore.DEInternal.Weighted>
1.3941

> <Gold.Chemscore.Rot.Weighted>
3.8813

> <Gold.Chemscore.Internal.Correction.Weighted>
   9.000000E+99

> <Gold.Protein.RotatedTorsions>
[ 6907 6896 6895 6894 ] final  -15.30 input  -60.11 | X-H torsion
[ 7974 7965 7964 7962 ] final  -15.65 input  175.53 | X-H torsion
[ 8008 7997 7996 7995 ] final  141.78 input   59.86 | X-H torsion
[ 10167 10162 10161 10158 ] final   40.44 input  -65.29 | X-H torsion
[ 10718 10713 10712 10709 ] final   17.33 input   66.30 | X-H torsion
[ 10763 10752 10751 10750 ] final   60.30 input  -60.55 | X-H torsion
[ 11005 11000 10999 10996 ] final  165.00 input  -57.11 | X-H torsion

> <Gold.Protein.ActiveResidues>
 VAL166  LYS551  ARG553  GLY616  TRP617  ASP618  TYR619  PRO620  LYS621  CYS622 
 ASP623  PHE694  ASN695  SER759  ASP760  ASP761  ALA762  ILE779  LEU786  VAL792 
 PHE793  MET794  SER795  GLU796  ALA797  LYS798  CYS799  TRP800  GLU811  SER814 

> <Gold.Protein.RotatedAtoms>
  151.3261  135.0830  159.9322 H   0  0  0  0  0  0  0  0  0  0  0  0  # atno 6907 bound_to 6896
  152.5245  133.9589  159.7718 H   0  0  0  0  0  0  0  0  0  0  0  0  # atno 6908 bound_to 6896
  150.9919  133.6088  159.2737 H   0  0  0  0  0  0  0  0  0  0  0  0  # atno 6909 bound_to 6896
  146.2022  140.3524  142.8419 H   0  0  0  0  0  0  0  0  0  0  0  0  # atno 7974 bound_to 7965
  156.2960  140.2306  156.4620 H   0  0  0  0  0  0  0  0  0  0  0  0  # atno 8008 bound_to 7997
  154.8010  140.0448  157.1293 H   0  0  0  0  0  0  0  0  0  0  0  0  # atno 8009 bound_to 7997
  154.9533  140.3045  155.5068 H   0  0  0  0  0  0  0  0  0  0  0  0  # atno 8010 bound_to 7997
  140.3742  144.2065  150.6132 H   0  0  0  0  0  0  0  0  0  0  0  0  # atno 10167 bound_to 10162
  157.0805  130.6386  149.5825 H   0  0  0  0  0  0  0  0  0  0  0  0  # atno 10718 bound_to 10713
  152.9917  135.5541  154.5851 H   0  0  0  0  0  0  0  0  0  0  0  0  # atno 10763 bound_to 10752
  154.5224  135.2808  155.1253 H   0  0  0  0  0  0  0  0  0  0  0  0  # atno 10764 bound_to 10752
  154.2601  135.6382  153.5324 H   0  0  0  0  0  0  0  0  0  0  0  0  # atno 10765 bound_to 10752
  140.2516  134.7972  157.3507 H   0  0  0  0  0  0  0  0  0  0  0  0  # atno 11005 bound_to 11000
  144.8710  140.7272  143.6047 LP  0  0  0  0  0  0  0  0  0  0  0  0  # atno 17320 bound_to 7965
  145.3443  139.1723  143.4469 LP  0  0  0  0  0  0  0  0  0  0  0  0  # atno 17321 bound_to 7965
  140.5003  143.2320  151.8688 LP  0  0  0  0  0  0  0  0  0  0  0  0  # atno 17342 bound_to 10162
  139.4801  144.5067  151.8988 LP  0  0  0  0  0  0  0  0  0  0  0  0  # atno 17343 bound_to 10162
  155.9925  130.4983  150.7342 LP  0  0  0  0  0  0  0  0  0  0  0  0  # atno 17370 bound_to 10713
  157.4804  131.0902  151.0543 LP  0  0  0  0  0  0  0  0  0  0  0  0  # atno 17371 bound_to 10713
  140.1552  134.4798  155.7933 LP  0  0  0  0  0  0  0  0  0  0  0  0  # atno 17394 bound_to 11000
  141.2200  133.6878  156.7448 LP  0  0  0  0  0  0  0  0  0  0  0  0  # atno 17395 bound_to 11000

$$$$
