#       Name:                AV-unprocessed.smi:544
#       Creating user name   scv26
#       Creation time:       Thu Mar 26 23:37:07 2020


#       File generated by GOLD software.
#

@<TRIPOS>MOLECULE
AV-unprocessed.smi:544
    56    58     1
SMALL
NO_CHARGES


@<TRIPOS>ATOM
      1 ****        -3.7499   2.1407  -0.0650 C.3            1 S1                 0.0000
      2 ****        -3.3599   1.2684  -1.2600 C.3            1 S1                 0.0000
      3 ****        -2.0290   0.8203  -1.0774 O.3            1 S1                 0.0000
      4 ****        -1.5702  -0.0046  -2.1337 C.3            1 S1                 0.0000
      5 ****        -0.1201  -0.4337  -1.8635 C.3            1 S1                 0.0000
      6 ****         0.0332  -1.1121  -0.5793 N.pl3          1 S1                 0.0000
      7 ****         0.5276  -0.6150   0.5840 C.2            1 S1                 0.0000
      8 ****         0.9737   0.6989   0.6731 N.pl3          1 S1                 0.0000
      9 ****         0.1357   1.8309   1.0564 C.3            1 S1                 0.0000
     10 ****         0.3023   3.0077   0.0812 C.3            1 S1                 0.0000
     11 ****         1.7736   3.4396   0.0080 C.3            1 S1                 0.0000
     12 ****         2.6715   2.2294  -0.3067 C.3            1 S1                 0.0000
     13 ****         4.1576   2.6118  -0.2996 C.3            1 S1                 0.0000
     14 ****         2.3823   1.0826   0.6835 C.3            1 S1                 0.0000
     15 ****         0.5636  -1.4819   1.5987 N.2            1 S1                 0.0000
     16 ****         0.0391  -2.6357   1.0336 C.2            1 S1                 0.0000
     17 ****        -0.2771  -2.4360  -0.2716 C.2            1 S1                 0.0000
     18 ****        -0.8320  -3.4965  -1.1210 C.2            1 S1                 0.0000
     19 ****        -1.1201  -3.3348  -2.3049 O.2            1 S1                 0.0000
     20 ****        -0.9868  -4.6734  -0.4669 N.am           1 S1                 0.0000
     21 ****        -0.6872  -4.9438   0.8405 C.2            1 S1                 0.0000
     22 ****        -0.8703  -6.0744   1.2912 O.2            1 S1                 0.0000
     23 ****        -0.1832  -3.9214   1.6041 N.am           1 S1                 0.0000
     24 ****         0.1546  -4.1483   3.0105 C.3            1 S1                 0.0000
     25 ****        -1.3609  -5.4396  -1.0073 H              1 S1                 0.0000
     26 ****        -4.7715   2.5068  -0.1665 H              1 S1                 0.0000
     27 ****        -3.0903   3.0047   0.0201 H              1 S1                 0.0000
     28 ****        -3.6865   1.5777   0.8665 H              1 S1                 0.0000
     29 ****        -4.0376   0.4173  -1.3379 H              1 S1                 0.0000
     30 ****        -3.4403   1.8434  -2.1834 H              1 S1                 0.0000
     31 ****        -2.2154  -0.8792  -2.2230 H              1 S1                 0.0000
     32 ****        -1.6225   0.5354  -3.0801 H              1 S1                 0.0000
     33 ****         0.2332  -1.0951  -2.6543 H              1 S1                 0.0000
     34 ****         0.5331   0.4373  -1.8948 H              1 S1                 0.0000
     35 ****        -0.9074   1.5177   1.0948 H              1 S1                 0.0000
     36 ****         0.3993   2.1418   2.0681 H              1 S1                 0.0000
     37 ****        -0.0468   2.7179  -0.9105 H              1 S1                 0.0000
     38 ****        -0.3200   3.8457   0.3962 H              1 S1                 0.0000
     39 ****         1.8991   4.2152  -0.7481 H              1 S1                 0.0000
     40 ****         2.0689   3.8808   0.9612 H              1 S1                 0.0000
     41 ****         2.4269   1.8790  -1.3103 H              1 S1                 0.0000
     42 ****         4.4699   2.9690   0.6822 H              1 S1                 0.0000
     43 ****         4.3637   3.4008  -1.0234 H              1 S1                 0.0000
     44 ****         4.7830   1.7566  -0.5566 H              1 S1                 0.0000
     45 ****         2.6652   1.3725   1.6962 H              1 S1                 0.0000
     46 ****         2.9887   0.2125   0.4285 H              1 S1                 0.0000
     47 ****        -0.6391  -4.6908   3.5261 H              1 S1                 0.0000
     48 ****         0.3046  -3.2162   3.5548 H              1 S1                 0.0000
     49 ****         1.0728  -4.7312   3.0882 H              1 S1                 0.0000
     50 ****        -1.9825   0.3004  -0.2245 LP             1 S1                 0.0000
     51 ****        -1.4302   1.6188  -1.0142 LP             1 S1                 0.0000
     52 ****         0.8879  -1.3360   2.5333 LP             1 S1                 0.0000
     53 ****        -0.9789  -2.4439  -2.7367 LP             1 S1                 0.0000
     54 ****        -1.4956  -4.0941  -2.8364 LP             1 S1                 0.0000
     55 ****        -1.2376  -6.7941   0.7020 LP             1 S1                 0.0000
     56 ****        -0.6517  -6.2733   2.2465 LP             1 S1                 0.0000
@<TRIPOS>BOND
    1    1    2 1     
    2    1   26 1     
    3    1   27 1     
    4    1   28 1     
    5    2    3 1     
    6    2   29 1     
    7    2   30 1     
    8    3    4 1     
    9    4    5 1     
   10    4   31 1     
   11    4   32 1     
   12    5    6 1     
   13    5   33 1     
   14    5   34 1     
   15    6   17 1     
   16    6    7 1     
   17    7    8 1     
   18    7   15 2     
   19    8   14 1     
   20    8    9 1     
   21    9   10 1     
   22    9   35 1     
   23    9   36 1     
   24   10   11 1     
   25   10   37 1     
   26   10   38 1     
   27   11   12 1     
   28   11   39 1     
   29   11   40 1     
   30   12   13 1     
   31   12   14 1     
   32   12   41 1     
   33   13   42 1     
   34   13   43 1     
   35   13   44 1     
   36   14   45 1     
   37   14   46 1     
   38   15   16 1     
   39   16   23 1     
   40   16   17 2     
   41   17   18 1     
   42   18   19 2     
   43   18   20 1     
   44   20   25 1     
   45   20   21 1     
   46   21   22 2     
   47   21   23 1     
   48   23   24 1     
   49   24   47 1     
   50   24   48 1     
   51   24   49 1     
   52    3   50 1     
   53    3   51 1     
   54   15   52 1     
   55   19   53 1     
   56   19   54 1     
   57   22   55 1     
   58   22   56 1     
@<TRIPOS>SUBSTRUCTURE
      1 S1             1
@<TRIPOS>SET
LONE_PAIRS      STATIC     ATOMS    <user>   **** ""
7 50 51 52 53 54 55 56
DONOR_HYDROGENS      STATIC     ATOMS    <user>   **** ""
1 25
ATOM$BLUE        STATIC     ATOMS    COLORGROUP SYSTEM
7 50 51 52 53 54 55 56
ATOM$RED        STATIC     ATOMS    COLORGROUP SYSTEM
1 25
