#       Name:                AV-unprocessed.smi:108
#       Creating user name   scv26
#       Creation time:       Thu Mar 26 18:03:06 2020


#       File generated by GOLD software.
#

@<TRIPOS>MOLECULE
AV-unprocessed.smi:108
    67    70     1
SMALL
NO_CHARGES


@<TRIPOS>ATOM
      1 ****        -1.3972   1.1169   0.5819 O.2            1 S1                 0.0000
      2 ****        -0.9764  -0.0352   0.7087 C.2            1 S1                 0.0000
      3 ****         0.5404  -0.2675   0.8835 C.3            1 S1                 0.0000
      4 ****         1.3337   0.9814   0.8701 N.am           1 S1                 0.0000
      5 ****         1.5566   1.6553   2.0958 C.2            1 S1                 0.0000
      6 ****         1.1313   1.2046   3.1606 O.2            1 S1                 0.0000
      7 ****         2.2940   2.9087   1.9967 C.2            1 S1                 0.0000
      8 ****         2.5128   3.6411   3.1022 F              1 S1                 0.0000
      9 ****         2.7452   3.3577   0.8076 C.2            1 S1                 0.0000
     10 ****         2.5659   2.6659  -0.3779 N.am           1 S1                 0.0000
     11 ****         2.9882   3.2439  -1.7138 C.3            1 S1                 0.0000
     12 ****         4.2063   4.1814  -1.6413 C.3            1 S1                 0.0000
     13 ****         3.5678   5.5513  -1.7617 C.3            1 S1                 0.0000
     14 ****         2.3682   5.2515  -2.6519 C.3            1 S1                 0.0000
     15 ****         1.9098   3.9795  -2.2112 O.3            1 S1                 0.0000
     16 ****         1.7969   1.4796  -0.3719 C.2            1 S1                 0.0000
     17 ****         1.5308   0.8933  -1.4239 O.2            1 S1                 0.0000
     18 ****        -1.8080  -1.1070   0.6914 N.am           1 S1                 0.0000
     19 ****        -3.2554  -0.9370   0.4774 C.3            1 S1                 0.0000
     20 ****        -3.6132  -0.6115  -0.9892 C.3            1 S1                 0.0000
     21 ****        -2.9531  -1.5383  -1.9963 C.ar           1 S1                 0.0000
     22 ****        -1.7917  -1.1262  -2.6847 C.ar           1 S1                 0.0000
     23 ****        -1.1664  -1.9942  -3.6003 C.ar           1 S1                 0.0000
     24 ****        -1.7015  -3.2758  -3.8334 C.ar           1 S1                 0.0000
     25 ****        -2.8621  -3.6889  -3.1507 C.ar           1 S1                 0.0000
     26 ****        -3.4872  -2.8219  -2.2334 C.ar           1 S1                 0.0000
     27 ****        -1.3548  -2.4968   0.8761 C.3            1 S1                 0.0000
     28 ****        -1.0452  -2.8919   2.3160 C.ar           1 S1                 0.0000
     29 ****        -1.6197  -2.2133   3.4158 C.ar           1 S1                 0.0000
     30 ****        -1.3082  -2.6028   4.7328 C.ar           1 S1                 0.0000
     31 ****        -0.4273  -3.6767   4.9614 C.ar           1 S1                 0.0000
     32 ****         0.1398  -4.3634   3.8711 C.ar           1 S1                 0.0000
     33 ****        -0.1699  -3.9727   2.5540 C.ar           1 S1                 0.0000
     34 ****         0.7141  -0.8187   1.8081 H              1 S1                 0.0000
     35 ****         0.8904  -0.9391   0.0989 H              1 S1                 0.0000
     36 ****         3.2593   4.3052   0.8051 H              1 S1                 0.0000
     37 ****         3.2081   2.3889  -2.3553 H              1 S1                 0.0000
     38 ****         4.8198   4.0310  -0.7531 H              1 S1                 0.0000
     39 ****         4.8313   3.9907  -2.5147 H              1 S1                 0.0000
     40 ****         3.2317   5.9111  -0.7893 H              1 S1                 0.0000
     41 ****         4.2374   6.2989  -2.1878 H              1 S1                 0.0000
     42 ****         1.5866   6.0079  -2.5775 H              1 S1                 0.0000
     43 ****         2.6752   5.1777  -3.6962 H              1 S1                 0.0000
     44 ****        -3.7856  -1.8411   0.7790 H              1 S1                 0.0000
     45 ****        -3.6426  -0.1563   1.1345 H              1 S1                 0.0000
     46 ****        -4.6948  -0.6574  -1.1201 H              1 S1                 0.0000
     47 ****        -3.3311   0.4164  -1.2204 H              1 S1                 0.0000
     48 ****        -1.3706  -0.1473  -2.5048 H              1 S1                 0.0000
     49 ****        -0.2753  -1.6769  -4.1216 H              1 S1                 0.0000
     50 ****        -1.2215  -3.9419  -4.5350 H              1 S1                 0.0000
     51 ****        -3.2716  -4.6722  -3.3288 H              1 S1                 0.0000
     52 ****        -4.3734  -3.1462  -1.7077 H              1 S1                 0.0000
     53 ****        -2.1047  -3.1949   0.5027 H              1 S1                 0.0000
     54 ****        -0.4827  -2.6894   0.2510 H              1 S1                 0.0000
     55 ****        -2.3006  -1.3892   3.2631 H              1 S1                 0.0000
     56 ****        -1.7460  -2.0767   5.5683 H              1 S1                 0.0000
     57 ****        -0.1886  -3.9745   5.9718 H              1 S1                 0.0000
     58 ****         0.8130  -5.1898   4.0447 H              1 S1                 0.0000
     59 ****         0.2704  -4.5052   1.7236 H              1 S1                 0.0000
     60 ****        -0.7587   1.8864   0.5930 LP             1 S1                 0.0000
     61 ****        -2.3769   1.2816   0.4679 LP             1 S1                 0.0000
     62 ****         0.6174   0.3468   3.1708 LP             1 S1                 0.0000
     63 ****         1.3000   1.6965   4.0147 LP             1 S1                 0.0000
     64 ****         1.2285   4.1021  -1.4895 LP             1 S1                 0.0000
     65 ****         1.4974   3.4892  -2.9790 LP             1 S1                 0.0000
     66 ****         0.9827   0.0571  -1.4054 LP             1 S1                 0.0000
     67 ****         1.8632   1.2541  -2.2953 LP             1 S1                 0.0000
@<TRIPOS>BOND
    1    1    2 2     
    2    2    3 1     
    3    2   18 am    
    4    3    4 1     
    5    3   34 1     
    6    3   35 1     
    7    4   16 am    
    8    4    5 am    
    9    5    6 2     
   10    5    7 1     
   11    7    8 1     
   12    7    9 2     
   13    9   10 1     
   14    9   36 1     
   15   10   11 1     
   16   10   16 am    
   17   11   15 1     
   18   11   12 1     
   19   11   37 1     
   20   12   13 1     
   21   12   38 1     
   22   12   39 1     
   23   13   14 1     
   24   13   40 1     
   25   13   41 1     
   26   14   15 1     
   27   14   42 1     
   28   14   43 1     
   29   16   17 2     
   30   18   19 1     
   31   18   27 1     
   32   19   20 1     
   33   19   44 1     
   34   19   45 1     
   35   20   21 1     
   36   20   46 1     
   37   20   47 1     
   38   21   26 ar    
   39   21   22 ar    
   40   22   23 ar    
   41   22   48 1     
   42   23   24 ar    
   43   23   49 1     
   44   24   25 ar    
   45   24   50 1     
   46   25   26 ar    
   47   25   51 1     
   48   26   52 1     
   49   27   28 1     
   50   27   53 1     
   51   27   54 1     
   52   28   33 ar    
   53   28   29 ar    
   54   29   30 ar    
   55   29   55 1     
   56   30   31 ar    
   57   30   56 1     
   58   31   32 ar    
   59   31   57 1     
   60   32   33 ar    
   61   32   58 1     
   62   33   59 1     
   63    1   60 1     
   64    1   61 1     
   65    6   62 1     
   66    6   63 1     
   67   15   64 1     
   68   15   65 1     
   69   17   66 1     
   70   17   67 1     
@<TRIPOS>SUBSTRUCTURE
      1 S1             1
@<TRIPOS>SET
LONE_PAIRS      STATIC     ATOMS    <user>   **** ""
8 60 61 62 63 64 65 66 67
ATOM$BLUE        STATIC     ATOMS    COLORGROUP SYSTEM
8 60 61 62 63 64 65 66 67
