#       Name:                AV-unprocessed.smi:2775
#       Creating user name   scv26
#       Creation time:       Fri Mar 27 15:13:33 2020


#       File generated by GOLD software.
#

@<TRIPOS>MOLECULE
AV-unprocessed.smi:2775
    47    50     1
SMALL
NO_CHARGES


@<TRIPOS>ATOM
      1 ****        -5.6301   1.9311   0.3553 C.3            1 S1                 0.0000
      2 ****        -4.8749   0.6426   0.0883 C.ar           1 S1                 0.0000
      3 ****        -5.6356  -0.4228  -0.2464 N.ar           1 S1                 0.0000
      4 ****        -5.0149  -1.5960  -0.4876 C.ar           1 S1                 0.0000
      5 ****        -3.6190  -1.7635  -0.4139 C.ar           1 S1                 0.0000
      6 ****        -2.8193  -0.6450  -0.0807 C.ar           1 S1                 0.0000
      7 ****        -1.4049  -0.7050   0.0367 N.am           1 S1                 0.0000
      8 ****        -0.5404  -1.5115  -0.6081 C.2            1 S1                 0.0000
      9 ****        -0.8613  -2.4204  -1.3709 O.2            1 S1                 0.0000
     10 ****         0.7500  -1.2056  -0.3882 N.am           1 S1                 0.0000
     11 ****         1.9311  -1.8821  -0.9360 C.3            1 S1                 0.0000
     12 ****         2.4950  -3.0114  -0.0326 C.3            1 S1                 0.0000
     13 ****         1.7677  -3.5644   1.1706 C.3            1 S1                 0.0000
     14 ****         2.4334  -2.8314   2.3380 C.3            1 S1                 0.0000
     15 ****         3.0005  -1.6610   1.7543 O.3            1 S1                 0.0000
     16 ****         3.5362  -2.0270   0.4864 C.3            1 S1                 0.0000
     17 ****         3.2132  -1.0742  -0.6721 C.3            1 S1                 0.0000
     18 ****         3.2340   0.4519  -0.4834 C.3            1 S1                 0.0000
     19 ****         4.6129   0.4640  -1.1487 C.3            1 S1                 0.0000
     20 ****         4.2555  -0.8829  -1.7845 C.3            1 S1                 0.0000
     21 ****        -3.4651   0.5837   0.1899 C.ar           1 S1                 0.0000
     22 ****        -2.5475   1.9879   0.6245 Cl             1 S1                 0.0000
     23 ****        -5.2823   2.7203  -0.3118 H              1 S1                 0.0000
     24 ****        -5.4746   2.2547   1.3848 H              1 S1                 0.0000
     25 ****        -6.7027   1.8076   0.1986 H              1 S1                 0.0000
     26 ****        -5.6517  -2.4303  -0.7416 H              1 S1                 0.0000
     27 ****        -3.1934  -2.7373  -0.6012 H              1 S1                 0.0000
     28 ****        -0.9871   0.0429   0.5710 H              1 S1                 0.0000
     29 ****         0.9333  -0.3774   0.1600 H              1 S1                 0.0000
     30 ****         1.8355  -2.1743  -1.9830 H              1 S1                 0.0000
     31 ****         2.9676  -3.7823  -0.6431 H              1 S1                 0.0000
     32 ****         0.6985  -3.3630   1.1423 H              1 S1                 0.0000
     33 ****         1.8882  -4.6439   1.2644 H              1 S1                 0.0000
     34 ****         1.7320  -2.5834   3.1350 H              1 S1                 0.0000
     35 ****         3.2339  -3.4381   2.7639 H              1 S1                 0.0000
     36 ****         4.5513  -2.4249   0.5253 H              1 S1                 0.0000
     37 ****         2.4789   0.9646  -1.0816 H              1 S1                 0.0000
     38 ****         3.2234   0.7892   0.5533 H              1 S1                 0.0000
     39 ****         4.7720   1.2772  -1.8574 H              1 S1                 0.0000
     40 ****         5.4286   0.3874  -0.4278 H              1 S1                 0.0000
     41 ****         5.0649  -1.6137  -1.7899 H              1 S1                 0.0000
     42 ****         3.8058  -0.7738  -2.7727 H              1 S1                 0.0000
     43 ****        -6.6303  -0.3439  -0.3133 LP             1 S1                 0.0000
     44 ****        -1.8277  -2.6046  -1.5506 LP             1 S1                 0.0000
     45 ****        -0.1561  -2.9756  -1.8117 LP             1 S1                 0.0000
     46 ****         3.7275  -1.3053   2.3416 LP             1 S1                 0.0000
     47 ****         2.2947  -0.9623   1.6373 LP             1 S1                 0.0000
@<TRIPOS>BOND
    1    1    2 1     
    2    1   23 1     
    3    1   24 1     
    4    1   25 1     
    5    2   21 ar    
    6    2    3 ar    
    7    3    4 ar    
    8    4    5 ar    
    9    4   26 1     
   10    5    6 ar    
   11    5   27 1     
   12    6    7 1     
   13    6   21 ar    
   14    7    8 am    
   15    7   28 1     
   16    8    9 2     
   17    8   10 am    
   18   10   11 1     
   19   10   29 1     
   20   11   17 1     
   21   11   12 1     
   22   11   30 1     
   23   12   16 1     
   24   12   13 1     
   25   12   31 1     
   26   13   14 1     
   27   13   32 1     
   28   13   33 1     
   29   14   15 1     
   30   14   34 1     
   31   14   35 1     
   32   15   16 1     
   33   16   17 1     
   34   16   36 1     
   35   17   20 1     
   36   17   18 1     
   37   18   19 1     
   38   18   37 1     
   39   18   38 1     
   40   19   20 1     
   41   19   39 1     
   42   19   40 1     
   43   20   41 1     
   44   20   42 1     
   45   21   22 1     
   46    3   43 1     
   47    9   44 1     
   48    9   45 1     
   49   15   46 1     
   50   15   47 1     
@<TRIPOS>SUBSTRUCTURE
      1 S1             1
@<TRIPOS>SET
LONE_PAIRS      STATIC     ATOMS    <user>   **** ""
5 43 44 45 46 47
DONOR_HYDROGENS      STATIC     ATOMS    <user>   **** ""
2 28 29
ATOM$BLUE        STATIC     ATOMS    COLORGROUP SYSTEM
5 43 44 45 46 47
ATOM$RED        STATIC     ATOMS    COLORGROUP SYSTEM
2 28 29
