AV-unprocessed.smi:2774|AV-procd|sdf|10684|dock2
  -GOLD-   2272015133D 1   1.00000     0.00000
 Structure written by MMmdl.
 34 35  0  0  0  0  0  0  0  0  1 V2000
  149.4963  141.1205  153.6767 O   0  0  0  0  0  0  0  0  0  0  0  0
  149.7888  140.7516  155.0103 C   0  0  2  0  0  0  0  0  0  0  0  0
  150.2958  141.9859  155.7816 C   0  0  0  0  0  0  0  0  0  0  0  0
  150.3904  141.7370  157.2226 N   0  0  0  0  0  0  0  0  0  0  0  0
  151.3659  142.5534  157.9506 C   0  0  2  0  0  0  0  0  0  0  0  0
  151.6867  141.9613  159.3436 C   0  0  0  0  0  0  0  0  0  0  0  0
  152.7394  142.7769  160.1125 C   0  0  0  0  0  0  0  0  0  0  0  0
  152.2926  144.2203  160.3748 C   0  0  0  0  0  0  0  0  0  0  0  0
  152.0322  145.1110  158.8191 S   0  0  0  0  0  0  0  0  0  0  0  0
  150.8193  143.9880  158.0733 C   0  0  0  0  0  0  0  0  0  0  0  0
  150.7053  139.5392  155.1268 C   0  0  0  0  0  0  0  0  0  0  0  0
  151.9571  139.6159  155.7773 C   0  0  0  0  0  0  0  0  0  0  0  0
  152.7508  138.4542  155.8519 C   0  0  0  0  0  0  0  0  0  0  0  0
  152.3784  137.2661  155.3299 N   0  0  0  0  0  0  0  0  0  0  0  0
  151.1809  137.1977  154.7104 C   0  0  0  0  0  0  0  0  0  0  0  0
  150.3108  138.2987  154.5829 C   0  0  0  0  0  0  0  0  0  0  0  0
  149.9340  140.5152  153.0977 H   0  0  0  0  0  0  0  0  0  0  0  0
  148.8296  140.4671  155.4444 H   0  0  0  0  0  0  0  0  0  0  0  0
  151.2587  142.2858  155.3700 H   0  0  0  0  0  0  0  0  0  0  0  0
  149.6119  142.8171  155.6066 H   0  0  0  0  0  0  0  0  0  0  0  0
  150.5808  140.7524  157.3807 H   0  0  0  0  0  0  0  0  0  0  0  0
  152.2886  142.5945  157.3700 H   0  0  0  0  0  0  0  0  0  0  0  0
  150.7738  141.8918  159.9368 H   0  0  0  0  0  0  0  0  0  0  0  0
  152.0663  140.9448  159.2495 H   0  0  0  0  0  0  0  0  0  0  0  0
  152.9457  142.2876  161.0648 H   0  0  0  0  0  0  0  0  0  0  0  0
  153.6802  142.7776  159.5605 H   0  0  0  0  0  0  0  0  0  0  0  0
  151.3690  144.2344  160.9544 H   0  0  0  0  0  0  0  0  0  0  0  0
  153.0462  144.7495  160.9586 H   0  0  0  0  0  0  0  0  0  0  0  0
  150.5590  144.3800  157.0893 H   0  0  0  0  0  0  0  0  0  0  0  0
  149.9081  144.0039  158.6729 H   0  0  0  0  0  0  0  0  0  0  0  0
  152.3031  140.5390  156.2185 H   0  0  0  0  0  0  0  0  0  0  0  0
  153.7112  138.4809  156.3452 H   0  0  0  0  0  0  0  0  0  0  0  0
  150.9072  136.2357  154.3031 H   0  0  0  0  0  0  0  0  0  0  0  0
  149.3618  138.1895  154.0788 H   0  0  0  0  0  0  0  0  0  0  0  0
  1  2  1  0  0  0  0
  1 17  1  0  0  0  0
  2  3  1  0  0  0  0
  2 11  1  0  0  0  0
  2 18  1  0  0  0  0
  3  4  1  0  0  0  0
  3 19  1  0  0  0  0
  3 20  1  0  0  0  0
  4  5  1  0  0  0  0
  4 21  1  0  0  0  0
  5 10  1  0  0  0  0
  5  6  1  0  0  0  0
  5 22  1  0  0  0  0
  6  7  1  0  0  0  0
  6 23  1  0  0  0  0
  6 24  1  0  0  0  0
  7  8  1  0  0  0  0
  7 25  1  0  0  0  0
  7 26  1  0  0  0  0
  8  9  1  0  0  0  0
  8 27  1  0  0  0  0
  8 28  1  0  0  0  0
  9 10  1  0  0  0  0
 10 29  1  0  0  0  0
 10 30  1  0  0  0  0
 11 16  1  0  0  0  0
 11 12  2  0  0  0  0
 12 13  1  0  0  0  0
 12 31  1  0  0  0  0
 13 14  2  0  0  0  0
 13 32  1  0  0  0  0
 14 15  1  0  0  0  0
 15 16  2  0  0  0  0
 15 33  1  0  0  0  0
 16 34  1  0  0  0  0
M  END
> <s_m_source_file>
AV-unprocessed.smi

> <i_m_source_file_index>
2774

> <i_lp_mmshare_version>
43012

> <i_f3d_flags>
0

> <s_epik_input>
W2NIXTFbY0hdbltjSF1bY0hdYzFbQ0BIXShbT0hdKVtDSDJdW05IXVtDQEBIXTJbQ0gyXVtDSDJdW0NIMl1TW0NIMl0y

> <s_epik_cmdline>
J2VwaWtfcHl0aG9uJywgJy1waCcsICc3LjAnLCAnLXRuJywgJzgnLCAnLW1hJywgJzIwMCcsICctbWV0YWxfYmluZGluZycsICctaW1hZScsICc8aW5maWxlLm1hZT4nLCAnLW9tYWUnLCAnPG91dGZpbGUubWFlPic=

> <r_epik_Ionization_Penalty>
2.08116

> <r_epik_Ionization_Penalty_Charging>
0

> <r_epik_Ionization_Penalty_Neutral>
2.08116

> <r_epik_State_Penalty>
2.1944

> <r_epik_Charging_Adjusted_Penalty>
2.1944

> <i_epik_Tot_Q>
0

> <i_epik_Tot_abs_Q>
0

> <r_epik_Metal_State_Penalty>
2.1769

> <b_epik_Metal_Only>
0

> <s_lp_Force_Field>
OPLS_2005

> <r_lp_Energy>
17.4742

> <b_lp_Chiralities_Consistent>
1

> <s_lp_Variant>
AV-unprocessed.smi:2774-5

> <Gold.Version>
5.8.1

> <Gold.Id.Protein>
6NUR|6NUR_protein|mol2

> <Gold.PLP.Fitness>
47.9620

> <Gold.PLP.PLP>
-41.1588

> <Gold.PLP.part.hbond>
-4.0000

> <Gold.PLP.part.metal>
0.0000

> <Gold.PLP.part.buried>
-1.2691

> <Gold.PLP.part.nonpolar>
-35.5705

> <Gold.PLP.part.repulsive>
0.0799

> <Gold.PLP.ligand.clash>
0.0000

> <Gold.PLP.ligand.torsion>
0.3193

> <Gold.PLP.Chemscore.Hbond>
1.6880

> <Gold.PLP.Chemscore.CHOScore>
0.7649

> <Gold.PLP.Chemscore.Metal>
0.0000

> <Gold.Chemscore.Hbonds>
donor molecule, donor type, donor heavy atom, donor atom, acceptor molecule, acceptor atom, score
      L1  H     1    17       P1  7957  0.64
      P1  H  8011  8017       L1     1  0.29
      P1  H 10752 10765       L1    14  0.46
      L1  C    15    33       P1  7949  0.16

> <Gold.PLP.Chemscore.Internal.Correction>
0.0831

> <Gold.Rescore>
     Score         DG    S(hbond)    S(metal)    S(lipo)     H(rot)  DE(clash)    DE(int)     intcor
     16.98     -19.77       1.56        0.00     119.11       1.89       1.39       1.39       ----

> <Gold.Chemscore.Fitness>
16.9817

> <Gold.Chemscore.DG>
-19.7661

> <Gold.Chemscore.ZeroCoef>
-5.4800

> <Gold.Chemscore.Hbond>
1.5555

> <Gold.Chemscore.Metal>
0.0000

> <Gold.Chemscore.Lipo>
119.1127

> <Gold.Chemscore.Internal_Hbond>
0.0000

> <Gold.Chemscore.DEClash>
1.3900

> <Gold.Chemscore.DEInternal>
1.3944

> <Gold.Chemscore.Rot>
1.8928

> <Gold.Chemscore.Internal.Correction>
   9.000000E+99

> <Gold.Chemscore.Hbonds>
donor molecule, donor type, donor heavy atom, donor atom, acceptor molecule, acceptor atom, score
      L1  H     1    17       P1  7957  0.60
      P1  H 10752 10765       L1    14  0.04

> <Gold.Chemscore.Hbond.Weighted>
-5.1955

> <Gold.Chemscore.Metal.Weighted>
-0.0000

> <Gold.Chemscore.Lipo.Weighted>
-13.9362

> <Gold.Chemscore.Internal_Hbond.Weighted>
0.0000

> <Gold.Chemscore.DEClash.Weighted>
1.3900

> <Gold.Chemscore.DEInternal.Weighted>
1.3944

> <Gold.Chemscore.Rot.Weighted>
4.8455

> <Gold.Chemscore.Internal.Correction.Weighted>
   9.000000E+99

> <Gold.Protein.RotatedTorsions>
[ 6907 6896 6895 6894 ] final  -50.95 input  -60.11 | X-H torsion
[ 7974 7965 7964 7962 ] final -136.72 input  175.53 | X-H torsion
[ 8008 7997 7996 7995 ] final -118.53 input   59.86 | X-H torsion
[ 10167 10162 10161 10158 ] final   47.12 input  -65.29 | X-H torsion
[ 10718 10713 10712 10709 ] final  -36.70 input   66.30 | X-H torsion
[ 10763 10752 10751 10750 ] final  179.90 input  -60.55 | X-H torsion
[ 11005 11000 10999 10996 ] final   62.83 input  -57.11 | X-H torsion

> <Gold.Protein.ActiveResidues>
 VAL166  LYS551  ARG553  GLY616  TRP617  ASP618  TYR619  PRO620  LYS621  CYS622 
 ASP623  PHE694  ASN695  SER759  ASP760  ASP761  ALA762  ILE779  LEU786  VAL792 
 PHE793  MET794  SER795  GLU796  ALA797  LYS798  CYS799  TRP800  GLU811  SER814 

> <Gold.Protein.RotatedAtoms>
  150.8657  134.8020  159.7116 H   0  0  0  0  0  0  0  0  0  0  0  0  # atno 6907 bound_to 6896
  152.4679  134.5027  159.9739 H   0  0  0  0  0  0  0  0  0  0  0  0  # atno 6908 bound_to 6896
  151.5123  133.3444  159.2922 H   0  0  0  0  0  0  0  0  0  0  0  0  # atno 6909 bound_to 6896
  144.8902  140.6632  143.5150 H   0  0  0  0  0  0  0  0  0  0  0  0  # atno 7974 bound_to 7965
  155.1012  140.0396  157.2697 H   0  0  0  0  0  0  0  0  0  0  0  0  # atno 8008 bound_to 7997
  154.6757  140.2622  155.6935 H   0  0  0  0  0  0  0  0  0  0  0  0  # atno 8009 bound_to 7997
  156.2675  140.2789  156.1282 H   0  0  0  0  0  0  0  0  0  0  0  0  # atno 8010 bound_to 7997
  140.3069  144.2867  150.6207 H   0  0  0  0  0  0  0  0  0  0  0  0  # atno 10167 bound_to 10162
  156.3238  130.4269  149.7935 H   0  0  0  0  0  0  0  0  0  0  0  0  # atno 10718 bound_to 10713
  154.5265  135.2797  155.1217 H   0  0  0  0  0  0  0  0  0  0  0  0  # atno 10763 bound_to 10752
  154.2754  135.6295  153.5330 H   0  0  0  0  0  0  0  0  0  0  0  0  # atno 10764 bound_to 10752
  152.9948  135.5638  154.5768 H   0  0  0  0  0  0  0  0  0  0  0  0  # atno 10765 bound_to 10752
  140.0066  134.6361  155.9846 H   0  0  0  0  0  0  0  0  0  0  0  0  # atno 11005 bound_to 11000
  145.3796  139.1640  143.4288 LP  0  0  0  0  0  0  0  0  0  0  0  0  # atno 17320 bound_to 7965
  146.3049  140.3876  142.8691 LP  0  0  0  0  0  0  0  0  0  0  0  0  # atno 17321 bound_to 7965
  140.5602  143.2193  151.7778 LP  0  0  0  0  0  0  0  0  0  0  0  0  # atno 17342 bound_to 10162
  139.4902  144.4359  151.9820 LP  0  0  0  0  0  0  0  0  0  0  0  0  # atno 17343 bound_to 10162
  156.5233  130.8225  151.3211 LP  0  0  0  0  0  0  0  0  0  0  0  0  # atno 17370 bound_to 10713
  157.7417  130.9875  150.2464 LP  0  0  0  0  0  0  0  0  0  0  0  0  # atno 17371 bound_to 10713
  141.1681  133.6537  156.4551 LP  0  0  0  0  0  0  0  0  0  0  0  0  # atno 17394 bound_to 11000
  140.4631  134.6823  157.5094 LP  0  0  0  0  0  0  0  0  0  0  0  0  # atno 17395 bound_to 11000

$$$$
