#       Name:                AV-unprocessed.smi:1626
#       Creating user name   scv26
#       Creation time:       Fri Mar 27 07:17:27 2020


#       File generated by GOLD software.
#

@<TRIPOS>MOLECULE
AV-unprocessed.smi:1626
    53    55     1
SMALL
NO_CHARGES


@<TRIPOS>ATOM
      1 ****        -2.4801   3.9333  -3.0361 C.3            1 S1                 0.0000
      2 ****        -2.4674   2.6478  -2.2276 C.ar           1 S1                 0.0000
      3 ****        -3.1017   2.6242  -0.9650 C.ar           1 S1                 0.0000
      4 ****        -3.1151   1.4486  -0.1831 C.ar           1 S1                 0.0000
      5 ****        -3.6684   1.2036   1.0618 N.2            1 S1                 0.0000
      6 ****        -3.3487  -0.0729   1.2514 C.2            1 S1                 0.0000
      7 ****        -2.6383  -0.6813   0.2816 N.pl3          1 S1                 0.0000
      8 ****        -2.1671  -2.0551   0.2727 C.3            1 S1                 0.0000
      9 ****        -0.6301  -2.1559   0.3454 C.3            1 S1                 0.0000
     10 ****        -0.2916  -3.5280   0.3594 O.3            1 S1                 0.0000
     11 ****        -0.0261  -1.4730   1.5938 C.3            1 S1                 0.0000
     12 ****         1.4521  -1.3543   1.5173 N.4            1 S1                 1.0000
     13 ****         2.0852  -1.3109   2.8611 C.3            1 S1                 0.0000
     14 ****         3.6194  -1.3303   2.7531 C.3            1 S1                 0.0000
     15 ****         4.1211  -0.1730   1.8773 C.3            1 S1                 0.0000
     16 ****         5.5194  -0.2734   1.7134 O.3            1 S1                 0.0000
     17 ****         3.4319  -0.2205   0.5058 C.3            1 S1                 0.0000
     18 ****         1.9025  -0.2202   0.6647 C.3            1 S1                 0.0000
     19 ****        -2.4689   0.2883  -0.7014 C.ar           1 S1                 0.0000
     20 ****        -1.8367   0.2989  -1.9574 C.ar           1 S1                 0.0000
     21 ****        -1.8320   1.4819  -2.7254 C.ar           1 S1                 0.0000
     22 ****        -1.1455   1.4830  -4.0797 C.3            1 S1                 0.0000
     23 ****        -3.0651   4.7091  -2.5413 H              1 S1                 0.0000
     24 ****        -2.9175   3.7635  -4.0202 H              1 S1                 0.0000
     25 ****        -1.4656   4.3104  -3.1675 H              1 S1                 0.0000
     26 ****        -3.5871   3.5118  -0.5862 H              1 S1                 0.0000
     27 ****        -3.6392  -0.5929   2.1528 H              1 S1                 0.0000
     28 ****        -2.6212  -2.5837   1.1127 H              1 S1                 0.0000
     29 ****        -2.5368  -2.5336  -0.6353 H              1 S1                 0.0000
     30 ****        -0.2162  -1.7254  -0.5648 H              1 S1                 0.0000
     31 ****         0.6403  -3.6176   0.2318 H              1 S1                 0.0000
     32 ****        -0.4387  -0.4743   1.7410 H              1 S1                 0.0000
     33 ****        -0.3165  -2.0467   2.4756 H              1 S1                 0.0000
     34 ****         1.7548  -0.4171   3.3928 H              1 S1                 0.0000
     35 ****         1.7597  -2.1695   3.4496 H              1 S1                 0.0000
     36 ****         4.0618  -1.2682   3.7481 H              1 S1                 0.0000
     37 ****         3.9402  -2.2835   2.3301 H              1 S1                 0.0000
     38 ****         3.9022   0.7774   2.3661 H              1 S1                 0.0000
     39 ****         5.8200   0.4685   1.2105 H              1 S1                 0.0000
     40 ****         3.7416   0.6312  -0.1012 H              1 S1                 0.0000
     41 ****         3.7400  -1.1164  -0.0359 H              1 S1                 0.0000
     42 ****         1.4439  -0.2759  -0.3219 H              1 S1                 0.0000
     43 ****         1.5748   0.7219   1.1074 H              1 S1                 0.0000
     44 ****        -1.3613  -0.5964  -2.3293 H              1 S1                 0.0000
     45 ****        -0.6605   0.5274  -4.2812 H              1 S1                 0.0000
     46 ****        -0.3818   2.2599  -4.1227 H              1 S1                 0.0000
     47 ****        -1.8702   1.6645  -4.8736 H              1 S1                 0.0000
     48 ****         1.7834  -2.2031   1.0818 H              1 S1                 0.0000
     49 ****        -4.1752   1.8235   1.6608 LP             1 S1                 0.0000
     50 ****        -0.7773  -4.0004  -0.3762 LP             1 S1                 0.0000
     51 ****        -0.5491  -3.9276   1.2391 LP             1 S1                 0.0000
     52 ****         5.7415  -1.1200   1.2296 LP             1 S1                 0.0000
     53 ****         5.9639  -0.2750   2.6091 LP             1 S1                 0.0000
@<TRIPOS>BOND
    1    1    2 1     
    2    1   23 1     
    3    1   24 1     
    4    1   25 1     
    5    2   21 ar    
    6    2    3 ar    
    7    3    4 ar    
    8    3   26 1     
    9    4   19 ar    
   10    4    5 1     
   11    5    6 2     
   12    6    7 1     
   13    6   27 1     
   14    7    8 1     
   15    7   19 1     
   16    8    9 1     
   17    8   28 1     
   18    8   29 1     
   19    9   10 1     
   20    9   11 1     
   21    9   30 1     
   22   10   31 1     
   23   11   12 1     
   24   11   32 1     
   25   11   33 1     
   26   12   18 1     
   27   12   13 1     
   28   12   48 1     
   29   13   14 1     
   30   13   34 1     
   31   13   35 1     
   32   14   15 1     
   33   14   36 1     
   34   14   37 1     
   35   15   16 1     
   36   15   17 1     
   37   15   38 1     
   38   16   39 1     
   39   17   18 1     
   40   17   40 1     
   41   17   41 1     
   42   18   42 1     
   43   18   43 1     
   44   19   20 ar    
   45   20   21 ar    
   46   20   44 1     
   47   21   22 1     
   48   22   45 1     
   49   22   46 1     
   50   22   47 1     
   51    5   49 1     
   52   10   50 1     
   53   10   51 1     
   54   16   52 1     
   55   16   53 1     
@<TRIPOS>SUBSTRUCTURE
      1 S1             1
@<TRIPOS>SET
LONE_PAIRS      STATIC     ATOMS    <user>   **** ""
5 49 50 51 52 53
DONOR_HYDROGENS      STATIC     ATOMS    <user>   **** ""
3 31 48 39
ATOM$BLUE        STATIC     ATOMS    COLORGROUP SYSTEM
5 49 50 51 52 53
ATOM$RED        STATIC     ATOMS    COLORGROUP SYSTEM
3 31 48 39
