AV-unprocessed.smi:2742|AV-procd|sdf|10563|dock3
  -GOLD-   2272015 13D 1   1.00000     0.00000
 Structure written by MMmdl.
 37 38  0  0  0  0  0  0  0  0  1 V2000
  152.8757  139.4016  159.6729 C   0  0  0  0  0  0  0  0  0  0  0  0
  153.7946  140.8688  160.2121 S   0  0  0  0  0  0  0  0  0  0  0  0
  152.5275  142.1553  160.0105 C   0  0  1  0  0  0  0  0  0  0  0  0
  153.1427  143.5661  160.0817 C   0  0  0  0  0  0  0  0  0  0  0  0
  152.0773  144.6539  159.8733 C   0  0  0  0  0  0  0  0  0  0  0  0
  151.3237  144.4516  158.5498 C   0  0  0  0  0  0  0  0  0  0  0  0
  150.6986  143.0470  158.4732 C   0  0  1  0  0  0  0  0  0  0  0  0
  150.0352  142.8737  157.1841 N   0  0  0  0  0  0  0  0  0  0  0  0
  149.6293  141.7023  156.6730 C   0  0  0  0  0  0  0  0  0  0  0  0
  149.7769  140.6252  157.2497 O   0  0  0  0  0  0  0  0  0  0  0  0
  149.0419  141.8748  155.4761 N   0  0  0  0  0  0  0  0  0  0  0  0
  148.4629  140.9065  154.6094 C   0  0  0  0  0  0  0  0  0  0  0  0
  148.9395  139.5817  154.4538 C   0  0  0  0  0  0  0  0  0  0  0  0
  148.2773  138.7275  153.5492 C   0  0  0  0  0  0  0  0  0  0  0  0
  147.2109  139.1049  152.8129 N   0  0  0  0  0  0  0  0  0  0  0  0
  146.7662  140.3712  152.9549 C   0  0  0  0  0  0  0  0  0  0  0  0
  147.3556  141.3050  153.8306 C   0  0  0  0  0  0  0  0  0  0  0  0
  146.8603  142.5632  153.9209 F   0  0  0  0  0  0  0  0  0  0  0  0
  151.7726  141.9597  158.6830 C   0  0  0  0  0  0  0  0  0  0  0  0
  153.5225  138.5248  159.7028 H   0  0  0  0  0  0  0  0  0  0  0  0
  152.5167  139.5300  158.6516 H   0  0  0  0  0  0  0  0  0  0  0  0
  152.0213  139.2175  160.3233 H   0  0  0  0  0  0  0  0  0  0  0  0
  151.8124  142.0383  160.8260 H   0  0  0  0  0  0  0  0  0  0  0  0
  153.6308  143.7207  161.0437 H   0  0  0  0  0  0  0  0  0  0  0  0
  153.9192  143.6676  159.3223 H   0  0  0  0  0  0  0  0  0  0  0  0
  151.3696  144.6356  160.7032 H   0  0  0  0  0  0  0  0  0  0  0  0
  152.5445  145.6389  159.8876 H   0  0  0  0  0  0  0  0  0  0  0  0
  150.5488  145.2125  158.4489 H   0  0  0  0  0  0  0  0  0  0  0  0
  152.0120  144.5982  157.7159 H   0  0  0  0  0  0  0  0  0  0  0  0
  149.9558  142.9657  159.2691 H   0  0  0  0  0  0  0  0  0  0  0  0
  149.8704  143.7104  156.6437 H   0  0  0  0  0  0  0  0  0  0  0  0
  148.9496  142.8311  155.1662 H   0  0  0  0  0  0  0  0  0  0  0  0
  149.7948  139.2055  154.9925 H   0  0  0  0  0  0  0  0  0  0  0  0
  148.6184  137.7123  153.4098 H   0  0  0  0  0  0  0  0  0  0  0  0
  145.9157  140.6497  152.3505 H   0  0  0  0  0  0  0  0  0  0  0  0
  152.4817  141.9787  157.8539 H   0  0  0  0  0  0  0  0  0  0  0  0
  151.3091  140.9723  158.6693 H   0  0  0  0  0  0  0  0  0  0  0  0
  1  2  1  0  0  0  0
  1 20  1  0  0  0  0
  1 21  1  0  0  0  0
  1 22  1  0  0  0  0
  2  3  1  0  0  0  0
  3 19  1  0  0  0  0
  3  4  1  0  0  0  0
  3 23  1  0  0  0  0
  4  5  1  0  0  0  0
  4 24  1  0  0  0  0
  4 25  1  0  0  0  0
  5  6  1  0  0  0  0
  5 26  1  0  0  0  0
  5 27  1  0  0  0  0
  6  7  1  0  0  0  0
  6 28  1  0  0  0  0
  6 29  1  0  0  0  0
  7  8  1  0  0  0  0
  7 19  1  0  0  0  0
  7 30  1  0  0  0  0
  8  9  1  0  0  0  0
  8 31  1  0  0  0  0
  9 10  2  0  0  0  0
  9 11  1  0  0  0  0
 11 12  1  0  0  0  0
 11 32  1  0  0  0  0
 12 17  1  0  0  0  0
 12 13  2  0  0  0  0
 13 14  1  0  0  0  0
 13 33  1  0  0  0  0
 14 15  2  0  0  0  0
 14 34  1  0  0  0  0
 15 16  1  0  0  0  0
 16 17  2  0  0  0  0
 16 35  1  0  0  0  0
 17 18  1  0  0  0  0
 19 36  1  0  0  0  0
 19 37  1  0  0  0  0
M  END
> <s_m_source_file>
AV-unprocessed.smi

> <i_m_source_file_index>
2742

> <i_lp_mmshare_version>
43012

> <i_f3d_flags>
0

> <s_epik_input>
W0NIM11TW0NAQEhdMVtDSDJdW0NIMl1bQ0gyXVtDQEhdKFtDSDJdMSlbTkhdQyg9TylbTkhdYzJbY0hdW2NIXW5bY0hdYzJG

> <s_epik_cmdline>
J2VwaWtfcHl0aG9uJywgJy1waCcsICc3LjAnLCAnLXRuJywgJzgnLCAnLW1hJywgJzIwMCcsICctbWV0YWxfYmluZGluZycsICctaW1hZScsICc8aW5maWxlLm1hZT4nLCAnLW9tYWUnLCAnPG91dGZpbGUubWFlPic=

> <r_epik_Ionization_Penalty>
0.00344009

> <r_epik_Ionization_Penalty_Charging>
0

> <r_epik_Ionization_Penalty_Neutral>
0.00344009

> <r_epik_State_Penalty>
0.0024078

> <r_epik_Charging_Adjusted_Penalty>
0.0024078

> <i_epik_Tot_Q>
0

> <i_epik_Tot_abs_Q>
0

> <r_epik_Metal_State_Penalty>
-0

> <b_epik_Metal_Only>
0

> <s_lp_Force_Field>
OPLS_2005

> <r_lp_Energy>
14.4942

> <b_lp_Chiralities_Consistent>
1

> <s_lp_Variant>
AV-unprocessed.smi:2742-2

> <Gold.Version>
5.8.1

> <Gold.Id.Protein>
6NUR|6NUR_protein|mol2

> <Gold.PLP.Fitness>
49.0891

> <Gold.PLP.PLP>
-38.2008

> <Gold.PLP.part.hbond>
-2.0000

> <Gold.PLP.part.metal>
0.0000

> <Gold.PLP.part.buried>
-2.7825

> <Gold.PLP.part.nonpolar>
-35.1436

> <Gold.PLP.part.repulsive>
1.1567

> <Gold.PLP.ligand.clash>
0.0000

> <Gold.PLP.ligand.torsion>
0.5447

> <Gold.PLP.Chemscore.Hbond>
1.9920

> <Gold.PLP.Chemscore.CHOScore>
1.9982

> <Gold.PLP.Chemscore.Metal>
0.0000

> <Gold.Chemscore.Hbonds>
donor molecule, donor type, donor heavy atom, donor atom, acceptor molecule, acceptor atom, score
      L1  H     8    31       P1  8028  1.00
      L1  H    11    32       P1  8028  0.96
      L1  C    14    34       P1  7948  1.00
      L1  C    16    35       P1 10175  0.98

> <Gold.PLP.Chemscore.Internal.Correction>
0.0072

> <Gold.Rescore>
     Score         DG    S(hbond)    S(metal)    S(lipo)     H(rot)  DE(clash)    DE(int)     intcor
     19.80     -21.88       1.93        0.00     111.17       1.19       0.34       1.74       ----

> <Gold.Chemscore.Fitness>
19.8017

> <Gold.Chemscore.DG>
-21.8790

> <Gold.Chemscore.ZeroCoef>
-5.4800

> <Gold.Chemscore.Hbond>
1.9258

> <Gold.Chemscore.Metal>
0.0000

> <Gold.Chemscore.Lipo>
111.1690

> <Gold.Chemscore.Internal_Hbond>
0.0000

> <Gold.Chemscore.DEClash>
0.3368

> <Gold.Chemscore.DEInternal>
1.7406

> <Gold.Chemscore.Rot>
1.1875

> <Gold.Chemscore.Internal.Correction>
   9.000000E+99

> <Gold.Chemscore.Hbonds>
donor molecule, donor type, donor heavy atom, donor atom, acceptor molecule, acceptor atom, score
      L1  H     8    31       P1  8028  0.97
      L1  H    11    32       P1  8028  0.91

> <Gold.Chemscore.Hbond.Weighted>
-6.4322

> <Gold.Chemscore.Metal.Weighted>
-0.0000

> <Gold.Chemscore.Lipo.Weighted>
-13.0068

> <Gold.Chemscore.Internal_Hbond.Weighted>
0.0000

> <Gold.Chemscore.DEClash.Weighted>
0.3368

> <Gold.Chemscore.DEInternal.Weighted>
1.7406

> <Gold.Chemscore.Rot.Weighted>
3.0400

> <Gold.Chemscore.Internal.Correction.Weighted>
   9.000000E+99

> <Gold.Protein.RotatedTorsions>
[ 6907 6896 6895 6894 ] final  125.00 input  -60.11 | X-H torsion
[ 7974 7965 7964 7962 ] final -134.91 input  175.53 | X-H torsion
[ 8008 7997 7996 7995 ] final  -96.94 input   59.86 | X-H torsion
[ 10167 10162 10161 10158 ] final  120.11 input  -65.29 | X-H torsion
[ 10718 10713 10712 10709 ] final   64.73 input   66.30 | X-H torsion
[ 10763 10752 10751 10750 ] final -164.54 input  -60.55 | X-H torsion
[ 11005 11000 10999 10996 ] final  166.18 input  -57.11 | X-H torsion

> <Gold.Protein.ActiveResidues>
 VAL166  LYS551  ARG553  GLY616  TRP617  ASP618  TYR619  PRO620  LYS621  CYS622 
 ASP623  PHE694  ASN695  SER759  ASP760  ASP761  ALA762  ILE779  LEU786  VAL792 
 PHE793  MET794  SER795  GLU796  ALA797  LYS798  CYS799  TRP800  GLU811  SER814 

> <Gold.Protein.RotatedAtoms>
  152.4029  133.6845  159.6331 H   0  0  0  0  0  0  0  0  0  0  0  0  # atno 6907 bound_to 6896
  150.7918  133.8759  159.3281 H   0  0  0  0  0  0  0  0  0  0  0  0  # atno 6908 bound_to 6896
  151.6520  135.1002  160.0214 H   0  0  0  0  0  0  0  0  0  0  0  0  # atno 6909 bound_to 6896
  144.9060  140.6834  143.5055 H   0  0  0  0  0  0  0  0  0  0  0  0  # atno 7974 bound_to 7965
  154.7811  140.0467  157.1128 H   0  0  0  0  0  0  0  0  0  0  0  0  # atno 8008 bound_to 7997
  154.9703  140.3089  155.4971 H   0  0  0  0  0  0  0  0  0  0  0  0  # atno 8009 bound_to 7997
  156.2936  140.2254  156.4795 H   0  0  0  0  0  0  0  0  0  0  0  0  # atno 8010 bound_to 7997
  139.6003  144.7054  151.3079 H   0  0  0  0  0  0  0  0  0  0  0  0  # atno 10167 bound_to 10162
  157.6059  130.9176  149.9883 H   0  0  0  0  0  0  0  0  0  0  0  0  # atno 10718 bound_to 10713
  154.7018  135.2989  154.9329 H   0  0  0  0  0  0  0  0  0  0  0  0  # atno 10763 bound_to 10752
  154.0259  135.6676  153.4780 H   0  0  0  0  0  0  0  0  0  0  0  0  # atno 10764 bound_to 10752
  153.0687  135.5073  154.8167 H   0  0  0  0  0  0  0  0  0  0  0  0  # atno 10765 bound_to 10752
  140.2637  134.7882  157.3613 H   0  0  0  0  0  0  0  0  0  0  0  0  # atno 11005 bound_to 11000
  145.3534  139.1700  143.4422 LP  0  0  0  0  0  0  0  0  0  0  0  0  # atno 17320 bound_to 7965
  146.3134  140.3589  142.8663 LP  0  0  0  0  0  0  0  0  0  0  0  0  # atno 17321 bound_to 7965
  140.7244  143.7045  150.7818 LP  0  0  0  0  0  0  0  0  0  0  0  0  # atno 17342 bound_to 10162
  140.0620  143.5145  152.2623 LP  0  0  0  0  0  0  0  0  0  0  0  0  # atno 17343 bound_to 10162
  156.1145  130.3648  149.9992 LP  0  0  0  0  0  0  0  0  0  0  0  0  # atno 17370 bound_to 10713
  156.8084  130.9316  151.3644 LP  0  0  0  0  0  0  0  0  0  0  0  0  # atno 17371 bound_to 10713
  140.1439  134.4936  155.8010 LP  0  0  0  0  0  0  0  0  0  0  0  0  # atno 17394 bound_to 11000
  141.2187  133.6836  156.7260 LP  0  0  0  0  0  0  0  0  0  0  0  0  # atno 17395 bound_to 11000

$$$$
