AV-unprocessed.smi:2752|AV-procd|sdf|10605|dock1
  -GOLD-   2272015 53D 1   1.00000     0.00000
 Structure written by MMmdl.
 34 35  0  0  0  0  0  0  0  0  1 V2000
  151.3323  138.8699  154.7891 C   0  0  0  0  0  0  0  0  0  0  0  0
  149.9457  138.6601  154.5692 O   0  0  0  0  0  0  0  0  0  0  0  0
  149.1189  139.6426  155.1797 C   0  0  2  0  0  0  0  0  0  0  0  0
  147.6646  139.3331  154.8080 C   0  0  0  0  0  0  0  0  0  0  0  0
  147.4130  140.1179  153.5249 C   0  0  0  0  0  0  0  0  0  0  0  0
  148.1850  141.4190  153.7336 C   0  0  0  0  0  0  0  0  0  0  0  0
  149.4105  141.0416  154.5853 C   0  0  1  0  0  0  0  0  0  0  0  0
  149.6254  142.0173  155.6516 N   0  0  0  0  0  0  0  0  0  0  0  0
  150.2908  141.7940  156.7941 C   0  0  0  0  0  0  0  0  0  0  0  0
  150.8072  140.7143  157.0836 O   0  0  0  0  0  0  0  0  0  0  0  0
  150.3097  142.8952  157.5657 N   0  0  0  0  0  0  0  0  0  0  0  0
  150.9398  143.0746  158.8262 C   0  0  0  0  0  0  0  0  0  0  0  0
  151.9788  142.1592  159.1113 C   0  0  0  0  0  0  0  0  0  0  0  0
  152.6644  142.2481  160.3385 C   0  0  0  0  0  0  0  0  0  0  0  0
  152.2908  143.2519  161.2495 C   0  0  0  0  0  0  0  0  0  0  0  0
  152.9197  143.3761  162.4423 F   0  0  0  0  0  0  0  0  0  0  0  0
  151.2459  144.1232  160.8899 C   0  0  0  0  0  0  0  0  0  0  0  0
  150.5885  144.0391  159.7136 N   0  0  0  0  0  0  0  0  0  0  0  0
  151.9030  138.0910  154.2838 H   0  0  0  0  0  0  0  0  0  0  0  0
  151.5722  138.8231  155.8521 H   0  0  0  0  0  0  0  0  0  0  0  0
  151.6645  139.8331  154.4008 H   0  0  0  0  0  0  0  0  0  0  0  0
  149.2353  139.6055  156.2650 H   0  0  0  0  0  0  0  0  0  0  0  0
  147.4714  138.2656  154.6966 H   0  0  0  0  0  0  0  0  0  0  0  0
  147.0031  139.7063  155.5909 H   0  0  0  0  0  0  0  0  0  0  0  0
  147.8270  139.5749  152.6739 H   0  0  0  0  0  0  0  0  0  0  0  0
  146.3528  140.2840  153.3333 H   0  0  0  0  0  0  0  0  0  0  0  0
  148.4657  141.8874  152.7897 H   0  0  0  0  0  0  0  0  0  0  0  0
  147.5478  142.1255  154.2683 H   0  0  0  0  0  0  0  0  0  0  0  0
  150.2781  140.9833  153.9261 H   0  0  0  0  0  0  0  0  0  0  0  0
  149.2342  142.9362  155.5044 H   0  0  0  0  0  0  0  0  0  0  0  0
  149.8258  143.7035  157.2039 H   0  0  0  0  0  0  0  0  0  0  0  0
  152.2515  141.3938  158.3990 H   0  0  0  0  0  0  0  0  0  0  0  0
  153.4611  141.5585  160.5751 H   0  0  0  0  0  0  0  0  0  0  0  0
  150.9290  144.9068  161.5621 H   0  0  0  0  0  0  0  0  0  0  0  0
  1  2  1  0  0  0  0
  1 19  1  0  0  0  0
  1 20  1  0  0  0  0
  1 21  1  0  0  0  0
  2  3  1  0  0  0  0
  3  7  1  0  0  0  0
  3  4  1  0  0  0  0
  3 22  1  0  0  0  0
  4  5  1  0  0  0  0
  4 23  1  0  0  0  0
  4 24  1  0  0  0  0
  5  6  1  0  0  0  0
  5 25  1  0  0  0  0
  5 26  1  0  0  0  0
  6  7  1  0  0  0  0
  6 27  1  0  0  0  0
  6 28  1  0  0  0  0
  7  8  1  0  0  0  0
  7 29  1  0  0  0  0
  8  9  1  0  0  0  0
  8 30  1  0  0  0  0
  9 10  2  0  0  0  0
  9 11  1  0  0  0  0
 11 12  1  0  0  0  0
 11 31  1  0  0  0  0
 12 18  1  0  0  0  0
 12 13  2  0  0  0  0
 13 14  1  0  0  0  0
 13 32  1  0  0  0  0
 14 15  2  0  0  0  0
 14 33  1  0  0  0  0
 15 16  1  0  0  0  0
 15 17  1  0  0  0  0
 17 18  2  0  0  0  0
 17 34  1  0  0  0  0
M  END
> <s_m_source_file>
AV-unprocessed.smi

> <i_m_source_file_index>
2752

> <i_lp_mmshare_version>
43012

> <i_f3d_flags>
0

> <s_epik_input>
W0NIM11PW0NAQEhdMVtDSDJdW0NIMl1bQ0gyXVtDQEhdMVtOSF1DKD1PKVtOSF1jMltjSF1bY0hdYyhGKVtjSF1uMg==

> <s_epik_cmdline>
J2VwaWtfcHl0aG9uJywgJy1waCcsICc3LjAnLCAnLXRuJywgJzgnLCAnLW1hJywgJzIwMCcsICctbWV0YWxfYmluZGluZycsICctaW1hZScsICc8aW5maWxlLm1hZT4nLCAnLW9tYWUnLCAnPG91dGZpbGUubWFlPic=

> <r_lp_tautomer_probability>
1

> <r_epik_Ionization_Penalty>
3.49853e-05

> <r_epik_Ionization_Penalty_Charging>
0

> <r_epik_Ionization_Penalty_Neutral>
3.49853e-05

> <r_epik_State_Penalty>
-0

> <r_epik_Charging_Adjusted_Penalty>
0

> <i_epik_Tot_Q>
0

> <i_epik_Tot_abs_Q>
0

> <r_epik_Metal_State_Penalty>
-0

> <b_epik_Metal_Only>
0

> <s_lp_Force_Field>
OPLS_2005

> <r_lp_Energy>
22.4566

> <b_lp_Chiralities_Consistent>
1

> <s_lp_Variant>
AV-unprocessed.smi:2752-1

> <Gold.Version>
5.8.1

> <Gold.Id.Protein>
6NUR|6NUR_protein|mol2

> <Gold.PLP.Fitness>
41.6188

> <Gold.PLP.PLP>
-36.4524

> <Gold.PLP.part.hbond>
-2.0000

> <Gold.PLP.part.metal>
0.0000

> <Gold.PLP.part.buried>
-4.1362

> <Gold.PLP.part.nonpolar>
-29.7229

> <Gold.PLP.part.repulsive>
0.4860

> <Gold.PLP.ligand.clash>
0.0000

> <Gold.PLP.ligand.torsion>
0.4085

> <Gold.PLP.Chemscore.Hbond>
1.9913

> <Gold.PLP.Chemscore.CHOScore>
0.0000

> <Gold.PLP.Chemscore.Metal>
0.0000

> <Gold.Chemscore.Hbonds>
donor molecule, donor type, donor heavy atom, donor atom, acceptor molecule, acceptor atom, score
      L1  H     8    30       P1  8028  1.00
      L1  H    11    31       P1  8028  0.93

> <Gold.PLP.Chemscore.Internal.Correction>
0.0096

> <Gold.Rescore>
     Score         DG    S(hbond)    S(metal)    S(lipo)     H(rot)  DE(clash)    DE(int)     intcor
     14.83     -18.31       1.97        0.00      81.63       1.28       0.06       3.42       ----

> <Gold.Chemscore.Fitness>
14.8300

> <Gold.Chemscore.DG>
-18.3129

> <Gold.Chemscore.ZeroCoef>
-5.4800

> <Gold.Chemscore.Hbond>
1.9652

> <Gold.Chemscore.Metal>
0.0000

> <Gold.Chemscore.Lipo>
81.6347

> <Gold.Chemscore.Internal_Hbond>
0.0000

> <Gold.Chemscore.DEClash>
0.0583

> <Gold.Chemscore.DEInternal>
3.4246

> <Gold.Chemscore.Rot>
1.2821

> <Gold.Chemscore.Internal.Correction>
   9.000000E+99

> <Gold.Chemscore.Hbonds>
donor molecule, donor type, donor heavy atom, donor atom, acceptor molecule, acceptor atom, score
      L1  H     8    30       P1  8028  1.00
      L1  H    11    31       P1  8028  0.77

> <Gold.Chemscore.Hbond.Weighted>
-6.5638

> <Gold.Chemscore.Metal.Weighted>
-0.0000

> <Gold.Chemscore.Lipo.Weighted>
-9.5513

> <Gold.Chemscore.Internal_Hbond.Weighted>
0.0000

> <Gold.Chemscore.DEClash.Weighted>
0.0583

> <Gold.Chemscore.DEInternal.Weighted>
3.4246

> <Gold.Chemscore.Rot.Weighted>
3.2822

> <Gold.Chemscore.Internal.Correction.Weighted>
   9.000000E+99

> <Gold.Protein.RotatedTorsions>
[ 6907 6896 6895 6894 ] final  -70.98 input  -60.11 | X-H torsion
[ 7974 7965 7964 7962 ] final   15.10 input  175.53 | X-H torsion
[ 8008 7997 7996 7995 ] final   36.89 input   59.86 | X-H torsion
[ 10167 10162 10161 10158 ] final  -13.84 input  -65.29 | X-H torsion
[ 10718 10713 10712 10709 ] final -123.94 input   66.30 | X-H torsion
[ 10763 10752 10751 10750 ] final  -41.80 input  -60.55 | X-H torsion
[ 11005 11000 10999 10996 ] final   -6.94 input  -57.11 | X-H torsion

> <Gold.Protein.ActiveResidues>
 VAL166  LYS551  ARG553  GLY616  TRP617  ASP618  TYR619  PRO620  LYS621  CYS622 
 ASP623  PHE694  ASN695  SER759  ASP760  ASP761  ALA762  ILE779  LEU786  VAL792 
 PHE793  MET794  SER795  GLU796  ALA797  LYS798  CYS799  TRP800  GLU811  SER814 

> <Gold.Protein.RotatedAtoms>
  150.7233  134.5375  159.5730 H   0  0  0  0  0  0  0  0  0  0  0  0  # atno 6907 bound_to 6896
  152.2894  134.7736  160.0390 H   0  0  0  0  0  0  0  0  0  0  0  0  # atno 6908 bound_to 6896
  151.8355  133.3380  159.3663 H   0  0  0  0  0  0  0  0  0  0  0  0  # atno 6909 bound_to 6896
  146.2287  139.8943  142.8549 H   0  0  0  0  0  0  0  0  0  0  0  0  # atno 7974 bound_to 7965
  155.1948  140.3311  155.4352 H   0  0  0  0  0  0  0  0  0  0  0  0  # atno 8008 bound_to 7997
  156.2429  140.1904  156.6989 H   0  0  0  0  0  0  0  0  0  0  0  0  # atno 8009 bound_to 7997
  154.6181  140.0599  156.9566 H   0  0  0  0  0  0  0  0  0  0  0  0  # atno 8010 bound_to 7997
  140.7190  143.5384  150.9438 H   0  0  0  0  0  0  0  0  0  0  0  0  # atno 10167 bound_to 10162
  156.1544  130.6558  150.9961 H   0  0  0  0  0  0  0  0  0  0  0  0  # atno 10718 bound_to 10713
  153.9685  135.6731  153.4746 H   0  0  0  0  0  0  0  0  0  0  0  0  # atno 10763 bound_to 10752
  153.0804  135.4926  154.8487 H   0  0  0  0  0  0  0  0  0  0  0  0  # atno 10764 bound_to 10752
  154.7232  135.3121  154.8974 H   0  0  0  0  0  0  0  0  0  0  0  0  # atno 10765 bound_to 10752
  140.7074  133.8938  155.8726 H   0  0  0  0  0  0  0  0  0  0  0  0  # atno 11005 bound_to 11000
  145.2386  141.0000  143.3949 LP  0  0  0  0  0  0  0  0  0  0  0  0  # atno 17320 bound_to 7965
  144.9470  139.4124  143.6421 LP  0  0  0  0  0  0  0  0  0  0  0  0  # atno 17321 bound_to 7965
  139.9106  143.6725  152.3116 LP  0  0  0  0  0  0  0  0  0  0  0  0  # atno 17342 bound_to 10162
  139.7107  144.7620  151.1117 LP  0  0  0  0  0  0  0  0  0  0  0  0  # atno 17343 bound_to 10162
  157.6683  131.0867  150.7674 LP  0  0  0  0  0  0  0  0  0  0  0  0  # atno 17370 bound_to 10713
  156.7740  130.4838  149.5413 LP  0  0  0  0  0  0  0  0  0  0  0  0  # atno 17371 bound_to 10713
  141.0113  134.1016  157.4218 LP  0  0  0  0  0  0  0  0  0  0  0  0  # atno 17394 bound_to 11000
  139.8881  135.0095  156.6598 LP  0  0  0  0  0  0  0  0  0  0  0  0  # atno 17395 bound_to 11000

$$$$
