AV-unprocessed.smi:2336|AV-procd|sdf|9328|dock7
  -GOLD-   2272012543D 1   1.00000     0.00000
 Structure written by MMmdl.
 50 51  0  0  0  0  0  0  0  0  2 V2000
  148.6266  137.8342  157.4360 C   0  0  0  0  0  0  0  0  0  0  0  0
  147.4251  137.5082  156.5321 C   0  0  0  0  0  0  0  0  0  0  0  0
  147.2300  135.9876  156.4043 C   0  0  0  0  0  0  0  0  0  0  0  0
  147.4094  138.2189  155.1455 C   0  0  1  0  0  0  0  0  0  0  0  0
  146.1916  137.8760  154.2482 C   0  0  0  0  0  0  0  0  0  0  0  0
  146.5378  136.9043  153.2193 N   0  0  0  0  0  0  0  0  0  0  0  0
  145.6760  136.0234  152.6950 C   0  0  0  0  0  0  0  0  0  0  0  0
  144.4945  135.9590  153.0322 O   0  0  0  0  0  0  0  0  0  0  0  0
  146.2755  135.2512  151.7721 N   0  0  0  0  0  0  0  0  0  0  0  0
  145.7369  134.2030  150.9738 C   0  0  0  0  0  0  0  0  0  0  0  0
  144.4552  134.2217  150.3700 C   0  0  0  0  0  0  0  0  0  0  0  0
  144.0503  133.1063  149.6094 C   0  0  0  0  0  0  0  0  0  0  0  0
  144.8182  132.0120  149.4247 N   0  0  0  0  0  0  0  0  0  0  0  0
  146.0361  131.9941  150.0055 C   0  0  0  0  0  0  0  0  0  0  0  0
  146.5373  133.0560  150.7847 C   0  0  0  0  0  0  0  0  0  0  0  0
  147.7701  132.9711  151.3408 F   0  0  0  0  0  0  0  0  0  0  0  0
  147.6698  139.6658  155.2665 N   0  0  0  0  0  0  0  0  0  0  0  0
  146.6959  140.4138  156.0732 C   0  0  0  0  0  0  0  0  0  0  0  0
  147.1898  141.8591  156.2787 C   0  0  0  0  0  0  0  0  0  0  0  0
  147.3827  142.5505  154.9815 N   0  3  0  0  0  0  0  0  0  0  0  0
  146.1205  142.9849  154.3394 C   0  0  0  0  0  0  0  0  0  0  0  0
  148.2622  141.7520  154.0947 C   0  0  0  0  0  0  0  0  0  0  0  0
  147.7558  140.3019  153.9482 C   0  0  0  0  0  0  0  0  0  0  0  0
  149.5442  137.3751  157.0702 H   0  0  0  0  0  0  0  0  0  0  0  0
  148.4618  137.4497  158.4427 H   0  0  0  0  0  0  0  0  0  0  0  0
  148.7895  138.9075  157.5266 H   0  0  0  0  0  0  0  0  0  0  0  0
  146.5469  137.8646  157.0708 H   0  0  0  0  0  0  0  0  0  0  0  0
  148.0818  135.5125  155.9171 H   0  0  0  0  0  0  0  0  0  0  0  0
  146.3386  135.7516  155.8225 H   0  0  0  0  0  0  0  0  0  0  0  0
  147.1125  135.5243  157.3845 H   0  0  0  0  0  0  0  0  0  0  0  0
  148.2745  137.7981  154.6306 H   0  0  0  0  0  0  0  0  0  0  0  0
  145.3661  137.4751  154.8376 H   0  0  0  0  0  0  0  0  0  0  0  0
  145.8211  138.7761  153.7557 H   0  0  0  0  0  0  0  0  0  0  0  0
  147.4922  136.9008  152.8905 H   0  0  0  0  0  0  0  0  0  0  0  0
  147.2491  135.4545  151.5982 H   0  0  0  0  0  0  0  0  0  0  0  0
  143.7733  135.0504  150.4716 H   0  0  0  0  0  0  0  0  0  0  0  0
  143.0789  133.0928  149.1376 H   0  0  0  0  0  0  0  0  0  0  0  0
  146.6297  131.1062  149.8453 H   0  0  0  0  0  0  0  0  0  0  0  0
  145.7177  140.4204  155.5919 H   0  0  0  0  0  0  0  0  0  0  0  0
  146.5566  139.9468  157.0451 H   0  0  0  0  0  0  0  0  0  0  0  0
  146.4886  142.4187  156.8988 H   0  0  0  0  0  0  0  0  0  0  0  0
  148.1385  141.8506  156.8173 H   0  0  0  0  0  0  0  0  0  0  0  0
  145.4935  142.1393  154.0575 H   0  0  0  0  0  0  0  0  0  0  0  0
  146.3305  143.5644  153.4401 H   0  0  0  0  0  0  0  0  0  0  0  0
  145.5478  143.6213  155.0146 H   0  0  0  0  0  0  0  0  0  0  0  0
  148.3426  142.2301  153.1179 H   0  0  0  0  0  0  0  0  0  0  0  0
  149.2681  141.7456  154.5170 H   0  0  0  0  0  0  0  0  0  0  0  0
  148.4586  139.7541  153.3193 H   0  0  0  0  0  0  0  0  0  0  0  0
  146.7904  140.2731  153.4420 H   0  0  0  0  0  0  0  0  0  0  0  0
  147.8841  143.4034  155.1859 H   0  0  0  0  0  0  0  0  0  0  0  0
  1  2  1  0  0  0  0
  1 24  1  0  0  0  0
  1 25  1  0  0  0  0
  1 26  1  0  0  0  0
  2  3  1  0  0  0  0
  2  4  1  0  0  0  0
  2 27  1  0  0  0  0
  3 28  1  0  0  0  0
  3 29  1  0  0  0  0
  3 30  1  0  0  0  0
  4  5  1  0  0  0  0
  4 17  1  0  0  0  0
  4 31  1  0  0  0  0
  5  6  1  0  0  0  0
  5 32  1  0  0  0  0
  5 33  1  0  0  0  0
  6  7  1  0  0  0  0
  6 34  1  0  0  0  0
  7  8  2  0  0  0  0
  7  9  1  0  0  0  0
  9 10  1  0  0  0  0
  9 35  1  0  0  0  0
 10 15  1  0  0  0  0
 10 11  2  0  0  0  0
 11 12  1  0  0  0  0
 11 36  1  0  0  0  0
 12 13  2  0  0  0  0
 12 37  1  0  0  0  0
 13 14  1  0  0  0  0
 14 15  2  0  0  0  0
 14 38  1  0  0  0  0
 15 16  1  0  0  0  0
 17 23  1  0  0  0  0
 17 18  1  0  0  0  0
 18 19  1  0  0  0  0
 18 39  1  0  0  0  0
 18 40  1  0  0  0  0
 19 20  1  0  0  0  0
 19 41  1  0  0  0  0
 19 42  1  0  0  0  0
 20 21  1  0  0  0  0
 20 22  1  0  0  0  0
 20 50  1  0  0  0  0
 21 43  1  0  0  0  0
 21 44  1  0  0  0  0
 21 45  1  0  0  0  0
 22 23  1  0  0  0  0
 22 46  1  0  0  0  0
 22 47  1  0  0  0  0
 23 48  1  0  0  0  0
 23 49  1  0  0  0  0
M  CHG  1  20   1
M  END
> <s_m_source_file>
AV-unprocessed.smi

> <i_m_source_file_index>
2336

> <i_lp_mmshare_version>
43012

> <i_f3d_flags>
0

> <s_epik_input>
W0NIMl0xW0NIMl1OKFtDSDNdKVtDSDJdW0NIMl1OMVtDQEhdKFtDSF0oW0NIM10pW0NIM10pW0NIMl1bTkhdQyg9TylbTkhdYzJbY0hdW2NIXW5bY0hdYzJG

> <s_epik_cmdline>
J2VwaWtfcHl0aG9uJywgJy1waCcsICc3LjAnLCAnLXRuJywgJzgnLCAnLW1hJywgJzIwMCcsICctbWV0YWxfYmluZGluZycsICctaW1hZScsICc8aW5maWxlLm1hZT4nLCAnLW9tYWUnLCAnPG91dGZpbGUubWFlPic=

> <r_epik_Ionization_Penalty>
0.0313013

> <r_epik_Ionization_Penalty_Charging>
0.0272987

> <r_epik_Ionization_Penalty_Neutral>
0.00400259

> <r_epik_State_Penalty>
0.0776825

> <r_epik_Charging_Adjusted_Penalty>
0.104981

> <i_epik_Tot_Q>
1

> <i_epik_Tot_abs_Q>
1

> <r_epik_Metal_State_Penalty>
0.0776139

> <b_epik_Metal_Only>
0

> <s_lp_Force_Field>
OPLS_2005

> <r_lp_Energy>
31.1795

> <b_lp_Chiralities_Consistent>
1

> <s_lp_Variant>
AV-unprocessed.smi:2336-2

> <Gold.Version>
5.8.1

> <Gold.Id.Protein>
6NUR|6NUR_protein|mol2

> <Gold.PLP.Fitness>
45.4971

> <Gold.PLP.PLP>
-30.1099

> <Gold.PLP.part.hbond>
-3.4889

> <Gold.PLP.part.metal>
0.0000

> <Gold.PLP.part.buried>
-0.3580

> <Gold.PLP.part.nonpolar>
-25.3347

> <Gold.PLP.part.repulsive>
0.4724

> <Gold.PLP.ligand.clash>
0.0000

> <Gold.PLP.ligand.torsion>
1.2614

> <Gold.PLP.Chemscore.Hbond>
4.0000

> <Gold.PLP.Chemscore.CHOScore>
1.8496

> <Gold.PLP.Chemscore.Metal>
0.0000

> <Gold.Chemscore.Hbonds>
donor molecule, donor type, donor heavy atom, donor atom, acceptor molecule, acceptor atom, score
      L1  H     6    34       P1  7948  1.00
      L1  H     9    35       P1  7948  1.00
      L1  H    20    50       P1  8028  2.00
      L1  C    12    37       P1 10186  1.00
      L1  C    14    38       P1 10747  0.95

> <Gold.PLP.Chemscore.Internal.Correction>
0.3611

> <Gold.Rescore>
     Score         DG    S(hbond)    S(metal)    S(lipo)     H(rot)  DE(clash)    DE(int)     intcor
     17.35     -19.44       2.95        0.00      71.68       1.67       0.78       1.31       ----

> <Gold.Chemscore.Fitness>
17.3536

> <Gold.Chemscore.DG>
-19.4438

> <Gold.Chemscore.ZeroCoef>
-5.4800

> <Gold.Chemscore.Hbond>
2.9528

> <Gold.Chemscore.Metal>
0.0000

> <Gold.Chemscore.Lipo>
71.6805

> <Gold.Chemscore.Internal_Hbond>
0.0000

> <Gold.Chemscore.DEClash>
0.7796

> <Gold.Chemscore.DEInternal>
1.3106

> <Gold.Chemscore.Rot>
1.6739

> <Gold.Chemscore.Internal.Correction>
   9.000000E+99

> <Gold.Chemscore.Hbonds>
donor molecule, donor type, donor heavy atom, donor atom, acceptor molecule, acceptor atom, score
      L1  H     6    34       P1  7948  0.97
      L1  H     9    35       P1  7948  0.97
      L1  H    20    50       P1  8028  0.55

> <Gold.Chemscore.Hbond.Weighted>
-9.8623

> <Gold.Chemscore.Metal.Weighted>
-0.0000

> <Gold.Chemscore.Lipo.Weighted>
-8.3866

> <Gold.Chemscore.Internal_Hbond.Weighted>
0.0000

> <Gold.Chemscore.DEClash.Weighted>
0.7796

> <Gold.Chemscore.DEInternal.Weighted>
1.3106

> <Gold.Chemscore.Rot.Weighted>
4.2851

> <Gold.Chemscore.Internal.Correction.Weighted>
   9.000000E+99

> <Gold.Protein.RotatedTorsions>
[ 6907 6896 6895 6894 ] final  119.69 input  -60.11 | X-H torsion
[ 7974 7965 7964 7962 ] final  124.05 input  175.53 | X-H torsion
[ 8008 7997 7996 7995 ] final  135.44 input   59.86 | X-H torsion
[ 10167 10162 10161 10158 ] final -166.94 input  -65.29 | X-H torsion
[ 10718 10713 10712 10709 ] final  177.01 input   66.30 | X-H torsion
[ 10763 10752 10751 10750 ] final  136.34 input  -60.55 | X-H torsion
[ 11005 11000 10999 10996 ] final   11.46 input  -57.11 | X-H torsion

> <Gold.Protein.ActiveResidues>
 VAL166  LYS551  ARG553  GLY616  TRP617  ASP618  TYR619  PRO620  LYS621  CYS622 
 ASP623  PHE694  ASN695  SER759  ASP760  ASP761  ALA762  ILE779  LEU786  VAL792 
 PHE793  MET794  SER795  GLU796  ALA797  LYS798  CYS799  TRP800  GLU811  SER814 

> <Gold.Protein.RotatedAtoms>
  152.4453  133.7525  159.6701 H   0  0  0  0  0  0  0  0  0  0  0  0  # atno 6907 bound_to 6896
  150.8352  133.8015  159.3088 H   0  0  0  0  0  0  0  0  0  0  0  0  # atno 6908 bound_to 6896
  151.5657  135.1066  160.0035 H   0  0  0  0  0  0  0  0  0  0  0  0  # atno 6909 bound_to 6896
  145.0889  139.3601  143.4871 H   0  0  0  0  0  0  0  0  0  0  0  0  # atno 7974 bound_to 7965
  156.3003  140.2470  156.3582 H   0  0  0  0  0  0  0  0  0  0  0  0  # atno 8008 bound_to 7997
  154.8902  140.0409  157.1853 H   0  0  0  0  0  0  0  0  0  0  0  0  # atno 8009 bound_to 7997
  154.8606  140.2920  155.5545 H   0  0  0  0  0  0  0  0  0  0  0  0  # atno 8010 bound_to 7997
  139.6082  144.0870  152.1814 H   0  0  0  0  0  0  0  0  0  0  0  0  # atno 10167 bound_to 10162
  156.9117  130.9912  151.3019 H   0  0  0  0  0  0  0  0  0  0  0  0  # atno 10718 bound_to 10713
  153.8550  135.3074  155.3434 H   0  0  0  0  0  0  0  0  0  0  0  0  # atno 10763 bound_to 10752
  154.7874  135.4802  153.9980 H   0  0  0  0  0  0  0  0  0  0  0  0  # atno 10764 bound_to 10752
  153.1496  135.6840  153.8996 H   0  0  0  0  0  0  0  0  0  0  0  0  # atno 10765 bound_to 10752
  140.5030  134.0727  155.7798 H   0  0  0  0  0  0  0  0  0  0  0  0  # atno 11005 bound_to 11000
  146.3531  140.0714  142.8623 LP  0  0  0  0  0  0  0  0  0  0  0  0  # atno 17320 bound_to 7965
  145.1089  140.9393  143.4668 LP  0  0  0  0  0  0  0  0  0  0  0  0  # atno 17321 bound_to 7965
  140.0482  144.5954  150.7357 LP  0  0  0  0  0  0  0  0  0  0  0  0  # atno 17342 bound_to 10162
  140.7300  143.2678  151.3986 LP  0  0  0  0  0  0  0  0  0  0  0  0  # atno 17343 bound_to 10162
  157.5963  130.8480  149.8734 LP  0  0  0  0  0  0  0  0  0  0  0  0  # atno 17370 bound_to 10713
  156.0533  130.3713  150.1151 LP  0  0  0  0  0  0  0  0  0  0  0  0  # atno 17371 bound_to 10713
  141.1425  133.9112  157.2292 LP  0  0  0  0  0  0  0  0  0  0  0  0  # atno 17394 bound_to 11000
  139.9702  135.0130  156.9492 LP  0  0  0  0  0  0  0  0  0  0  0  0  # atno 17395 bound_to 11000

$$$$
