#       Name:                AV-unprocessed.smi:2083
#       Creating user name   scv26
#       Creation time:       Fri Mar 27 11:20:13 2020


#       File generated by GOLD software.
#

@<TRIPOS>MOLECULE
AV-unprocessed.smi:2083
    50    51     1
SMALL
NO_CHARGES


@<TRIPOS>ATOM
      1 ****        -3.8860   6.8494  -2.5707 C.3            1 S1                 0.0000
      2 ****        -3.3271   5.5254  -2.1765 C.2            1 S1                 0.0000
      3 ****        -3.2300   4.8756  -0.9780 C.2            1 S1                 0.0000
      4 ****        -2.5885   3.6573  -1.3260 C.2            1 S1                 0.0000
      5 ****        -2.2900   2.6831  -0.3390 N.am           1 S1                 0.0000
      6 ****        -1.7087   1.4853  -0.5226 C.2            1 S1                 0.0000
      7 ****        -1.3766   1.0158  -1.6114 O.2            1 S1                 0.0000
      8 ****        -1.5263   0.8449   0.6413 N.am           1 S1                 0.0000
      9 ****        -0.9167  -0.4745   0.7824 C.3            1 S1                 0.0000
     10 ****         0.6196  -0.4516   0.5955 C.3            1 S1                 0.0000
     11 ****         1.3260   0.5255   1.5605 C.3            1 S1                 0.0000
     12 ****         1.1796  -1.8343   0.6511 N.4            1 S1                 1.0000
     13 ****         1.2718  -2.4290   2.0129 C.3            1 S1                 0.0000
     14 ****         1.6184  -3.9236   1.9332 C.3            1 S1                 0.0000
     15 ****         2.9208  -4.1433   1.1498 C.3            1 S1                 0.0000
     16 ****         2.8621  -3.4712  -0.2350 C.3            1 S1                 0.0000
     17 ****         1.9716  -4.2368  -1.2293 C.3            1 S1                 0.0000
     18 ****         2.4524  -1.9888  -0.1051 C.3            1 S1                 0.0000
     19 ****        -2.3175   3.5712  -2.6193 N.2            1 S1                 0.0000
     20 ****        -2.7893   4.7682  -3.1709 O.3            1 S1                 0.0000
     21 ****        -4.3950   7.3233  -1.7313 H              1 S1                 0.0000
     22 ****        -4.6045   6.7396  -3.3830 H              1 S1                 0.0000
     23 ****        -3.0934   7.5179  -2.9072 H              1 S1                 0.0000
     24 ****        -3.5646   5.2203  -0.0108 H              1 S1                 0.0000
     25 ****        -2.5310   2.9327   0.6086 H              1 S1                 0.0000
     26 ****        -1.8327   1.2995   1.4894 H              1 S1                 0.0000
     27 ****        -1.1784  -0.8413   1.7742 H              1 S1                 0.0000
     28 ****        -1.3750  -1.1628   0.0701 H              1 S1                 0.0000
     29 ****         0.8000  -0.0850  -0.4158 H              1 S1                 0.0000
     30 ****         1.0001   1.5515   1.3886 H              1 S1                 0.0000
     31 ****         2.4075   0.5126   1.4266 H              1 S1                 0.0000
     32 ****         1.1130   0.2910   2.6036 H              1 S1                 0.0000
     33 ****         2.0340  -1.9108   2.5963 H              1 S1                 0.0000
     34 ****         0.3301  -2.3122   2.5476 H              1 S1                 0.0000
     35 ****         1.7188  -4.3349   2.9382 H              1 S1                 0.0000
     36 ****         0.8003  -4.4685   1.4610 H              1 S1                 0.0000
     37 ****         3.7521  -3.7228   1.7175 H              1 S1                 0.0000
     38 ****         3.1286  -5.2093   1.0508 H              1 S1                 0.0000
     39 ****         3.8710  -3.4947  -0.6491 H              1 S1                 0.0000
     40 ****         0.9277  -4.2506  -0.9160 H              1 S1                 0.0000
     41 ****         2.3005  -5.2714  -1.3320 H              1 S1                 0.0000
     42 ****         2.0115  -3.7822  -2.2196 H              1 S1                 0.0000
     43 ****         2.3566  -1.5528  -1.1004 H              1 S1                 0.0000
     44 ****         3.2429  -1.4340   0.4021 H              1 S1                 0.0000
     45 ****         0.5122  -2.4017   0.1482 H              1 S1                 0.0000
     46 ****        -1.5353   1.5369  -2.4500 LP             1 S1                 0.0000
     47 ****        -0.9481   0.1133  -1.6571 LP             1 S1                 0.0000
     48 ****        -1.8721   2.8147  -3.0983 LP             1 S1                 0.0000
     49 ****        -2.0326   5.2627  -3.5986 LP             1 S1                 0.0000
     50 ****        -3.4882   4.5695  -3.8579 LP             1 S1                 0.0000
@<TRIPOS>BOND
    1    1    2 1     
    2    1   21 1     
    3    1   22 1     
    4    1   23 1     
    5    2   20 1     
    6    2    3 2     
    7    3    4 1     
    8    3   24 1     
    9    4    5 1     
   10    4   19 2     
   11    5    6 am    
   12    5   25 1     
   13    6    7 2     
   14    6    8 am    
   15    8    9 1     
   16    8   26 1     
   17    9   10 1     
   18    9   27 1     
   19    9   28 1     
   20   10   11 1     
   21   10   12 1     
   22   10   29 1     
   23   11   30 1     
   24   11   31 1     
   25   11   32 1     
   26   12   18 1     
   27   12   13 1     
   28   12   45 1     
   29   13   14 1     
   30   13   33 1     
   31   13   34 1     
   32   14   15 1     
   33   14   35 1     
   34   14   36 1     
   35   15   16 1     
   36   15   37 1     
   37   15   38 1     
   38   16   17 1     
   39   16   18 1     
   40   16   39 1     
   41   17   40 1     
   42   17   41 1     
   43   17   42 1     
   44   18   43 1     
   45   18   44 1     
   46   19   20 1     
   47    7   46 1     
   48    7   47 1     
   49   19   48 1     
   50   20   49 1     
   51   20   50 1     
@<TRIPOS>SUBSTRUCTURE
      1 S1             1
@<TRIPOS>SET
LONE_PAIRS      STATIC     ATOMS    <user>   **** ""
5 46 47 48 49 50
DONOR_HYDROGENS      STATIC     ATOMS    <user>   **** ""
3 25 26 45
ATOM$BLUE        STATIC     ATOMS    COLORGROUP SYSTEM
5 46 47 48 49 50
ATOM$RED        STATIC     ATOMS    COLORGROUP SYSTEM
3 25 26 45
