AV-unprocessed.smi:224|AV-procd|sdf|1713|dock7
  -GOLD-   2262020183D 1   1.00000     0.00000
 Structure written by MMmdl.
 56 59  0  0  0  0  0  0  0  0  2 V2000
  144.8330  131.7056  151.0513 C   0  0  0  0  0  0  0  0  0  0  0  0
  143.5314  132.5170  151.0863 C   0  0  2  0  0  0  0  0  0  0  0  0
  142.8932  132.3644  149.8343 O   0  0  0  0  0  0  0  0  0  0  0  0
  143.7987  134.0128  151.3499 C   0  0  0  0  0  0  0  0  0  0  0  0
  144.0378  134.3161  152.7857 N   0  3  1  0  0  0  0  0  0  0  0  0
  145.4219  134.7738  153.0843 C   0  0  0  0  0  0  0  0  0  0  0  0
  145.6350  134.9212  154.6015 C   0  0  0  0  0  0  0  0  0  0  0  0
  144.6095  135.7745  155.1988 N   0  0  0  0  0  0  0  0  0  0  0  0
  144.8398  137.1097  155.3261 C   0  0  0  0  0  0  0  0  0  0  0  0
  144.1343  137.8274  156.2411 N   0  0  0  0  0  0  0  0  0  0  0  0
  144.3508  139.1368  156.3918 C   0  0  0  0  0  0  0  0  0  0  0  0
  145.2100  139.9193  155.7384 N   0  0  0  0  0  0  0  0  0  0  0  0
  145.9160  139.2125  154.8108 C   0  0  0  0  0  0  0  0  0  0  0  0
  145.7945  137.8191  154.5405 C   0  0  0  0  0  0  0  0  0  0  0  0
  146.6644  137.4638  153.5157 N   0  0  0  0  0  0  0  0  0  0  0  0
  147.2718  138.5769  153.2080 C   0  0  0  0  0  0  0  0  0  0  0  0
  146.8858  139.6767  153.9395 N   0  0  0  0  0  0  0  0  0  0  0  0
  147.3915  141.0337  153.7997 C   0  0  0  0  0  0  0  0  0  0  0  0
  148.5867  141.3446  154.7301 C   0  0  2  0  0  0  0  0  0  0  0  0
  149.0815  142.6381  154.4271 O   0  0  0  0  0  0  0  0  0  0  0  0
  149.7369  140.3473  154.6262 C   0  0  0  0  0  0  0  0  0  0  0  0
  150.3123  140.3462  156.0353 C   0  0  0  0  0  0  0  0  0  0  0  0
  149.1498  140.4137  156.8430 O   0  0  0  0  0  0  0  0  0  0  0  0
  148.2212  141.3006  156.2276 C   0  0  0  0  0  0  0  0  0  0  0  0
  143.2390  135.3498  154.9176 C   0  0  0  0  0  0  0  0  0  0  0  0
  142.9883  135.1827  153.4017 C   0  0  1  0  0  0  0  0  0  0  0  0
  142.8176  136.5406  152.6866 C   0  0  0  0  0  0  0  0  0  0  0  0
  145.3598  131.7694  152.0037 H   0  0  0  0  0  0  0  0  0  0  0  0
  145.5070  132.0663  150.2734 H   0  0  0  0  0  0  0  0  0  0  0  0
  144.6344  130.6513  150.8561 H   0  0  0  0  0  0  0  0  0  0  0  0
  142.8871  132.0924  151.8553 H   0  0  0  0  0  0  0  0  0  0  0  0
  142.5086  133.1894  149.5821 H   0  0  0  0  0  0  0  0  0  0  0  0
  144.6555  134.3519  150.7655 H   0  0  0  0  0  0  0  0  0  0  0  0
  142.9398  134.5836  150.9925 H   0  0  0  0  0  0  0  0  0  0  0  0
  146.1509  134.0631  152.6980 H   0  0  0  0  0  0  0  0  0  0  0  0
  145.6160  135.7196  152.5778 H   0  0  0  0  0  0  0  0  0  0  0  0
  145.5711  133.9402  155.0738 H   0  0  0  0  0  0  0  0  0  0  0  0
  146.6378  135.2912  154.8191 H   0  0  0  0  0  0  0  0  0  0  0  0
  143.7502  139.6276  157.1434 H   0  0  0  0  0  0  0  0  0  0  0  0
  148.0240  138.6276  152.4339 H   0  0  0  0  0  0  0  0  0  0  0  0
  147.6757  141.1873  152.7578 H   0  0  0  0  0  0  0  0  0  0  0  0
  146.5720  141.7260  153.9965 H   0  0  0  0  0  0  0  0  0  0  0  0
  148.8034  143.2315  155.1081 H   0  0  0  0  0  0  0  0  0  0  0  0
  149.3529  139.3504  154.4083 H   0  0  0  0  0  0  0  0  0  0  0  0
  150.4706  140.5962  153.8584 H   0  0  0  0  0  0  0  0  0  0  0  0
  150.9024  139.4554  156.2515 H   0  0  0  0  0  0  0  0  0  0  0  0
  150.9345  141.2257  156.2081 H   0  0  0  0  0  0  0  0  0  0  0  0
  148.2877  142.2836  156.6970 H   0  0  0  0  0  0  0  0  0  0  0  0
  147.2105  140.9278  156.3969 H   0  0  0  0  0  0  0  0  0  0  0  0
  143.0851  134.3925  155.4166 H   0  0  0  0  0  0  0  0  0  0  0  0
  142.4974  136.0258  155.3391 H   0  0  0  0  0  0  0  0  0  0  0  0
  142.0399  134.6535  153.3005 H   0  0  0  0  0  0  0  0  0  0  0  0
  142.0586  137.1446  153.1847 H   0  0  0  0  0  0  0  0  0  0  0  0
  142.4958  136.4162  151.6529 H   0  0  0  0  0  0  0  0  0  0  0  0
  143.7382  137.1225  152.6770 H   0  0  0  0  0  0  0  0  0  0  0  0
  143.9404  133.4306  153.2610 H   0  0  0  0  0  0  0  0  0  0  0  0
  1  2  1  0  0  0  0
  1 28  1  0  0  0  0
  1 29  1  0  0  0  0
  1 30  1  0  0  0  0
  2  3  1  0  0  0  0
  2  4  1  0  0  0  0
  2 31  1  0  0  0  0
  3 32  1  0  0  0  0
  4  5  1  0  0  0  0
  4 33  1  0  0  0  0
  4 34  1  0  0  0  0
  5 26  1  0  0  0  0
  5  6  1  0  0  0  0
  5 56  1  0  0  0  0
  6  7  1  0  0  0  0
  6 35  1  0  0  0  0
  6 36  1  0  0  0  0
  7  8  1  0  0  0  0
  7 37  1  0  0  0  0
  7 38  1  0  0  0  0
  8  9  1  0  0  0  0
  8 25  1  0  0  0  0
  9 14  1  0  0  0  0
  9 10  2  0  0  0  0
 10 11  1  0  0  0  0
 11 12  2  0  0  0  0
 11 39  1  0  0  0  0
 12 13  1  0  0  0  0
 13 17  1  0  0  0  0
 13 14  2  0  0  0  0
 14 15  1  0  0  0  0
 15 16  2  0  0  0  0
 16 17  1  0  0  0  0
 16 40  1  0  0  0  0
 17 18  1  0  0  0  0
 18 19  1  0  0  0  0
 18 41  1  0  0  0  0
 18 42  1  0  0  0  0
 19 24  1  0  0  0  0
 19 20  1  0  0  0  0
 19 21  1  0  0  0  0
 20 43  1  0  0  0  0
 21 22  1  0  0  0  0
 21 44  1  0  0  0  0
 21 45  1  0  0  0  0
 22 23  1  0  0  0  0
 22 46  1  0  0  0  0
 22 47  1  0  0  0  0
 23 24  1  0  0  0  0
 24 48  1  0  0  0  0
 24 49  1  0  0  0  0
 25 26  1  0  0  0  0
 25 50  1  0  0  0  0
 25 51  1  0  0  0  0
 26 27  1  0  0  0  0
 26 52  1  0  0  0  0
 27 53  1  0  0  0  0
 27 54  1  0  0  0  0
 27 55  1  0  0  0  0
M  CHG  1   5   1
M  END
> <s_m_source_file>
AV-unprocessed.smi

> <i_m_source_file_index>
224

> <i_lp_mmshare_version>
43012

> <i_f3d_flags>
0

> <s_epik_input>
W0NIM11bQ0BIXShbT0hdKVtDSDJdTjFbQ0gyXVtDSDJdTihbQ0gyXVtDQEhdMVtDSDNdKWMobltjSF1uMiljKGMyMyluW2NIXW4zW0NIMl1bQ0BAXTQoW09IXSlbQ0gyXVtDSDJdT1tDSDJdNA==

> <s_epik_cmdline>
J2VwaWtfcHl0aG9uJywgJy1waCcsICc3LjAnLCAnLXRuJywgJzgnLCAnLW1hJywgJzIwMCcsICctbWV0YWxfYmluZGluZycsICctaW1hZScsICc8aW5maWxlLm1hZT4nLCAnLW9tYWUnLCAnPG91dGZpbGUubWFlPic=

> <r_lp_tautomer_probability>
1

> <r_epik_Ionization_Penalty>
0.00516958

> <r_epik_Ionization_Penalty_Charging>
0.00509693

> <r_epik_Ionization_Penalty_Neutral>
7.26542e-05

> <r_epik_State_Penalty>
-0

> <r_epik_Charging_Adjusted_Penalty>
0.00509693

> <i_epik_Tot_Q>
1

> <i_epik_Tot_abs_Q>
1

> <r_epik_Metal_State_Penalty>
-0

> <b_epik_Metal_Only>
0

> <s_lp_Force_Field>
OPLS_2005

> <r_lp_Energy>
51.1284

> <b_lp_Chiralities_Consistent>
1

> <s_lp_Variant>
AV-unprocessed.smi:224-7

> <Gold.Version>
5.8.1

> <Gold.Id.Protein>
6NUR|6NUR_protein|mol2

> <Gold.PLP.Fitness>
39.0659

> <Gold.PLP.PLP>
-31.4756

> <Gold.PLP.part.hbond>
-3.8023

> <Gold.PLP.part.metal>
0.0000

> <Gold.PLP.part.buried>
-4.0467

> <Gold.PLP.part.nonpolar>
-23.7489

> <Gold.PLP.part.repulsive>
0.6551

> <Gold.PLP.ligand.clash>
0.0000

> <Gold.PLP.ligand.torsion>
1.9284

> <Gold.PLP.Chemscore.Hbond>
2.0238

> <Gold.PLP.Chemscore.CHOScore>
1.6643

> <Gold.PLP.Chemscore.Metal>
0.0000

> <Gold.Chemscore.Hbonds>
donor molecule, donor type, donor heavy atom, donor atom, acceptor molecule, acceptor atom, score
      L1  H     3    32       P1 10186  1.00
      L1  H    20    43       P1  8028  0.90
      P1  H  8011  8017       L1    20  0.03
      L1  C    16    40       P1  7948  0.52
      L1  C    16    40       P1  7957  1.00

> <Gold.PLP.Chemscore.Internal.Correction>
0.3827

> <Gold.Rescore>
     Score         DG    S(hbond)    S(metal)    S(lipo)     H(rot)  DE(clash)    DE(int)     intcor
      8.67     -12.53       2.06        0.00      67.60       3.02       0.15       3.70       ----

> <Gold.Chemscore.Fitness>
8.6726

> <Gold.Chemscore.DG>
-12.5311

> <Gold.Chemscore.ZeroCoef>
-5.4800

> <Gold.Chemscore.Hbond>
2.0602

> <Gold.Chemscore.Metal>
0.0000

> <Gold.Chemscore.Lipo>
67.5983

> <Gold.Chemscore.Internal_Hbond>
0.0000

> <Gold.Chemscore.DEClash>
0.1541

> <Gold.Chemscore.DEInternal>
3.7045

> <Gold.Chemscore.Rot>
3.0231

> <Gold.Chemscore.Internal.Correction>
   9.000000E+99

> <Gold.Chemscore.Hbonds>
donor molecule, donor type, donor heavy atom, donor atom, acceptor molecule, acceptor atom, score
      L1  H     3    32       P1 10186  0.95
      L1  H    20    43       P1  8028  0.86
      P1  H  8011  8017       L1    20  0.02
      P1  H 10785 10796       L1     3  0.02

> <Gold.Chemscore.Hbond.Weighted>
-6.8812

> <Gold.Chemscore.Metal.Weighted>
-0.0000

> <Gold.Chemscore.Lipo.Weighted>
-7.9090

> <Gold.Chemscore.Internal_Hbond.Weighted>
0.0000

> <Gold.Chemscore.DEClash.Weighted>
0.1541

> <Gold.Chemscore.DEInternal.Weighted>
3.7045

> <Gold.Chemscore.Rot.Weighted>
7.7391

> <Gold.Chemscore.Internal.Correction.Weighted>
   9.000000E+99

> <Gold.Protein.RotatedTorsions>
[ 6907 6896 6895 6894 ] final  164.99 input  -60.11 | X-H torsion
[ 7974 7965 7964 7962 ] final -178.65 input  175.53 | X-H torsion
[ 8008 7997 7996 7995 ] final  -99.23 input   59.86 | X-H torsion
[ 10167 10162 10161 10158 ] final  -27.49 input  -65.29 | X-H torsion
[ 10718 10713 10712 10709 ] final -110.10 input   66.30 | X-H torsion
[ 10763 10752 10751 10750 ] final    7.89 input  -60.55 | X-H torsion
[ 11005 11000 10999 10996 ] final    7.89 input  -57.11 | X-H torsion

> <Gold.Protein.ActiveResidues>
 VAL166  LYS551  ARG553  GLY616  TRP617  ASP618  TYR619  PRO620  LYS621  CYS622 
 ASP623  PHE694  ASN695  SER759  ASP760  ASP761  ALA762  ILE779  LEU786  VAL792 
 PHE793  MET794  SER795  GLU796  ALA797  LYS798  CYS799  TRP800  GLU811  SER814 

> <Gold.Protein.RotatedAtoms>
  151.9013  133.3539  159.3831 H   0  0  0  0  0  0  0  0  0  0  0  0  # atno 6907 bound_to 6896
  150.7079  134.4825  159.5486 H   0  0  0  0  0  0  0  0  0  0  0  0  # atno 6908 bound_to 6896
  152.2414  134.8225  160.0510 H   0  0  0  0  0  0  0  0  0  0  0  0  # atno 6909 bound_to 6896
  144.7132  140.0836  143.6424 H   0  0  0  0  0  0  0  0  0  0  0  0  # atno 7974 bound_to 7965
  154.8120  140.0449  157.1350 H   0  0  0  0  0  0  0  0  0  0  0  0  # atno 8008 bound_to 7997
  154.9357  140.3046  155.5125 H   0  0  0  0  0  0  0  0  0  0  0  0  # atno 8009 bound_to 7997
  156.2972  140.2315  156.4421 H   0  0  0  0  0  0  0  0  0  0  0  0  # atno 8010 bound_to 7997
  140.7277  143.4089  151.1138 H   0  0  0  0  0  0  0  0  0  0  0  0  # atno 10167 bound_to 10162
  156.0572  130.5798  150.8191 H   0  0  0  0  0  0  0  0  0  0  0  0  # atno 10718 bound_to 10713
  153.2311  135.6893  153.7888 H   0  0  0  0  0  0  0  0  0  0  0  0  # atno 10763 bound_to 10752
  153.7052  135.3291  155.3235 H   0  0  0  0  0  0  0  0  0  0  0  0  # atno 10764 bound_to 10752
  154.8314  135.4577  154.1197 H   0  0  0  0  0  0  0  0  0  0  0  0  # atno 10765 bound_to 10752
  140.5431  134.0355  155.7911 H   0  0  0  0  0  0  0  0  0  0  0  0  # atno 11005 bound_to 11000
  145.9681  139.2849  143.1115 LP  0  0  0  0  0  0  0  0  0  0  0  0  # atno 17320 bound_to 7965
  145.9147  140.9156  143.0436 LP  0  0  0  0  0  0  0  0  0  0  0  0  # atno 17321 bound_to 7965
  139.7720  143.8481  152.3122 LP  0  0  0  0  0  0  0  0  0  0  0  0  # atno 17342 bound_to 10162
  139.8402  144.7213  150.9340 LP  0  0  0  0  0  0  0  0  0  0  0  0  # atno 17343 bound_to 10162
  157.5552  131.0945  150.9638 LP  0  0  0  0  0  0  0  0  0  0  0  0  # atno 17370 bound_to 10713
  156.9888  130.5555  149.5301 LP  0  0  0  0  0  0  0  0  0  0  0  0  # atno 17371 bound_to 10713
  141.1215  133.9453  157.2719 LP  0  0  0  0  0  0  0  0  0  0  0  0  # atno 17394 bound_to 11000
  139.9493  135.0178  156.8948 LP  0  0  0  0  0  0  0  0  0  0  0  0  # atno 17395 bound_to 11000

$$$$
