#       Name:                AV-unprocessed.smi:2252
#       Creating user name   scv26
#       Creation time:       Fri Mar 27 12:31:02 2020


#       File generated by GOLD software.
#

@<TRIPOS>MOLECULE
AV-unprocessed.smi:2252
    48    50     1
SMALL
NO_CHARGES


@<TRIPOS>ATOM
      1 ****        -3.8934   1.2604  -1.8661 C.3            1 S1                 0.0000
      2 ****        -4.5442   0.6722  -0.6932 N.pl3          1 S1                 0.0000
      3 ****        -5.8935   0.5398  -0.4870 C.2            1 S1                 0.0000
      4 ****        -6.0471  -0.0620   0.7346 C.2            1 S1                 0.0000
      5 ****        -4.7863  -0.2717   1.2236 N.pl3          1 S1                 1.0000
      6 ****        -3.8699   0.1783   0.3584 C.2            1 S1                 0.0000
      7 ****        -2.3871   0.1093   0.5453 C.3            1 S1                 0.0000
      8 ****        -1.7704  -1.1618  -0.0614 C.3            1 S1                 0.0000
      9 ****        -0.3219  -1.1744   0.0949 N.am           1 S1                 0.0000
     10 ****         0.5355  -0.4794  -0.6692 C.2            1 S1                 0.0000
     11 ****         0.1728   0.2451  -1.5970 O.2            1 S1                 0.0000
     12 ****         2.0282  -0.5941  -0.3113 C.3            1 S1                 0.0000
     13 ****         2.8503  -0.9037  -1.5819 C.3            1 S1                 0.0000
     14 ****         2.6009  -2.1710  -2.3759 C.3            1 S1                 0.0000
     15 ****         3.8763  -2.0173  -1.5927 C.3            1 S1                 0.0000
     16 ****         2.5467   0.6189   0.3691 N.3            1 S1                 0.0000
     17 ****         1.7888   1.0508   1.5429 C.3            1 S1                 0.0000
     18 ****         2.7128   2.0573   2.2297 C.3            1 S1                 0.0000
     19 ****         4.1154   1.6786   1.7642 C.3            1 S1                 0.0000
     20 ****         3.9098   0.4585   0.8667 C.3            1 S1                 0.0000
     21 ****        -4.6463   1.5162  -2.6120 H              1 S1                 0.0000
     22 ****        -3.1937   0.5422  -2.2936 H              1 S1                 0.0000
     23 ****        -3.3603   2.1633  -1.5677 H              1 S1                 0.0000
     24 ****        -6.6267   0.8742  -1.2068 H              1 S1                 0.0000
     25 ****        -6.9356  -0.3496   1.2776 H              1 S1                 0.0000
     26 ****        -1.9621   1.0112   0.1040 H              1 S1                 0.0000
     27 ****        -2.1965   0.1572   1.6182 H              1 S1                 0.0000
     28 ****        -2.1768  -2.0456   0.4309 H              1 S1                 0.0000
     29 ****        -2.0266  -1.2502  -1.1184 H              1 S1                 0.0000
     30 ****         0.0571  -1.7421   0.8391 H              1 S1                 0.0000
     31 ****         2.1267  -1.4387   0.3739 H              1 S1                 0.0000
     32 ****         3.0850  -0.0248  -2.1806 H              1 S1                 0.0000
     33 ****         1.8652  -2.8770  -1.9955 H              1 S1                 0.0000
     34 ****         2.6648  -2.1038  -3.4600 H              1 S1                 0.0000
     35 ****         4.7939  -1.8456  -2.1516 H              1 S1                 0.0000
     36 ****         3.9862  -2.6160  -0.6906 H              1 S1                 0.0000
     37 ****         0.8275   1.4960   1.2837 H              1 S1                 0.0000
     38 ****         1.6060   0.2009   2.2034 H              1 S1                 0.0000
     39 ****         2.4753   3.0738   1.9132 H              1 S1                 0.0000
     40 ****         2.6126   2.0152   3.3147 H              1 S1                 0.0000
     41 ****         4.5538   2.4996   1.1954 H              1 S1                 0.0000
     42 ****         4.7832   1.4574   2.5971 H              1 S1                 0.0000
     43 ****         3.9935  -0.4566   1.4561 H              1 S1                 0.0000
     44 ****         4.6446   0.4141   0.0623 H              1 S1                 0.0000
     45 ****        -4.5738  -0.7041   2.1138 H              1 S1                 0.0000
     46 ****        -0.8001   0.3356  -1.8098 LP             1 S1                 0.0000
     47 ****         0.8512   0.7427  -2.1374 LP             1 S1                 0.0000
     48 ****         2.4759   1.2951  -0.3642 LP             1 S1                 0.0000
@<TRIPOS>BOND
    1    1    2 1     
    2    1   21 1     
    3    1   22 1     
    4    1   23 1     
    5    2    6 1     
    6    2    3 1     
    7    3    4 2     
    8    3   24 1     
    9    4    5 1     
   10    4   25 1     
   11    5    6 2     
   12    5   45 1     
   13    6    7 1     
   14    7    8 1     
   15    7   26 1     
   16    7   27 1     
   17    8    9 1     
   18    8   28 1     
   19    8   29 1     
   20    9   10 am    
   21    9   30 1     
   22   10   11 2     
   23   10   12 1     
   24   12   13 1     
   25   12   16 1     
   26   12   31 1     
   27   13   15 1     
   28   13   14 1     
   29   13   32 1     
   30   14   15 1     
   31   14   33 1     
   32   14   34 1     
   33   15   35 1     
   34   15   36 1     
   35   16   20 1     
   36   16   17 1     
   37   17   18 1     
   38   17   37 1     
   39   17   38 1     
   40   18   19 1     
   41   18   39 1     
   42   18   40 1     
   43   19   20 1     
   44   19   41 1     
   45   19   42 1     
   46   20   43 1     
   47   20   44 1     
   48   11   46 1     
   49   11   47 1     
   50   16   48 1     
@<TRIPOS>SUBSTRUCTURE
      1 S1             1
@<TRIPOS>SET
LONE_PAIRS      STATIC     ATOMS    <user>   **** ""
3 46 47 48
DONOR_HYDROGENS      STATIC     ATOMS    <user>   **** ""
2 45 30
ATOM$BLUE        STATIC     ATOMS    COLORGROUP SYSTEM
3 46 47 48
ATOM$RED        STATIC     ATOMS    COLORGROUP SYSTEM
2 45 30
