AV-unprocessed.smi:516|AV-procd|sdf|2785|dock5
  -GOLD-   2262023263D 1   1.00000     0.00000
 Structure written by MMmdl.
 45 47  0  0  0  0  0  0  0  0  2 V2000
  146.4654  143.9458  159.2825 C   0  0  0  0  0  0  0  0  0  0  0  0
  146.3982  142.5559  159.0191 O   0  0  0  0  0  0  0  0  0  0  0  0
  146.3061  142.2657  157.6342 C   0  0  0  0  0  0  0  0  0  0  0  0
  147.4553  142.9513  156.8808 C   0  0  0  0  0  0  0  0  0  0  0  0
  148.2836  141.9939  156.1545 N   0  0  0  0  0  0  0  0  0  0  0  0
  148.0334  141.4309  154.9421 C   0  0  0  0  0  0  0  0  0  0  0  0
  146.8065  141.7229  154.1250 C   0  0  0  0  0  0  0  0  0  0  0  0
  146.2009  140.3928  153.8618 N   0  3  0  0  0  0  0  0  0  0  0  0
  146.9916  139.5979  152.8931 C   0  0  0  0  0  0  0  0  0  0  0  0
  146.2969  138.2570  152.6013 C   0  0  0  0  0  0  0  0  0  0  0  0
  146.1047  137.5455  153.8173 O   0  0  0  0  0  0  0  0  0  0  0  0
  145.2721  138.2577  154.7237 C   0  0  0  0  0  0  0  0  0  0  0  0
  145.9319  139.5983  155.0876 C   0  0  0  0  0  0  0  0  0  0  0  0
  148.9761  140.5760  154.5299 N   0  0  0  0  0  0  0  0  0  0  0  0
  149.8969  140.5951  155.5660 C   0  0  0  0  0  0  0  0  0  0  0  0
  149.5018  141.4402  156.5500 C   0  0  0  0  0  0  0  0  0  0  0  0
  150.2905  141.6461  157.7726 C   0  0  0  0  0  0  0  0  0  0  0  0
  149.9510  142.4002  158.6814 O   0  0  0  0  0  0  0  0  0  0  0  0
  151.4333  140.9179  157.7950 N   0  0  0  0  0  0  0  0  0  0  0  0
  151.8888  140.0520  156.8384 C   0  0  0  0  0  0  0  0  0  0  0  0
  152.9553  139.4625  157.0082 O   0  0  0  0  0  0  0  0  0  0  0  0
  151.1175  139.8812  155.7152 N   0  0  0  0  0  0  0  0  0  0  0  0
  151.5071  138.9686  154.6384 C   0  0  0  0  0  0  0  0  0  0  0  0
  152.0155  141.0250  158.6129 H   0  0  0  0  0  0  0  0  0  0  0  0
  146.5412  144.1115  160.3571 H   0  0  0  0  0  0  0  0  0  0  0  0
  145.5715  144.4584  158.9249 H   0  0  0  0  0  0  0  0  0  0  0  0
  147.3401  144.3948  158.8101 H   0  0  0  0  0  0  0  0  0  0  0  0
  146.3487  141.1866  157.4795 H   0  0  0  0  0  0  0  0  0  0  0  0
  145.3493  142.6133  157.2421 H   0  0  0  0  0  0  0  0  0  0  0  0
  147.0619  143.6901  156.1835 H   0  0  0  0  0  0  0  0  0  0  0  0
  148.0761  143.5183  157.5721 H   0  0  0  0  0  0  0  0  0  0  0  0
  146.1370  142.3427  154.7226 H   0  0  0  0  0  0  0  0  0  0  0  0
  147.0231  142.2636  153.2045 H   0  0  0  0  0  0  0  0  0  0  0  0
  147.1105  140.1580  151.9648 H   0  0  0  0  0  0  0  0  0  0  0  0
  147.9915  139.4223  153.2933 H   0  0  0  0  0  0  0  0  0  0  0  0
  145.3398  138.4137  152.1014 H   0  0  0  0  0  0  0  0  0  0  0  0
  146.9103  137.6537  151.9321 H   0  0  0  0  0  0  0  0  0  0  0  0
  144.2855  138.4157  154.2851 H   0  0  0  0  0  0  0  0  0  0  0  0
  145.1291  137.6540  155.6200 H   0  0  0  0  0  0  0  0  0  0  0  0
  146.8666  139.4207  155.6214 H   0  0  0  0  0  0  0  0  0  0  0  0
  145.2765  140.1466  155.7642 H   0  0  0  0  0  0  0  0  0  0  0  0
  152.4371  138.4308  154.8253 H   0  0  0  0  0  0  0  0  0  0  0  0
  151.6311  139.5229  153.7076 H   0  0  0  0  0  0  0  0  0  0  0  0
  150.7271  138.2225  154.4832 H   0  0  0  0  0  0  0  0  0  0  0  0
  145.3084  140.5701  153.4222 H   0  0  0  0  0  0  0  0  0  0  0  0
  1  2  1  0  0  0  0
  1 25  1  0  0  0  0
  1 26  1  0  0  0  0
  1 27  1  0  0  0  0
  2  3  1  0  0  0  0
  3  4  1  0  0  0  0
  3 28  1  0  0  0  0
  3 29  1  0  0  0  0
  4  5  1  0  0  0  0
  4 30  1  0  0  0  0
  4 31  1  0  0  0  0
  5 16  1  0  0  0  0
  5  6  1  0  0  0  0
  6  7  1  0  0  0  0
  6 14  2  0  0  0  0
  7  8  1  0  0  0  0
  7 32  1  0  0  0  0
  7 33  1  0  0  0  0
  8 13  1  0  0  0  0
  8  9  1  0  0  0  0
  8 45  1  0  0  0  0
  9 10  1  0  0  0  0
  9 34  1  0  0  0  0
  9 35  1  0  0  0  0
 10 11  1  0  0  0  0
 10 36  1  0  0  0  0
 10 37  1  0  0  0  0
 11 12  1  0  0  0  0
 12 13  1  0  0  0  0
 12 38  1  0  0  0  0
 12 39  1  0  0  0  0
 13 40  1  0  0  0  0
 13 41  1  0  0  0  0
 14 15  1  0  0  0  0
 15 22  1  0  0  0  0
 15 16  2  0  0  0  0
 16 17  1  0  0  0  0
 17 18  2  0  0  0  0
 17 19  1  0  0  0  0
 19 24  1  0  0  0  0
 19 20  1  0  0  0  0
 20 21  2  0  0  0  0
 20 22  1  0  0  0  0
 22 23  1  0  0  0  0
 23 42  1  0  0  0  0
 23 43  1  0  0  0  0
 23 44  1  0  0  0  0
M  CHG  1   8   1
M  END
> <s_m_source_file>
AV-unprocessed.smi

> <i_m_source_file_index>
516

> <i_lp_mmshare_version>
43012

> <i_f3d_flags>
0

> <s_epik_input>
W0NIM11uMWMoPU8pW25IXWMoPU8pYyhjMTIpbihbQ0gyXVtDSDJdT1tDSDNdKWMobjIpW0NIMl1OM1tDSDJdW0NIMl1PW0NIMl1bQ0gyXTM=

> <s_epik_cmdline>
J2VwaWtfcHl0aG9uJywgJy1waCcsICc3LjAnLCAnLXRuJywgJzgnLCAnLW1hJywgJzIwMCcsICctbWV0YWxfYmluZGluZycsICctaW1hZScsICc8aW5maWxlLm1hZT4nLCAnLW9tYWUnLCAnPG91dGZpbGUubWFlPic=

> <r_epik_Ionization_Penalty>
1.12077

> <r_epik_Ionization_Penalty_Charging>
1.12077

> <r_epik_Ionization_Penalty_Neutral>
4.43299e-09

> <r_epik_State_Penalty>
1.17893

> <r_epik_Charging_Adjusted_Penalty>
2.29969

> <i_epik_Tot_Q>
1

> <i_epik_Tot_abs_Q>
1

> <r_epik_Metal_State_Penalty>
1.32838

> <b_epik_Metal_Only>
0

> <s_lp_Force_Field>
OPLS_2005

> <r_lp_Energy>
36.1073

> <b_lp_Chiralities_Consistent>
1

> <s_lp_Variant>
AV-unprocessed.smi:516-2

> <Gold.Version>
5.8.1

> <Gold.Id.Protein>
6NUR|6NUR_protein|mol2

> <Gold.PLP.Fitness>
38.3263

> <Gold.PLP.PLP>
-27.8071

> <Gold.PLP.part.hbond>
-4.0000

> <Gold.PLP.part.metal>
0.0000

> <Gold.PLP.part.buried>
0.3707

> <Gold.PLP.part.nonpolar>
-24.4910

> <Gold.PLP.part.repulsive>
0.4284

> <Gold.PLP.ligand.clash>
0.0000

> <Gold.PLP.ligand.torsion>
0.7578

> <Gold.PLP.Chemscore.Hbond>
3.9920

> <Gold.PLP.Chemscore.CHOScore>
0.0000

> <Gold.PLP.Chemscore.Metal>
0.0000

> <Gold.Chemscore.Hbonds>
donor molecule, donor type, donor heavy atom, donor atom, acceptor molecule, acceptor atom, score
      L1  H     8    45       P1 10175  2.00
      P1  H  7997  8009       L1    21  1.00

> <Gold.PLP.Chemscore.Internal.Correction>
0.0588

> <Gold.Rescore>
     Score         DG    S(hbond)    S(metal)    S(lipo)     H(rot)  DE(clash)    DE(int)     intcor
     12.06     -14.39       2.93        0.00      38.67       2.11       0.14       2.19       ----

> <Gold.Chemscore.Fitness>
12.0576

> <Gold.Chemscore.DG>
-14.3867

> <Gold.Chemscore.ZeroCoef>
-5.4800

> <Gold.Chemscore.Hbond>
2.9271

> <Gold.Chemscore.Metal>
0.0000

> <Gold.Chemscore.Lipo>
38.6656

> <Gold.Chemscore.Internal_Hbond>
0.0000

> <Gold.Chemscore.DEClash>
0.1390

> <Gold.Chemscore.DEInternal>
2.1901

> <Gold.Chemscore.Rot>
2.1069

> <Gold.Chemscore.Internal.Correction>
   9.000000E+99

> <Gold.Chemscore.Hbonds>
donor molecule, donor type, donor heavy atom, donor atom, acceptor molecule, acceptor atom, score
      L1  H     8    45       P1 10175  0.96
      P1  H  6934  6946       L1     2  0.05
      P1  H  7997  8009       L1    21  0.98

> <Gold.Chemscore.Hbond.Weighted>
-9.7764

> <Gold.Chemscore.Metal.Weighted>
-0.0000

> <Gold.Chemscore.Lipo.Weighted>
-4.5239

> <Gold.Chemscore.Internal_Hbond.Weighted>
0.0000

> <Gold.Chemscore.DEClash.Weighted>
0.1390

> <Gold.Chemscore.DEInternal.Weighted>
2.1901

> <Gold.Chemscore.Rot.Weighted>
5.3936

> <Gold.Chemscore.Internal.Correction.Weighted>
   9.000000E+99

> <Gold.Protein.RotatedTorsions>
[ 6907 6896 6895 6894 ] final  102.39 input  -60.11 | X-H torsion
[ 7974 7965 7964 7962 ] final  -72.08 input  175.53 | X-H torsion
[ 8008 7997 7996 7995 ] final -172.70 input   59.86 | X-H torsion
[ 10167 10162 10161 10158 ] final -165.84 input  -65.29 | X-H torsion
[ 10718 10713 10712 10709 ] final    6.85 input   66.30 | X-H torsion
[ 10763 10752 10751 10750 ] final -141.36 input  -60.55 | X-H torsion
[ 11005 11000 10999 10996 ] final   27.15 input  -57.11 | X-H torsion

> <Gold.Protein.ActiveResidues>
 VAL166  LYS551  ARG553  GLY616  TRP617  ASP618  TYR619  PRO620  LYS621  CYS622 
 ASP623  PHE694  ASN695  SER759  ASP760  ASP761  ALA762  ILE779  LEU786  VAL792 
 PHE793  MET794  SER795  GLU796  ALA797  LYS798  CYS799  TRP800  GLU811  SER814 

> <Gold.Protein.RotatedAtoms>
  152.5325  133.9983  159.7882 H   0  0  0  0  0  0  0  0  0  0  0  0  # atno 6907 bound_to 6896
  151.0206  133.5872  159.2679 H   0  0  0  0  0  0  0  0  0  0  0  0  # atno 6908 bound_to 6896
  151.2913  135.0749  159.9258 H   0  0  0  0  0  0  0  0  0  0  0  0  # atno 6909 bound_to 6896
  145.6698  140.9225  143.0889 H   0  0  0  0  0  0  0  0  0  0  0  0  # atno 7974 bound_to 7965
  155.9479  140.1121  157.1001 H   0  0  0  0  0  0  0  0  0  0  0  0  # atno 8008 bound_to 7997
  154.4103  140.1206  156.5080 H   0  0  0  0  0  0  0  0  0  0  0  0  # atno 8009 bound_to 7997
  155.6879  140.3473  155.4884 H   0  0  0  0  0  0  0  0  0  0  0  0  # atno 8010 bound_to 7997
  139.6155  144.0728  152.1883 H   0  0  0  0  0  0  0  0  0  0  0  0  # atno 10167 bound_to 10162
  156.9283  130.5816  149.5649 H   0  0  0  0  0  0  0  0  0  0  0  0  # atno 10718 bound_to 10713
  154.8547  135.3526  154.5856 H   0  0  0  0  0  0  0  0  0  0  0  0  # atno 10763 bound_to 10752
  153.6466  135.6996  153.5228 H   0  0  0  0  0  0  0  0  0  0  0  0  # atno 10764 bound_to 10752
  153.2928  135.4230  155.1140 H   0  0  0  0  0  0  0  0  0  0  0  0  # atno 10765 bound_to 10752
  140.3293  134.2455  155.7705 H   0  0  0  0  0  0  0  0  0  0  0  0  # atno 11005 bound_to 11000
  144.7061  139.8557  143.7429 LP  0  0  0  0  0  0  0  0  0  0  0  0  # atno 17320 bound_to 7965
  146.1055  139.4054  143.0320 LP  0  0  0  0  0  0  0  0  0  0  0  0  # atno 17321 bound_to 7965
  140.0358  144.6046  150.7451 LP  0  0  0  0  0  0  0  0  0  0  0  0  # atno 17342 bound_to 10162
  140.7348  143.2733  151.3820 LP  0  0  0  0  0  0  0  0  0  0  0  0  # atno 17343 bound_to 10162
  156.0459  130.5535  150.8879 LP  0  0  0  0  0  0  0  0  0  0  0  0  # atno 17370 bound_to 10713
  157.5863  131.0945  150.9190 LP  0  0  0  0  0  0  0  0  0  0  0  0  # atno 17371 bound_to 10713
  141.2067  133.7825  157.0160 LP  0  0  0  0  0  0  0  0  0  0  0  0  # atno 17394 bound_to 11000
  140.0874  134.9612  157.1722 LP  0  0  0  0  0  0  0  0  0  0  0  0  # atno 17395 bound_to 11000

$$$$
