#       Name:                AV-unprocessed.smi:685
#       Creating user name   scv26
#       Creation time:       Fri Mar 27 00:30:22 2020


#       File generated by GOLD software.
#

@<TRIPOS>MOLECULE
AV-unprocessed.smi:685
    53    54     1
SMALL
NO_CHARGES


@<TRIPOS>ATOM
      1 ****        -1.4067   3.2370   2.7367 C.3            1 S1                 0.0000
      2 ****        -1.5988   3.8090   1.3608 C.2            1 S1                 0.0000
      3 ****        -2.0659   5.0396   1.2334 N.2            1 S1                 0.0000
      4 ****        -2.1102   5.2547  -0.0965 N.pl3          1 S1                 0.0000
      5 ****        -2.5835   6.5318  -0.5944 C.3            1 S1                 0.0000
      6 ****        -1.6715   4.1570  -0.8115 C.2            1 S1                 0.0000
      7 ****        -1.6193   4.1535  -2.3056 C.3            1 S1                 0.0000
      8 ****        -1.3280   3.1959   0.1021 C.2            1 S1                 0.0000
      9 ****        -0.7824   1.8108  -0.1370 C.3            1 S1                 0.0000
     10 ****         0.7371   1.7215   0.1230 C.3            1 S1                 0.0000
     11 ****         1.5556   2.6229  -0.8156 C.3            1 S1                 0.0000
     12 ****         1.1975   0.3436  -0.0252 N.am           1 S1                 0.0000
     13 ****         1.0767  -0.6221   0.8995 C.2            1 S1                 0.0000
     14 ****         0.5495  -0.4442   1.9981 O.2            1 S1                 0.0000
     15 ****         1.6417  -1.9951   0.5260 C.3            1 S1                 0.0000
     16 ****         0.6645  -3.1424   0.8426 C.3            1 S1                 0.0000
     17 ****         1.2182  -4.5300   0.4718 C.3            1 S1                 0.0000
     18 ****         1.3998  -4.7629  -1.0311 C.3            1 S1                 0.0000
     19 ****         1.4716  -6.2850  -1.1856 C.3            1 S1                 0.0000
     20 ****         0.7153  -6.8729   0.0154 C.3            1 S1                 0.0000
     21 ****         0.3011  -5.6829   0.8899 C.3            1 S1                 0.0000
     22 ****        -1.5358   2.1547   2.7373 H              1 S1                 0.0000
     23 ****        -2.1220   3.6532   3.4467 H              1 S1                 0.0000
     24 ****        -0.4048   3.4503   3.1094 H              1 S1                 0.0000
     25 ****        -1.8663   6.9370  -1.3086 H              1 S1                 0.0000
     26 ****        -2.7038   7.2441   0.2233 H              1 S1                 0.0000
     27 ****        -3.5445   6.3965  -1.0910 H              1 S1                 0.0000
     28 ****        -1.3730   3.1663  -2.6951 H              1 S1                 0.0000
     29 ****        -0.8625   4.8508  -2.6651 H              1 S1                 0.0000
     30 ****        -2.5797   4.4471  -2.7295 H              1 S1                 0.0000
     31 ****        -1.3015   1.0990   0.5054 H              1 S1                 0.0000
     32 ****        -0.9934   1.4768  -1.1528 H              1 S1                 0.0000
     33 ****         0.9382   2.0412   1.1473 H              1 S1                 0.0000
     34 ****         1.2987   3.6743  -0.6853 H              1 S1                 0.0000
     35 ****         1.3843   2.3657  -1.8614 H              1 S1                 0.0000
     36 ****         2.6238   2.5258  -0.6191 H              1 S1                 0.0000
     37 ****         1.6465   0.1069  -0.8981 H              1 S1                 0.0000
     38 ****         1.8957  -2.0048  -0.5350 H              1 S1                 0.0000
     39 ****         2.5751  -2.1403   1.0707 H              1 S1                 0.0000
     40 ****         0.4330  -3.1359   1.9087 H              1 S1                 0.0000
     41 ****        -0.2818  -2.9746   0.3260 H              1 S1                 0.0000
     42 ****         2.1829  -4.6719   0.9620 H              1 S1                 0.0000
     43 ****         0.5336  -4.3824  -1.5744 H              1 S1                 0.0000
     44 ****         2.2847  -4.2662  -1.4304 H              1 S1                 0.0000
     45 ****         1.0528  -6.6134  -2.1372 H              1 S1                 0.0000
     46 ****         2.5121  -6.6114  -1.1570 H              1 S1                 0.0000
     47 ****        -0.1556  -7.4495  -0.2981 H              1 S1                 0.0000
     48 ****         1.3681  -7.5463   0.5718 H              1 S1                 0.0000
     49 ****         0.3723  -5.9063   1.9547 H              1 S1                 0.0000
     50 ****        -0.7379  -5.4258   0.6781 H              1 S1                 0.0000
     51 ****        -2.3284   5.6713   1.9628 LP             1 S1                 0.0000
     52 ****         0.1851   0.4556   2.2379 LP             1 S1                 0.0000
     53 ****         0.4857  -1.1996   2.6503 LP             1 S1                 0.0000
@<TRIPOS>BOND
    1    1    2 1     
    2    1   22 1     
    3    1   23 1     
    4    1   24 1     
    5    2    8 1     
    6    2    3 2     
    7    3    4 1     
    8    4    5 1     
    9    4    6 1     
   10    5   25 1     
   11    5   26 1     
   12    5   27 1     
   13    6    7 1     
   14    6    8 2     
   15    7   28 1     
   16    7   29 1     
   17    7   30 1     
   18    8    9 1     
   19    9   10 1     
   20    9   31 1     
   21    9   32 1     
   22   10   11 1     
   23   10   12 1     
   24   10   33 1     
   25   11   34 1     
   26   11   35 1     
   27   11   36 1     
   28   12   13 am    
   29   12   37 1     
   30   13   14 2     
   31   13   15 1     
   32   15   16 1     
   33   15   38 1     
   34   15   39 1     
   35   16   17 1     
   36   16   40 1     
   37   16   41 1     
   38   17   21 1     
   39   17   18 1     
   40   17   42 1     
   41   18   19 1     
   42   18   43 1     
   43   18   44 1     
   44   19   20 1     
   45   19   45 1     
   46   19   46 1     
   47   20   21 1     
   48   20   47 1     
   49   20   48 1     
   50   21   49 1     
   51   21   50 1     
   52    3   51 1     
   53   14   52 1     
   54   14   53 1     
@<TRIPOS>SUBSTRUCTURE
      1 S1             1
@<TRIPOS>SET
LONE_PAIRS      STATIC     ATOMS    <user>   **** ""
3 51 52 53
DONOR_HYDROGENS      STATIC     ATOMS    <user>   **** ""
1 37
ATOM$BLUE        STATIC     ATOMS    COLORGROUP SYSTEM
3 51 52 53
ATOM$RED        STATIC     ATOMS    COLORGROUP SYSTEM
1 37
