#       Name:                AV-unprocessed.smi:2027
#       Creating user name   scv26
#       Creation time:       Fri Mar 27 10:48:26 2020


#       File generated by GOLD software.
#

@<TRIPOS>MOLECULE
AV-unprocessed.smi:2027
    54    56     1
SMALL
NO_CHARGES


@<TRIPOS>ATOM
      1 ****        -2.9929   0.9092  -5.7148 C.3            1 S1                 0.0000
      2 ****        -2.4527   1.1278  -4.3119 C.ar           1 S1                 0.0000
      3 ****        -1.4364   2.0917  -4.1232 C.ar           1 S1                 0.0000
      4 ****        -0.9644   2.2704  -2.8283 C.ar           1 S1                 0.0000
      5 ****         0.0109   3.1309  -2.3194 N.pl3          1 S1                 1.0000
      6 ****         0.1240   2.9460  -0.9748 C.2            1 S1                 0.0000
      7 ****        -0.7572   1.9711  -0.6197 N.pl3          1 S1                 0.0000
      8 ****        -1.0502   1.3945   0.6983 C.3            1 S1                 0.0000
      9 ****        -0.4477  -0.0113   0.8984 C.3            1 S1                 0.0000
     10 ****        -0.7951  -0.4431   2.1982 O.3            1 S1                 0.0000
     11 ****         1.0875  -0.0561   0.7544 C.3            1 S1                 0.0000
     12 ****         1.6065  -1.4470   0.8477 N.4            1 S1                 1.0000
     13 ****         1.5486  -2.1641  -0.4473 C.3            1 S1                 0.0000
     14 ****         2.9471  -1.5433   1.4774 C.3            1 S1                 0.0000
     15 ****         2.8849  -1.2141   2.9453 C.2            1 S1                 0.0000
     16 ****         3.3476  -0.0366   3.5997 C.2            1 S1                 0.0000
     17 ****         3.1229  -0.0503   4.9026 N.2            1 S1                 0.0000
     18 ****         2.5230  -1.2365   5.1282 N.pl3          1 S1                 0.0000
     19 ****         2.1280  -1.5912   6.4744 C.3            1 S1                 0.0000
     20 ****         2.3707  -1.9623   3.9669 C.2            1 S1                 0.0000
     21 ****        -1.4659   1.5282  -1.7416 C.ar           1 S1                 0.0000
     22 ****        -2.4697   0.5775  -1.9089 C.ar           1 S1                 0.0000
     23 ****        -2.9632   0.3812  -3.2184 C.ar           1 S1                 0.0000
     24 ****        -4.0594  -0.6488  -3.4324 C.3            1 S1                 0.0000
     25 ****        -2.4828   1.5413  -6.4422 H              1 S1                 0.0000
     26 ****        -4.0563   1.1457  -5.7556 H              1 S1                 0.0000
     27 ****        -2.8559  -0.1277  -6.0218 H              1 S1                 0.0000
     28 ****        -1.0466   2.6669  -4.9505 H              1 S1                 0.0000
     29 ****         0.7922   3.4768  -0.3118 H              1 S1                 0.0000
     30 ****        -0.6585   2.0839   1.4478 H              1 S1                 0.0000
     31 ****        -2.1335   1.3782   0.8283 H              1 S1                 0.0000
     32 ****        -0.9069  -0.6987   0.1890 H              1 S1                 0.0000
     33 ****        -0.4666   0.1832   2.8259 H              1 S1                 0.0000
     34 ****         1.4074   0.3758  -0.1945 H              1 S1                 0.0000
     35 ****         1.5222   0.5791   1.5262 H              1 S1                 0.0000
     36 ****         2.2350  -1.7210  -1.1699 H              1 S1                 0.0000
     37 ****         0.5448  -2.1375  -0.8709 H              1 S1                 0.0000
     38 ****         1.8197  -3.2126  -0.3196 H              1 S1                 0.0000
     39 ****         3.3309  -2.5562   1.3486 H              1 S1                 0.0000
     40 ****         3.6415  -0.8897   0.9475 H              1 S1                 0.0000
     41 ****         3.8291   0.8276   3.1661 H              1 S1                 0.0000
     42 ****         1.7314  -2.6067   6.4934 H              1 S1                 0.0000
     43 ****         1.3583  -0.9033   6.8257 H              1 S1                 0.0000
     44 ****         2.9897  -1.5356   7.1404 H              1 S1                 0.0000
     45 ****         1.9059  -2.9372   3.9621 H              1 S1                 0.0000
     46 ****        -2.8620   0.0126  -1.0760 H              1 S1                 0.0000
     47 ****        -4.3335  -1.1404  -2.4986 H              1 S1                 0.0000
     48 ****        -3.7318  -1.4202  -4.1297 H              1 S1                 0.0000
     49 ****        -4.9553  -0.1757  -3.8347 H              1 S1                 0.0000
     50 ****         0.9804  -1.9367   1.4719 H              1 S1                 0.0000
     51 ****         0.5546   3.8018  -2.8476 H              1 S1                 0.0000
     52 ****        -0.3888  -1.3397   2.3741 LP             1 S1                 0.0000
     53 ****        -1.7900  -0.5068   2.2763 LP             1 S1                 0.0000
     54 ****         3.3474   0.6595   5.5704 LP             1 S1                 0.0000
@<TRIPOS>BOND
    1    1    2 1     
    2    1   25 1     
    3    1   26 1     
    4    1   27 1     
    5    2   23 ar    
    6    2    3 ar    
    7    3    4 ar    
    8    3   28 1     
    9    4   21 ar    
   10    4    5 1     
   11    5    6 2     
   12    5   51 1     
   13    6    7 1     
   14    6   29 1     
   15    7    8 1     
   16    7   21 1     
   17    8    9 1     
   18    8   30 1     
   19    8   31 1     
   20    9   10 1     
   21    9   11 1     
   22    9   32 1     
   23   10   33 1     
   24   11   12 1     
   25   11   34 1     
   26   11   35 1     
   27   12   13 1     
   28   12   14 1     
   29   12   50 1     
   30   13   36 1     
   31   13   37 1     
   32   13   38 1     
   33   14   15 1     
   34   14   39 1     
   35   14   40 1     
   36   15   20 2     
   37   15   16 1     
   38   16   17 2     
   39   16   41 1     
   40   17   18 1     
   41   18   19 1     
   42   18   20 1     
   43   19   42 1     
   44   19   43 1     
   45   19   44 1     
   46   20   45 1     
   47   21   22 ar    
   48   22   23 ar    
   49   22   46 1     
   50   23   24 1     
   51   24   47 1     
   52   24   48 1     
   53   24   49 1     
   54   10   52 1     
   55   10   53 1     
   56   17   54 1     
@<TRIPOS>SUBSTRUCTURE
      1 S1             1
@<TRIPOS>SET
LONE_PAIRS      STATIC     ATOMS    <user>   **** ""
3 52 53 54
DONOR_HYDROGENS      STATIC     ATOMS    <user>   **** ""
3 51 33 50
ATOM$BLUE        STATIC     ATOMS    COLORGROUP SYSTEM
3 52 53 54
ATOM$RED        STATIC     ATOMS    COLORGROUP SYSTEM
3 51 33 50
