AV-unprocessed.smi:3290|AV-procd|sdf|12618|dock8
  -GOLD-   2272018553D 1   1.00000     0.00000
 Structure written by MMmdl.
 43 44  0  0  0  0  0  0  0  0  2 V2000
  152.5514  140.2278  158.9947 C   0  0  0  0  0  0  0  0  0  0  0  0
  151.9773  141.6475  159.1529 C   0  0  1  0  0  0  0  0  0  0  0  0
  153.0578  142.5755  159.7479 C   0  0  0  0  0  0  0  0  0  0  0  0
  152.5315  143.9974  159.9829 C   0  0  0  0  0  0  0  0  0  0  0  0
  151.9724  144.5914  158.6855 C   0  0  0  0  0  0  0  0  0  0  0  0
  150.8883  143.6815  158.0911 C   0  0  0  0  0  0  0  0  0  0  0  0
  151.4029  142.2471  157.8345 C   0  0  2  0  0  0  0  0  0  0  0  0
  150.2701  141.4009  157.2096 C   0  0  0  0  0  0  0  0  0  0  0  0
  149.7553  141.9956  155.9599 N   0  3  0  0  0  0  0  0  0  0  0  0
  148.4967  141.3936  155.4767 C   0  0  0  0  0  0  0  0  0  0  0  0
  148.7442  140.4538  154.2837 C   0  0  1  0  0  0  0  0  0  0  0  0
  149.4319  141.1698  153.2757 O   0  0  0  0  0  0  0  0  0  0  0  0
  149.5082  139.2109  154.7123 C   0  0  0  0  0  0  0  0  0  0  0  0
  150.7857  138.9367  154.1808 C   0  0  0  0  0  0  0  0  0  0  0  0
  151.4556  137.7707  154.6030 C   0  0  0  0  0  0  0  0  0  0  0  0
  150.9353  136.8973  155.4912 N   0  0  0  0  0  0  0  0  0  0  0  0
  149.7115  137.1627  155.9955 C   0  0  0  0  0  0  0  0  0  0  0  0
  148.9585  138.2994  155.6400 C   0  0  0  0  0  0  0  0  0  0  0  0
  153.3049  140.1886  158.2075 H   0  0  0  0  0  0  0  0  0  0  0  0
  151.7743  139.5008  158.7612 H   0  0  0  0  0  0  0  0  0  0  0  0
  153.0226  139.8917  159.9189 H   0  0  0  0  0  0  0  0  0  0  0  0
  151.1644  141.5867  159.8784 H   0  0  0  0  0  0  0  0  0  0  0  0
  153.4213  142.1693  160.6927 H   0  0  0  0  0  0  0  0  0  0  0  0
  153.9192  142.6140  159.0795 H   0  0  0  0  0  0  0  0  0  0  0  0
  151.7522  143.9800  160.7459 H   0  0  0  0  0  0  0  0  0  0  0  0
  153.3300  144.6314  160.3692 H   0  0  0  0  0  0  0  0  0  0  0  0
  151.5625  145.5834  158.8772 H   0  0  0  0  0  0  0  0  0  0  0  0
  152.7791  144.7236  157.9633 H   0  0  0  0  0  0  0  0  0  0  0  0
  150.0314  143.6508  158.7660 H   0  0  0  0  0  0  0  0  0  0  0  0
  150.5290  144.1223  157.1604 H   0  0  0  0  0  0  0  0  0  0  0  0
  152.2129  142.3245  157.1071 H   0  0  0  0  0  0  0  0  0  0  0  0
  150.6142  140.3814  157.0297 H   0  0  0  0  0  0  0  0  0  0  0  0
  149.4286  141.3296  157.9001 H   0  0  0  0  0  0  0  0  0  0  0  0
  149.6108  142.9847  156.1042 H   0  0  0  0  0  0  0  0  0  0  0  0
  148.0147  140.8517  156.2922 H   0  0  0  0  0  0  0  0  0  0  0  0
  147.8193  142.1961  155.1815 H   0  0  0  0  0  0  0  0  0  0  0  0
  147.7860  140.1426  153.8651 H   0  0  0  0  0  0  0  0  0  0  0  0
  149.6782  140.5636  152.5929 H   0  0  0  0  0  0  0  0  0  0  0  0
  151.2478  139.6011  153.4654 H   0  0  0  0  0  0  0  0  0  0  0  0
  152.4353  137.5333  154.2157 H   0  0  0  0  0  0  0  0  0  0  0  0
  149.3192  136.4470  156.7027 H   0  0  0  0  0  0  0  0  0  0  0  0
  147.9821  138.4626  156.0721 H   0  0  0  0  0  0  0  0  0  0  0  0
  150.4539  141.8739  155.2400 H   0  0  0  0  0  0  0  0  0  0  0  0
  1  2  1  0  0  0  0
  1 19  1  0  0  0  0
  1 20  1  0  0  0  0
  1 21  1  0  0  0  0
  2  7  1  0  0  0  0
  2  3  1  0  0  0  0
  2 22  1  0  0  0  0
  3  4  1  0  0  0  0
  3 23  1  0  0  0  0
  3 24  1  0  0  0  0
  4  5  1  0  0  0  0
  4 25  1  0  0  0  0
  4 26  1  0  0  0  0
  5  6  1  0  0  0  0
  5 27  1  0  0  0  0
  5 28  1  0  0  0  0
  6  7  1  0  0  0  0
  6 29  1  0  0  0  0
  6 30  1  0  0  0  0
  7  8  1  0  0  0  0
  7 31  1  0  0  0  0
  8  9  1  0  0  0  0
  8 32  1  0  0  0  0
  8 33  1  0  0  0  0
  9 10  1  0  0  0  0
  9 34  1  0  0  0  0
  9 43  1  0  0  0  0
 10 11  1  0  0  0  0
 10 35  1  0  0  0  0
 10 36  1  0  0  0  0
 11 12  1  0  0  0  0
 11 13  1  0  0  0  0
 11 37  1  0  0  0  0
 12 38  1  0  0  0  0
 13 18  1  0  0  0  0
 13 14  2  0  0  0  0
 14 15  1  0  0  0  0
 14 39  1  0  0  0  0
 15 16  2  0  0  0  0
 15 40  1  0  0  0  0
 16 17  1  0  0  0  0
 17 18  2  0  0  0  0
 17 41  1  0  0  0  0
 18 42  1  0  0  0  0
M  CHG  1   9   1
M  END
> <s_m_source_file>
AV-unprocessed.smi

> <i_m_source_file_index>
3290

> <i_lp_mmshare_version>
43012

> <i_f3d_flags>
0

> <s_epik_input>
W0NIM11bQ0BASF0xW0NIMl1bQ0gyXVtDSDJdW0NIMl1bQ0BIXTFbQ0gyXVtOSF1bQ0gyXVtDQEhdKFtPSF0pYzJbY0hdW2NIXW5bY0hdW2NIXTI=

> <s_epik_cmdline>
J2VwaWtfcHl0aG9uJywgJy1waCcsICc3LjAnLCAnLXRuJywgJzgnLCAnLW1hJywgJzIwMCcsICctbWV0YWxfYmluZGluZycsICctaW1hZScsICc8aW5maWxlLm1hZT4nLCAnLW9tYWUnLCAnPG91dGZpbGUubWFlPic=

> <r_lp_tautomer_probability>
1

> <r_epik_Ionization_Penalty>
0.00420552

> <r_epik_Ionization_Penalty_Charging>
0.00207255

> <r_epik_Ionization_Penalty_Neutral>
0.00213297

> <r_epik_State_Penalty>
-0

> <r_epik_Charging_Adjusted_Penalty>
0.00207255

> <i_epik_Tot_Q>
1

> <i_epik_Tot_abs_Q>
1

> <r_epik_Metal_State_Penalty>
-0

> <b_epik_Metal_Only>
0

> <s_lp_Force_Field>
OPLS_2005

> <r_lp_Energy>
17.3555

> <b_lp_Chiralities_Consistent>
1

> <s_lp_Variant>
AV-unprocessed.smi:3290-8

> <Gold.Version>
5.8.1

> <Gold.Id.Protein>
6NUR|6NUR_protein|mol2

> <Gold.PLP.Fitness>
49.4755

> <Gold.PLP.PLP>
-39.2436

> <Gold.PLP.part.hbond>
-3.4900

> <Gold.PLP.part.metal>
0.0000

> <Gold.PLP.part.buried>
-5.2636

> <Gold.PLP.part.nonpolar>
-31.3477

> <Gold.PLP.part.repulsive>
0.1884

> <Gold.PLP.ligand.clash>
0.0000

> <Gold.PLP.ligand.torsion>
0.3997

> <Gold.PLP.Chemscore.Hbond>
3.6516

> <Gold.PLP.Chemscore.CHOScore>
0.0000

> <Gold.PLP.Chemscore.Metal>
0.0000

> <Gold.Chemscore.Hbonds>
donor molecule, donor type, donor heavy atom, donor atom, acceptor molecule, acceptor atom, score
      L1  H     9    34       P1  8028  2.00
      L1  H    12    38       P1  7957  0.98
      P1  H  8011  8017       L1    12  0.50

> <Gold.PLP.Chemscore.Internal.Correction>
0.0766

> <Gold.Rescore>
     Score         DG    S(hbond)    S(metal)    S(lipo)     H(rot)  DE(clash)    DE(int)     intcor
     20.08     -20.57       1.97        0.00     117.67       2.05       0.01       0.47       ----

> <Gold.Chemscore.Fitness>
20.0845

> <Gold.Chemscore.DG>
-20.5678

> <Gold.Chemscore.ZeroCoef>
-5.4800

> <Gold.Chemscore.Hbond>
1.9663

> <Gold.Chemscore.Metal>
0.0000

> <Gold.Chemscore.Lipo>
117.6728

> <Gold.Chemscore.Internal_Hbond>
0.0000

> <Gold.Chemscore.DEClash>
0.0121

> <Gold.Chemscore.DEInternal>
0.4712

> <Gold.Chemscore.Rot>
2.0498

> <Gold.Chemscore.Internal.Correction>
   9.000000E+99

> <Gold.Chemscore.Hbonds>
donor molecule, donor type, donor heavy atom, donor atom, acceptor molecule, acceptor atom, score
      L1  H     9    34       P1  8028  0.97
      L1  H    12    38       P1  7957  0.88
      P1  H  8011  8017       L1    12  0.02

> <Gold.Chemscore.Hbond.Weighted>
-6.5676

> <Gold.Chemscore.Metal.Weighted>
-0.0000

> <Gold.Chemscore.Lipo.Weighted>
-13.7677

> <Gold.Chemscore.Internal_Hbond.Weighted>
0.0000

> <Gold.Chemscore.DEClash.Weighted>
0.0121

> <Gold.Chemscore.DEInternal.Weighted>
0.4712

> <Gold.Chemscore.Rot.Weighted>
5.2475

> <Gold.Chemscore.Internal.Correction.Weighted>
   9.000000E+99

> <Gold.Protein.RotatedTorsions>
[ 6907 6896 6895 6894 ] final   36.63 input  -60.11 | X-H torsion
[ 7974 7965 7964 7962 ] final -141.27 input  175.53 | X-H torsion
[ 8008 7997 7996 7995 ] final  177.87 input   59.86 | X-H torsion
[ 10167 10162 10161 10158 ] final   49.56 input  -65.29 | X-H torsion
[ 10718 10713 10712 10709 ] final  127.33 input   66.30 | X-H torsion
[ 10763 10752 10751 10750 ] final   60.01 input  -60.55 | X-H torsion
[ 11005 11000 10999 10996 ] final -126.17 input  -57.11 | X-H torsion

> <Gold.Protein.ActiveResidues>
 VAL166  LYS551  ARG553  GLY616  TRP617  ASP618  TYR619  PRO620  LYS621  CYS622 
 ASP623  PHE694  ASN695  SER759  ASP760  ASP761  ALA762  ILE779  LEU786  VAL792 
 PHE793  MET794  SER795  GLU796  ALA797  LYS798  CYS799  TRP800  GLU811  SER814 

> <Gold.Protein.RotatedAtoms>
  152.1324  134.9125  160.0557 H   0  0  0  0  0  0  0  0  0  0  0  0  # atno 6907 bound_to 6896
  152.0224  133.3899  159.4272 H   0  0  0  0  0  0  0  0  0  0  0  0  # atno 6908 bound_to 6896
  150.6857  134.3532  159.4962 H   0  0  0  0  0  0  0  0  0  0  0  0  # atno 6909 bound_to 6896
  144.8532  140.6100  143.5376 H   0  0  0  0  0  0  0  0  0  0  0  0  # atno 7974 bound_to 7965
  156.0609  140.1347  156.9942 H   0  0  0  0  0  0  0  0  0  0  0  0  # atno 8008 bound_to 7997
  154.4481  140.0991  156.6587 H   0  0  0  0  0  0  0  0  0  0  0  0  # atno 8009 bound_to 7997
  155.5378  140.3460  155.4442 H   0  0  0  0  0  0  0  0  0  0  0  0  # atno 8010 bound_to 7997
  140.2816  144.3150  150.6263 H   0  0  0  0  0  0  0  0  0  0  0  0  # atno 10167 bound_to 10162
  157.5342  131.1098  150.8961 H   0  0  0  0  0  0  0  0  0  0  0  0  # atno 10718 bound_to 10713
  152.9909  135.5551  154.5805 H   0  0  0  0  0  0  0  0  0  0  0  0  # atno 10763 bound_to 10752
  154.5187  135.2806  155.1283 H   0  0  0  0  0  0  0  0  0  0  0  0  # atno 10764 bound_to 10752
  154.2645  135.6375  153.5339 H   0  0  0  0  0  0  0  0  0  0  0  0  # atno 10765 bound_to 10752
  140.9703  134.0814  157.3876 H   0  0  0  0  0  0  0  0  0  0  0  0  # atno 11005 bound_to 11000
  145.4458  139.1530  143.3945 LP  0  0  0  0  0  0  0  0  0  0  0  0  # atno 17320 bound_to 7965
  146.2802  140.4581  142.8779 LP  0  0  0  0  0  0  0  0  0  0  0  0  # atno 17321 bound_to 7965
  140.5807  143.2173  151.7434 LP  0  0  0  0  0  0  0  0  0  0  0  0  # atno 17342 bound_to 10162
  139.4961  144.4085  152.0106 LP  0  0  0  0  0  0  0  0  0  0  0  0  # atno 17343 bound_to 10162
  156.9534  130.5428  149.5283 LP  0  0  0  0  0  0  0  0  0  0  0  0  # atno 17370 bound_to 10713
  156.0446  130.5524  150.8850 LP  0  0  0  0  0  0  0  0  0  0  0  0  # atno 17371 bound_to 10713
  139.8910  135.0115  156.6766 LP  0  0  0  0  0  0  0  0  0  0  0  0  # atno 17394 bound_to 11000
  140.7338  133.9036  155.8230 LP  0  0  0  0  0  0  0  0  0  0  0  0  # atno 17395 bound_to 11000

$$$$
