AV-unprocessed.smi:3232|AV-procd|sdf|12346|dock1
  -GOLD-   2272018213D 1   1.00000     0.00000
 Structure written by MMmdl.
 40 41  0  0  0  0  0  0  0  0  2 V2000
  145.8685  132.6508  151.6021 C   0  0  0  0  0  0  0  0  0  0  0  0
  147.0453  133.5367  152.0323 C   0  0  0  0  0  0  0  0  0  0  0  0
  146.6444  134.9533  152.2079 N   0  3  1  0  0  0  0  0  0  0  0  0
  145.9299  135.5422  151.0551 C   0  0  0  0  0  0  0  0  0  0  0  0
  145.1288  136.7000  151.6361 C   0  0  0  0  0  0  0  0  0  0  0  0
  144.6968  136.1613  152.9943 C   0  0  0  0  0  0  0  0  0  0  0  0
  145.8345  135.2142  153.4254 C   0  0  2  0  0  0  0  0  0  0  0  0
  146.7286  135.7890  154.5442 C   0  0  0  0  0  0  0  0  0  0  0  0
  147.6140  136.8452  154.0662 N   0  0  0  0  0  0  0  0  0  0  0  0
  148.0642  137.8700  154.8064 C   0  0  0  0  0  0  0  0  0  0  0  0
  147.7675  138.0231  155.9920 O   0  0  0  0  0  0  0  0  0  0  0  0
  148.9901  138.8660  154.0928 C   0  0  1  0  0  0  0  0  0  0  0  0
  148.6285  140.3324  154.3924 C   0  0  0  0  0  0  0  0  0  0  0  0
  150.3792  138.5869  154.4269 N   0  0  0  0  0  0  0  0  0  0  0  0
  151.1018  137.4692  154.3090 C   0  0  0  0  0  0  0  0  0  0  0  0
  152.3592  137.5983  154.7076 N   0  0  0  0  0  0  0  0  0  0  0  0
  152.3455  138.9114  155.0836 C   0  0  0  0  0  0  0  0  0  0  0  0
  151.1857  139.5508  154.9320 N   0  0  0  0  0  0  0  0  0  0  0  0
  146.1999  131.6261  151.4329 H   0  0  0  0  0  0  0  0  0  0  0  0
  145.4218  133.0112  150.6751 H   0  0  0  0  0  0  0  0  0  0  0  0
  145.0880  132.6196  152.3622 H   0  0  0  0  0  0  0  0  0  0  0  0
  147.4916  133.1572  152.9526 H   0  0  0  0  0  0  0  0  0  0  0  0
  147.8187  133.4843  151.2649 H   0  0  0  0  0  0  0  0  0  0  0  0
  146.6183  135.8653  150.2736 H   0  0  0  0  0  0  0  0  0  0  0  0
  145.2483  134.8068  150.6243 H   0  0  0  0  0  0  0  0  0  0  0  0
  145.7734  137.5702  151.7688 H   0  0  0  0  0  0  0  0  0  0  0  0
  144.2877  136.9937  151.0073 H   0  0  0  0  0  0  0  0  0  0  0  0
  144.4924  136.9603  153.7075 H   0  0  0  0  0  0  0  0  0  0  0  0
  143.7750  135.5895  152.8781 H   0  0  0  0  0  0  0  0  0  0  0  0
  145.3847  134.2806  153.7687 H   0  0  0  0  0  0  0  0  0  0  0  0
  146.1156  136.1733  155.3614 H   0  0  0  0  0  0  0  0  0  0  0  0
  147.3474  134.9986  154.9704 H   0  0  0  0  0  0  0  0  0  0  0  0
  147.9139  136.7906  153.1031 H   0  0  0  0  0  0  0  0  0  0  0  0
  148.8651  138.7158  153.0184 H   0  0  0  0  0  0  0  0  0  0  0  0
  147.5871  140.5410  154.1444 H   0  0  0  0  0  0  0  0  0  0  0  0
  149.2460  141.0109  153.8032 H   0  0  0  0  0  0  0  0  0  0  0  0
  148.7770  140.5818  155.4439 H   0  0  0  0  0  0  0  0  0  0  0  0
  150.7006  136.5440  153.9213 H   0  0  0  0  0  0  0  0  0  0  0  0
  153.2173  139.4120  155.4782 H   0  0  0  0  0  0  0  0  0  0  0  0
  147.4903  135.4931  152.3226 H   0  0  0  0  0  0  0  0  0  0  0  0
  1  2  1  0  0  0  0
  1 19  1  0  0  0  0
  1 20  1  0  0  0  0
  1 21  1  0  0  0  0
  2  3  1  0  0  0  0
  2 22  1  0  0  0  0
  2 23  1  0  0  0  0
  3  7  1  0  0  0  0
  3  4  1  0  0  0  0
  3 40  1  0  0  0  0
  4  5  1  0  0  0  0
  4 24  1  0  0  0  0
  4 25  1  0  0  0  0
  5  6  1  0  0  0  0
  5 26  1  0  0  0  0
  5 27  1  0  0  0  0
  6  7  1  0  0  0  0
  6 28  1  0  0  0  0
  6 29  1  0  0  0  0
  7  8  1  0  0  0  0
  7 30  1  0  0  0  0
  8  9  1  0  0  0  0
  8 31  1  0  0  0  0
  8 32  1  0  0  0  0
  9 10  1  0  0  0  0
  9 33  1  0  0  0  0
 10 11  2  0  0  0  0
 10 12  1  0  0  0  0
 12 13  1  0  0  0  0
 12 14  1  0  0  0  0
 12 34  1  0  0  0  0
 13 35  1  0  0  0  0
 13 36  1  0  0  0  0
 13 37  1  0  0  0  0
 14 18  1  0  0  0  0
 14 15  1  0  0  0  0
 15 16  2  0  0  0  0
 15 38  1  0  0  0  0
 16 17  1  0  0  0  0
 17 18  2  0  0  0  0
 17 39  1  0  0  0  0
M  CHG  1   3   1
M  END
> <s_m_source_file>
AV-unprocessed.smi

> <i_m_source_file_index>
3232

> <i_lp_mmshare_version>
43012

> <i_f3d_flags>
0

> <s_epik_input>
W0NIM11bQ0gyXU4xW0NIMl1bQ0gyXVtDSDJdW0NASF0xW0NIMl1bTkhdQyg9TylbQ0BIXShbQ0gzXSluMltjSF1uW2NIXW4y

> <s_epik_cmdline>
J2VwaWtfcHl0aG9uJywgJy1waCcsICc3LjAnLCAnLXRuJywgJzgnLCAnLW1hJywgJzIwMCcsICctbWV0YWxfYmluZGluZycsICctaW1hZScsICc8aW5maWxlLm1hZT4nLCAnLW9tYWUnLCAnPG91dGZpbGUubWFlPic=

> <r_lp_tautomer_probability>
1

> <r_epik_Ionization_Penalty>
0.00177695

> <r_epik_Ionization_Penalty_Charging>
0.00176881

> <r_epik_Ionization_Penalty_Neutral>
8.13528e-06

> <r_epik_State_Penalty>
0.00119827

> <r_epik_Charging_Adjusted_Penalty>
0.00296709

> <i_epik_Tot_Q>
1

> <i_epik_Tot_abs_Q>
1

> <r_epik_Metal_State_Penalty>
-0

> <b_epik_Metal_Only>
0

> <s_lp_Force_Field>
OPLS_2005

> <r_lp_Energy>
32.5075

> <b_lp_Chiralities_Consistent>
1

> <s_lp_Variant>
AV-unprocessed.smi:3232-8

> <Gold.Version>
5.8.1

> <Gold.Id.Protein>
6NUR|6NUR_protein|mol2

> <Gold.PLP.Fitness>
42.5509

> <Gold.PLP.PLP>
-28.0531

> <Gold.PLP.part.hbond>
-4.0000

> <Gold.PLP.part.metal>
0.0000

> <Gold.PLP.part.buried>
-1.1464

> <Gold.PLP.part.nonpolar>
-23.3138

> <Gold.PLP.part.repulsive>
0.1708

> <Gold.PLP.ligand.clash>
0.0000

> <Gold.PLP.ligand.torsion>
0.8303

> <Gold.PLP.Chemscore.Hbond>
4.5335

> <Gold.PLP.Chemscore.CHOScore>
0.7925

> <Gold.PLP.Chemscore.Metal>
0.0000

> <Gold.Chemscore.Hbonds>
donor molecule, donor type, donor heavy atom, donor atom, acceptor molecule, acceptor atom, score
      L1  H     3    40       P1  7948  2.00
      L1  H     9    33       P1  7948  1.00
      P1  H  7989  7998       L1    18  1.00
      P1  H 10752 10763       L1    16  0.54
      L1  C    15    38       P1  7948  0.25
      L1  C    15    38       P1  7949  0.52

> <Gold.PLP.Chemscore.Internal.Correction>
0.1804

> <Gold.Rescore>
     Score         DG    S(hbond)    S(metal)    S(lipo)     H(rot)  DE(clash)    DE(int)     intcor
     12.38     -14.23       3.07        0.00      41.54       2.49       0.89       0.97       ----

> <Gold.Chemscore.Fitness>
12.3785

> <Gold.Chemscore.DG>
-14.2338

> <Gold.Chemscore.ZeroCoef>
-5.4800

> <Gold.Chemscore.Hbond>
3.0730

> <Gold.Chemscore.Metal>
0.0000

> <Gold.Chemscore.Lipo>
41.5363

> <Gold.Chemscore.Internal_Hbond>
0.0000

> <Gold.Chemscore.DEClash>
0.8874

> <Gold.Chemscore.DEInternal>
0.9679

> <Gold.Chemscore.Rot>
2.4882

> <Gold.Chemscore.Internal.Correction>
   9.000000E+99

> <Gold.Chemscore.Hbonds>
donor molecule, donor type, donor heavy atom, donor atom, acceptor molecule, acceptor atom, score
      L1  H     3    40       P1  7948  0.98
      L1  H     9    33       P1  7948  0.97
      P1  H  7989  7998       L1    18  0.22
      P1  H 10752 10763       L1    16  0.10

> <Gold.Chemscore.Hbond.Weighted>
-10.2638

> <Gold.Chemscore.Metal.Weighted>
-0.0000

> <Gold.Chemscore.Lipo.Weighted>
-4.8597

> <Gold.Chemscore.Internal_Hbond.Weighted>
0.0000

> <Gold.Chemscore.DEClash.Weighted>
0.8874

> <Gold.Chemscore.DEInternal.Weighted>
0.9679

> <Gold.Chemscore.Rot.Weighted>
6.3697

> <Gold.Chemscore.Internal.Correction.Weighted>
   9.000000E+99

> <Gold.Protein.RotatedTorsions>
[ 6907 6896 6895 6894 ] final  -99.37 input  -60.11 | X-H torsion
[ 7974 7965 7964 7962 ] final -133.30 input  175.53 | X-H torsion
[ 8008 7997 7996 7995 ] final  154.68 input   59.86 | X-H torsion
[ 10167 10162 10161 10158 ] final -114.18 input  -65.29 | X-H torsion
[ 10718 10713 10712 10709 ] final  -36.72 input   66.30 | X-H torsion
[ 10763 10752 10751 10750 ] final   48.28 input  -60.55 | X-H torsion
[ 11005 11000 10999 10996 ] final -149.21 input  -57.11 | X-H torsion

> <Gold.Protein.ActiveResidues>
 VAL166  LYS551  ARG553  GLY616  TRP617  ASP618  TYR619  PRO620  LYS621  CYS622 
 ASP623  PHE694  ASN695  SER759  ASP760  ASP761  ALA762  ILE779  LEU786  VAL792 
 PHE793  MET794  SER795  GLU796  ALA797  LYS798  CYS799  TRP800  GLU811  SER814 

> <Gold.Protein.RotatedAtoms>
  150.7078  134.1050  159.3979 H   0  0  0  0  0  0  0  0  0  0  0  0  # atno 6907 bound_to 6896
  151.9037  135.0365  160.0518 H   0  0  0  0  0  0  0  0  0  0  0  0  # atno 6908 bound_to 6896
  152.2393  133.5087  159.5297 H   0  0  0  0  0  0  0  0  0  0  0  0  # atno 6909 bound_to 6896
  144.9206  140.7009  143.4968 H   0  0  0  0  0  0  0  0  0  0  0  0  # atno 7974 bound_to 7965
  156.2518  140.1960  156.6684 H   0  0  0  0  0  0  0  0  0  0  0  0  # atno 8008 bound_to 7997
  154.6412  140.0583  156.9873 H   0  0  0  0  0  0  0  0  0  0  0  0  # atno 8009 bound_to 7997
  155.1560  140.3255  155.4424 H   0  0  0  0  0  0  0  0  0  0  0  0  # atno 8010 bound_to 7997
  140.1038  143.4589  152.1796 H   0  0  0  0  0  0  0  0  0  0  0  0  # atno 10167 bound_to 10162
  156.3235  130.4269  149.7938 H   0  0  0  0  0  0  0  0  0  0  0  0  # atno 10718 bound_to 10713
  152.9793  135.5949  154.3900 H   0  0  0  0  0  0  0  0  0  0  0  0  # atno 10763 bound_to 10752
  154.3556  135.2767  155.2350 H   0  0  0  0  0  0  0  0  0  0  0  0  # atno 10764 bound_to 10752
  154.4370  135.6022  153.6159 H   0  0  0  0  0  0  0  0  0  0  0  0  # atno 10765 bound_to 10752
  140.7531  134.3383  157.5121 H   0  0  0  0  0  0  0  0  0  0  0  0  # atno 11005 bound_to 11000
  145.3303  139.1761  143.4540 LP  0  0  0  0  0  0  0  0  0  0  0  0  # atno 17320 bound_to 7965
  146.3203  140.3332  142.8642 LP  0  0  0  0  0  0  0  0  0  0  0  0  # atno 17321 bound_to 7965
  139.5657  144.7433  151.4030 LP  0  0  0  0  0  0  0  0  0  0  0  0  # atno 17342 bound_to 10162
  140.6963  143.7740  150.7332 LP  0  0  0  0  0  0  0  0  0  0  0  0  # atno 17343 bound_to 10162
  156.5236  130.8226  151.3212 LP  0  0  0  0  0  0  0  0  0  0  0  0  # atno 17370 bound_to 10713
  157.7416  130.9874  150.2461 LP  0  0  0  0  0  0  0  0  0  0  0  0  # atno 17371 bound_to 10713
  139.8784  134.9155  156.3132 LP  0  0  0  0  0  0  0  0  0  0  0  0  # atno 17394 bound_to 11000
  140.9732  133.7314  156.0565 LP  0  0  0  0  0  0  0  0  0  0  0  0  # atno 17395 bound_to 11000

$$$$
