#       Name:                AV-unprocessed.smi:3184
#       Creating user name   scv26
#       Creation time:       Fri Mar 27 17:59:54 2020


#       File generated by GOLD software.
#

@<TRIPOS>MOLECULE
AV-unprocessed.smi:3184
    37    38     1
SMALL
NO_CHARGES


@<TRIPOS>ATOM
      1 ****         0.2484  -2.9310  -1.8595 C.3            1 S1                 0.0000
      2 ****         0.4359  -2.0892  -0.5903 C.3            1 S1                 0.0000
      3 ****         1.9324  -1.8783  -0.2760 C.3            1 S1                 0.0000
      4 ****         2.1591  -1.2467   1.0283 N.pl3          1 S1                 0.0000
      5 ****         2.0017  -1.8174   2.2653 C.2            1 S1                 0.0000
      6 ****         2.3134  -0.8494   3.1848 C.2            1 S1                 0.0000
      7 ****         2.6548   0.2680   2.4711 N.pl3          1 S1                 1.0000
      8 ****         2.5648   0.0231   1.1598 C.2            1 S1                 0.0000
      9 ****        -0.2512  -0.8105  -0.7667 N.am           1 S1                 0.0000
     10 ****        -0.9211  -0.1365   0.1851 C.2            1 S1                 0.0000
     11 ****        -1.0124  -0.5323   1.3477 O.2            1 S1                 0.0000
     12 ****        -1.4577   1.0279  -0.2385 N.am           1 S1                 0.0000
     13 ****        -1.4360   1.5525  -1.6072 C.3            1 S1                 0.0000
     14 ****        -2.3797   2.7553  -1.6057 C.3            1 S1                 0.0000
     15 ****        -2.3838   3.2248  -0.1579 C.3            1 S1                 0.0000
     16 ****        -2.1688   1.9452   0.6499 C.3            1 S1                 0.0000
     17 ****         0.7183  -3.9092  -1.7541 H              1 S1                 0.0000
     18 ****         0.6884  -2.4433  -2.7302 H              1 S1                 0.0000
     19 ****        -0.8089  -3.0969  -2.0692 H              1 S1                 0.0000
     20 ****        -0.0233  -2.6417   0.2316 H              1 S1                 0.0000
     21 ****         2.4523  -2.8370  -0.2588 H              1 S1                 0.0000
     22 ****         2.4117  -1.2738  -1.0478 H              1 S1                 0.0000
     23 ****         1.6791  -2.8402   2.3957 H              1 S1                 0.0000
     24 ****         2.3169  -0.8711   4.2648 H              1 S1                 0.0000
     25 ****         2.7690   0.7183   0.3652 H              1 S1                 0.0000
     26 ****        -0.2254  -0.4070  -1.6920 H              1 S1                 0.0000
     27 ****        -0.4198   1.8655  -1.8523 H              1 S1                 0.0000
     28 ****        -1.7513   0.8095  -2.3416 H              1 S1                 0.0000
     29 ****        -2.0729   3.5351  -2.3034 H              1 S1                 0.0000
     30 ****        -3.3832   2.4324  -1.8861 H              1 S1                 0.0000
     31 ****        -1.5479   3.9060   0.0064 H              1 S1                 0.0000
     32 ****        -3.3004   3.7485   0.1150 H              1 S1                 0.0000
     33 ****        -3.1260   1.5007   0.9262 H              1 S1                 0.0000
     34 ****        -1.6108   2.1449   1.5660 H              1 S1                 0.0000
     35 ****         2.9341   1.1533   2.8748 H              1 S1                 0.0000
     36 ****        -0.5770  -1.3906   1.6193 LP             1 S1                 0.0000
     37 ****        -1.5219   0.0046   2.0201 LP             1 S1                 0.0000
@<TRIPOS>BOND
    1    1    2 1     
    2    1   17 1     
    3    1   18 1     
    4    1   19 1     
    5    2    3 1     
    6    2    9 1     
    7    2   20 1     
    8    3    4 1     
    9    3   21 1     
   10    3   22 1     
   11    4    8 1     
   12    4    5 1     
   13    5    6 2     
   14    5   23 1     
   15    6    7 1     
   16    6   24 1     
   17    7    8 2     
   18    7   35 1     
   19    8   25 1     
   20    9   10 am    
   21    9   26 1     
   22   10   11 2     
   23   10   12 am    
   24   12   16 1     
   25   12   13 1     
   26   13   14 1     
   27   13   27 1     
   28   13   28 1     
   29   14   15 1     
   30   14   29 1     
   31   14   30 1     
   32   15   16 1     
   33   15   31 1     
   34   15   32 1     
   35   16   33 1     
   36   16   34 1     
   37   11   36 1     
   38   11   37 1     
@<TRIPOS>SUBSTRUCTURE
      1 S1             1
@<TRIPOS>SET
LONE_PAIRS      STATIC     ATOMS    <user>   **** ""
2 36 37
DONOR_HYDROGENS      STATIC     ATOMS    <user>   **** ""
2 35 26
ATOM$BLUE        STATIC     ATOMS    COLORGROUP SYSTEM
2 36 37
ATOM$RED        STATIC     ATOMS    COLORGROUP SYSTEM
2 35 26
