#       Name:                AV-unprocessed.smi:2226
#       Creating user name   scv26
#       Creation time:       Fri Mar 27 12:22:10 2020


#       File generated by GOLD software.
#

@<TRIPOS>MOLECULE
AV-unprocessed.smi:2226
    45    47     1
SMALL
NO_CHARGES


@<TRIPOS>ATOM
      1 ****        -2.9683  -3.0047  -0.4687 C.3            1 S1                 0.0000
      2 ****        -2.3823  -1.6466  -0.3703 N.4            1 S1                 1.0000
      3 ****        -1.7323  -1.1570  -1.6092 C.3            1 S1                 0.0000
      4 ****        -0.4185  -1.9254  -1.9009 C.3            1 S1                 0.0000
      5 ****         0.5557  -1.9854  -0.7103 C.3            1 S1                 0.0000
      6 ****        -0.1592  -2.2222   0.6319 C.3            1 S1                 0.0000
      7 ****        -1.4858  -1.4382   0.7913 C.3            1 S1                 0.0000
      8 ****        -1.3295   0.0793   1.0407 C.3            1 S1                 0.0000
      9 ****        -1.0073   0.9401  -0.2126 C.3            1 S1                 0.0000
     10 ****         0.4154   1.2420  -0.3490 N.am           1 S1                 0.0000
     11 ****         1.1308   2.0866   0.4082 C.2            1 S1                 0.0000
     12 ****         0.5832   2.7118   1.3191 O.2            1 S1                 0.0000
     13 ****         2.4368   2.1453   0.0661 N.pl3          1 S1                -1.0000
     14 ****         3.2729   2.9346   0.7596 C.2            1 S1                 0.0000
     15 ****         3.7063   4.1426   0.3950 N.2            1 S1                 0.0000
     16 ****         4.5451   4.5674   1.4138 C.2            1 S1                 0.0000
     17 ****         4.5892   3.5805   2.3601 C.2            1 S1                 0.0000
     18 ****         3.7932   2.5441   1.9575 O.3            1 S1                 0.0000
     19 ****        -1.5972   0.3819  -1.5327 C.3            1 S1                 0.0000
     20 ****        -2.2123  -3.7705  -0.6399 H              1 S1                 0.0000
     21 ****        -3.6857  -3.0490  -1.2884 H              1 S1                 0.0000
     22 ****        -3.5012  -3.2561   0.4487 H              1 S1                 0.0000
     23 ****        -2.4088  -1.3604  -2.4405 H              1 S1                 0.0000
     24 ****        -0.6679  -2.9467  -2.1893 H              1 S1                 0.0000
     25 ****         0.0846  -1.4957  -2.7677 H              1 S1                 0.0000
     26 ****         1.2846  -2.7789  -0.8777 H              1 S1                 0.0000
     27 ****         1.1527  -1.0811  -0.6635 H              1 S1                 0.0000
     28 ****        -0.3697  -3.2879   0.7240 H              1 S1                 0.0000
     29 ****         0.5164  -1.9893   1.4556 H              1 S1                 0.0000
     30 ****        -1.9872  -1.8402   1.6729 H              1 S1                 0.0000
     31 ****        -2.2827   0.4358   1.4336 H              1 S1                 0.0000
     32 ****        -0.6130   0.2582   1.8431 H              1 S1                 0.0000
     33 ****        -1.4816   1.9118  -0.0611 H              1 S1                 0.0000
     34 ****         0.9118   0.7608  -1.0848 H              1 S1                 0.0000
     35 ****         5.0398   5.5269   1.3847 H              1 S1                 0.0000
     36 ****         5.0979   3.4653   3.3053 H              1 S1                 0.0000
     37 ****        -1.0492   0.7625  -2.3960 H              1 S1                 0.0000
     38 ****        -2.6024   0.7941  -1.6332 H              1 S1                 0.0000
     39 ****        -3.1725  -1.0365  -0.2172 H              1 S1                 0.0000
     40 ****        -0.3939   2.5889   1.4930 LP             1 S1                 0.0000
     41 ****         1.1161   3.3417   1.8841 LP             1 S1                 0.0000
     42 ****         2.7794   1.6028  -0.7009 LP             1 S1                 0.0000
     43 ****         3.4739   4.6394  -0.4411 LP             1 S1                 0.0000
     44 ****         4.3330   1.7093   1.8495 LP             1 S1                 0.0000
     45 ****         3.0626   2.3851   2.6216 LP             1 S1                 0.0000
@<TRIPOS>BOND
    1    1    2 1     
    2    1   20 1     
    3    1   21 1     
    4    1   22 1     
    5    2    7 1     
    6    2    3 1     
    7    2   39 1     
    8    3   19 1     
    9    3    4 1     
   10    3   23 1     
   11    4    5 1     
   12    4   24 1     
   13    4   25 1     
   14    5    6 1     
   15    5   26 1     
   16    5   27 1     
   17    6    7 1     
   18    6   28 1     
   19    6   29 1     
   20    7    8 1     
   21    7   30 1     
   22    8    9 1     
   23    8   31 1     
   24    8   32 1     
   25    9   10 1     
   26    9   19 1     
   27    9   33 1     
   28   10   34 1     
   29   10   11 am    
   30   11   13 1     
   31   11   12 2     
   32   13   14 1     
   33   14   18 1     
   34   14   15 2     
   35   15   16 1     
   36   16   35 1     
   37   16   17 2     
   38   17   36 1     
   39   17   18 1     
   40   19   37 1     
   41   19   38 1     
   42   12   40 1     
   43   12   41 1     
   44   13   42 1     
   45   15   43 1     
   46   18   44 1     
   47   18   45 1     
@<TRIPOS>SUBSTRUCTURE
      1 S1             1
@<TRIPOS>SET
LONE_PAIRS      STATIC     ATOMS    <user>   **** ""
6 40 41 42 43 44 45
DONOR_HYDROGENS      STATIC     ATOMS    <user>   **** ""
2 39 34
ATOM$BLUE        STATIC     ATOMS    COLORGROUP SYSTEM
6 40 41 42 43 44 45
ATOM$RED        STATIC     ATOMS    COLORGROUP SYSTEM
2 39 34
