AV-unprocessed.smi:81|AV-procd|sdf|789|dock10
  -GOLD-   2262017163D 1   1.00000     0.00000
 Structure written by MMmdl.
 64 67  0  0  0  0  0  0  0  0  2 V2000
  140.5023  136.1737  153.8690 C   0  0  0  0  0  0  0  0  0  0  0  0
  141.4102  137.4093  153.9857 C   0  0  0  0  0  0  0  0  0  0  0  0
  140.6460  138.6788  153.5834 C   0  0  0  0  0  0  0  0  0  0  0  0
  142.6932  137.2622  153.1371 C   0  0  0  0  0  0  0  0  0  0  0  0
  143.6001  136.2080  153.6017 N   0  0  0  0  0  0  0  0  0  0  0  0
  144.6066  136.6364  154.4045 C   0  0  0  0  0  0  0  0  0  0  0  0
  144.6331  136.2738  155.7141 N   0  0  0  0  0  0  0  0  0  0  0  0
  145.6288  136.6887  156.5030 C   0  0  0  0  0  0  0  0  0  0  0  0
  146.6765  137.4548  156.1916 N   0  0  0  0  0  0  0  0  0  0  0  0
  146.6556  137.8143  154.8760 C   0  0  0  0  0  0  0  0  0  0  0  0
  145.6682  137.4468  153.9202 C   0  0  0  0  0  0  0  0  0  0  0  0
  145.9833  137.9826  152.6781 N   0  0  0  0  0  0  0  0  0  0  0  0
  147.0964  138.6311  152.8877 C   0  0  0  0  0  0  0  0  0  0  0  0
  147.5636  138.5953  154.1827 N   0  0  0  0  0  0  0  0  0  0  0  0
  148.7712  139.2271  154.6918 C   0  0  0  0  0  0  0  0  0  0  0  0
  148.7852  140.7749  154.5528 C   0  0  2  0  0  0  0  0  0  0  0  0
  148.8051  141.1293  153.1829 O   0  0  0  0  0  0  0  0  0  0  0  0
  149.9589  141.4487  155.2533 C   0  0  0  0  0  0  0  0  0  0  0  0
  149.4714  141.5445  156.6955 C   0  0  0  0  0  0  0  0  0  0  0  0
  148.0559  141.6825  156.6127 O   0  0  0  0  0  0  0  0  0  0  0  0
  147.6179  141.4805  155.2712 C   0  0  2  0  0  0  0  0  0  0  0  0
  146.2566  140.7695  155.2453 C   0  0  0  0  0  0  0  0  0  0  0  0
  143.9509  135.1710  152.6203 C   0  0  2  0  0  0  0  0  0  0  0  0
  144.4394  135.7306  151.2671 C   0  0  0  0  0  0  0  0  0  0  0  0
  144.8667  134.5940  150.3246 C   0  0  0  0  0  0  0  0  0  0  0  0
  143.7588  133.6281  150.1199 N   0  3  1  0  0  0  0  0  0  0  0  0
  144.0925  132.5917  149.1196 C   0  0  0  0  0  0  0  0  0  0  0  0
  143.2839  133.0466  151.4000 C   0  0  0  0  0  0  0  0  0  0  0  0
  142.8227  134.1467  152.3702 C   0  0  0  0  0  0  0  0  0  0  0  0
  140.1914  136.0063  152.8372 H   0  0  0  0  0  0  0  0  0  0  0  0
  139.6021  136.2900  154.4731 H   0  0  0  0  0  0  0  0  0  0  0  0
  141.0081  135.2720  154.2139 H   0  0  0  0  0  0  0  0  0  0  0  0
  141.6856  137.5266  155.0342 H   0  0  0  0  0  0  0  0  0  0  0  0
  140.3285  138.6378  152.5411 H   0  0  0  0  0  0  0  0  0  0  0  0
  141.2672  139.5663  153.7080 H   0  0  0  0  0  0  0  0  0  0  0  0
  139.7554  138.8137  154.1978 H   0  0  0  0  0  0  0  0  0  0  0  0
  142.4141  137.0568  152.1032 H   0  0  0  0  0  0  0  0  0  0  0  0
  143.2289  138.2124  153.1181 H   0  0  0  0  0  0  0  0  0  0  0  0
  145.5797  136.3597  157.5306 H   0  0  0  0  0  0  0  0  0  0  0  0
  147.6073  139.1649  152.0993 H   0  0  0  0  0  0  0  0  0  0  0  0
  148.8791  138.9398  155.7383 H   0  0  0  0  0  0  0  0  0  0  0  0
  149.6234  138.7905  154.1698 H   0  0  0  0  0  0  0  0  0  0  0  0
  147.9137  141.2320  152.8868 H   0  0  0  0  0  0  0  0  0  0  0  0
  150.9114  140.9305  155.1548 H   0  0  0  0  0  0  0  0  0  0  0  0
  150.1019  142.4584  154.8643 H   0  0  0  0  0  0  0  0  0  0  0  0
  149.7021  140.6282  157.2401 H   0  0  0  0  0  0  0  0  0  0  0  0
  149.9227  142.3789  157.2325 H   0  0  0  0  0  0  0  0  0  0  0  0
  147.4937  142.4769  154.8430 H   0  0  0  0  0  0  0  0  0  0  0  0
  145.9316  140.5844  154.2212 H   0  0  0  0  0  0  0  0  0  0  0  0
  145.4944  141.3798  155.7294 H   0  0  0  0  0  0  0  0  0  0  0  0
  146.2888  139.8142  155.7693 H   0  0  0  0  0  0  0  0  0  0  0  0
  144.7915  134.6283  153.0548 H   0  0  0  0  0  0  0  0  0  0  0  0
  143.6536  136.3115  150.7825 H   0  0  0  0  0  0  0  0  0  0  0  0
  145.2795  136.4080  151.4239 H   0  0  0  0  0  0  0  0  0  0  0  0
  145.1671  135.0136  149.3635 H   0  0  0  0  0  0  0  0  0  0  0  0
  145.7368  134.0752  150.7305 H   0  0  0  0  0  0  0  0  0  0  0  0
  144.9251  131.9736  149.4579 H   0  0  0  0  0  0  0  0  0  0  0  0
  144.3694  133.0488  148.1692 H   0  0  0  0  0  0  0  0  0  0  0  0
  143.2355  131.9426  148.9377 H   0  0  0  0  0  0  0  0  0  0  0  0
  142.4555  132.3641  151.2060 H   0  0  0  0  0  0  0  0  0  0  0  0
  144.0820  132.4562  151.8532 H   0  0  0  0  0  0  0  0  0  0  0  0
  142.5063  133.6892  153.3078 H   0  0  0  0  0  0  0  0  0  0  0  0
  141.9446  134.6402  151.9529 H   0  0  0  0  0  0  0  0  0  0  0  0
  142.9852  134.1540  149.7388 H   0  0  0  0  0  0  0  0  0  0  0  0
  1  2  1  0  0  0  0
  1 30  1  0  0  0  0
  1 31  1  0  0  0  0
  1 32  1  0  0  0  0
  2  3  1  0  0  0  0
  2  4  1  0  0  0  0
  2 33  1  0  0  0  0
  3 34  1  0  0  0  0
  3 35  1  0  0  0  0
  3 36  1  0  0  0  0
  4  5  1  0  0  0  0
  4 37  1  0  0  0  0
  4 38  1  0  0  0  0
  5  6  1  0  0  0  0
  5 23  1  0  0  0  0
  6 11  1  0  0  0  0
  6  7  2  0  0  0  0
  7  8  1  0  0  0  0
  8  9  2  0  0  0  0
  8 39  1  0  0  0  0
  9 10  1  0  0  0  0
 10 14  1  0  0  0  0
 10 11  2  0  0  0  0
 11 12  1  0  0  0  0
 12 13  2  0  0  0  0
 13 14  1  0  0  0  0
 13 40  1  0  0  0  0
 14 15  1  0  0  0  0
 15 16  1  0  0  0  0
 15 41  1  0  0  0  0
 15 42  1  0  0  0  0
 16 21  1  0  0  0  0
 16 17  1  0  0  0  0
 16 18  1  0  0  0  0
 17 43  1  0  0  0  0
 18 19  1  0  0  0  0
 18 44  1  0  0  0  0
 18 45  1  0  0  0  0
 19 20  1  0  0  0  0
 19 46  1  0  0  0  0
 19 47  1  0  0  0  0
 20 21  1  0  0  0  0
 21 22  1  0  0  0  0
 21 48  1  0  0  0  0
 22 49  1  0  0  0  0
 22 50  1  0  0  0  0
 22 51  1  0  0  0  0
 23 29  1  0  0  0  0
 23 24  1  0  0  0  0
 23 52  1  0  0  0  0
 24 25  1  0  0  0  0
 24 53  1  0  0  0  0
 24 54  1  0  0  0  0
 25 26  1  0  0  0  0
 25 55  1  0  0  0  0
 25 56  1  0  0  0  0
 26 27  1  0  0  0  0
 26 28  1  0  0  0  0
 26 64  1  0  0  0  0
 27 57  1  0  0  0  0
 27 58  1  0  0  0  0
 27 59  1  0  0  0  0
 28 29  1  0  0  0  0
 28 60  1  0  0  0  0
 28 61  1  0  0  0  0
 29 62  1  0  0  0  0
 29 63  1  0  0  0  0
M  CHG  1  26   1
M  END
> <s_m_source_file>
AV-unprocessed.smi

> <i_m_source_file_index>
81

> <i_lp_mmshare_version>
43012

> <i_f3d_flags>
0

> <s_epik_input>
W0NIMl0xW0NIMl1OKFtDSDNdKVtDSDJdW0NIMl1bQ0hdMU4oW0NIMl1bQ0hdKFtDSDNdKVtDSDNdKWMobltjSF1uMiljKGMyMyluW2NIXW4zW0NIMl1bQ0BAXTQoW09IXSlbQ0gyXVtDSDJdT1tDQEhdNFtDSDNd

> <s_epik_cmdline>
J2VwaWtfcHl0aG9uJywgJy1waCcsICc3LjAnLCAnLXRuJywgJzgnLCAnLW1hJywgJzIwMCcsICctbWV0YWxfYmluZGluZycsICctaW1hZScsICc8aW5maWxlLm1hZT4nLCAnLW9tYWUnLCAnPG91dGZpbGUubWFlPic=

> <r_lp_tautomer_probability>
1

> <r_epik_Ionization_Penalty>
0.00272708

> <r_epik_Ionization_Penalty_Charging>
0.00158983

> <r_epik_Ionization_Penalty_Neutral>
0.00113725

> <r_epik_State_Penalty>
-0

> <r_epik_Charging_Adjusted_Penalty>
0.00158983

> <i_epik_Tot_Q>
1

> <i_epik_Tot_abs_Q>
1

> <r_epik_Metal_State_Penalty>
-0

> <b_epik_Metal_Only>
0

> <s_lp_Force_Field>
OPLS_2005

> <r_lp_Energy>
46.4423

> <b_lp_Chiralities_Consistent>
1

> <s_lp_Variant>
AV-unprocessed.smi:81-4

> <Gold.Version>
5.8.1

> <Gold.Id.Protein>
6NUR|6NUR_protein|mol2

> <Gold.PLP.Fitness>
50.1593

> <Gold.PLP.PLP>
-40.1014

> <Gold.PLP.part.hbond>
-2.8976

> <Gold.PLP.part.metal>
0.0000

> <Gold.PLP.part.buried>
-4.0021

> <Gold.PLP.part.nonpolar>
-34.4205

> <Gold.PLP.part.repulsive>
0.4940

> <Gold.PLP.ligand.clash>
0.0000

> <Gold.PLP.ligand.torsion>
1.3813

> <Gold.PLP.Chemscore.Hbond>
2.9840

> <Gold.PLP.Chemscore.CHOScore>
1.0000

> <Gold.PLP.Chemscore.Metal>
0.0000

> <Gold.Chemscore.Hbonds>
donor molecule, donor type, donor heavy atom, donor atom, acceptor molecule, acceptor atom, score
      L1  H    26    64       P1 10186  1.98
      P1  H  8011  8017       L1    17  1.00
      L1  C    13    40       P1  7957  1.00

> <Gold.PLP.Chemscore.Internal.Correction>
0.8684

> <Gold.Rescore>
     Score         DG    S(hbond)    S(metal)    S(lipo)     H(rot)  DE(clash)    DE(int)     intcor
     10.75     -16.38       1.77        0.00      99.01       2.58       0.91       4.71       ----

> <Gold.Chemscore.Fitness>
10.7529

> <Gold.Chemscore.DG>
-16.3782

> <Gold.Chemscore.ZeroCoef>
-5.4800

> <Gold.Chemscore.Hbond>
1.7703

> <Gold.Chemscore.Metal>
0.0000

> <Gold.Chemscore.Lipo>
99.0067

> <Gold.Chemscore.Internal_Hbond>
0.0000

> <Gold.Chemscore.DEClash>
0.9148

> <Gold.Chemscore.DEInternal>
4.7105

> <Gold.Chemscore.Rot>
2.5774

> <Gold.Chemscore.Internal.Correction>
   9.000000E+99

> <Gold.Chemscore.Hbonds>
donor molecule, donor type, donor heavy atom, donor atom, acceptor molecule, acceptor atom, score
      L1  H    26    64       P1 10186  0.91
      P1  H  8011  8017       L1    17  0.54

> <Gold.Chemscore.Hbond.Weighted>
-5.9127

> <Gold.Chemscore.Metal.Weighted>
-0.0000

> <Gold.Chemscore.Lipo.Weighted>
-11.5838

> <Gold.Chemscore.Internal_Hbond.Weighted>
0.0000

> <Gold.Chemscore.DEClash.Weighted>
0.9148

> <Gold.Chemscore.DEInternal.Weighted>
4.7105

> <Gold.Chemscore.Rot.Weighted>
6.5982

> <Gold.Chemscore.Internal.Correction.Weighted>
   9.000000E+99

> <Gold.Protein.RotatedTorsions>
[ 6907 6896 6895 6894 ] final  -12.47 input  -60.11 | X-H torsion
[ 7974 7965 7964 7962 ] final  168.89 input  175.53 | X-H torsion
[ 8008 7997 7996 7995 ] final -171.86 input   59.86 | X-H torsion
[ 10167 10162 10161 10158 ] final   10.47 input  -65.29 | X-H torsion
[ 10718 10713 10712 10709 ] final -129.71 input   66.30 | X-H torsion
[ 10763 10752 10751 10750 ] final -176.79 input  -60.55 | X-H torsion
[ 11005 11000 10999 10996 ] final  -86.50 input  -57.11 | X-H torsion

> <Gold.Protein.ActiveResidues>
 VAL166  LYS551  ARG553  GLY616  TRP617  ASP618  TYR619  PRO620  LYS621  CYS622 
 ASP623  PHE694  ASN695  SER759  ASP760  ASP761  ALA762  ILE779  LEU786  VAL792 
 PHE793  MET794  SER795  GLU796  ALA797  LYS798  CYS799  TRP800  GLU811  SER814 

> <Gold.Protein.RotatedAtoms>
  151.3700  135.0920  159.9461 H   0  0  0  0  0  0  0  0  0  0  0  0  # atno 6907 bound_to 6896
  152.5138  133.9174  159.7528 H   0  0  0  0  0  0  0  0  0  0  0  0  # atno 6908 bound_to 6896
  150.9586  133.6415  159.2787 H   0  0  0  0  0  0  0  0  0  0  0  0  # atno 6909 bound_to 6896
  144.7373  139.8973  143.6407 H   0  0  0  0  0  0  0  0  0  0  0  0  # atno 7974 bound_to 7965
  155.9371  140.1102  157.1086 H   0  0  0  0  0  0  0  0  0  0  0  0  # atno 8008 bound_to 7997
  154.4082  140.1226  156.4944 H   0  0  0  0  0  0  0  0  0  0  0  0  # atno 8009 bound_to 7997
  155.7008  140.3472  155.4934 H   0  0  0  0  0  0  0  0  0  0  0  0  # atno 8010 bound_to 7997
  140.6192  143.8241  150.7154 H   0  0  0  0  0  0  0  0  0  0  0  0  # atno 10167 bound_to 10162
  156.2073  130.6896  151.0609 H   0  0  0  0  0  0  0  0  0  0  0  0  # atno 10718 bound_to 10713
  154.5680  135.2825  155.0855 H   0  0  0  0  0  0  0  0  0  0  0  0  # atno 10763 bound_to 10752
  154.2238  135.6386  153.5157 H   0  0  0  0  0  0  0  0  0  0  0  0  # atno 10764 bound_to 10752
  153.0049  135.5521  154.6295 H   0  0  0  0  0  0  0  0  0  0  0  0  # atno 10765 bound_to 10752
  141.1629  133.7458  156.9170 H   0  0  0  0  0  0  0  0  0  0  0  0  # atno 11005 bound_to 11000
  146.1098  139.4101  143.0295 LP  0  0  0  0  0  0  0  0  0  0  0  0  # atno 17320 bound_to 7965
  145.7460  140.9990  143.1276 LP  0  0  0  0  0  0  0  0  0  0  0  0  # atno 17321 bound_to 7965
  140.1828  143.4101  152.1921 LP  0  0  0  0  0  0  0  0  0  0  0  0  # atno 17342 bound_to 10162
  139.5424  144.7268  151.4691 LP  0  0  0  0  0  0  0  0  0  0  0  0  # atno 17343 bound_to 10162
  157.7019  131.0772  150.6792 LP  0  0  0  0  0  0  0  0  0  0  0  0  # atno 17370 bound_to 10713
  156.6851  130.4578  149.5616 LP  0  0  0  0  0  0  0  0  0  0  0  0  # atno 17371 bound_to 10713
  140.1478  134.9251  157.2552 LP  0  0  0  0  0  0  0  0  0  0  0  0  # atno 17394 bound_to 11000
  140.2759  134.3406  155.7358 LP  0  0  0  0  0  0  0  0  0  0  0  0  # atno 17395 bound_to 11000

$$$$
