AV-unprocessed.smi:1389|AV-procd|sdf|5647|dock5
  -GOLD-   22720 5263D 1   1.00000     0.00000
 Structure written by MMmdl.
 51 53  0  0  0  0  0  0  0  0  1 V2000
  151.3214  141.0298  156.2985 C   0  0  0  0  0  0  0  0  0  0  0  0
  150.7247  140.4432  157.5984 C   0  0  1  0  0  0  0  0  0  0  0  0
  150.6189  138.9045  157.4358 C   0  0  0  0  0  0  0  0  0  0  0  0
  149.3196  138.3979  157.8727 N   0  0  0  0  0  0  0  0  0  0  0  0
  149.1220  137.4409  158.7900 C   0  0  0  0  0  0  0  0  0  0  0  0
  150.0324  136.8276  159.3473 O   0  0  0  0  0  0  0  0  0  0  0  0
  147.8127  137.2705  159.0351 N   0  0  0  0  0  0  0  0  0  0  0  0
  147.2051  136.3799  159.9643 C   0  0  0  0  0  0  0  0  0  0  0  0
  147.7424  135.0998  160.2424 C   0  0  0  0  0  0  0  0  0  0  0  0
  147.0839  134.2638  161.1614 C   0  0  0  0  0  0  0  0  0  0  0  0
  145.9045  134.7345  161.7643 C   0  0  0  0  0  0  0  0  0  0  0  0
  145.3710  135.9437  161.4972 N   0  0  0  0  0  0  0  0  0  0  0  0
  146.0003  136.7590  160.6157 C   0  0  0  0  0  0  0  0  0  0  0  0
  145.4031  138.0055  160.3344 N   0  0  0  0  0  0  0  0  0  0  0  0
  144.9421  138.1387  158.9556 C   0  0  0  0  0  0  0  0  0  0  0  0
  143.6815  139.0030  159.0060 C   0  0  0  0  0  0  0  0  0  0  0  0
  143.1167  138.7005  160.3886 C   0  0  0  0  0  0  0  0  0  0  0  0
  144.3781  138.5328  161.2345 C   0  0  0  0  0  0  0  0  0  0  0  0
  151.4401  140.8712  158.8210 N   0  0  0  0  0  0  0  0  0  0  0  0
  152.7698  140.2649  158.9359 C   0  0  0  0  0  0  0  0  0  0  0  0
  153.5200  140.7209  160.1993 C   0  0  0  0  0  0  0  0  0  0  0  0
  153.6248  142.1386  160.2080 O   0  0  0  0  0  0  0  0  0  0  0  0
  152.3528  142.7716  160.1650 C   0  0  0  0  0  0  0  0  0  0  0  0
  151.5947  142.3268  158.9026 C   0  0  0  0  0  0  0  0  0  0  0  0
  150.8557  140.5902  155.4160 H   0  0  0  0  0  0  0  0  0  0  0  0
  152.3939  140.8439  156.2305 H   0  0  0  0  0  0  0  0  0  0  0  0
  151.1613  142.1049  156.2239 H   0  0  0  0  0  0  0  0  0  0  0  0
  149.7012  140.8155  157.6625 H   0  0  0  0  0  0  0  0  0  0  0  0
  150.7751  138.6037  156.4008 H   0  0  0  0  0  0  0  0  0  0  0  0
  151.4304  138.4197  157.9812 H   0  0  0  0  0  0  0  0  0  0  0  0
  148.5073  138.8481  157.4774 H   0  0  0  0  0  0  0  0  0  0  0  0
  147.1864  137.9230  158.5867 H   0  0  0  0  0  0  0  0  0  0  0  0
  148.6377  134.7425  159.7566 H   0  0  0  0  0  0  0  0  0  0  0  0
  147.4721  133.2833  161.3942 H   0  0  0  0  0  0  0  0  0  0  0  0
  145.3699  134.1204  162.4737 H   0  0  0  0  0  0  0  0  0  0  0  0
  145.7079  138.5918  158.3258 H   0  0  0  0  0  0  0  0  0  0  0  0
  144.7056  137.1563  158.5427 H   0  0  0  0  0  0  0  0  0  0  0  0
  143.9521  140.0579  158.9408 H   0  0  0  0  0  0  0  0  0  0  0  0
  142.9825  138.7817  158.1992 H   0  0  0  0  0  0  0  0  0  0  0  0
  142.4555  139.4827  160.7623 H   0  0  0  0  0  0  0  0  0  0  0  0
  142.5580  137.7637  160.3650 H   0  0  0  0  0  0  0  0  0  0  0  0
  144.1926  137.9229  162.1186 H   0  0  0  0  0  0  0  0  0  0  0  0
  144.7188  139.5060  161.5886 H   0  0  0  0  0  0  0  0  0  0  0  0
  152.6929  139.1794  158.9758 H   0  0  0  0  0  0  0  0  0  0  0  0
  153.3651  140.5077  158.0542 H   0  0  0  0  0  0  0  0  0  0  0  0
  153.0043  140.3810  161.0989 H   0  0  0  0  0  0  0  0  0  0  0  0
  154.5210  140.2900  160.2217 H   0  0  0  0  0  0  0  0  0  0  0  0
  151.7841  142.5261  161.0633 H   0  0  0  0  0  0  0  0  0  0  0  0
  152.4936  143.8526  160.1612 H   0  0  0  0  0  0  0  0  0  0  0  0
  152.1191  142.6931  158.0185 H   0  0  0  0  0  0  0  0  0  0  0  0
  150.6223  142.8160  158.9181 H   0  0  0  0  0  0  0  0  0  0  0  0
  1  2  1  0  0  0  0
  1 25  1  0  0  0  0
  1 26  1  0  0  0  0
  1 27  1  0  0  0  0
  2  3  1  0  0  0  0
  2 19  1  0  0  0  0
  2 28  1  0  0  0  0
  3  4  1  0  0  0  0
  3 29  1  0  0  0  0
  3 30  1  0  0  0  0
  4  5  1  0  0  0  0
  4 31  1  0  0  0  0
  5  6  2  0  0  0  0
  5  7  1  0  0  0  0
  7  8  1  0  0  0  0
  7 32  1  0  0  0  0
  8 13  1  0  0  0  0
  8  9  2  0  0  0  0
  9 10  1  0  0  0  0
  9 33  1  0  0  0  0
 10 11  2  0  0  0  0
 10 34  1  0  0  0  0
 11 12  1  0  0  0  0
 11 35  1  0  0  0  0
 12 13  2  0  0  0  0
 13 14  1  0  0  0  0
 14 18  1  0  0  0  0
 14 15  1  0  0  0  0
 15 16  1  0  0  0  0
 15 36  1  0  0  0  0
 15 37  1  0  0  0  0
 16 17  1  0  0  0  0
 16 38  1  0  0  0  0
 16 39  1  0  0  0  0
 17 18  1  0  0  0  0
 17 40  1  0  0  0  0
 17 41  1  0  0  0  0
 18 42  1  0  0  0  0
 18 43  1  0  0  0  0
 19 24  1  0  0  0  0
 19 20  1  0  0  0  0
 20 21  1  0  0  0  0
 20 44  1  0  0  0  0
 20 45  1  0  0  0  0
 21 22  1  0  0  0  0
 21 46  1  0  0  0  0
 21 47  1  0  0  0  0
 22 23  1  0  0  0  0
 23 24  1  0  0  0  0
 23 48  1  0  0  0  0
 23 49  1  0  0  0  0
 24 50  1  0  0  0  0
 24 51  1  0  0  0  0
M  END
> <s_m_source_file>
AV-unprocessed.smi

> <i_m_source_file_index>
1389

> <i_lp_mmshare_version>
43012

> <i_f3d_flags>
0

> <s_epik_input>
W0NIMl0xW0NIMl1PW0NIMl1bQ0gyXU4xW0NASF0oW0NIM10pW0NIMl1bTkhdQyg9TylbTkhdYzJbY0hdW2NIXVtjSF1uYzJOM1tDSDJdW0NIMl1bQ0gyXVtDSDJdMw==

> <s_epik_cmdline>
J2VwaWtfcHl0aG9uJywgJy1waCcsICc3LjAnLCAnLXRuJywgJzgnLCAnLW1hJywgJzIwMCcsICctbWV0YWxfYmluZGluZycsICctaW1hZScsICc8aW5maWxlLm1hZT4nLCAnLW9tYWUnLCAnPG91dGZpbGUubWFlPic=

> <r_lp_tautomer_probability>
1

> <r_epik_Ionization_Penalty>
0.365229

> <r_epik_Ionization_Penalty_Charging>
0

> <r_epik_Ionization_Penalty_Neutral>
0.365229

> <r_epik_State_Penalty>
0.350519

> <r_epik_Charging_Adjusted_Penalty>
0.350519

> <i_epik_Tot_Q>
0

> <i_epik_Tot_abs_Q>
0

> <r_epik_Metal_State_Penalty>
0.33386

> <b_epik_Metal_Only>
0

> <s_lp_Force_Field>
OPLS_2005

> <r_lp_Energy>
61.7302

> <b_lp_Chiralities_Consistent>
1

> <s_lp_Variant>
AV-unprocessed.smi:1389-2

> <Gold.Version>
5.8.1

> <Gold.Id.Protein>
6NUR|6NUR_protein|mol2

> <Gold.PLP.Fitness>
36.6851

> <Gold.PLP.PLP>
-32.8018

> <Gold.PLP.part.hbond>
-2.0000

> <Gold.PLP.part.metal>
0.0000

> <Gold.PLP.part.buried>
-6.5994

> <Gold.PLP.part.nonpolar>
-24.5902

> <Gold.PLP.part.repulsive>
0.2825

> <Gold.PLP.ligand.clash>
0.0000

> <Gold.PLP.ligand.torsion>
1.1428

> <Gold.PLP.Chemscore.Hbond>
2.0000

> <Gold.PLP.Chemscore.CHOScore>
0.0000

> <Gold.PLP.Chemscore.Metal>
0.0000

> <Gold.Chemscore.Hbonds>
donor molecule, donor type, donor heavy atom, donor atom, acceptor molecule, acceptor atom, score
      P1  H  6896  6909       L1     6  0.81
      P1  H  6934  6947       L1    14  0.41

> <Gold.PLP.Chemscore.Internal.Correction>
0.1690

> <Gold.Rescore>
     Score         DG    S(hbond)    S(metal)    S(lipo)     H(rot)  DE(clash)    DE(int)     intcor
     12.35     -14.76       1.01        0.00      84.80       1.57       0.09       2.32       ----

> <Gold.Chemscore.Fitness>
12.3512

> <Gold.Chemscore.DG>
-14.7627

> <Gold.Chemscore.ZeroCoef>
-5.4800

> <Gold.Chemscore.Hbond>
1.0135

> <Gold.Chemscore.Metal>
0.0000

> <Gold.Chemscore.Lipo>
84.8002

> <Gold.Chemscore.Internal_Hbond>
0.0000

> <Gold.Chemscore.DEClash>
0.0906

> <Gold.Chemscore.DEInternal>
2.3210

> <Gold.Chemscore.Rot>
1.5718

> <Gold.Chemscore.Internal.Correction>
   9.000000E+99

> <Gold.Chemscore.Hbonds>
donor molecule, donor type, donor heavy atom, donor atom, acceptor molecule, acceptor atom, score
      P1  H  6896  6909       L1     6  0.80
      P1  H  6934  6947       L1    14  0.01

> <Gold.Chemscore.Hbond.Weighted>
-3.3850

> <Gold.Chemscore.Metal.Weighted>
-0.0000

> <Gold.Chemscore.Lipo.Weighted>
-9.9216

> <Gold.Chemscore.Internal_Hbond.Weighted>
0.0000

> <Gold.Chemscore.DEClash.Weighted>
0.0906

> <Gold.Chemscore.DEInternal.Weighted>
2.3210

> <Gold.Chemscore.Rot.Weighted>
4.0239

> <Gold.Chemscore.Internal.Correction.Weighted>
   9.000000E+99

> <Gold.Protein.RotatedTorsions>
[ 6907 6896 6895 6894 ] final   80.30 input  -60.11 | X-H torsion
[ 7974 7965 7964 7962 ] final   30.28 input  175.53 | X-H torsion
[ 8008 7997 7996 7995 ] final  164.62 input   59.86 | X-H torsion
[ 10167 10162 10161 10158 ] final   68.00 input  -65.29 | X-H torsion
[ 10718 10713 10712 10709 ] final -165.70 input   66.30 | X-H torsion
[ 10763 10752 10751 10750 ] final  106.56 input  -60.55 | X-H torsion
[ 11005 11000 10999 10996 ] final   84.76 input  -57.11 | X-H torsion

> <Gold.Protein.ActiveResidues>
 VAL166  LYS551  ARG553  GLY616  TRP617  ASP618  TYR619  PRO620  LYS621  CYS622 
 ASP623  PHE694  ASN695  SER759  ASP760  ASP761  ALA762  ILE779  LEU786  VAL792 
 PHE793  MET794  SER795  GLU796  ALA797  LYS798  CYS799  TRP800  GLU811  SER814 

> <Gold.Protein.RotatedAtoms>
  152.5230  134.3379  159.9206 H   0  0  0  0  0  0  0  0  0  0  0  0  # atno 6907 bound_to 6896
  151.3329  133.3987  159.2672 H   0  0  0  0  0  0  0  0  0  0  0  0  # atno 6908 bound_to 6896
  150.9866  134.9228  159.7933 H   0  0  0  0  0  0  0  0  0  0  0  0  # atno 6909 bound_to 6896
  146.1621  139.6809  142.9026 H   0  0  0  0  0  0  0  0  0  0  0  0  # atno 7974 bound_to 7965
  156.1865  140.1692  156.8174 H   0  0  0  0  0  0  0  0  0  0  0  0  # atno 8008 bound_to 7997
  154.5421  140.0734  156.8559 H   0  0  0  0  0  0  0  0  0  0  0  0  # atno 8009 bound_to 7997
  155.3195  140.3372  155.4244 H   0  0  0  0  0  0  0  0  0  0  0  0  # atno 8010 bound_to 7997
  140.0834  144.5051  150.7147 H   0  0  0  0  0  0  0  0  0  0  0  0  # atno 10167 bound_to 10162
  156.6572  130.9031  151.3023 H   0  0  0  0  0  0  0  0  0  0  0  0  # atno 10718 bound_to 10713
  153.3947  135.3873  155.1947 H   0  0  0  0  0  0  0  0  0  0  0  0  # atno 10763 bound_to 10752
  154.8723  135.3757  154.4694 H   0  0  0  0  0  0  0  0  0  0  0  0  # atno 10764 bound_to 10752
  153.5184  135.7087  153.5805 H   0  0  0  0  0  0  0  0  0  0  0  0  # atno 10765 bound_to 10752
  139.8991  134.8239  156.2489 H   0  0  0  0  0  0  0  0  0  0  0  0  # atno 11005 bound_to 11000
  145.4561  141.0431  143.2777 LP  0  0  0  0  0  0  0  0  0  0  0  0  # atno 17320 bound_to 7965
  144.8041  139.6084  143.7058 LP  0  0  0  0  0  0  0  0  0  0  0  0  # atno 17321 bound_to 7965
  140.7066  143.2472  151.4708 LP  0  0  0  0  0  0  0  0  0  0  0  0  # atno 17342 bound_to 10162
  139.5766  144.1805  152.1912 LP  0  0  0  0  0  0  0  0  0  0  0  0  # atno 17343 bound_to 10162
  157.7121  130.9453  150.1127 LP  0  0  0  0  0  0  0  0  0  0  0  0  # atno 17370 bound_to 10713
  156.2038  130.3662  149.8754 LP  0  0  0  0  0  0  0  0  0  0  0  0  # atno 17371 bound_to 10713
  141.0237  133.7027  156.1311 LP  0  0  0  0  0  0  0  0  0  0  0  0  # atno 17394 bound_to 11000
  140.7197  134.4371  157.5576 LP  0  0  0  0  0  0  0  0  0  0  0  0  # atno 17395 bound_to 11000

$$$$
