AV-unprocessed.smi:2780|AV-procd|sdf|10714|dock3
  -GOLD-   2272015153D 1   1.00000     0.00000
 Structure written by MMmdl.
 47 49  0  0  0  0  0  0  0  0  2 V2000
  153.0718  141.1023  158.9050 C   0  0  0  0  0  0  0  0  0  0  0  0
  152.7247  142.2639  159.8218 C   0  0  0  0  0  0  0  0  0  0  0  0
  153.2919  142.3446  161.0406 C   0  0  0  0  0  0  0  0  0  0  0  0
  152.9699  143.4109  162.0620 C   0  0  0  0  0  0  0  0  0  0  0  0
  151.6148  144.0593  161.7710 C   0  0  0  0  0  0  0  0  0  0  0  0
  151.5024  144.4932  160.3002 C   0  0  2  0  0  0  0  0  0  0  0  0
  150.1597  145.2182  160.0830 C   0  0  0  0  0  0  0  0  0  0  0  0
  151.7038  143.3022  159.3125 C   0  0  1  0  0  0  0  0  0  0  0  0
  152.0464  143.8360  157.8961 C   0  0  0  0  0  0  0  0  0  0  0  0
  151.2192  143.2244  156.8356 N   0  3  0  0  0  0  0  0  0  0  0  0
  150.7645  141.8544  157.1397 C   0  0  0  0  0  0  0  0  0  0  0  0
  151.1193  140.8929  155.9976 C   0  0  0  0  0  0  0  0  0  0  0  0
  149.9577  140.5703  155.1893 N   0  0  0  0  0  0  0  0  0  0  0  0
  148.8654  141.3176  154.9666 C   0  0  0  0  0  0  0  0  0  0  0  0
  147.9585  140.7657  154.1621 N   0  0  0  0  0  0  0  0  0  0  0  0
  148.5009  139.5449  153.8135 N   0  0  0  0  0  0  0  0  0  0  0  0
  149.6733  139.4748  154.4548 C   0  0  0  0  0  0  0  0  0  0  0  0
  150.6182  138.3224  154.3281 C   0  0  0  0  0  0  0  0  0  0  0  0
  151.3790  137.7952  155.5249 C   0  0  0  0  0  0  0  0  0  0  0  0
  152.1141  138.5236  154.4303 C   0  0  0  0  0  0  0  0  0  0  0  0
  152.1655  140.6200  158.5384 H   0  0  0  0  0  0  0  0  0  0  0  0
  153.6583  140.3462  159.4286 H   0  0  0  0  0  0  0  0  0  0  0  0
  153.6647  141.4400  158.0552 H   0  0  0  0  0  0  0  0  0  0  0  0
  154.0197  141.6071  161.3472 H   0  0  0  0  0  0  0  0  0  0  0  0
  152.9578  142.9626  163.0560 H   0  0  0  0  0  0  0  0  0  0  0  0
  153.7673  144.1547  162.0549 H   0  0  0  0  0  0  0  0  0  0  0  0
  150.8164  143.3534  162.0053 H   0  0  0  0  0  0  0  0  0  0  0  0
  151.4741  144.9139  162.4341 H   0  0  0  0  0  0  0  0  0  0  0  0
  152.3007  145.2161  160.1243 H   0  0  0  0  0  0  0  0  0  0  0  0
  149.3172  144.5427  160.2342 H   0  0  0  0  0  0  0  0  0  0  0  0
  150.0694  145.6405  159.0835 H   0  0  0  0  0  0  0  0  0  0  0  0
  150.0455  146.0445  160.7853 H   0  0  0  0  0  0  0  0  0  0  0  0
  150.7536  142.7688  159.2557 H   0  0  0  0  0  0  0  0  0  0  0  0
  151.8946  144.9124  157.8335 H   0  0  0  0  0  0  0  0  0  0  0  0
  153.1028  143.6641  157.6842 H   0  0  0  0  0  0  0  0  0  0  0  0
  150.4056  143.8062  156.6944 H   0  0  0  0  0  0  0  0  0  0  0  0
  151.2243  141.5217  158.0705 H   0  0  0  0  0  0  0  0  0  0  0  0
  149.6852  141.8644  157.2991 H   0  0  0  0  0  0  0  0  0  0  0  0
  151.8727  141.3395  155.3472 H   0  0  0  0  0  0  0  0  0  0  0  0
  151.5504  139.9712  156.3895 H   0  0  0  0  0  0  0  0  0  0  0  0
  148.7305  142.2967  155.4028 H   0  0  0  0  0  0  0  0  0  0  0  0
  150.2476  137.5999  153.6036 H   0  0  0  0  0  0  0  0  0  0  0  0
  151.2564  138.3121  156.4749 H   0  0  0  0  0  0  0  0  0  0  0  0
  151.5190  136.7185  155.5952 H   0  0  0  0  0  0  0  0  0  0  0  0
  152.7460  137.9343  153.7693 H   0  0  0  0  0  0  0  0  0  0  0  0
  152.4830  139.5202  154.6634 H   0  0  0  0  0  0  0  0  0  0  0  0
  151.7554  143.2064  155.9799 H   0  0  0  0  0  0  0  0  0  0  0  0
  1  2  1  0  0  0  0
  1 21  1  0  0  0  0
  1 22  1  0  0  0  0
  1 23  1  0  0  0  0
  2  8  1  0  0  0  0
  2  3  2  0  0  0  0
  3  4  1  0  0  0  0
  3 24  1  0  0  0  0
  4  5  1  0  0  0  0
  4 25  1  0  0  0  0
  4 26  1  0  0  0  0
  5  6  1  0  0  0  0
  5 27  1  0  0  0  0
  5 28  1  0  0  0  0
  6  7  1  0  0  0  0
  6  8  1  0  0  0  0
  6 29  1  0  0  0  0
  7 30  1  0  0  0  0
  7 31  1  0  0  0  0
  7 32  1  0  0  0  0
  8  9  1  0  0  0  0
  8 33  1  0  0  0  0
  9 10  1  0  0  0  0
  9 34  1  0  0  0  0
  9 35  1  0  0  0  0
 10 11  1  0  0  0  0
 10 36  1  0  0  0  0
 10 47  1  0  0  0  0
 11 12  1  0  0  0  0
 11 37  1  0  0  0  0
 11 38  1  0  0  0  0
 12 13  1  0  0  0  0
 12 39  1  0  0  0  0
 12 40  1  0  0  0  0
 13 17  1  0  0  0  0
 13 14  1  0  0  0  0
 14 15  2  0  0  0  0
 14 41  1  0  0  0  0
 15 16  1  0  0  0  0
 16 17  2  0  0  0  0
 17 18  1  0  0  0  0
 18 20  1  0  0  0  0
 18 19  1  0  0  0  0
 18 42  1  0  0  0  0
 19 20  1  0  0  0  0
 19 43  1  0  0  0  0
 19 44  1  0  0  0  0
 20 45  1  0  0  0  0
 20 46  1  0  0  0  0
M  CHG  1  10   1
M  END
> <s_m_source_file>
AV-unprocessed.smi

> <i_m_source_file_index>
2780

> <i_lp_mmshare_version>
43012

> <i_f3d_flags>
0

> <s_epik_input>
W0NIM11DMT1bQ0hdW0NIMl1bQ0gyXVtDQEBIXShbQ0gzXSlbQ0BIXTFbQ0gyXVtOSF1bQ0gyXVtDSDJdbjJbY0hdbm5jMltDSF0zW0NIMl1bQ0gyXTM=

> <s_epik_cmdline>
J2VwaWtfcHl0aG9uJywgJy1waCcsICc3LjAnLCAnLXRuJywgJzgnLCAnLW1hJywgJzIwMCcsICctbWV0YWxfYmluZGluZycsICctaW1hZScsICc8aW5maWxlLm1hZT4nLCAnLW9tYWUnLCAnPG91dGZpbGUubWFlPic=

> <r_lp_tautomer_probability>
1

> <r_epik_Ionization_Penalty>
0.00176214

> <r_epik_Ionization_Penalty_Charging>
0.00175191

> <r_epik_Ionization_Penalty_Neutral>
1.02377e-05

> <r_epik_State_Penalty>
-0

> <r_epik_Charging_Adjusted_Penalty>
0.00175191

> <i_epik_Tot_Q>
1

> <i_epik_Tot_abs_Q>
1

> <r_epik_Metal_State_Penalty>
-0

> <b_epik_Metal_Only>
0

> <s_lp_Force_Field>
OPLS_2005

> <r_lp_Energy>
22.2191

> <b_lp_Chiralities_Consistent>
1

> <s_lp_Variant>
AV-unprocessed.smi:2780-2

> <Gold.Version>
5.8.1

> <Gold.Id.Protein>
6NUR|6NUR_protein|mol2

> <Gold.PLP.Fitness>
51.0223

> <Gold.PLP.PLP>
-46.8283

> <Gold.PLP.part.hbond>
-1.0000

> <Gold.PLP.part.metal>
0.0000

> <Gold.PLP.part.buried>
-3.7420

> <Gold.PLP.part.nonpolar>
-43.3532

> <Gold.PLP.part.repulsive>
1.5845

> <Gold.PLP.ligand.clash>
0.0000

> <Gold.PLP.ligand.torsion>
2.5259

> <Gold.PLP.Chemscore.Hbond>
2.0000

> <Gold.PLP.Chemscore.CHOScore>
1.0000

> <Gold.PLP.Chemscore.Metal>
0.0000

> <Gold.Chemscore.Hbonds>
donor molecule, donor type, donor heavy atom, donor atom, acceptor molecule, acceptor atom, score
      L1  H    10    36       P1  8028  1.95
      L1  C    14    41       P1  8028  1.00

> <Gold.PLP.Chemscore.Internal.Correction>
0.2459

> <Gold.Rescore>
     Score         DG    S(hbond)    S(metal)    S(lipo)     H(rot)  DE(clash)    DE(int)     intcor
     13.84     -18.96       0.99        0.00     130.19       1.98       1.78       3.35       ----

> <Gold.Chemscore.Fitness>
13.8358

> <Gold.Chemscore.DG>
-18.9631

> <Gold.Chemscore.ZeroCoef>
-5.4800

> <Gold.Chemscore.Hbond>
0.9938

> <Gold.Chemscore.Metal>
0.0000

> <Gold.Chemscore.Lipo>
130.1917

> <Gold.Chemscore.Internal_Hbond>
0.0000

> <Gold.Chemscore.DEClash>
1.7763

> <Gold.Chemscore.DEInternal>
3.3510

> <Gold.Chemscore.Rot>
1.9799

> <Gold.Chemscore.Internal.Correction>
   9.000000E+99

> <Gold.Chemscore.Hbonds>
donor molecule, donor type, donor heavy atom, donor atom, acceptor molecule, acceptor atom, score
      L1  H    10    36       P1  8028  0.92

> <Gold.Chemscore.Hbond.Weighted>
-3.3192

> <Gold.Chemscore.Metal.Weighted>
-0.0000

> <Gold.Chemscore.Lipo.Weighted>
-15.2324

> <Gold.Chemscore.Internal_Hbond.Weighted>
0.0000

> <Gold.Chemscore.DEClash.Weighted>
1.7763

> <Gold.Chemscore.DEInternal.Weighted>
3.3510

> <Gold.Chemscore.Rot.Weighted>
5.0685

> <Gold.Chemscore.Internal.Correction.Weighted>
   9.000000E+99

> <Gold.Protein.RotatedTorsions>
[ 6907 6896 6895 6894 ] final  -52.67 input  -60.11 | X-H torsion
[ 7974 7965 7964 7962 ] final  168.49 input  175.53 | X-H torsion
[ 8008 7997 7996 7995 ] final  179.65 input   59.86 | X-H torsion
[ 10167 10162 10161 10158 ] final  -44.59 input  -65.29 | X-H torsion
[ 10718 10713 10712 10709 ] final -127.91 input   66.30 | X-H torsion
[ 10763 10752 10751 10750 ] final -107.63 input  -60.55 | X-H torsion
[ 11005 11000 10999 10996 ] final -104.05 input  -57.11 | X-H torsion

> <Gold.Protein.ActiveResidues>
 VAL166  LYS551  ARG553  GLY616  TRP617  ASP618  TYR619  PRO620  LYS621  CYS622 
 ASP623  PHE694  ASN695  SER759  ASP760  ASP761  ALA762  ILE779  LEU786  VAL792 
 PHE793  MET794  SER795  GLU796  ALA797  LYS798  CYS799  TRP800  GLU811  SER814 

> <Gold.Protein.RotatedAtoms>
  150.8496  134.7817  159.6997 H   0  0  0  0  0  0  0  0  0  0  0  0  # atno 6907 bound_to 6896
  152.4564  134.5278  159.9812 H   0  0  0  0  0  0  0  0  0  0  0  0  # atno 6908 bound_to 6896
  151.5402  133.3396  159.2969 H   0  0  0  0  0  0  0  0  0  0  0  0  # atno 6909 bound_to 6896
  144.7387  139.8915  143.6403 H   0  0  0  0  0  0  0  0  0  0  0  0  # atno 7974 bound_to 7965
  156.0410  140.1303  157.0156 H   0  0  0  0  0  0  0  0  0  0  0  0  # atno 8008 bound_to 7997
  154.4391  140.1030  156.6307 H   0  0  0  0  0  0  0  0  0  0  0  0  # atno 8009 bound_to 7997
  155.5667  140.3466  155.4507 H   0  0  0  0  0  0  0  0  0  0  0  0  # atno 8010 bound_to 7997
  140.6891  143.2922  151.3518 H   0  0  0  0  0  0  0  0  0  0  0  0  # atno 10167 bound_to 10162
  156.1901  130.6790  151.0414 H   0  0  0  0  0  0  0  0  0  0  0  0  # atno 10718 bound_to 10713
  154.8087  135.4667  154.0460 H   0  0  0  0  0  0  0  0  0  0  0  0  # atno 10763 bound_to 10752
  153.1908  135.6855  153.8362 H   0  0  0  0  0  0  0  0  0  0  0  0  # atno 10764 bound_to 10752
  153.7881  135.3247  155.3352 H   0  0  0  0  0  0  0  0  0  0  0  0  # atno 10765 bound_to 10752
  141.1118  133.8691  157.1563 H   0  0  0  0  0  0  0  0  0  0  0  0  # atno 11005 bound_to 11000
  146.1138  139.4147  143.0271 LP  0  0  0  0  0  0  0  0  0  0  0  0  # atno 17320 bound_to 7965
  145.7404  141.0010  143.1304 LP  0  0  0  0  0  0  0  0  0  0  0  0  # atno 17321 bound_to 7965
  139.6276  144.0784  152.2448 LP  0  0  0  0  0  0  0  0  0  0  0  0  # atno 17342 bound_to 10162
  140.0248  144.6126  150.7536 LP  0  0  0  0  0  0  0  0  0  0  0  0  # atno 17343 bound_to 10162
  157.6924  131.0805  150.7069 LP  0  0  0  0  0  0  0  0  0  0  0  0  # atno 17370 bound_to 10713
  156.7126  130.4656  149.5543 LP  0  0  0  0  0  0  0  0  0  0  0  0  # atno 17371 bound_to 10713
  140.0016  135.0025  157.0202 LP  0  0  0  0  0  0  0  0  0  0  0  0  # atno 17394 bound_to 11000
  140.4755  134.1343  155.7209 LP  0  0  0  0  0  0  0  0  0  0  0  0  # atno 17395 bound_to 11000

$$$$
