AV-unprocessed.smi:2004|AV-procd|sdf|8121|dock5
  -GOLD-   2272010353D 1   1.00000     0.00000
 Structure written by MMmdl.
 39 41  0  0  0  0  0  0  0  0  1 V2000
  151.1050  140.1559  154.7332 O   0  0  0  0  0  0  0  0  0  0  0  0
  149.9035  140.5830  155.3403 C   0  0  2  0  0  0  0  0  0  0  0  0
  148.8212  140.6869  154.2502 C   0  0  0  0  0  0  0  0  0  0  0  0
  147.6693  141.2997  154.8057 O   0  0  0  0  0  0  0  0  0  0  0  0
  146.5659  141.3065  153.9142 C   0  0  0  0  0  0  0  0  0  0  0  0
  145.5080  142.3077  154.3362 C   0  0  0  0  0  0  0  0  0  0  0  0
  145.1339  143.3518  153.4638 C   0  0  0  0  0  0  0  0  0  0  0  0
  144.1407  144.2741  153.8475 C   0  0  0  0  0  0  0  0  0  0  0  0
  143.5138  144.1529  155.1027 C   0  0  0  0  0  0  0  0  0  0  0  0
  143.8789  143.1077  155.9733 C   0  0  0  0  0  0  0  0  0  0  0  0
  144.8718  142.1850  155.5898 C   0  0  0  0  0  0  0  0  0  0  0  0
  150.2024  141.9197  156.0479 C   0  0  0  0  0  0  0  0  0  0  0  0
  150.8479  141.7423  157.3362 N   0  0  0  0  0  0  0  0  0  0  0  0
  151.3229  140.5909  157.8490 C   0  0  0  0  0  0  0  0  0  0  0  0
  151.8849  140.6453  159.0530 N   0  0  0  0  0  0  0  0  0  0  0  0
  151.7653  141.9906  159.3562 C   0  0  0  0  0  0  0  0  0  0  0  0
  152.1701  142.7113  160.5026 C   0  0  0  0  0  0  0  0  0  0  0  0
  151.9403  144.0999  160.5917 C   0  0  0  0  0  0  0  0  0  0  0  0
  151.3035  144.7883  159.5388 C   0  0  0  0  0  0  0  0  0  0  0  0
  150.8903  144.0918  158.3868 C   0  0  0  0  0  0  0  0  0  0  0  0
  151.1222  142.7062  158.3011 C   0  0  0  0  0  0  0  0  0  0  0  0
  150.9131  139.4069  154.1894 H   0  0  0  0  0  0  0  0  0  0  0  0
  149.6061  139.8439  156.0855 H   0  0  0  0  0  0  0  0  0  0  0  0
  149.1679  141.3128  153.4275 H   0  0  0  0  0  0  0  0  0  0  0  0
  148.5903  139.7051  153.8330 H   0  0  0  0  0  0  0  0  0  0  0  0
  146.9001  141.5635  152.9080 H   0  0  0  0  0  0  0  0  0  0  0  0
  146.1276  140.3082  153.8660 H   0  0  0  0  0  0  0  0  0  0  0  0
  145.6086  143.4477  152.4983 H   0  0  0  0  0  0  0  0  0  0  0  0
  143.8587  145.0734  153.1781 H   0  0  0  0  0  0  0  0  0  0  0  0
  142.7518  144.8596  155.3967 H   0  0  0  0  0  0  0  0  0  0  0  0
  143.3963  143.0124  156.9348 H   0  0  0  0  0  0  0  0  0  0  0  0
  145.1435  141.3848  156.2626 H   0  0  0  0  0  0  0  0  0  0  0  0
  150.8553  142.5359  155.4279 H   0  0  0  0  0  0  0  0  0  0  0  0
  149.2831  142.4888  156.1909 H   0  0  0  0  0  0  0  0  0  0  0  0
  151.2496  139.6593  157.3071 H   0  0  0  0  0  0  0  0  0  0  0  0
  152.6592  142.1945  161.3150 H   0  0  0  0  0  0  0  0  0  0  0  0
  152.2548  144.6397  161.4727 H   0  0  0  0  0  0  0  0  0  0  0  0
  151.1318  145.8521  159.6162 H   0  0  0  0  0  0  0  0  0  0  0  0
  150.4009  144.6169  157.5801 H   0  0  0  0  0  0  0  0  0  0  0  0
  1  2  1  0  0  0  0
  1 22  1  0  0  0  0
  2  3  1  0  0  0  0
  2 12  1  0  0  0  0
  2 23  1  0  0  0  0
  3  4  1  0  0  0  0
  3 24  1  0  0  0  0
  3 25  1  0  0  0  0
  4  5  1  0  0  0  0
  5  6  1  0  0  0  0
  5 26  1  0  0  0  0
  5 27  1  0  0  0  0
  6 11  1  0  0  0  0
  6  7  2  0  0  0  0
  7  8  1  0  0  0  0
  7 28  1  0  0  0  0
  8  9  2  0  0  0  0
  8 29  1  0  0  0  0
  9 10  1  0  0  0  0
  9 30  1  0  0  0  0
 10 11  2  0  0  0  0
 10 31  1  0  0  0  0
 11 32  1  0  0  0  0
 12 13  1  0  0  0  0
 12 33  1  0  0  0  0
 12 34  1  0  0  0  0
 13 21  1  0  0  0  0
 13 14  1  0  0  0  0
 14 15  2  0  0  0  0
 14 35  1  0  0  0  0
 15 16  1  0  0  0  0
 16 21  2  0  0  0  0
 16 17  1  0  0  0  0
 17 18  2  0  0  0  0
 17 36  1  0  0  0  0
 18 19  1  0  0  0  0
 18 37  1  0  0  0  0
 19 20  2  0  0  0  0
 19 38  1  0  0  0  0
 20 21  1  0  0  0  0
 20 39  1  0  0  0  0
M  END
> <s_m_source_file>
AV-unprocessed.smi

> <i_m_source_file_index>
2004

> <i_lp_mmshare_version>
43012

> <i_f3d_flags>
0

> <s_epik_input>
W2NIXTFbY0hdW2NIXVtjSF1jKGMxMiluKFtjSF1uMilbQ0gyXVtDQEhdKFtPSF0pW0NIMl1PW0NIMl1jM1tjSF1bY0hdW2NIXVtjSF1bY0hdMw==

> <s_epik_cmdline>
J2VwaWtfcHl0aG9uJywgJy1waCcsICc3LjAnLCAnLXRuJywgJzgnLCAnLW1hJywgJzIwMCcsICctbWV0YWxfYmluZGluZycsICctaW1hZScsICc8aW5maWxlLm1hZT4nLCAnLW9tYWUnLCAnPG91dGZpbGUubWFlPic=

> <r_epik_Ionization_Penalty>
0.0713119

> <r_epik_Ionization_Penalty_Charging>
0

> <r_epik_Ionization_Penalty_Neutral>
0.0713119

> <r_epik_State_Penalty>
0.06259

> <r_epik_Charging_Adjusted_Penalty>
0.06259

> <i_epik_Tot_Q>
0

> <i_epik_Tot_abs_Q>
0

> <r_epik_Metal_State_Penalty>
6.60119e-05

> <b_epik_Metal_Only>
0

> <s_lp_Force_Field>
OPLS_2005

> <r_lp_Energy>
16.1981

> <b_lp_Chiralities_Consistent>
1

> <s_lp_Variant>
AV-unprocessed.smi:2004-1

> <Gold.Version>
5.8.1

> <Gold.Id.Protein>
6NUR|6NUR_protein|mol2

> <Gold.PLP.Fitness>
55.1592

> <Gold.PLP.PLP>
-52.7500

> <Gold.PLP.part.hbond>
-1.0000

> <Gold.PLP.part.metal>
0.0000

> <Gold.PLP.part.buried>
-7.4765

> <Gold.PLP.part.nonpolar>
-44.1955

> <Gold.PLP.part.repulsive>
0.1303

> <Gold.PLP.ligand.clash>
0.0000

> <Gold.PLP.ligand.torsion>
0.3705

> <Gold.PLP.Chemscore.Hbond>
1.0000

> <Gold.PLP.Chemscore.CHOScore>
0.0000

> <Gold.PLP.Chemscore.Metal>
0.0000

> <Gold.Chemscore.Hbonds>
donor molecule, donor type, donor heavy atom, donor atom, acceptor molecule, acceptor atom, score
      P1  H  7989  7998       L1     1  0.44

> <Gold.PLP.Chemscore.Internal.Correction>
0.1502

> <Gold.Rescore>
     Score         DG    S(hbond)    S(metal)    S(lipo)     H(rot)  DE(clash)    DE(int)     intcor
     17.06     -17.65       0.79        0.00     132.31       2.33       0.01       0.58       ----

> <Gold.Chemscore.Fitness>
17.0624

> <Gold.Chemscore.DG>
-17.6466

> <Gold.Chemscore.ZeroCoef>
-5.4800

> <Gold.Chemscore.Hbond>
0.7927

> <Gold.Chemscore.Metal>
0.0000

> <Gold.Chemscore.Lipo>
132.3128

> <Gold.Chemscore.Internal_Hbond>
0.0000

> <Gold.Chemscore.DEClash>
0.0077

> <Gold.Chemscore.DEInternal>
0.5765

> <Gold.Chemscore.Rot>
2.3288

> <Gold.Chemscore.Internal.Correction>
   9.000000E+99

> <Gold.Chemscore.Hbonds>
donor molecule, donor type, donor heavy atom, donor atom, acceptor molecule, acceptor atom, score
      P1  H  7989  7998       L1     1  0.01

> <Gold.Chemscore.Hbond.Weighted>
-2.6476

> <Gold.Chemscore.Metal.Weighted>
-0.0000

> <Gold.Chemscore.Lipo.Weighted>
-15.4806

> <Gold.Chemscore.Internal_Hbond.Weighted>
0.0000

> <Gold.Chemscore.DEClash.Weighted>
0.0077

> <Gold.Chemscore.DEInternal.Weighted>
0.5765

> <Gold.Chemscore.Rot.Weighted>
5.9616

> <Gold.Chemscore.Internal.Correction.Weighted>
   9.000000E+99

> <Gold.Protein.RotatedTorsions>
[ 6907 6896 6895 6894 ] final  -82.65 input  -60.11 | X-H torsion
[ 7974 7965 7964 7962 ] final -173.55 input  175.53 | X-H torsion
[ 8008 7997 7996 7995 ] final -148.87 input   59.86 | X-H torsion
[ 10167 10162 10161 10158 ] final  153.78 input  -65.29 | X-H torsion
[ 10718 10713 10712 10709 ] final   -2.53 input   66.30 | X-H torsion
[ 10763 10752 10751 10750 ] final -179.87 input  -60.55 | X-H torsion
[ 11005 11000 10999 10996 ] final  113.58 input  -57.11 | X-H torsion

> <Gold.Protein.ActiveResidues>
 VAL166  LYS551  ARG553  GLY616  TRP617  ASP618  TYR619  PRO620  LYS621  CYS622 
 ASP623  PHE694  ASN695  SER759  ASP760  ASP761  ALA762  ILE779  LEU786  VAL792 
 PHE793  MET794  SER795  GLU796  ALA797  LYS798  CYS799  TRP800  GLU811  SER814 

> <Gold.Protein.RotatedAtoms>
  150.6894  134.3632  159.4959 H   0  0  0  0  0  0  0  0  0  0  0  0  # atno 6907 bound_to 6896
  152.1458  134.9024  160.0560 H   0  0  0  0  0  0  0  0  0  0  0  0  # atno 6908 bound_to 6896
  152.0140  133.3838  159.4268 H   0  0  0  0  0  0  0  0  0  0  0  0  # atno 6909 bound_to 6896
  144.7137  140.1605  143.6376 H   0  0  0  0  0  0  0  0  0  0  0  0  # atno 7974 bound_to 7965
  155.5986  140.0660  157.2739 H   0  0  0  0  0  0  0  0  0  0  0  0  # atno 8008 bound_to 7997
  154.4285  140.1822  156.1196 H   0  0  0  0  0  0  0  0  0  0  0  0  # atno 8009 bound_to 7997
  156.0177  140.3320  155.7010 H   0  0  0  0  0  0  0  0  0  0  0  0  # atno 8010 bound_to 7997
  139.4825  144.5244  151.7825 H   0  0  0  0  0  0  0  0  0  0  0  0  # atno 10167 bound_to 10162
  156.7894  130.5357  149.5738 H   0  0  0  0  0  0  0  0  0  0  0  0  # atno 10718 bound_to 10713
  154.5296  135.2799  155.1191 H   0  0  0  0  0  0  0  0  0  0  0  0  # atno 10763 bound_to 10752
  154.2717  135.6302  153.5316 H   0  0  0  0  0  0  0  0  0  0  0  0  # atno 10764 bound_to 10752
  152.9954  135.5630  154.5806 H   0  0  0  0  0  0  0  0  0  0  0  0  # atno 10765 bound_to 10752
  139.8957  134.9552  156.6760 H   0  0  0  0  0  0  0  0  0  0  0  0  # atno 11005 bound_to 11000
  145.9035  139.2444  143.1480 LP  0  0  0  0  0  0  0  0  0  0  0  0  # atno 17320 bound_to 7965
  145.9787  140.8700  143.0125 LP  0  0  0  0  0  0  0  0  0  0  0  0  # atno 17321 bound_to 7965
  140.4762  144.1516  150.5925 LP  0  0  0  0  0  0  0  0  0  0  0  0  # atno 17342 bound_to 10162
  140.4329  143.2560  151.9573 LP  0  0  0  0  0  0  0  0  0  0  0  0  # atno 17343 bound_to 10162
  156.1168  130.6081  151.0133 LP  0  0  0  0  0  0  0  0  0  0  0  0  # atno 17370 bound_to 10713
  157.6608  131.0881  150.7843 LP  0  0  0  0  0  0  0  0  0  0  0  0  # atno 17371 bound_to 10713
  140.7336  133.9038  155.8228 LP  0  0  0  0  0  0  0  0  0  0  0  0  # atno 17394 bound_to 11000
  141.0133  134.0990  157.4198 LP  0  0  0  0  0  0  0  0  0  0  0  0  # atno 17395 bound_to 11000

$$$$
