#       Name:                AV-unprocessed.smi:3316
#       Creating user name   scv26
#       Creation time:       Fri Mar 27 19:09:34 2020


#       File generated by GOLD software.
#

@<TRIPOS>MOLECULE
AV-unprocessed.smi:3316
    42    44     1
SMALL
NO_CHARGES


@<TRIPOS>ATOM
      1 ****        -2.9962  -2.1553  -2.3905 C.3            1 S1                 0.0000
      2 ****        -2.3908  -1.3697  -1.2167 C.3            1 S1                 0.0000
      3 ****        -0.8509  -1.4372  -1.2272 C.3            1 S1                 0.0000
      4 ****        -0.2700  -0.7787  -0.0390 N.4            1 S1                 1.0000
      5 ****         1.2054  -0.7405  -0.0296 C.3            1 S1                 0.0000
      6 ****         1.7424  -0.0187   1.2289 C.3            1 S1                 0.0000
      7 ****         2.6816  -0.8984   2.1186 C.3            1 S1                 0.0000
      8 ****         3.9795  -0.0628   2.1982 C.3            1 S1                 0.0000
      9 ****         3.6722   1.2095   2.9583 C.2            1 S1                 0.0000
     10 ****         2.8894   1.9571   2.1789 C.2            1 S1                 0.0000
     11 ****         2.6632   1.1855   0.8951 C.3            1 S1                 0.0000
     12 ****         4.0196   0.4813   0.7676 C.3            1 S1                 0.0000
     13 ****        -2.9003   0.0669  -1.1936 C.ar           1 S1                 0.0000
     14 ****        -3.6921   0.5301  -0.1213 C.ar           1 S1                 0.0000
     15 ****        -4.1318   1.8693  -0.1362 C.ar           1 S1                 0.0000
     16 ****        -3.8305   2.7375  -1.1251 N.ar           1 S1                 0.0000
     17 ****        -3.0748   2.2900  -2.1501 C.ar           1 S1                 0.0000
     18 ****        -2.5861   0.9707  -2.2320 C.ar           1 S1                 0.0000
     19 ****        -4.0857  -2.1501  -2.3442 H              1 S1                 0.0000
     20 ****        -2.6729  -3.1966  -2.3746 H              1 S1                 0.0000
     21 ****        -2.7025  -1.7329  -3.3518 H              1 S1                 0.0000
     22 ****        -2.7321  -1.8561  -0.3014 H              1 S1                 0.0000
     23 ****        -0.5243  -2.4778  -1.2441 H              1 S1                 0.0000
     24 ****        -0.4571  -0.9681  -2.1298 H              1 S1                 0.0000
     25 ****        -0.6111   0.1717  -0.0038 H              1 S1                 0.0000
     26 ****         1.5812  -1.7617  -0.0963 H              1 S1                 0.0000
     27 ****         1.5439  -0.2318  -0.9332 H              1 S1                 0.0000
     28 ****         0.9023   0.3365   1.8297 H              1 S1                 0.0000
     29 ****         2.2562  -1.0809   3.1065 H              1 S1                 0.0000
     30 ****         2.8897  -1.8704   1.6706 H              1 S1                 0.0000
     31 ****         4.8761  -0.5891   2.5266 H              1 S1                 0.0000
     32 ****         4.0132   1.4283   3.9596 H              1 S1                 0.0000
     33 ****         2.4512   2.9175   2.4074 H              1 S1                 0.0000
     34 ****         2.3714   1.8046   0.0462 H              1 S1                 0.0000
     35 ****         4.8459   1.1752   0.5988 H              1 S1                 0.0000
     36 ****         4.0498  -0.2940  -0.0003 H              1 S1                 0.0000
     37 ****        -3.9622  -0.1209   0.6973 H              1 S1                 0.0000
     38 ****        -4.7392   2.2537   0.6697 H              1 S1                 0.0000
     39 ****        -2.8497   3.0048  -2.9277 H              1 S1                 0.0000
     40 ****        -1.9851   0.6663  -3.0763 H              1 S1                 0.0000
     41 ****        -0.5869  -1.2653   0.7874 H              1 S1                 0.0000
     42 ****        -4.1569   3.6824  -1.0991 LP             1 S1                 0.0000
@<TRIPOS>BOND
    1    1    2 1     
    2    1   19 1     
    3    1   20 1     
    4    1   21 1     
    5    2    3 1     
    6    2   13 1     
    7    2   22 1     
    8    3    4 1     
    9    3   23 1     
   10    3   24 1     
   11    4    5 1     
   12    4   25 1     
   13    4   41 1     
   14    5    6 1     
   15    5   26 1     
   16    5   27 1     
   17    6   11 1     
   18    6    7 1     
   19    6   28 1     
   20    7    8 1     
   21    7   29 1     
   22    7   30 1     
   23    8   12 1     
   24    8    9 1     
   25    8   31 1     
   26    9   10 2     
   27    9   32 1     
   28   10   11 1     
   29   10   33 1     
   30   11   12 1     
   31   11   34 1     
   32   12   35 1     
   33   12   36 1     
   34   13   18 ar    
   35   13   14 ar    
   36   14   15 ar    
   37   14   37 1     
   38   15   16 ar    
   39   15   38 1     
   40   16   17 ar    
   41   17   18 ar    
   42   17   39 1     
   43   18   40 1     
   44   16   42 1     
@<TRIPOS>SUBSTRUCTURE
      1 S1             1
@<TRIPOS>SET
LONE_PAIRS      STATIC     ATOMS    <user>   **** ""
1 42
DONOR_HYDROGENS      STATIC     ATOMS    <user>   **** ""
2 25 41
ATOM$BLUE        STATIC     ATOMS    COLORGROUP SYSTEM
1 42
ATOM$RED        STATIC     ATOMS    COLORGROUP SYSTEM
2 25 41
