AV-unprocessed.smi:598|AV-procd|sdf|3021|dock5
  -GOLD-   2262023533D 1   1.00000     0.00000
 Structure written by MMmdl.
 43 44  0  0  0  0  0  0  0  0  3 V2000
  145.2490  143.0368  154.8886 C   0  0  0  0  0  0  0  0  0  0  0  0
  146.6739  142.4589  154.9593 C   0  0  2  0  0  0  0  0  0  0  0  0
  147.0414  141.8104  153.6085 C   0  0  0  0  0  0  0  0  0  0  0  0
  148.4622  141.2305  153.6101 C   0  0  0  0  0  0  0  0  0  0  0  0
  148.6484  140.2273  154.7584 C   0  0  0  0  0  0  0  0  0  0  0  0
  148.2982  140.8464  156.1242 C   0  0  1  0  0  0  0  0  0  0  0  0
  149.3034  141.8488  156.4838 N   0  0  0  0  0  0  0  0  0  0  0  0
  150.2688  141.7105  157.4056 C   0  0  0  0  0  0  0  0  0  0  0  0
  150.4576  140.6726  158.0407 O   0  0  0  0  0  0  0  0  0  0  0  0
  151.1525  142.9412  157.6431 C   0  0  0  0  0  0  0  0  0  0  0  0
  151.8927  142.8521  158.9119 N   0  0  0  0  0  0  0  0  0  0  0  0
  152.8575  141.8294  159.0028 C   0  0  0  0  0  0  0  0  0  0  0  0
  153.6180  141.6562  160.1010 C   0  0  0  0  0  0  0  0  0  0  0  0
  154.6108  140.6066  160.1696 N   0  3  0  0  0  0  0  0  0  0  0  0
  155.2308  140.4512  161.2165 O   0  0  0  0  0  0  0  0  0  0  0  0
  154.8046  139.9045  159.1813 O   0  5  0  0  0  0  0  0  0  0  0  0
  153.4132  142.5654  161.2118 C   0  0  0  0  0  0  0  0  0  0  0  0
  152.4943  143.5481  161.1301 C   0  0  0  0  0  0  0  0  0  0  0  0
  151.6721  143.7385  159.9303 C   0  0  0  0  0  0  0  0  0  0  0  0
  150.8393  144.6411  159.8474 O   0  0  0  0  0  0  0  0  0  0  0  0
  146.8629  141.4425  156.1202 C   0  0  1  0  0  0  0  0  0  0  0  0
  146.4766  142.0195  157.4976 C   0  0  0  0  0  0  0  0  0  0  0  0
  144.5036  142.2461  154.7978 H   0  0  0  0  0  0  0  0  0  0  0  0
  145.1379  143.6972  154.0282 H   0  0  0  0  0  0  0  0  0  0  0  0
  145.0075  143.6275  155.7720 H   0  0  0  0  0  0  0  0  0  0  0  0
  147.3529  143.2970  155.1227 H   0  0  0  0  0  0  0  0  0  0  0  0
  146.3289  141.0172  153.3769 H   0  0  0  0  0  0  0  0  0  0  0  0
  146.9531  142.5438  152.8060 H   0  0  0  0  0  0  0  0  0  0  0  0
  148.6633  140.7418  152.6563 H   0  0  0  0  0  0  0  0  0  0  0  0
  149.1890  142.0388  153.6993 H   0  0  0  0  0  0  0  0  0  0  0  0
  148.0094  139.3611  154.5823 H   0  0  0  0  0  0  0  0  0  0  0  0
  149.6723  139.8513  154.7644 H   0  0  0  0  0  0  0  0  0  0  0  0
  148.3280  140.0367  156.8555 H   0  0  0  0  0  0  0  0  0  0  0  0
  149.2359  142.7371  156.0087 H   0  0  0  0  0  0  0  0  0  0  0  0
  151.8218  143.0575  156.7895 H   0  0  0  0  0  0  0  0  0  0  0  0
  150.5370  143.8427  157.6460 H   0  0  0  0  0  0  0  0  0  0  0  0
  152.9369  141.2123  158.1192 H   0  0  0  0  0  0  0  0  0  0  0  0
  153.9960  142.4667  162.1156 H   0  0  0  0  0  0  0  0  0  0  0  0
  152.3594  144.2154  161.9689 H   0  0  0  0  0  0  0  0  0  0  0  0
  146.1809  140.6110  155.9350 H   0  0  0  0  0  0  0  0  0  0  0  0
  147.0104  142.9460  157.7119 H   0  0  0  0  0  0  0  0  0  0  0  0
  146.7043  141.3116  158.2950 H   0  0  0  0  0  0  0  0  0  0  0  0
  145.4093  142.2303  157.5598 H   0  0  0  0  0  0  0  0  0  0  0  0
  1  2  1  0  0  0  0
  1 23  1  0  0  0  0
  1 24  1  0  0  0  0
  1 25  1  0  0  0  0
  2 21  1  0  0  0  0
  2  3  1  0  0  0  0
  2 26  1  0  0  0  0
  3  4  1  0  0  0  0
  3 27  1  0  0  0  0
  3 28  1  0  0  0  0
  4  5  1  0  0  0  0
  4 29  1  0  0  0  0
  4 30  1  0  0  0  0
  5  6  1  0  0  0  0
  5 31  1  0  0  0  0
  5 32  1  0  0  0  0
  6  7  1  0  0  0  0
  6 21  1  0  0  0  0
  6 33  1  0  0  0  0
  7  8  1  0  0  0  0
  7 34  1  0  0  0  0
  8  9  2  0  0  0  0
  8 10  1  0  0  0  0
 10 11  1  0  0  0  0
 10 35  1  0  0  0  0
 10 36  1  0  0  0  0
 11 19  1  0  0  0  0
 11 12  1  0  0  0  0
 12 13  2  0  0  0  0
 12 37  1  0  0  0  0
 13 14  1  0  0  0  0
 13 17  1  0  0  0  0
 14 15  2  0  0  0  0
 14 16  1  0  0  0  0
 17 18  2  0  0  0  0
 17 38  1  0  0  0  0
 18 19  1  0  0  0  0
 18 39  1  0  0  0  0
 19 20  2  0  0  0  0
 21 22  1  0  0  0  0
 21 40  1  0  0  0  0
 22 41  1  0  0  0  0
 22 42  1  0  0  0  0
 22 43  1  0  0  0  0
M  CHG  1  14   1
M  CHG  1  16  -1
M  END
> <s_m_source_file>
AV-unprocessed.smi

> <i_m_source_file_index>
598

> <i_lp_mmshare_version>
43012

> <i_f3d_flags>
0

> <s_epik_input>
W0NIM11bQ0BASF0xW0NIMl1bQ0gyXVtDSDJdW0NASF0oW0NASF0xW0NIM10pW05IXUMoPU8pW0NIMl1uMltjSF1jKFtOK10oPU8pW08tXSlbY0hdW2NIXWMyPU8=

> <s_epik_cmdline>
J2VwaWtfcHl0aG9uJywgJy1waCcsICc3LjAnLCAnLXRuJywgJzgnLCAnLW1hJywgJzIwMCcsICctbWV0YWxfYmluZGluZycsICctaW1hZScsICc8aW5maWxlLm1hZT4nLCAnLW9tYWUnLCAnPG91dGZpbGUubWFlPic=

> <r_lp_tautomer_probability>
1

> <r_epik_Ionization_Penalty>
1.91291e-08

> <r_epik_Ionization_Penalty_Charging>
8.21931e-11

> <r_epik_Ionization_Penalty_Neutral>
1.90469e-08

> <r_epik_State_Penalty>
-0

> <r_epik_Charging_Adjusted_Penalty>
8.21931e-11

> <i_epik_Tot_Q>
0

> <i_epik_Tot_abs_Q>
2

> <r_epik_Metal_State_Penalty>
-0

> <b_epik_Metal_Only>
0

> <s_lp_Force_Field>
OPLS_2005

> <r_lp_Energy>
23.6598

> <b_lp_Chiralities_Consistent>
1

> <s_lp_Variant>
AV-unprocessed.smi:598-1

> <Gold.Version>
5.8.1

> <Gold.Id.Protein>
6NUR|6NUR_protein|mol2

> <Gold.PLP.Fitness>
49.2695

> <Gold.PLP.PLP>
-44.0517

> <Gold.PLP.part.hbond>
-2.4299

> <Gold.PLP.part.metal>
0.0000

> <Gold.PLP.part.buried>
-5.3999

> <Gold.PLP.part.nonpolar>
-34.5812

> <Gold.PLP.part.repulsive>
0.1578

> <Gold.PLP.ligand.clash>
0.0000

> <Gold.PLP.ligand.torsion>
0.3996

> <Gold.PLP.Chemscore.Hbond>
2.0000

> <Gold.PLP.Chemscore.CHOScore>
0.0000

> <Gold.PLP.Chemscore.Metal>
0.0000

> <Gold.Chemscore.Hbonds>
donor molecule, donor type, donor heavy atom, donor atom, acceptor molecule, acceptor atom, score
      L1  H     7    34       P1  8028  0.98
      P1  H  7997  8009       L1    16  1.00

> <Gold.PLP.Chemscore.Internal.Correction>
0.0169

> <Gold.Rescore>
     Score         DG    S(hbond)    S(metal)    S(lipo)     H(rot)  DE(clash)    DE(int)     intcor
     16.70     -18.50       1.97        0.00      88.62       1.54       0.02       1.78       ----

> <Gold.Chemscore.Fitness>
16.7016

> <Gold.Chemscore.DG>
-18.5020

> <Gold.Chemscore.ZeroCoef>
-5.4800

> <Gold.Chemscore.Hbond>
1.9742

> <Gold.Chemscore.Metal>
0.0000

> <Gold.Chemscore.Lipo>
88.6230

> <Gold.Chemscore.Internal_Hbond>
0.0000

> <Gold.Chemscore.DEClash>
0.0211

> <Gold.Chemscore.DEInternal>
1.7793

> <Gold.Chemscore.Rot>
1.5393

> <Gold.Chemscore.Internal.Correction>
   9.000000E+99

> <Gold.Chemscore.Hbonds>
donor molecule, donor type, donor heavy atom, donor atom, acceptor molecule, acceptor atom, score
      L1  H     7    34       P1  8028  0.91
      P1  H  7997  8009       L1    16  0.97

> <Gold.Chemscore.Hbond.Weighted>
-6.5939

> <Gold.Chemscore.Metal.Weighted>
-0.0000

> <Gold.Chemscore.Lipo.Weighted>
-10.3689

> <Gold.Chemscore.Internal_Hbond.Weighted>
0.0000

> <Gold.Chemscore.DEClash.Weighted>
0.0211

> <Gold.Chemscore.DEInternal.Weighted>
1.7793

> <Gold.Chemscore.Rot.Weighted>
3.9407

> <Gold.Chemscore.Internal.Correction.Weighted>
   9.000000E+99

> <Gold.Protein.RotatedTorsions>
[ 6907 6896 6895 6894 ] final -105.51 input  -60.11 | X-H torsion
[ 7974 7965 7964 7962 ] final -162.50 input  175.53 | X-H torsion
[ 8008 7997 7996 7995 ] final  110.31 input   59.86 | X-H torsion
[ 10167 10162 10161 10158 ] final  173.82 input  -65.29 | X-H torsion
[ 10718 10713 10712 10709 ] final  110.31 input   66.30 | X-H torsion
[ 10763 10752 10751 10750 ] final  127.42 input  -60.55 | X-H torsion
[ 11005 11000 10999 10996 ] final -167.76 input  -57.11 | X-H torsion

> <Gold.Protein.ActiveResidues>
 VAL166  LYS551  ARG553  GLY616  TRP617  ASP618  TYR619  PRO620  LYS621  CYS622 
 ASP623  PHE694  ASN695  SER759  ASP760  ASP761  ALA762  ILE779  LEU786  VAL792 
 PHE793  MET794  SER795  GLU796  ALA797  LYS798  CYS799  TRP800  GLU811  SER814 

> <Gold.Protein.RotatedAtoms>
  150.7340  134.0116  159.3671 H   0  0  0  0  0  0  0  0  0  0  0  0  # atno 6907 bound_to 6896
  151.8076  135.0688  160.0418 H   0  0  0  0  0  0  0  0  0  0  0  0  # atno 6908 bound_to 6896
  152.3096  133.5703  159.5708 H   0  0  0  0  0  0  0  0  0  0  0  0  # atno 6909 bound_to 6896
  144.7355  140.3243  143.6165 H   0  0  0  0  0  0  0  0  0  0  0  0  # atno 7974 bound_to 7965
  156.2043  140.3041  155.9594 H   0  0  0  0  0  0  0  0  0  0  0  0  # atno 8008 bound_to 7997
  155.2878  140.0440  157.3037 H   0  0  0  0  0  0  0  0  0  0  0  0  # atno 8009 bound_to 7997
  154.5613  140.2321  155.8340 H   0  0  0  0  0  0  0  0  0  0  0  0  # atno 8010 bound_to 7997
  139.5121  144.3217  152.0196 H   0  0  0  0  0  0  0  0  0  0  0  0  # atno 10167 bound_to 10162
  157.6500  131.0930  150.6582 H   0  0  0  0  0  0  0  0  0  0  0  0  # atno 10718 bound_to 10713
  153.7092  135.3271  155.3242 H   0  0  0  0  0  0  0  0  0  0  0  0  # atno 10763 bound_to 10752
  154.8390  135.4472  154.1332 H   0  0  0  0  0  0  0  0  0  0  0  0  # atno 10764 bound_to 10752
  153.2420  135.6972  153.7851 H   0  0  0  0  0  0  0  0  0  0  0  0  # atno 10765 bound_to 10752
  140.5496  134.5441  157.5119 H   0  0  0  0  0  0  0  0  0  0  0  0  # atno 11005 bound_to 11000
  145.7536  139.1802  143.2307 LP  0  0  0  0  0  0  0  0  0  0  0  0  # atno 17320 bound_to 7965
  146.1041  140.7508  142.9535 LP  0  0  0  0  0  0  0  0  0  0  0  0  # atno 17321 bound_to 7965
  140.2658  144.4017  150.6169 LP  0  0  0  0  0  0  0  0  0  0  0  0  # atno 17342 bound_to 10162
  140.6124  143.2170  151.6859 LP  0  0  0  0  0  0  0  0  0  0  0  0  # atno 17343 bound_to 10162
  156.6894  130.4591  149.5604 LP  0  0  0  0  0  0  0  0  0  0  0  0  # atno 17370 bound_to 10713
  156.1872  130.6537  151.1020 LP  0  0  0  0  0  0  0  0  0  0  0  0  # atno 17371 bound_to 10713
  139.9462  134.7698  156.0557 LP  0  0  0  0  0  0  0  0  0  0  0  0  # atno 17394 bound_to 11000
  141.1179  133.6622  156.3141 LP  0  0  0  0  0  0  0  0  0  0  0  0  # atno 17395 bound_to 11000

$$$$
