#       Name:                AV-unprocessed.smi:255
#       Creating user name   scv26
#       Creation time:       Thu Mar 26 21:09:28 2020


#       File generated by GOLD software.
#

@<TRIPOS>MOLECULE
AV-unprocessed.smi:255
    54    57     1
SMALL
NO_CHARGES


@<TRIPOS>ATOM
      1 ****        -4.1525  -1.3629  -4.4506 O.3            1 S1                 0.0000
      2 ****        -3.5104  -1.4857  -3.1995 C.3            1 S1                 0.0000
      3 ****        -3.3802  -0.1019  -2.5321 C.3            1 S1                 0.0000
      4 ****        -4.7300   0.5179  -2.1568 C.3            1 S1                 0.0000
      5 ****        -4.3499   1.5261  -1.0766 C.3            1 S1                 0.0000
      6 ****        -3.9274   2.6543  -1.6491 F              1 S1                 0.0000
      7 ****        -3.1766   0.8581  -0.3524 C.3            1 S1                 0.0000
      8 ****        -2.6409  -0.1434  -1.2703 N.3            1 S1                 0.0000
      9 ****        -1.2957  -0.3378  -1.2399 C.ar           1 S1                 0.0000
     10 ****        -0.5870  -0.3648  -2.4002 N.ar           1 S1                 0.0000
     11 ****         0.7357  -0.5511  -2.3831 C.ar           1 S1                 0.0000
     12 ****         1.5390  -0.7291  -1.3333 N.ar           1 S1                 0.0000
     13 ****         0.8378  -0.7023  -0.1643 C.ar           1 S1                 0.0000
     14 ****        -0.5676  -0.5173  -0.0283 C.ar           1 S1                 0.0000
     15 ****        -0.9206  -0.5688   1.3155 N.2            1 S1                 0.0000
     16 ****         0.2100  -0.7652   1.9367 C.2            1 S1                 0.0000
     17 ****         1.3191  -0.8475   1.1255 N.pl3          1 S1                 0.0000
     18 ****         2.6958  -1.0615   1.5463 C.3            1 S1                 0.0000
     19 ****         3.4839   0.2483   1.7922 C.3            1 S1                 0.0000
     20 ****         3.5397   0.9856   0.5847 O.3            1 S1                 0.0000
     21 ****         4.9099  -0.0126   2.2831 C.3            1 S1                 0.0000
     22 ****         4.8781   0.4352   3.7393 C.3            1 S1                 0.0000
     23 ****         3.9776   1.5275   3.7089 O.3            1 S1                 0.0000
     24 ****         2.8795   1.1374   2.8975 C.3            1 S1                 0.0000
     25 ****        -2.8639   0.5819  -3.2081 H              1 S1                 0.0000
     26 ****        -5.1754   1.7835  -0.4127 H              1 S1                 0.0000
     27 ****        -3.6288  -0.8024  -5.0025 H              1 S1                 0.0000
     28 ****        -4.0780  -2.1701  -2.5684 H              1 S1                 0.0000
     29 ****        -2.5347  -1.9414  -3.3657 H              1 S1                 0.0000
     30 ****        -5.2426   0.9717  -3.0055 H              1 S1                 0.0000
     31 ****        -5.3896  -0.2400  -1.7314 H              1 S1                 0.0000
     32 ****        -2.4288   1.5915  -0.0460 H              1 S1                 0.0000
     33 ****        -3.5309   0.3465   0.5431 H              1 S1                 0.0000
     34 ****         1.2197  -0.5578  -3.3487 H              1 S1                 0.0000
     35 ****         0.2640  -0.8559   3.0118 H              1 S1                 0.0000
     36 ****         2.6827  -1.6664   2.4540 H              1 S1                 0.0000
     37 ****         3.1950  -1.6648   0.7868 H              1 S1                 0.0000
     38 ****         4.0161   1.7860   0.7442 H              1 S1                 0.0000
     39 ****         5.2231  -1.0519   2.1780 H              1 S1                 0.0000
     40 ****         5.6308   0.6008   1.7396 H              1 S1                 0.0000
     41 ****         4.4829  -0.3514   4.3842 H              1 S1                 0.0000
     42 ****         5.8593   0.7295   4.1123 H              1 S1                 0.0000
     43 ****         2.3360   2.0028   2.5161 H              1 S1                 0.0000
     44 ****         2.1943   0.5699   3.5278 H              1 S1                 0.0000
     45 ****        -5.0598  -0.9614  -4.3262 LP             1 S1                 0.0000
     46 ****        -4.2421  -2.2645  -4.8738 LP             1 S1                 0.0000
     47 ****        -2.8300  -1.0642  -0.9293 LP             1 S1                 0.0000
     48 ****        -1.0597  -0.2443  -3.2732 LP             1 S1                 0.0000
     49 ****         2.5278  -0.8647  -1.3956 LP             1 S1                 0.0000
     50 ****        -1.8327  -0.4764   1.7148 LP             1 S1                 0.0000
     51 ****         2.6127   1.2003   0.2773 LP             1 S1                 0.0000
     52 ****         4.0077   0.4486  -0.1173 LP             1 S1                 0.0000
     53 ****         4.4256   2.3312   3.3173 LP             1 S1                 0.0000
     54 ****         3.6629   1.7390   4.6342 LP             1 S1                 0.0000
@<TRIPOS>BOND
    1    1    2 1     
    2    1   27 1     
    3    2    3 1     
    4    2   28 1     
    5    2   29 1     
    6    3   25 1     
    7    3    8 1     
    8    3    4 1     
    9    4    5 1     
   10    4   30 1     
   11    4   31 1     
   12    5   26 1     
   13    5    6 1     
   14    5    7 1     
   15    7    8 1     
   16    7   32 1     
   17    7   33 1     
   18    8    9 1     
   19    9   14 ar    
   20    9   10 ar    
   21   10   11 ar    
   22   11   12 ar    
   23   11   34 1     
   24   12   13 ar    
   25   13   17 1     
   26   13   14 ar    
   27   14   15 1     
   28   15   16 2     
   29   16   17 1     
   30   16   35 1     
   31   17   18 1     
   32   18   19 1     
   33   18   36 1     
   34   18   37 1     
   35   19   24 1     
   36   19   20 1     
   37   19   21 1     
   38   20   38 1     
   39   21   22 1     
   40   21   39 1     
   41   21   40 1     
   42   22   23 1     
   43   22   41 1     
   44   22   42 1     
   45   23   24 1     
   46   24   43 1     
   47   24   44 1     
   48    1   45 1     
   49    1   46 1     
   50    8   47 1     
   51   10   48 1     
   52   12   49 1     
   53   15   50 1     
   54   20   51 1     
   55   20   52 1     
   56   23   53 1     
   57   23   54 1     
@<TRIPOS>SUBSTRUCTURE
      1 S1             1
@<TRIPOS>SET
LONE_PAIRS      STATIC     ATOMS    <user>   **** ""
10 45 46 47 48 49 50 51 52 53 54
DONOR_HYDROGENS      STATIC     ATOMS    <user>   **** ""
2 27 38
ATOM$BLUE        STATIC     ATOMS    COLORGROUP SYSTEM
10 45 46 47 48 49 50 51 52 53 54
ATOM$RED        STATIC     ATOMS    COLORGROUP SYSTEM
2 27 38
