AV-unprocessed.smi:1884|AV-procd|sdf|7649|dock9
  -GOLD-   22720 9383D 1   1.00000     0.00000
 Structure written by MMmdl.
 41 43  0  0  0  0  0  0  0  0  2 V2000
  150.4161  140.7922  155.5062 C   0  0  0  0  0  0  0  0  0  0  0  0
  150.9778  141.4874  156.7007 C   0  0  0  0  0  0  0  0  0  0  0  0
  150.6898  142.7587  157.0984 N   0  3  0  0  0  0  0  0  0  0  0  0
  151.4028  143.0634  158.2588 C   0  0  0  0  0  0  0  0  0  0  0  0
  151.4381  144.2224  159.0279 C   0  0  0  0  0  0  0  0  0  0  0  0
  152.2835  144.2072  160.1568 C   0  0  0  0  0  0  0  0  0  0  0  0
  153.0511  143.0705  160.4841 C   0  0  0  0  0  0  0  0  0  0  0  0
  153.0036  141.8996  159.6990 C   0  0  0  0  0  0  0  0  0  0  0  0
  152.1649  141.9224  158.5847 C   0  0  0  0  0  0  0  0  0  0  0  0
  151.8680  140.9746  157.5974 N   0  0  0  0  0  0  0  0  0  0  0  0
  152.4971  139.6454  157.6487 C   0  0  0  0  0  0  0  0  0  0  0  0
  152.2390  138.9119  158.9802 C   0  0  1  0  0  0  0  0  0  0  0  0
  151.4324  137.7653  158.8007 O   0  0  0  0  0  0  0  0  0  0  0  0
  153.5252  138.5159  159.7235 C   0  0  0  0  0  0  0  0  0  0  0  0
  153.2087  137.7066  160.8499 O   0  0  0  0  0  0  0  0  0  0  0  0
  153.9226  137.8973  162.0133 C   0  0  0  0  0  0  0  0  0  0  0  0
  153.6827  136.9915  163.0671 C   0  0  0  0  0  0  0  0  0  0  0  0
  154.3678  137.1103  164.2918 C   0  0  0  0  0  0  0  0  0  0  0  0
  155.3074  138.1435  164.4763 C   0  0  0  0  0  0  0  0  0  0  0  0
  156.0166  138.2695  165.7386 C   0  0  0  0  0  0  0  0  0  0  0  0
  156.5810  138.3697  166.7437 N   0  0  0  0  0  0  0  0  0  0  0  0
  155.5565  139.0546  163.4310 C   0  0  0  0  0  0  0  0  0  0  0  0
  154.8700  138.9344  162.2068 C   0  0  0  0  0  0  0  0  0  0  0  0
  149.7496  141.4553  154.9544 H   0  0  0  0  0  0  0  0  0  0  0  0
  149.8527  139.9112  155.8141 H   0  0  0  0  0  0  0  0  0  0  0  0
  151.2199  140.4769  154.8408 H   0  0  0  0  0  0  0  0  0  0  0  0
  150.8518  145.0947  158.7785 H   0  0  0  0  0  0  0  0  0  0  0  0
  152.3457  145.0853  160.7831 H   0  0  0  0  0  0  0  0  0  0  0  0
  153.6903  143.0966  161.3548 H   0  0  0  0  0  0  0  0  0  0  0  0
  153.5990  141.0363  159.9572 H   0  0  0  0  0  0  0  0  0  0  0  0
  152.1595  139.0583  156.7946 H   0  0  0  0  0  0  0  0  0  0  0  0
  153.5690  139.7895  157.5093 H   0  0  0  0  0  0  0  0  0  0  0  0
  151.6727  139.5754  159.6347 H   0  0  0  0  0  0  0  0  0  0  0  0
  150.9249  137.6301  159.5861 H   0  0  0  0  0  0  0  0  0  0  0  0
  154.1582  137.9445  159.0428 H   0  0  0  0  0  0  0  0  0  0  0  0
  154.0795  139.4074  160.0229 H   0  0  0  0  0  0  0  0  0  0  0  0
  152.9641  136.1960  162.9352 H   0  0  0  0  0  0  0  0  0  0  0  0
  154.1671  136.4048  165.0855 H   0  0  0  0  0  0  0  0  0  0  0  0
  156.2752  139.8512  163.5611 H   0  0  0  0  0  0  0  0  0  0  0  0
  155.0900  139.6516  161.4309 H   0  0  0  0  0  0  0  0  0  0  0  0
  150.0503  143.3720  156.6097 H   0  0  0  0  0  0  0  0  0  0  0  0
  1  2  1  0  0  0  0
  1 24  1  0  0  0  0
  1 25  1  0  0  0  0
  1 26  1  0  0  0  0
  2 10  1  0  0  0  0
  2  3  2  0  0  0  0
  3  4  1  0  0  0  0
  3 41  1  0  0  0  0
  4  9  2  0  0  0  0
  4  5  1  0  0  0  0
  5  6  2  0  0  0  0
  5 27  1  0  0  0  0
  6  7  1  0  0  0  0
  6 28  1  0  0  0  0
  7  8  2  0  0  0  0
  7 29  1  0  0  0  0
  8  9  1  0  0  0  0
  8 30  1  0  0  0  0
  9 10  1  0  0  0  0
 10 11  1  0  0  0  0
 11 12  1  0  0  0  0
 11 31  1  0  0  0  0
 11 32  1  0  0  0  0
 12 13  1  0  0  0  0
 12 14  1  0  0  0  0
 12 33  1  0  0  0  0
 13 34  1  0  0  0  0
 14 15  1  0  0  0  0
 14 35  1  0  0  0  0
 14 36  1  0  0  0  0
 15 16  1  0  0  0  0
 16 23  1  0  0  0  0
 16 17  2  0  0  0  0
 17 18  1  0  0  0  0
 17 37  1  0  0  0  0
 18 19  2  0  0  0  0
 18 38  1  0  0  0  0
 19 20  1  0  0  0  0
 19 22  1  0  0  0  0
 20 21  3  0  0  0  0
 22 23  2  0  0  0  0
 22 39  1  0  0  0  0
 23 40  1  0  0  0  0
M  CHG  1   3   1
M  END
> <s_m_source_file>
AV-unprocessed.smi

> <i_m_source_file_index>
1884

> <i_lp_mmshare_version>
43012

> <i_f3d_flags>
0

> <s_epik_input>
W2NIXTFbY0hdW2NIXVtjSF1jKGMxMiluKGMobjIpW0NIM10pW0NIMl1bQ0BIXShbT0hdKVtDSDJdT2MzW2NIXVtjSF1jKEMjTilbY0hdW2NIXTM=

> <s_epik_cmdline>
J2VwaWtfcHl0aG9uJywgJy1waCcsICc3LjAnLCAnLXRuJywgJzgnLCAnLW1hJywgJzIwMCcsICctbWV0YWxfYmluZGluZycsICctaW1hZScsICc8aW5maWxlLm1hZT4nLCAnLW9tYWUnLCAnPG91dGZpbGUubWFlPic=

> <r_epik_Ionization_Penalty>
1.04791

> <r_epik_Ionization_Penalty_Charging>
1.04791

> <r_epik_Ionization_Penalty_Neutral>
2.3993e-06

> <r_epik_State_Penalty>
1.10051

> <r_epik_Charging_Adjusted_Penalty>
2.14841

> <i_epik_Tot_Q>
1

> <i_epik_Tot_abs_Q>
1

> <r_epik_Metal_State_Penalty>
5.09283

> <b_epik_Metal_Only>
0

> <s_lp_Force_Field>
OPLS_2005

> <r_lp_Energy>
19.6719

> <b_lp_Chiralities_Consistent>
1

> <s_lp_Variant>
AV-unprocessed.smi:1884-4

> <Gold.Version>
5.8.1

> <Gold.Id.Protein>
6NUR|6NUR_protein|mol2

> <Gold.PLP.Fitness>
52.3496

> <Gold.PLP.PLP>
-48.5525

> <Gold.PLP.part.hbond>
-2.0000

> <Gold.PLP.part.metal>
0.0000

> <Gold.PLP.part.buried>
-5.3942

> <Gold.PLP.part.nonpolar>
-40.7627

> <Gold.PLP.part.repulsive>
0.0924

> <Gold.PLP.ligand.clash>
0.0000

> <Gold.PLP.ligand.torsion>
1.1118

> <Gold.PLP.Chemscore.Hbond>
2.0000

> <Gold.PLP.Chemscore.CHOScore>
0.0000

> <Gold.PLP.Chemscore.Metal>
0.0000

> <Gold.Chemscore.Hbonds>
donor molecule, donor type, donor heavy atom, donor atom, acceptor molecule, acceptor atom, score
      L1  H     3    41       P1  8028  2.00

> <Gold.PLP.Chemscore.Internal.Correction>
0.0207

> <Gold.Rescore>
     Score         DG    S(hbond)    S(metal)    S(lipo)     H(rot)  DE(clash)    DE(int)     intcor
     16.84     -18.00       0.99        0.00     131.18       2.39       0.04       1.12       ----

> <Gold.Chemscore.Fitness>
16.8384

> <Gold.Chemscore.DG>
-17.9995

> <Gold.Chemscore.ZeroCoef>
-5.4800

> <Gold.Chemscore.Hbond>
0.9863

> <Gold.Chemscore.Metal>
0.0000

> <Gold.Chemscore.Lipo>
131.1797

> <Gold.Chemscore.Internal_Hbond>
0.0000

> <Gold.Chemscore.DEClash>
0.0379

> <Gold.Chemscore.DEInternal>
1.1232

> <Gold.Chemscore.Rot>
2.3917

> <Gold.Chemscore.Internal.Correction>
   9.000000E+99

> <Gold.Chemscore.Hbonds>
donor molecule, donor type, donor heavy atom, donor atom, acceptor molecule, acceptor atom, score
      L1  H     3    41       P1  8028  0.95

> <Gold.Chemscore.Hbond.Weighted>
-3.2944

> <Gold.Chemscore.Metal.Weighted>
-0.0000

> <Gold.Chemscore.Lipo.Weighted>
-15.3480

> <Gold.Chemscore.Internal_Hbond.Weighted>
0.0000

> <Gold.Chemscore.DEClash.Weighted>
0.0379

> <Gold.Chemscore.DEInternal.Weighted>
1.1232

> <Gold.Chemscore.Rot.Weighted>
6.1229

> <Gold.Chemscore.Internal.Correction.Weighted>
   9.000000E+99

> <Gold.Protein.RotatedTorsions>
[ 6907 6896 6895 6894 ] final -175.22 input  -60.11 | X-H torsion
[ 7974 7965 7964 7962 ] final  148.18 input  175.53 | X-H torsion
[ 8008 7997 7996 7995 ] final    0.92 input   59.86 | X-H torsion
[ 10167 10162 10161 10158 ] final  -67.81 input  -65.29 | X-H torsion
[ 10718 10713 10712 10709 ] final  -24.74 input   66.30 | X-H torsion
[ 10763 10752 10751 10750 ] final  -65.94 input  -60.55 | X-H torsion
[ 11005 11000 10999 10996 ] final   -1.15 input  -57.11 | X-H torsion

> <Gold.Protein.ActiveResidues>
 VAL166  LYS551  ARG553  GLY616  TRP617  ASP618  TYR619  PRO620  LYS621  CYS622 
 ASP623  PHE694  ASN695  SER759  ASP760  ASP761  ALA762  ILE779  LEU786  VAL792 
 PHE793  MET794  SER795  GLU796  ALA797  LYS798  CYS799  TRP800  GLU811  SER814 

> <Gold.Protein.RotatedAtoms>
  151.5850  133.3373  159.3015 H   0  0  0  0  0  0  0  0  0  0  0  0  # atno 6907 bound_to 6896
  150.8292  134.7540  159.6850 H   0  0  0  0  0  0  0  0  0  0  0  0  # atno 6908 bound_to 6896
  152.4377  134.5659  159.9959 H   0  0  0  0  0  0  0  0  0  0  0  0  # atno 6909 bound_to 6896
  144.8534  139.6121  143.5963 H   0  0  0  0  0  0  0  0  0  0  0  0  # atno 7974 bound_to 7965
  154.6737  140.2617  155.6981 H   0  0  0  0  0  0  0  0  0  0  0  0  # atno 8008 bound_to 7997
  156.2669  140.2824  156.1177 H   0  0  0  0  0  0  0  0  0  0  0  0  # atno 8009 bound_to 7997
  155.1132  140.0376  157.2720 H   0  0  0  0  0  0  0  0  0  0  0  0  # atno 8010 bound_to 7997
  140.5555  143.2312  151.6830 H   0  0  0  0  0  0  0  0  0  0  0  0  # atno 10167 bound_to 10162
  156.4736  130.4530  149.6854 H   0  0  0  0  0  0  0  0  0  0  0  0  # atno 10718 bound_to 10713
  154.3525  135.6133  153.5650 H   0  0  0  0  0  0  0  0  0  0  0  0  # atno 10763 bound_to 10752
  152.9797  135.5796  154.4726 H   0  0  0  0  0  0  0  0  0  0  0  0  # atno 10764 bound_to 10752
  154.4450  135.2851  155.1798 H   0  0  0  0  0  0  0  0  0  0  0  0  # atno 10765 bound_to 10752
  140.6442  133.9462  155.8343 H   0  0  0  0  0  0  0  0  0  0  0  0  # atno 11005 bound_to 11000
  146.2803  139.6860  142.9234 LP  0  0  0  0  0  0  0  0  0  0  0  0  # atno 17320 bound_to 7965
  145.4455  141.0425  143.2834 LP  0  0  0  0  0  0  0  0  0  0  0  0  # atno 17321 bound_to 7965
  139.5046  144.3749  152.0434 LP  0  0  0  0  0  0  0  0  0  0  0  0  # atno 17342 bound_to 10162
  140.2870  144.3796  150.6100 LP  0  0  0  0  0  0  0  0  0  0  0  0  # atno 17343 bound_to 10162
  156.3593  130.7473  151.2443 LP  0  0  0  0  0  0  0  0  0  0  0  0  # atno 17370 bound_to 10713
  157.7489  131.0355  150.4365 LP  0  0  0  0  0  0  0  0  0  0  0  0  # atno 17371 bound_to 10713
  141.0584  134.0382  157.3691 LP  0  0  0  0  0  0  0  0  0  0  0  0  # atno 17394 bound_to 11000
  139.9069  135.0181  156.7525 LP  0  0  0  0  0  0  0  0  0  0  0  0  # atno 17395 bound_to 11000

$$$$
