AV-unprocessed.smi:707|AV-procd|sdf|3455|dock9
  -GOLD-   22720 0443D 1   1.00000     0.00000
 Structure written by MMmdl.
 44 45  0  0  0  0  0  0  0  0  1 V2000
  144.2713  144.6905  152.8878 C   0  0  0  0  0  0  0  0  0  0  0  0
  144.0580  143.9645  154.1764 C   0  0  0  0  0  0  0  0  0  0  0  0
  143.0280  144.1960  154.9989 N   0  0  0  0  0  0  0  0  0  0  0  0
  143.1975  143.3272  156.0592 N   0  0  0  0  0  0  0  0  0  0  0  0
  144.3133  142.6588  155.7700 C   0  0  0  0  0  0  0  0  0  0  0  0
  144.9000  143.0067  154.6146 N   0  0  0  0  0  0  0  0  0  0  0  0
  146.1120  142.4747  154.0199 C   0  0  0  0  0  0  0  0  0  0  0  0
  146.7521  141.3996  154.9083 C   0  0  0  0  0  0  0  0  0  0  0  0
  148.0704  141.8251  155.3558 N   0  0  0  0  0  0  0  0  0  0  0  0
  149.0643  140.9897  155.6908 C   0  0  0  0  0  0  0  0  0  0  0  0
  148.9612  139.7641  155.6475 O   0  0  0  0  0  0  0  0  0  0  0  0
  150.3808  141.6316  156.1247 C   0  0  0  0  0  0  0  0  0  0  0  0
  150.7174  141.1638  157.4244 O   0  0  0  0  0  0  0  0  0  0  0  0
  151.6894  141.9521  158.0992 C   0  0  2  0  0  0  0  0  0  0  0  0
  152.3142  141.1726  159.2744 C   0  0  0  0  0  0  0  0  0  0  0  0
  153.2677  142.0620  160.0871 C   0  0  0  0  0  0  0  0  0  0  0  0
  152.5617  143.3339  160.5827 C   0  0  0  0  0  0  0  0  0  0  0  0
  151.9351  144.1223  159.4167 C   0  0  2  0  0  0  0  0  0  0  0  0
  151.2246  145.3895  159.9135 C   0  0  0  0  0  0  0  0  0  0  0  0
  150.9811  143.2193  158.6102 C   0  0  0  0  0  0  0  0  0  0  0  0
  143.4463  145.3771  152.6960 H   0  0  0  0  0  0  0  0  0  0  0  0
  144.3305  143.9836  152.0603 H   0  0  0  0  0  0  0  0  0  0  0  0
  145.1970  145.2647  152.9291 H   0  0  0  0  0  0  0  0  0  0  0  0
  144.7135  141.8934  156.4187 H   0  0  0  0  0  0  0  0  0  0  0  0
  145.8731  142.0698  153.0358 H   0  0  0  0  0  0  0  0  0  0  0  0
  146.8083  143.2995  153.8604 H   0  0  0  0  0  0  0  0  0  0  0  0
  146.1235  141.2066  155.7791 H   0  0  0  0  0  0  0  0  0  0  0  0
  146.8382  140.4611  154.3584 H   0  0  0  0  0  0  0  0  0  0  0  0
  148.2397  142.8185  155.4225 H   0  0  0  0  0  0  0  0  0  0  0  0
  151.1589  141.3830  155.4026 H   0  0  0  0  0  0  0  0  0  0  0  0
  150.2619  142.7160  156.1276 H   0  0  0  0  0  0  0  0  0  0  0  0
  152.4706  142.2561  157.3999 H   0  0  0  0  0  0  0  0  0  0  0  0
  151.5242  140.7952  159.9251 H   0  0  0  0  0  0  0  0  0  0  0  0
  152.8600  140.3010  158.9142 H   0  0  0  0  0  0  0  0  0  0  0  0
  153.6640  141.5032  160.9354 H   0  0  0  0  0  0  0  0  0  0  0  0
  154.1244  142.3366  159.4704 H   0  0  0  0  0  0  0  0  0  0  0  0
  151.7886  143.0623  161.3029 H   0  0  0  0  0  0  0  0  0  0  0  0
  153.2748  143.9619  161.1179 H   0  0  0  0  0  0  0  0  0  0  0  0
  152.7410  144.4377  158.7523 H   0  0  0  0  0  0  0  0  0  0  0  0
  150.4000  145.1452  160.5839 H   0  0  0  0  0  0  0  0  0  0  0  0
  150.8179  145.9633  159.0803 H   0  0  0  0  0  0  0  0  0  0  0  0
  151.9129  146.0390  160.4552 H   0  0  0  0  0  0  0  0  0  0  0  0
  150.5725  143.7736  157.7646 H   0  0  0  0  0  0  0  0  0  0  0  0
  150.1307  142.9363  159.2326 H   0  0  0  0  0  0  0  0  0  0  0  0
  1  2  1  0  0  0  0
  1 21  1  0  0  0  0
  1 22  1  0  0  0  0
  1 23  1  0  0  0  0
  2  6  1  0  0  0  0
  2  3  2  0  0  0  0
  3  4  1  0  0  0  0
  4  5  2  0  0  0  0
  5  6  1  0  0  0  0
  5 24  1  0  0  0  0
  6  7  1  0  0  0  0
  7  8  1  0  0  0  0
  7 25  1  0  0  0  0
  7 26  1  0  0  0  0
  8  9  1  0  0  0  0
  8 27  1  0  0  0  0
  8 28  1  0  0  0  0
  9 10  1  0  0  0  0
  9 29  1  0  0  0  0
 10 11  2  0  0  0  0
 10 12  1  0  0  0  0
 12 13  1  0  0  0  0
 12 30  1  0  0  0  0
 12 31  1  0  0  0  0
 13 14  1  0  0  0  0
 14 20  1  0  0  0  0
 14 15  1  0  0  0  0
 14 32  1  0  0  0  0
 15 16  1  0  0  0  0
 15 33  1  0  0  0  0
 15 34  1  0  0  0  0
 16 17  1  0  0  0  0
 16 35  1  0  0  0  0
 16 36  1  0  0  0  0
 17 18  1  0  0  0  0
 17 37  1  0  0  0  0
 17 38  1  0  0  0  0
 18 19  1  0  0  0  0
 18 20  1  0  0  0  0
 18 39  1  0  0  0  0
 19 40  1  0  0  0  0
 19 41  1  0  0  0  0
 19 42  1  0  0  0  0
 20 43  1  0  0  0  0
 20 44  1  0  0  0  0
M  END
> <s_m_source_file>
AV-unprocessed.smi

> <i_m_source_file_index>
707

> <i_lp_mmshare_version>
43012

> <i_f3d_flags>
0

> <s_epik_input>
W0NIM11jMW5uW2NIXW4xW0NIMl1bQ0gyXVtOSF1DKD1PKVtDSDJdT1tDQEBIXTJbQ0gyXVtDSDJdW0NIMl1bQ0BASF0oW0NIM10pW0NIMl0y

> <s_epik_cmdline>
J2VwaWtfcHl0aG9uJywgJy1waCcsICc3LjAnLCAnLXRuJywgJzgnLCAnLW1hJywgJzIwMCcsICctbWV0YWxfYmluZGluZycsICctaW1hZScsICc8aW5maWxlLm1hZT4nLCAnLW9tYWUnLCAnPG91dGZpbGUubWFlPic=

> <r_lp_tautomer_probability>
1

> <r_epik_Ionization_Penalty>
0.000271783

> <r_epik_Ionization_Penalty_Charging>
0

> <r_epik_Ionization_Penalty_Neutral>
0.000271783

> <r_epik_State_Penalty>
-0

> <r_epik_Charging_Adjusted_Penalty>
0

> <i_epik_Tot_Q>
0

> <i_epik_Tot_abs_Q>
0

> <r_epik_Metal_State_Penalty>
-0

> <b_epik_Metal_Only>
0

> <s_lp_Force_Field>
OPLS_2005

> <r_lp_Energy>
13.3138

> <b_lp_Chiralities_Consistent>
1

> <s_lp_Variant>
AV-unprocessed.smi:707-3

> <Gold.Version>
5.8.1

> <Gold.Id.Protein>
6NUR|6NUR_protein|mol2

> <Gold.PLP.Fitness>
48.8962

> <Gold.PLP.PLP>
-47.4104

> <Gold.PLP.part.hbond>
-1.0000

> <Gold.PLP.part.metal>
0.0000

> <Gold.PLP.part.buried>
-6.8860

> <Gold.PLP.part.nonpolar>
-40.4979

> <Gold.PLP.part.repulsive>
0.3115

> <Gold.PLP.ligand.clash>
0.0000

> <Gold.PLP.ligand.torsion>
0.7734

> <Gold.PLP.Chemscore.Hbond>
1.0000

> <Gold.PLP.Chemscore.CHOScore>
0.0000

> <Gold.PLP.Chemscore.Metal>
0.0000

> <Gold.Chemscore.Hbonds>
donor molecule, donor type, donor heavy atom, donor atom, acceptor molecule, acceptor atom, score
      L1  H     9    29       P1  8028  1.00

> <Gold.PLP.Chemscore.Internal.Correction>
0.0326

> <Gold.Rescore>
     Score         DG    S(hbond)    S(metal)    S(lipo)     H(rot)  DE(clash)    DE(int)     intcor
     13.96     -14.84       1.00        0.00     104.50       2.42       0.00       0.88       ----

> <Gold.Chemscore.Fitness>
13.9648

> <Gold.Chemscore.DG>
-14.8428

> <Gold.Chemscore.ZeroCoef>
-5.4800

> <Gold.Chemscore.Hbond>
0.9968

> <Gold.Chemscore.Metal>
0.0000

> <Gold.Chemscore.Lipo>
104.4984

> <Gold.Chemscore.Internal_Hbond>
0.0000

> <Gold.Chemscore.DEClash>
0.0000

> <Gold.Chemscore.DEInternal>
0.8780

> <Gold.Chemscore.Rot>
2.4191

> <Gold.Chemscore.Internal.Correction>
   9.000000E+99

> <Gold.Chemscore.Hbonds>
donor molecule, donor type, donor heavy atom, donor atom, acceptor molecule, acceptor atom, score
      L1  H     9    29       P1  8028  0.94

> <Gold.Chemscore.Hbond.Weighted>
-3.3294

> <Gold.Chemscore.Metal.Weighted>
-0.0000

> <Gold.Chemscore.Lipo.Weighted>
-12.2263

> <Gold.Chemscore.Internal_Hbond.Weighted>
0.0000

> <Gold.Chemscore.DEClash.Weighted>
0.0000

> <Gold.Chemscore.DEInternal.Weighted>
0.8780

> <Gold.Chemscore.Rot.Weighted>
6.1929

> <Gold.Chemscore.Internal.Correction.Weighted>
   9.000000E+99

> <Gold.Protein.RotatedTorsions>
[ 6907 6896 6895 6894 ] final -120.55 input  -60.11 | X-H torsion
[ 7974 7965 7964 7962 ] final  -92.37 input  175.53 | X-H torsion
[ 8008 7997 7996 7995 ] final  -77.22 input   59.86 | X-H torsion
[ 10167 10162 10161 10158 ] final   73.36 input  -65.29 | X-H torsion
[ 10718 10713 10712 10709 ] final  -28.57 input   66.30 | X-H torsion
[ 10763 10752 10751 10750 ] final   63.84 input  -60.55 | X-H torsion
[ 11005 11000 10999 10996 ] final  -82.64 input  -57.11 | X-H torsion

> <Gold.Protein.ActiveResidues>
 VAL166  LYS551  ARG553  GLY616  TRP617  ASP618  TYR619  PRO620  LYS621  CYS622 
 ASP623  PHE694  ASN695  SER759  ASP760  ASP761  ALA762  ILE779  LEU786  VAL792 
 PHE793  MET794  SER795  GLU796  ALA797  LYS798  CYS799  TRP800  GLU811  SER814 

> <Gold.Protein.RotatedAtoms>
  150.8403  133.7947  159.3063 H   0  0  0  0  0  0  0  0  0  0  0  0  # atno 6907 bound_to 6896
  151.5650  135.1063  159.9991 H   0  0  0  0  0  0  0  0  0  0  0  0  # atno 6908 bound_to 6896
  152.4468  133.7509  159.6749 H   0  0  0  0  0  0  0  0  0  0  0  0  # atno 6909 bound_to 6896
  145.4007  140.9537  143.2289 H   0  0  0  0  0  0  0  0  0  0  0  0  # atno 7974 bound_to 7965
  154.5576  140.0714  156.8769 H   0  0  0  0  0  0  0  0  0  0  0  0  # atno 8008 bound_to 7997
  155.2872  140.3375  155.4236 H   0  0  0  0  0  0  0  0  0  0  0  0  # atno 8009 bound_to 7997
  156.2015  140.1724  156.7874 H   0  0  0  0  0  0  0  0  0  0  0  0  # atno 8010 bound_to 7997
  140.0253  144.5509  150.7550 H   0  0  0  0  0  0  0  0  0  0  0  0  # atno 10167 bound_to 10162
  156.4235  130.4431  149.7167 H   0  0  0  0  0  0  0  0  0  0  0  0  # atno 10718 bound_to 10713
  153.0033  135.5415  154.6415 H   0  0  0  0  0  0  0  0  0  0  0  0  # atno 10763 bound_to 10752
  154.5669  135.2838  155.0867 H   0  0  0  0  0  0  0  0  0  0  0  0  # atno 10764 bound_to 10752
  154.2048  135.6477  153.5150 H   0  0  0  0  0  0  0  0  0  0  0  0  # atno 10765 bound_to 10752
  141.1662  133.7254  156.8602 H   0  0  0  0  0  0  0  0  0  0  0  0  # atno 11005 bound_to 11000
  144.8376  139.5525  143.6915 LP  0  0  0  0  0  0  0  0  0  0  0  0  # atno 17320 bound_to 7965
  146.2753  139.6737  142.9267 LP  0  0  0  0  0  0  0  0  0  0  0  0  # atno 17321 bound_to 7965
  140.7325  143.2707  151.3899 LP  0  0  0  0  0  0  0  0  0  0  0  0  # atno 17342 bound_to 10162
  139.6112  144.1094  152.2301 LP  0  0  0  0  0  0  0  0  0  0  0  0  # atno 17343 bound_to 10162
  156.4098  130.7716  151.2729 LP  0  0  0  0  0  0  0  0  0  0  0  0  # atno 17370 bound_to 10713
  157.7508  131.0215  150.3751 LP  0  0  0  0  0  0  0  0  0  0  0  0  # atno 17371 bound_to 10713
  140.1854  134.9003  157.2998 LP  0  0  0  0  0  0  0  0  0  0  0  0  # atno 17394 bound_to 11000
  140.2349  134.3865  155.7505 LP  0  0  0  0  0  0  0  0  0  0  0  0  # atno 17395 bound_to 11000

$$$$
