AV-unprocessed.smi:901|AV-procd|sdf|4092|dock5
  -GOLD-   22720 1583D 1   1.00000     0.00000
 Structure written by MMmdl.
 43 44  0  0  0  0  0  0  0  0  1 V2000
  148.9722  131.1685  161.7120 C   0  0  0  0  0  0  0  0  0  0  0  0
  147.7359  132.0237  161.5184 C   0  0  0  0  0  0  0  0  0  0  0  0
  146.4647  131.2448  161.2296 C   0  0  0  0  0  0  0  0  0  0  0  0
  147.7844  133.3675  161.5964 C   0  0  0  0  0  0  0  0  0  0  0  0
  146.6373  134.3076  161.4323 C   0  0  2  0  0  0  0  0  0  0  0  0
  146.5628  135.4157  160.3846 C   0  0  2  0  0  0  0  0  0  0  0  0
  147.7053  135.6824  159.4555 C   0  0  0  0  0  0  0  0  0  0  0  0
  148.8804  135.6471  159.8182 O   0  0  0  0  0  0  0  0  0  0  0  0
  147.3085  135.8841  158.1865 N   0  0  0  0  0  0  0  0  0  0  0  0
  148.1028  136.1841  157.0507 C   0  0  0  0  0  0  0  0  0  0  0  0
  147.8116  135.8172  155.7026 C   0  0  0  0  0  0  0  0  0  0  0  0
  148.8742  136.3182  155.0064 C   0  0  0  0  0  0  0  0  0  0  0  0
  149.7191  136.9242  155.9153 N   0  0  0  0  0  0  0  0  0  0  0  0
  150.9821  137.5969  155.6623 C   0  0  0  0  0  0  0  0  0  0  0  0
  150.8005  138.8326  154.7749 C   0  0  0  0  0  0  0  0  0  0  0  0
  150.1554  138.6589  153.6186 N   0  0  0  0  0  0  0  0  0  0  0  0
  151.2317  139.9301  155.1243 O   0  0  0  0  0  0  0  0  0  0  0  0
  149.2438  136.8396  157.1774 N   0  0  0  0  0  0  0  0  0  0  0  0
  146.7171  135.7621  161.8611 C   0  0  0  0  0  0  0  0  0  0  0  0
  145.5310  136.3868  162.5743 C   0  0  0  0  0  0  0  0  0  0  0  0
  148.0112  136.3404  162.4296 C   0  0  0  0  0  0  0  0  0  0  0  0
  149.1734  130.5879  160.8116 H   0  0  0  0  0  0  0  0  0  0  0  0
  148.8264  130.4760  162.5410 H   0  0  0  0  0  0  0  0  0  0  0  0
  149.8521  131.7757  161.9272 H   0  0  0  0  0  0  0  0  0  0  0  0
  146.5871  130.6574  160.3193 H   0  0  0  0  0  0  0  0  0  0  0  0
  145.5992  131.8924  161.0934 H   0  0  0  0  0  0  0  0  0  0  0  0
  146.2475  130.5610  162.0503 H   0  0  0  0  0  0  0  0  0  0  0  0
  148.7374  133.8289  161.8085 H   0  0  0  0  0  0  0  0  0  0  0  0
  145.6983  133.7969  161.6388 H   0  0  0  0  0  0  0  0  0  0  0  0
  145.5812  135.5560  159.9353 H   0  0  0  0  0  0  0  0  0  0  0  0
  146.3167  135.8107  158.0127 H   0  0  0  0  0  0  0  0  0  0  0  0
  146.9711  135.2738  155.2980 H   0  0  0  0  0  0  0  0  0  0  0  0
  149.1010  136.2895  153.9509 H   0  0  0  0  0  0  0  0  0  0  0  0
  151.4220  137.8741  156.6213 H   0  0  0  0  0  0  0  0  0  0  0  0
  151.6743  136.9049  155.1794 H   0  0  0  0  0  0  0  0  0  0  0  0
  150.0115  139.4411  152.9967 H   0  0  0  0  0  0  0  0  0  0  0  0
  149.8148  137.7414  153.3695 H   0  0  0  0  0  0  0  0  0  0  0  0
  145.5285  137.4679  162.4325 H   0  0  0  0  0  0  0  0  0  0  0  0
  145.5748  136.1742  163.6428 H   0  0  0  0  0  0  0  0  0  0  0  0
  144.5924  135.9899  162.1862 H   0  0  0  0  0  0  0  0  0  0  0  0
  148.0382  137.4205  162.2830 H   0  0  0  0  0  0  0  0  0  0  0  0
  148.8935  135.9147  161.9519 H   0  0  0  0  0  0  0  0  0  0  0  0
  148.0778  136.1359  163.4986 H   0  0  0  0  0  0  0  0  0  0  0  0
  1  2  1  0  0  0  0
  1 22  1  0  0  0  0
  1 23  1  0  0  0  0
  1 24  1  0  0  0  0
  2  3  1  0  0  0  0
  2  4  2  0  0  0  0
  3 25  1  0  0  0  0
  3 26  1  0  0  0  0
  3 27  1  0  0  0  0
  4  5  1  0  0  0  0
  4 28  1  0  0  0  0
  5 19  1  0  0  0  0
  5  6  1  0  0  0  0
  5 29  1  0  0  0  0
  6  7  1  0  0  0  0
  6 19  1  0  0  0  0
  6 30  1  0  0  0  0
  7  8  2  0  0  0  0
  7  9  1  0  0  0  0
  9 10  1  0  0  0  0
  9 31  1  0  0  0  0
 10 18  2  0  0  0  0
 10 11  1  0  0  0  0
 11 12  2  0  0  0  0
 11 32  1  0  0  0  0
 12 13  1  0  0  0  0
 12 33  1  0  0  0  0
 13 14  1  0  0  0  0
 13 18  1  0  0  0  0
 14 15  1  0  0  0  0
 14 34  1  0  0  0  0
 14 35  1  0  0  0  0
 15 16  1  0  0  0  0
 15 17  2  0  0  0  0
 16 36  1  0  0  0  0
 16 37  1  0  0  0  0
 19 20  1  0  0  0  0
 19 21  1  0  0  0  0
 20 38  1  0  0  0  0
 20 39  1  0  0  0  0
 20 40  1  0  0  0  0
 21 41  1  0  0  0  0
 21 42  1  0  0  0  0
 21 43  1  0  0  0  0
M  END
> <s_m_source_file>
AV-unprocessed.smi

> <i_m_source_file_index>
901

> <i_lp_mmshare_version>
43012

> <i_f3d_flags>
0

> <s_epik_input>
W0NIM11DKFtDSDNdKT1bQ0hdW0NAQEhdKEMxKFtDSDNdKVtDSDNdKVtDQEhdMUMoPU8pW05IXWMyW2NIXVtjSF1uKG4yKVtDSDJdQyg9TylbTkgyXQ==

> <s_epik_cmdline>
J2VwaWtfcHl0aG9uJywgJy1waCcsICc3LjAnLCAnLXRuJywgJzgnLCAnLW1hJywgJzIwMCcsICctbWV0YWxfYmluZGluZycsICctaW1hZScsICc8aW5maWxlLm1hZT4nLCAnLW9tYWUnLCAnPG91dGZpbGUubWFlPic=

> <r_lp_tautomer_probability>
1

> <r_epik_Ionization_Penalty>
1.01454e-05

> <r_epik_Ionization_Penalty_Charging>
0

> <r_epik_Ionization_Penalty_Neutral>
1.01454e-05

> <r_epik_State_Penalty>
-0

> <r_epik_Charging_Adjusted_Penalty>
0

> <i_epik_Tot_Q>
0

> <i_epik_Tot_abs_Q>
0

> <r_epik_Metal_State_Penalty>
-0

> <b_epik_Metal_Only>
0

> <s_lp_Force_Field>
OPLS_2005

> <r_lp_Energy>
21.7989

> <b_lp_Chiralities_Consistent>
1

> <s_lp_Variant>
AV-unprocessed.smi:901-3

> <Gold.Version>
5.8.1

> <Gold.Id.Protein>
6NUR|6NUR_protein|mol2

> <Gold.PLP.Fitness>
42.2874

> <Gold.PLP.PLP>
-29.1639

> <Gold.PLP.part.hbond>
-4.2312

> <Gold.PLP.part.metal>
0.0000

> <Gold.PLP.part.buried>
-2.9883

> <Gold.PLP.part.nonpolar>
-21.9835

> <Gold.PLP.part.repulsive>
0.1336

> <Gold.PLP.ligand.clash>
0.0000

> <Gold.PLP.ligand.torsion>
0.9451

> <Gold.PLP.Chemscore.Hbond>
3.9280

> <Gold.PLP.Chemscore.CHOScore>
1.0000

> <Gold.PLP.Chemscore.Metal>
0.0000

> <Gold.Chemscore.Hbonds>
donor molecule, donor type, donor heavy atom, donor atom, acceptor molecule, acceptor atom, score
      L1  H    16    36       P1  7957  0.93
      L1  H    16    37       P1  7948  0.42
      P1  H  6896  6909       L1     8  0.89
      P1  H  7989  7998       L1    17  1.00
      L1  C    12    33       P1  7948  1.00

> <Gold.PLP.Chemscore.Internal.Correction>
0.2298

> <Gold.Rescore>
     Score         DG    S(hbond)    S(metal)    S(lipo)     H(rot)  DE(clash)    DE(int)     intcor
     14.98     -20.26       3.72        0.00      66.69       2.13       0.78       4.50       ----

> <Gold.Chemscore.Fitness>
14.9803

> <Gold.Chemscore.DG>
-20.2608

> <Gold.Chemscore.ZeroCoef>
-5.4800

> <Gold.Chemscore.Hbond>
3.7223

> <Gold.Chemscore.Metal>
0.0000

> <Gold.Chemscore.Lipo>
66.6948

> <Gold.Chemscore.Internal_Hbond>
0.0000

> <Gold.Chemscore.DEClash>
0.7834

> <Gold.Chemscore.DEInternal>
4.4970

> <Gold.Chemscore.Rot>
2.1309

> <Gold.Chemscore.Internal.Correction>
   9.000000E+99

> <Gold.Chemscore.Hbonds>
donor molecule, donor type, donor heavy atom, donor atom, acceptor molecule, acceptor atom, score
      L1  H    16    36       P1  7957  0.87
      L1  H    16    37       P1  7948  0.26
      P1  H  6896  6909       L1     8  0.85
      P1  H  7989  7998       L1    17  0.55

> <Gold.Chemscore.Hbond.Weighted>
-12.4326

> <Gold.Chemscore.Metal.Weighted>
-0.0000

> <Gold.Chemscore.Lipo.Weighted>
-7.8033

> <Gold.Chemscore.Internal_Hbond.Weighted>
0.0000

> <Gold.Chemscore.DEClash.Weighted>
0.7834

> <Gold.Chemscore.DEInternal.Weighted>
4.4970

> <Gold.Chemscore.Rot.Weighted>
5.4552

> <Gold.Chemscore.Internal.Correction.Weighted>
   9.000000E+99

> <Gold.Protein.RotatedTorsions>
[ 6907 6896 6895 6894 ] final   57.71 input  -60.11 | X-H torsion
[ 7974 7965 7964 7962 ] final  128.78 input  175.53 | X-H torsion
[ 8008 7997 7996 7995 ] final -157.67 input   59.86 | X-H torsion
[ 10167 10162 10161 10158 ] final -153.18 input  -65.29 | X-H torsion
[ 10718 10713 10712 10709 ] final -170.46 input   66.30 | X-H torsion
[ 10763 10752 10751 10750 ] final -108.89 input  -60.55 | X-H torsion
[ 11005 11000 10999 10996 ] final -104.28 input  -57.11 | X-H torsion

> <Gold.Protein.ActiveResidues>
 VAL166  LYS551  ARG553  GLY616  TRP617  ASP618  TYR619  PRO620  LYS621  CYS622 
 ASP623  PHE694  ASN695  SER759  ASP760  ASP761  ALA762  ILE779  LEU786  VAL792 
 PHE793  MET794  SER795  GLU796  ALA797  LYS798  CYS799  TRP800  GLU811  SER814 

> <Gold.Protein.RotatedAtoms>
  152.3757  134.6667  160.0160 H   0  0  0  0  0  0  0  0  0  0  0  0  # atno 6907 bound_to 6896
  151.6946  133.3305  159.3259 H   0  0  0  0  0  0  0  0  0  0  0  0  # atno 6908 bound_to 6896
  150.7707  134.6604  159.6381 H   0  0  0  0  0  0  0  0  0  0  0  0  # atno 6909 bound_to 6896
  145.0358  139.4006  143.5127 H   0  0  0  0  0  0  0  0  0  0  0  0  # atno 7974 bound_to 7965
  155.7360  140.0808  157.2267 H   0  0  0  0  0  0  0  0  0  0  0  0  # atno 8008 bound_to 7997
  154.4027  140.1586  156.2617 H   0  0  0  0  0  0  0  0  0  0  0  0  # atno 8009 bound_to 7997
  155.9064  140.3406  155.6068 H   0  0  0  0  0  0  0  0  0  0  0  0  # atno 8010 bound_to 7997
  139.7119  143.9095  152.2471 H   0  0  0  0  0  0  0  0  0  0  0  0  # atno 10167 bound_to 10162
  156.7266  130.9290  151.3101 H   0  0  0  0  0  0  0  0  0  0  0  0  # atno 10718 bound_to 10713
  154.8161  135.4621  154.0649 H   0  0  0  0  0  0  0  0  0  0  0  0  # atno 10763 bound_to 10752
  153.2040  135.6873  153.8202 H   0  0  0  0  0  0  0  0  0  0  0  0  # atno 10764 bound_to 10752
  153.7677  135.3275  155.3324 H   0  0  0  0  0  0  0  0  0  0  0  0  # atno 10765 bound_to 10752
  141.1108  133.8710  157.1591 H   0  0  0  0  0  0  0  0  0  0  0  0  # atno 11005 bound_to 11000
  146.3504  139.9933  142.8683 LP  0  0  0  0  0  0  0  0  0  0  0  0  # atno 17320 bound_to 7965
  145.1711  140.9721  143.4321 LP  0  0  0  0  0  0  0  0  0  0  0  0  # atno 17321 bound_to 7965
  139.8967  144.6935  150.8710 LP  0  0  0  0  0  0  0  0  0  0  0  0  # atno 17342 bound_to 10162
  140.7735  143.3545  151.1949 LP  0  0  0  0  0  0  0  0  0  0  0  0  # atno 17343 bound_to 10162
  157.6876  130.9201  150.0428 LP  0  0  0  0  0  0  0  0  0  0  0  0  # atno 17370 bound_to 10713
  156.1558  130.3643  149.9371 LP  0  0  0  0  0  0  0  0  0  0  0  0  # atno 17371 bound_to 10713
  140.0000  135.0031  157.0169 LP  0  0  0  0  0  0  0  0  0  0  0  0  # atno 17394 bound_to 11000
  140.4781  134.1317  155.7213 LP  0  0  0  0  0  0  0  0  0  0  0  0  # atno 17395 bound_to 11000

$$$$
