AV-unprocessed.smi:195|AV-procd|sdf|1526|dock3
  -GOLD-   2262019373D 1   1.00000     0.00000
 Structure written by MMmdl.
 45 48  0  0  0  0  0  0  0  0  1 V2000
  147.7269  136.7939  159.1170 N   0  0  0  0  0  0  0  0  0  0  0  0
  148.6315  136.4661  158.4746 C   0  0  0  0  0  0  0  0  0  0  0  0
  149.7827  136.0502  157.6581 C   0  0  0  0  0  0  0  0  0  0  0  0
  149.3850  135.4224  156.3189 C   0  0  0  0  0  0  0  0  0  0  0  0
  148.5117  134.3662  156.6603 O   0  0  0  0  0  0  0  0  0  0  0  0
  148.8713  136.3637  155.2252 C   0  0  0  0  0  0  0  0  0  0  0  0
  150.1912  136.2777  154.6052 N   0  0  0  0  0  0  0  0  0  0  0  0
  151.0157  137.4211  154.8485 C   0  0  0  0  0  0  0  0  0  0  0  0
  152.3057  137.4579  154.4166 N   0  0  0  0  0  0  0  0  0  0  0  0
  153.0807  138.5237  154.6368 C   0  0  0  0  0  0  0  0  0  0  0  0
  152.7725  139.6639  155.2547 N   0  0  0  0  0  0  0  0  0  0  0  0
  151.4765  139.6541  155.6747 C   0  0  0  0  0  0  0  0  0  0  0  0
  150.5432  138.5909  155.5108 C   0  0  0  0  0  0  0  0  0  0  0  0
  149.3184  138.9527  156.0606 N   0  0  0  0  0  0  0  0  0  0  0  0
  149.5187  140.1549  156.5283 C   0  0  0  0  0  0  0  0  0  0  0  0
  150.7884  140.6510  156.3419 N   0  0  0  0  0  0  0  0  0  0  0  0
  151.2902  141.9482  156.7598 C   0  0  0  0  0  0  0  0  0  0  0  0
  151.3390  142.0909  158.2942 C   0  0  2  0  0  0  0  0  0  0  0  0
  150.0169  142.1509  158.7954 O   0  0  0  0  0  0  0  0  0  0  0  0
  152.0994  143.3532  158.7421 C   0  0  1  0  0  0  0  0  0  0  0  0
  151.4126  144.6694  158.3696 C   0  0  0  0  0  0  0  0  0  0  0  0
  151.9612  145.6114  159.4158 C   0  0  0  0  0  0  0  0  0  0  0  0
  151.9845  144.7152  160.6489 C   0  0  0  0  0  0  0  0  0  0  0  0
  152.2069  143.3933  160.1647 O   0  0  0  0  0  0  0  0  0  0  0  0
  150.5002  135.0485  155.3366 C   0  0  0  0  0  0  0  0  0  0  0  0
  150.4235  136.9201  157.5108 H   0  0  0  0  0  0  0  0  0  0  0  0
  150.3570  135.3477  158.2615 H   0  0  0  0  0  0  0  0  0  0  0  0
  148.1083  134.0713  155.8582 H   0  0  0  0  0  0  0  0  0  0  0  0
  148.0982  135.9197  154.5966 H   0  0  0  0  0  0  0  0  0  0  0  0
  148.5816  137.3509  155.5875 H   0  0  0  0  0  0  0  0  0  0  0  0
  154.0915  138.4521  154.2626 H   0  0  0  0  0  0  0  0  0  0  0  0
  148.7418  140.7144  157.0290 H   0  0  0  0  0  0  0  0  0  0  0  0
  152.2864  142.0761  156.3348 H   0  0  0  0  0  0  0  0  0  0  0  0
  150.6629  142.7254  156.3208 H   0  0  0  0  0  0  0  0  0  0  0  0
  151.8214  141.2112  158.7225 H   0  0  0  0  0  0  0  0  0  0  0  0
  149.8992  142.9812  159.2312 H   0  0  0  0  0  0  0  0  0  0  0  0
  153.1120  143.3509  158.3348 H   0  0  0  0  0  0  0  0  0  0  0  0
  151.6306  144.9902  157.3506 H   0  0  0  0  0  0  0  0  0  0  0  0
  150.3302  144.5845  158.4768 H   0  0  0  0  0  0  0  0  0  0  0  0
  152.9744  145.9171  159.1512 H   0  0  0  0  0  0  0  0  0  0  0  0
  151.3554  146.5078  159.5499 H   0  0  0  0  0  0  0  0  0  0  0  0
  152.7499  145.0130  161.3662 H   0  0  0  0  0  0  0  0  0  0  0  0
  151.0183  144.7393  161.1547 H   0  0  0  0  0  0  0  0  0  0  0  0
  151.4935  134.9669  155.7774 H   0  0  0  0  0  0  0  0  0  0  0  0
  150.2641  134.1650  154.7417 H   0  0  0  0  0  0  0  0  0  0  0  0
  1  2  3  0  0  0  0
  2  3  1  0  0  0  0
  3  4  1  0  0  0  0
  3 26  1  0  0  0  0
  3 27  1  0  0  0  0
  4 25  1  0  0  0  0
  4  5  1  0  0  0  0
  4  6  1  0  0  0  0
  5 28  1  0  0  0  0
  6  7  1  0  0  0  0
  6 29  1  0  0  0  0
  6 30  1  0  0  0  0
  7  8  1  0  0  0  0
  7 25  1  0  0  0  0
  8 13  1  0  0  0  0
  8  9  2  0  0  0  0
  9 10  1  0  0  0  0
 10 11  2  0  0  0  0
 10 31  1  0  0  0  0
 11 12  1  0  0  0  0
 12 16  1  0  0  0  0
 12 13  2  0  0  0  0
 13 14  1  0  0  0  0
 14 15  2  0  0  0  0
 15 16  1  0  0  0  0
 15 32  1  0  0  0  0
 16 17  1  0  0  0  0
 17 18  1  0  0  0  0
 17 33  1  0  0  0  0
 17 34  1  0  0  0  0
 18 19  1  0  0  0  0
 18 20  1  0  0  0  0
 18 35  1  0  0  0  0
 19 36  1  0  0  0  0
 20 24  1  0  0  0  0
 20 21  1  0  0  0  0
 20 37  1  0  0  0  0
 21 22  1  0  0  0  0
 21 38  1  0  0  0  0
 21 39  1  0  0  0  0
 22 23  1  0  0  0  0
 22 40  1  0  0  0  0
 22 41  1  0  0  0  0
 23 24  1  0  0  0  0
 23 42  1  0  0  0  0
 23 43  1  0  0  0  0
 25 44  1  0  0  0  0
 25 45  1  0  0  0  0
M  END
> <s_m_source_file>
AV-unprocessed.smi

> <i_m_source_file_index>
195

> <i_lp_mmshare_version>
43012

> <i_f3d_flags>
0

> <s_epik_input>
TiNDW0NIMl1DMShbT0hdKVtDSDJdTihbQ0gyXTEpYyhuW2NIXW4yKWMoYzIzKW5bY0hdbjNbQ0gyXVtDQEhdKFtPSF0pW0NAQEhdNFtDSDJdW0NIMl1bQ0gyXU80

> <s_epik_cmdline>
J2VwaWtfcHl0aG9uJywgJy1waCcsICc3LjAnLCAnLXRuJywgJzgnLCAnLW1hJywgJzIwMCcsICctbWV0YWxfYmluZGluZycsICctaW1hZScsICc8aW5maWxlLm1hZT4nLCAnLW9tYWUnLCAnPG91dGZpbGUubWFlPic=

> <r_lp_tautomer_probability>
1

> <r_epik_Ionization_Penalty>
0.00307146

> <r_epik_Ionization_Penalty_Charging>
0

> <r_epik_Ionization_Penalty_Neutral>
0.00307146

> <r_epik_State_Penalty>
0.0020279

> <r_epik_Charging_Adjusted_Penalty>
0.0020279

> <i_epik_Tot_Q>
0

> <i_epik_Tot_abs_Q>
0

> <r_epik_Metal_State_Penalty>
-0

> <b_epik_Metal_Only>
0

> <s_lp_Force_Field>
OPLS_2005

> <r_lp_Energy>
44.1004

> <b_lp_Chiralities_Consistent>
1

> <s_lp_Variant>
AV-unprocessed.smi:195-3

> <Gold.Version>
5.8.1

> <Gold.Id.Protein>
6NUR|6NUR_protein|mol2

> <Gold.PLP.Fitness>
46.3177

> <Gold.PLP.PLP>
-41.1800

> <Gold.PLP.part.hbond>
-3.9509

> <Gold.PLP.part.metal>
0.0000

> <Gold.PLP.part.buried>
-7.7117

> <Gold.PLP.part.nonpolar>
-32.4635

> <Gold.PLP.part.repulsive>
1.3596

> <Gold.PLP.ligand.clash>
0.0000

> <Gold.PLP.ligand.torsion>
0.2838

> <Gold.PLP.Chemscore.Hbond>
1.7902

> <Gold.PLP.Chemscore.CHOScore>
0.0000

> <Gold.PLP.Chemscore.Metal>
0.0000

> <Gold.Chemscore.Hbonds>
donor molecule, donor type, donor heavy atom, donor atom, acceptor molecule, acceptor atom, score
      P1  H  7997  8009       L1    11  1.00
      P1  H 10752 10764       L1     9  0.70

> <Gold.PLP.Chemscore.Internal.Correction>
0.3347

> <Gold.Rescore>
     Score         DG    S(hbond)    S(metal)    S(lipo)     H(rot)  DE(clash)    DE(int)     intcor
      7.81     -10.83       1.48        0.00      84.91       3.72       0.64       2.38       ----

> <Gold.Chemscore.Fitness>
7.8094

> <Gold.Chemscore.DG>
-10.8290

> <Gold.Chemscore.ZeroCoef>
-5.4800

> <Gold.Chemscore.Hbond>
1.4791

> <Gold.Chemscore.Metal>
0.0000

> <Gold.Chemscore.Lipo>
84.9107

> <Gold.Chemscore.Internal_Hbond>
0.0000

> <Gold.Chemscore.DEClash>
0.6366

> <Gold.Chemscore.DEInternal>
2.3831

> <Gold.Chemscore.Rot>
3.7210

> <Gold.Chemscore.Internal.Correction>
   9.000000E+99

> <Gold.Chemscore.Hbonds>
donor molecule, donor type, donor heavy atom, donor atom, acceptor molecule, acceptor atom, score
      P1  H  7997  8009       L1    11  0.30
      P1  H 10752 10764       L1     9  0.59

> <Gold.Chemscore.Hbond.Weighted>
-4.9401

> <Gold.Chemscore.Metal.Weighted>
-0.0000

> <Gold.Chemscore.Lipo.Weighted>
-9.9346

> <Gold.Chemscore.Internal_Hbond.Weighted>
0.0000

> <Gold.Chemscore.DEClash.Weighted>
0.6366

> <Gold.Chemscore.DEInternal.Weighted>
2.3831

> <Gold.Chemscore.Rot.Weighted>
9.5256

> <Gold.Chemscore.Internal.Correction.Weighted>
   9.000000E+99

> <Gold.Protein.RotatedTorsions>
[ 6907 6896 6895 6894 ] final  -85.88 input  -60.11 | X-H torsion
[ 7974 7965 7964 7962 ] final  166.56 input  175.53 | X-H torsion
[ 8008 7997 7996 7995 ] final -134.15 input   59.86 | X-H torsion
[ 10167 10162 10161 10158 ] final  -54.25 input  -65.29 | X-H torsion
[ 10718 10713 10712 10709 ] final  122.25 input   66.30 | X-H torsion
[ 10763 10752 10751 10750 ] final  -90.24 input  -60.55 | X-H torsion
[ 11005 11000 10999 10996 ] final  101.80 input  -57.11 | X-H torsion

> <Gold.Protein.ActiveResidues>
 VAL166  LYS551  ARG553  GLY616  TRP617  ASP618  TYR619  PRO620  LYS621  CYS622 
 ASP623  PHE694  ASN695  SER759  ASP760  ASP761  ALA762  ILE779  LEU786  VAL792 
 PHE793  MET794  SER795  GLU796  ALA797  LYS798  CYS799  TRP800  GLU811  SER814 

> <Gold.Protein.RotatedAtoms>
  150.6868  134.3137  159.4756 H   0  0  0  0  0  0  0  0  0  0  0  0  # atno 6907 bound_to 6896
  152.1020  134.9332  160.0578 H   0  0  0  0  0  0  0  0  0  0  0  0  # atno 6908 bound_to 6896
  152.0608  133.4026  159.4454 H   0  0  0  0  0  0  0  0  0  0  0  0  # atno 6909 bound_to 6896
  144.7457  139.8633  143.6382 H   0  0  0  0  0  0  0  0  0  0  0  0  # atno 7974 bound_to 7965
  155.3574  140.0481  157.3046 H   0  0  0  0  0  0  0  0  0  0  0  0  # atno 8008 bound_to 7997
  154.5196  140.2220  155.8965 H   0  0  0  0  0  0  0  0  0  0  0  0  # atno 8009 bound_to 7997
  156.1674  140.3103  155.8920 H   0  0  0  0  0  0  0  0  0  0  0  0  # atno 8010 bound_to 7997
  140.6440  143.2524  151.4910 H   0  0  0  0  0  0  0  0  0  0  0  0  # atno 10167 bound_to 10162
  157.5756  131.1079  150.8285 H   0  0  0  0  0  0  0  0  0  0  0  0  # atno 10718 bound_to 10713
  154.6637  135.5311  153.8050 H   0  0  0  0  0  0  0  0  0  0  0  0  # atno 10763 bound_to 10752
  153.0458  135.6512  154.0832 H   0  0  0  0  0  0  0  0  0  0  0  0  # atno 10764 bound_to 10752
  154.0738  135.2952  155.3283 H   0  0  0  0  0  0  0  0  0  0  0  0  # atno 10765 bound_to 10752
  139.8774  134.9198  156.4961 H   0  0  0  0  0  0  0  0  0  0  0  0  # atno 11005 bound_to 11000
  146.1332  139.4372  143.0155 LP  0  0  0  0  0  0  0  0  0  0  0  0  # atno 17320 bound_to 7965
  145.7131  141.0100  143.1443 LP  0  0  0  0  0  0  0  0  0  0  0  0  # atno 17321 bound_to 7965
  139.5650  144.2063  152.1751 LP  0  0  0  0  0  0  0  0  0  0  0  0  # atno 17342 bound_to 10162
  140.1343  144.5260  150.6783 LP  0  0  0  0  0  0  0  0  0  0  0  0  # atno 17343 bound_to 10162
  156.8745  130.5157  149.5294 LP  0  0  0  0  0  0  0  0  0  0  0  0  # atno 17370 bound_to 10713
  156.0801  130.5813  150.9547 LP  0  0  0  0  0  0  0  0  0  0  0  0  # atno 17371 bound_to 10713
  140.8623  133.8050  155.9278 LP  0  0  0  0  0  0  0  0  0  0  0  0  # atno 17394 bound_to 11000
  140.9037  134.2347  157.5027 LP  0  0  0  0  0  0  0  0  0  0  0  0  # atno 17395 bound_to 11000

$$$$
