#       Name:                AV-unprocessed.smi:1455
#       Creating user name   scv26
#       Creation time:       Fri Mar 27 06:00:14 2020


#       File generated by GOLD software.
#

@<TRIPOS>MOLECULE
AV-unprocessed.smi:1455
    38    39     1
SMALL
NO_CHARGES


@<TRIPOS>ATOM
      1 ****        -0.1273   2.6825   1.5157 O.2            1 S1                 0.0000
      2 ****         0.3203   1.8694   0.7076 C.2            1 S1                 0.0000
      3 ****         1.7766   2.0109   0.2315 C.3            1 S1                 0.0000
      4 ****         2.2191   0.9753  -0.7203 N.am           1 S1                 0.0000
      5 ****         2.8556  -0.1619  -0.1923 C.2            1 S1                 0.0000
      6 ****         3.2834  -1.1670  -0.9797 C.2            1 S1                 0.0000
      7 ****         3.0730  -1.0544  -2.4177 C.2            1 S1                 0.0000
      8 ****         3.4592  -1.9612  -3.1524 O.2            1 S1                 0.0000
      9 ****         2.4475   0.0669  -2.8815 N.pl3          1 S1                -1.0000
     10 ****         2.0144   1.0797  -2.0683 C.2            1 S1                 0.0000
     11 ****         1.4412   2.0770  -2.5067 O.2            1 S1                 0.0000
     12 ****        -0.4073   0.8478   0.2260 N.am           1 S1                 0.0000
     13 ****        -1.7931   0.5541   0.5745 C.3            1 S1                 0.0000
     14 ****        -1.8949  -0.1792   1.9285 C.3            1 S1                 0.0000
     15 ****        -2.7552  -1.4196   1.6784 C.3            1 S1                 0.0000
     16 ****        -2.5211  -1.7537   0.2084 C.3            1 S1                 0.0000
     17 ****        -2.4182  -0.3879  -0.4699 C.3            1 S1                 0.0000
     18 ****         1.9053   3.0050  -0.1996 H              1 S1                 0.0000
     19 ****         2.4204   2.0020   1.1121 H              1 S1                 0.0000
     20 ****         2.9655  -0.1691   0.8822 H              1 S1                 0.0000
     21 ****         3.7671  -2.0357  -0.5579 H              1 S1                 0.0000
     22 ****         0.0367   0.2305  -0.4391 H              1 S1                 0.0000
     23 ****        -2.3651   1.4834   0.5998 H              1 S1                 0.0000
     24 ****        -0.9082  -0.4950   2.2717 H              1 S1                 0.0000
     25 ****        -2.3161   0.4566   2.7078 H              1 S1                 0.0000
     26 ****        -2.5029  -2.2464   2.3429 H              1 S1                 0.0000
     27 ****        -3.8065  -1.1751   1.8350 H              1 S1                 0.0000
     28 ****        -1.5782  -2.2911   0.0982 H              1 S1                 0.0000
     29 ****        -3.3118  -2.3741  -0.2139 H              1 S1                 0.0000
     30 ****        -3.4207  -0.0353  -0.7159 H              1 S1                 0.0000
     31 ****        -1.8574  -0.4333  -1.4048 H              1 S1                 0.0000
     32 ****         0.4536   3.4227   1.8541 LP             1 S1                 0.0000
     33 ****        -1.0720   2.6029   1.8340 LP             1 S1                 0.0000
     34 ****         3.9112  -2.7631  -2.7617 LP             1 S1                 0.0000
     35 ****         3.3213  -1.8970  -4.1408 LP             1 S1                 0.0000
     36 ****         2.2978   0.1530  -3.8665 LP             1 S1                 0.0000
     37 ****         1.1341   2.7932  -1.8800 LP             1 S1                 0.0000
     38 ****         1.2825   2.1709  -3.4896 LP             1 S1                 0.0000
@<TRIPOS>BOND
    1    1    2 2     
    2    2    3 1     
    3    2   12 am    
    4    3    4 1     
    5    3   18 1     
    6    3   19 1     
    7    4   10 am    
    8    4    5 1     
    9    5    6 2     
   10    5   20 1     
   11    6    7 1     
   12    6   21 1     
   13    7    8 2     
   14    7    9 1     
   15    9   10 1     
   16   10   11 2     
   17   12   13 1     
   18   12   22 1     
   19   13   17 1     
   20   13   14 1     
   21   13   23 1     
   22   14   15 1     
   23   14   24 1     
   24   14   25 1     
   25   15   16 1     
   26   15   26 1     
   27   15   27 1     
   28   16   17 1     
   29   16   28 1     
   30   16   29 1     
   31   17   30 1     
   32   17   31 1     
   33    1   32 1     
   34    1   33 1     
   35    8   34 1     
   36    8   35 1     
   37    9   36 1     
   38   11   37 1     
   39   11   38 1     
@<TRIPOS>SUBSTRUCTURE
      1 S1             1
@<TRIPOS>SET
LONE_PAIRS      STATIC     ATOMS    <user>   **** ""
7 32 33 34 35 36 37 38
DONOR_HYDROGENS      STATIC     ATOMS    <user>   **** ""
1 22
ATOM$BLUE        STATIC     ATOMS    COLORGROUP SYSTEM
7 32 33 34 35 36 37 38
ATOM$RED        STATIC     ATOMS    COLORGROUP SYSTEM
1 22
