#       Name:                AV-unprocessed.smi:371
#       Creating user name   scv26
#       Creation time:       Thu Mar 26 22:38:28 2020


#       File generated by GOLD software.
#

@<TRIPOS>MOLECULE
AV-unprocessed.smi:371
    45    46     1
SMALL
NO_CHARGES


@<TRIPOS>ATOM
      1 ****        -4.1423   0.0224  -0.0050 C.3            1 S1                 0.0000
      2 ****        -2.7148   0.3223   0.4355 C.2            1 S1                 0.0000
      3 ****        -2.2517   1.6880   0.3512 C.2            1 S1                 0.0000
      4 ****        -0.9766   2.0067   0.6265 C.2            1 S1                 0.0000
      5 ****        -0.4986   3.4517   0.5404 C.3            1 S1                 0.0000
      6 ****        -0.0562   1.0065   1.0444 N.am           1 S1                 0.0000
      7 ****         1.3708   1.3677   1.2387 C.3            1 S1                 0.0000
      8 ****         2.2013   1.2734  -0.0670 C.3            1 S1                 0.0000
      9 ****         3.5179   1.7036   0.2165 O.3            1 S1                 0.0000
     10 ****         2.1676  -0.1098  -0.7102 C.ar           1 S1                 0.0000
     11 ****         2.9893  -1.1462  -0.2128 C.ar           1 S1                 0.0000
     12 ****         2.9337  -2.4341  -0.7795 C.ar           1 S1                 0.0000
     13 ****         2.0556  -2.6961  -1.8477 C.ar           1 S1                 0.0000
     14 ****         1.2341  -1.6691  -2.3495 C.ar           1 S1                 0.0000
     15 ****         1.2884  -0.3799  -1.7847 C.ar           1 S1                 0.0000
     16 ****         0.4767   0.5907  -2.2691 F              1 S1                 0.0000
     17 ****        -0.4495  -0.2893   1.2699 C.2            1 S1                 0.0000
     18 ****         0.3328  -1.1027   1.7721 O.2            1 S1                 0.0000
     19 ****        -1.8408  -0.6270   0.8650 C.2            1 S1                 0.0000
     20 ****        -2.2293  -2.0472   0.9652 C.2            1 S1                 0.0000
     21 ****        -1.3456  -2.9154   0.4525 N.am           1 S1                 0.0000
     22 ****        -3.3057  -2.4527   1.4008 O.2            1 S1                 0.0000
     23 ****        -4.5990   0.8915  -0.4794 H              1 S1                 0.0000
     24 ****        -4.7583  -0.2483   0.8526 H              1 S1                 0.0000
     25 ****        -4.1675  -0.7939  -0.7276 H              1 S1                 0.0000
     26 ****        -2.9427   2.4638   0.0545 H              1 S1                 0.0000
     27 ****        -1.2764   4.0919   0.1233 H              1 S1                 0.0000
     28 ****         0.3744   3.5590  -0.1011 H              1 S1                 0.0000
     29 ****        -0.2619   3.8377   1.5323 H              1 S1                 0.0000
     30 ****         1.4667   2.3644   1.6661 H              1 S1                 0.0000
     31 ****         1.8399   0.7427   2.0003 H              1 S1                 0.0000
     32 ****         1.8118   1.9882  -0.7904 H              1 S1                 0.0000
     33 ****         3.9949   1.7637  -0.5971 H              1 S1                 0.0000
     34 ****         3.6567  -0.9607   0.6161 H              1 S1                 0.0000
     35 ****         3.5616  -3.2222  -0.3904 H              1 S1                 0.0000
     36 ****         2.0104  -3.6845  -2.2806 H              1 S1                 0.0000
     37 ****         0.5571  -1.8713  -3.1663 H              1 S1                 0.0000
     38 ****        -1.5424  -3.9059   0.4688 H              1 S1                 0.0000
     39 ****        -0.4906  -2.5733   0.0386 H              1 S1                 0.0000
     40 ****         3.9650   1.0452   0.8220 LP             1 S1                 0.0000
     41 ****         3.4920   2.5997   0.6596 LP             1 S1                 0.0000
     42 ****         1.2598  -0.8190   2.0174 LP             1 S1                 0.0000
     43 ****         0.0391  -2.0449   1.9334 LP             1 S1                 0.0000
     44 ****        -3.9935  -1.8007   1.7200 LP             1 S1                 0.0000
     45 ****        -3.4931  -3.4344   1.4359 LP             1 S1                 0.0000
@<TRIPOS>BOND
    1    1    2 1     
    2    1   23 1     
    3    1   24 1     
    4    1   25 1     
    5    2   19 2     
    6    2    3 1     
    7    3    4 2     
    8    3   26 1     
    9    4    5 1     
   10    4    6 1     
   11    5   27 1     
   12    5   28 1     
   13    5   29 1     
   14    6    7 1     
   15    6   17 am    
   16    7    8 1     
   17    7   30 1     
   18    7   31 1     
   19    8    9 1     
   20    8   10 1     
   21    8   32 1     
   22    9   33 1     
   23   10   15 ar    
   24   10   11 ar    
   25   11   12 ar    
   26   11   34 1     
   27   12   13 ar    
   28   12   35 1     
   29   13   14 ar    
   30   13   36 1     
   31   14   15 ar    
   32   14   37 1     
   33   15   16 1     
   34   17   18 2     
   35   17   19 1     
   36   19   20 1     
   37   20   21 am    
   38   20   22 2     
   39   21   38 1     
   40   21   39 1     
   41    9   40 1     
   42    9   41 1     
   43   18   42 1     
   44   18   43 1     
   45   22   44 1     
   46   22   45 1     
@<TRIPOS>SUBSTRUCTURE
      1 S1             1
@<TRIPOS>SET
LONE_PAIRS      STATIC     ATOMS    <user>   **** ""
6 40 41 42 43 44 45
DONOR_HYDROGENS      STATIC     ATOMS    <user>   **** ""
3 33 38 39
ATOM$BLUE        STATIC     ATOMS    COLORGROUP SYSTEM
6 40 41 42 43 44 45
ATOM$RED        STATIC     ATOMS    COLORGROUP SYSTEM
3 33 38 39
