AV-unprocessed.smi:3337|AV-procd|sdf|12863|dock7
  -GOLD-   2272019263D 1   1.00000     0.00000
 Structure written by MMmdl.
 46 47  0  0  0  0  0  0  0  0  2 V2000
  153.6180  141.1465  160.6101 C   0  0  0  0  0  0  0  0  0  0  0  0
  153.2043  142.2705  159.6496 C   0  0  2  0  0  0  0  0  0  0  0  0
  152.6379  143.4811  160.4103 C   0  0  0  0  0  0  0  0  0  0  0  0
  152.2116  144.5858  159.4292 C   0  0  2  0  0  0  0  0  0  0  0  0
  151.6222  145.7963  160.1667 C   0  0  0  0  0  0  0  0  0  0  0  0
  151.2215  144.0230  158.3911 C   0  0  0  0  0  0  0  0  0  0  0  0
  151.7959  142.8589  157.6683 N   0  3  2  0  0  0  0  0  0  0  0  0
  150.9132  142.3901  156.5703 C   0  0  0  0  0  0  0  0  0  0  0  0
  149.5390  141.9174  157.0830 C   0  0  0  0  0  0  0  0  0  0  0  0
  148.5455  141.8996  156.0160 N   0  0  0  0  0  0  0  0  0  0  0  0
  147.5049  141.0534  155.9514 C   0  0  0  0  0  0  0  0  0  0  0  0
  147.2759  140.2088  156.8183 O   0  0  0  0  0  0  0  0  0  0  0  0
  146.5917  141.1842  154.7224 C   0  0  2  0  0  0  0  0  0  0  0  0
  147.3607  141.0332  153.3944 C   0  0  0  0  0  0  0  0  0  0  0  0
  145.8401  142.4316  154.7827 N   0  0  0  0  0  0  0  0  0  0  0  0
  145.7197  143.4053  153.8774 C   0  0  0  0  0  0  0  0  0  0  0  0
  144.9128  144.3894  154.2484 N   0  0  0  0  0  0  0  0  0  0  0  0
  144.5347  143.9239  155.4757 C   0  0  0  0  0  0  0  0  0  0  0  0
  145.0518  142.7505  155.8396 N   0  0  0  0  0  0  0  0  0  0  0  0
  152.1845  141.7731  158.6073 C   0  0  0  0  0  0  0  0  0  0  0  0
  152.7639  140.7734  161.1763 H   0  0  0  0  0  0  0  0  0  0  0  0
  154.3643  141.4948  161.3248 H   0  0  0  0  0  0  0  0  0  0  0  0
  154.0505  140.3054  160.0677 H   0  0  0  0  0  0  0  0  0  0  0  0
  154.1007  142.5936  159.1179 H   0  0  0  0  0  0  0  0  0  0  0  0
  151.7831  143.1721  161.0142 H   0  0  0  0  0  0  0  0  0  0  0  0
  153.3856  143.8672  161.1045 H   0  0  0  0  0  0  0  0  0  0  0  0
  153.1011  144.9273  158.8975 H   0  0  0  0  0  0  0  0  0  0  0  0
  150.7193  145.5262  160.7155 H   0  0  0  0  0  0  0  0  0  0  0  0
  151.3617  146.5926  159.4689 H   0  0  0  0  0  0  0  0  0  0  0  0
  152.3359  146.2067  160.8815 H   0  0  0  0  0  0  0  0  0  0  0  0
  150.2894  143.7261  158.8752 H   0  0  0  0  0  0  0  0  0  0  0  0
  150.9711  144.8074  157.6755 H   0  0  0  0  0  0  0  0  0  0  0  0
  150.8084  143.1805  155.8254 H   0  0  0  0  0  0  0  0  0  0  0  0
  151.3856  141.5498  156.0593 H   0  0  0  0  0  0  0  0  0  0  0  0
  149.6213  140.9074  157.4854 H   0  0  0  0  0  0  0  0  0  0  0  0
  149.1745  142.5454  157.8963 H   0  0  0  0  0  0  0  0  0  0  0  0
  148.6659  142.5640  155.2648 H   0  0  0  0  0  0  0  0  0  0  0  0
  145.8654  140.3706  154.7663 H   0  0  0  0  0  0  0  0  0  0  0  0
  147.8765  140.0737  153.3459 H   0  0  0  0  0  0  0  0  0  0  0  0
  148.1076  141.8167  153.2597 H   0  0  0  0  0  0  0  0  0  0  0  0
  146.6784  141.0800  152.5451 H   0  0  0  0  0  0  0  0  0  0  0  0
  146.2301  143.3927  152.9257 H   0  0  0  0  0  0  0  0  0  0  0  0
  143.8528  144.4628  156.1171 H   0  0  0  0  0  0  0  0  0  0  0  0
  152.6196  140.9395  158.0570 H   0  0  0  0  0  0  0  0  0  0  0  0
  151.2932  141.3882  159.1058 H   0  0  0  0  0  0  0  0  0  0  0  0
  152.6442  143.1909  157.2322 H   0  0  0  0  0  0  0  0  0  0  0  0
  1  2  1  0  0  0  0
  1 21  1  0  0  0  0
  1 22  1  0  0  0  0
  1 23  1  0  0  0  0
  2 20  1  0  0  0  0
  2  3  1  0  0  0  0
  2 24  1  0  0  0  0
  3  4  1  0  0  0  0
  3 25  1  0  0  0  0
  3 26  1  0  0  0  0
  4  5  1  0  0  0  0
  4  6  1  0  0  0  0
  4 27  1  0  0  0  0
  5 28  1  0  0  0  0
  5 29  1  0  0  0  0
  5 30  1  0  0  0  0
  6  7  1  0  0  0  0
  6 31  1  0  0  0  0
  6 32  1  0  0  0  0
  7  8  1  0  0  0  0
  7 20  1  0  0  0  0
  7 46  1  0  0  0  0
  8  9  1  0  0  0  0
  8 33  1  0  0  0  0
  8 34  1  0  0  0  0
  9 10  1  0  0  0  0
  9 35  1  0  0  0  0
  9 36  1  0  0  0  0
 10 11  1  0  0  0  0
 10 37  1  0  0  0  0
 11 12  2  0  0  0  0
 11 13  1  0  0  0  0
 13 14  1  0  0  0  0
 13 15  1  0  0  0  0
 13 38  1  0  0  0  0
 14 39  1  0  0  0  0
 14 40  1  0  0  0  0
 14 41  1  0  0  0  0
 15 19  1  0  0  0  0
 15 16  1  0  0  0  0
 16 17  2  0  0  0  0
 16 42  1  0  0  0  0
 17 18  1  0  0  0  0
 18 19  2  0  0  0  0
 18 43  1  0  0  0  0
 20 44  1  0  0  0  0
 20 45  1  0  0  0  0
M  CHG  1   7   1
M  END
> <s_m_source_file>
AV-unprocessed.smi

> <i_m_source_file_index>
3337

> <i_lp_mmshare_version>
43012

> <i_f3d_flags>
0

> <s_epik_input>
W0NIM11bQ0BASF0xW0NIMl1bQ0BASF0oW0NIM10pW0NIMl1OKFtDSDJdMSlbQ0gyXVtDSDJdW05IXUMoPU8pW0NASF0oW0NIM10pbjJbY0hdbltjSF1uMg==

> <s_epik_cmdline>
J2VwaWtfcHl0aG9uJywgJy1waCcsICc3LjAnLCAnLXRuJywgJzgnLCAnLW1hJywgJzIwMCcsICctbWV0YWxfYmluZGluZycsICctaW1hZScsICc8aW5maWxlLm1hZT4nLCAnLW9tYWUnLCAnPG91dGZpbGUubWFlPic=

> <r_lp_tautomer_probability>
1

> <r_epik_Ionization_Penalty>
0.00175613

> <r_epik_Ionization_Penalty_Charging>
0.00174812

> <r_epik_Ionization_Penalty_Neutral>
8.01354e-06

> <r_epik_State_Penalty>
0.00118332

> <r_epik_Charging_Adjusted_Penalty>
0.00293143

> <i_epik_Tot_Q>
1

> <i_epik_Tot_abs_Q>
1

> <r_epik_Metal_State_Penalty>
-0

> <b_epik_Metal_Only>
0

> <s_lp_Force_Field>
OPLS_2005

> <r_lp_Energy>
22.1479

> <b_lp_Chiralities_Consistent>
1

> <s_lp_Variant>
AV-unprocessed.smi:3337-3

> <Gold.Version>
5.8.1

> <Gold.Id.Protein>
6NUR|6NUR_protein|mol2

> <Gold.PLP.Fitness>
41.4798

> <Gold.PLP.PLP>
-41.8394

> <Gold.PLP.part.hbond>
-1.0000

> <Gold.PLP.part.metal>
0.0000

> <Gold.PLP.part.buried>
-2.8213

> <Gold.PLP.part.nonpolar>
-38.5955

> <Gold.PLP.part.repulsive>
0.4047

> <Gold.PLP.ligand.clash>
0.0000

> <Gold.PLP.ligand.torsion>
0.4187

> <Gold.PLP.Chemscore.Hbond>
0.1217

> <Gold.PLP.Chemscore.CHOScore>
0.0000

> <Gold.PLP.Chemscore.Metal>
0.0000

> <Gold.Chemscore.Hbonds>
donor molecule, donor type, donor heavy atom, donor atom, acceptor molecule, acceptor atom, score
      L1  H    10    37       P1  8028  0.27

> <Gold.PLP.Chemscore.Internal.Correction>
0.1128

> <Gold.Rescore>
     Score         DG    S(hbond)    S(metal)    S(lipo)     H(rot)  DE(clash)    DE(int)     intcor
     12.01     -12.70       0.40        0.00     105.34       2.51       0.32       0.37       ----

> <Gold.Chemscore.Fitness>
12.0097

> <Gold.Chemscore.DG>
-12.7042

> <Gold.Chemscore.ZeroCoef>
-5.4800

> <Gold.Chemscore.Hbond>
0.3989

> <Gold.Chemscore.Metal>
0.0000

> <Gold.Chemscore.Lipo>
105.3429

> <Gold.Chemscore.Internal_Hbond>
0.0000

> <Gold.Chemscore.DEClash>
0.3232

> <Gold.Chemscore.DEInternal>
0.3713

> <Gold.Chemscore.Rot>
2.5129

> <Gold.Chemscore.Internal.Correction>
   9.000000E+99

> <Gold.Chemscore.Hbonds>
donor molecule, donor type, donor heavy atom, donor atom, acceptor molecule, acceptor atom, score
      L1  H    10    37       P1  8028  0.27

> <Gold.Chemscore.Hbond.Weighted>
-1.3322

> <Gold.Chemscore.Metal.Weighted>
-0.0000

> <Gold.Chemscore.Lipo.Weighted>
-12.3251

> <Gold.Chemscore.Internal_Hbond.Weighted>
0.0000

> <Gold.Chemscore.DEClash.Weighted>
0.3232

> <Gold.Chemscore.DEInternal.Weighted>
0.3713

> <Gold.Chemscore.Rot.Weighted>
6.4331

> <Gold.Chemscore.Internal.Correction.Weighted>
   9.000000E+99

> <Gold.Protein.RotatedTorsions>
[ 6907 6896 6895 6894 ] final  128.20 input  -60.11 | X-H torsion
[ 7974 7965 7964 7962 ] final  108.10 input  175.53 | X-H torsion
[ 8008 7997 7996 7995 ] final  134.16 input   59.86 | X-H torsion
[ 10167 10162 10161 10158 ] final  -62.17 input  -65.29 | X-H torsion
[ 10718 10713 10712 10709 ] final  -99.15 input   66.30 | X-H torsion
[ 10763 10752 10751 10750 ] final  -92.67 input  -60.55 | X-H torsion
[ 11005 11000 10999 10996 ] final  133.98 input  -57.11 | X-H torsion

> <Gold.Protein.ActiveResidues>
 VAL166  LYS551  ARG553  GLY616  TRP617  ASP618  TYR619  PRO620  LYS621  CYS622 
 ASP623  PHE694  ASN695  SER759  ASP760  ASP761  ALA762  ILE779  LEU786  VAL792 
 PHE793  MET794  SER795  GLU796  ALA797  LYS798  CYS799  TRP800  GLU811  SER814 

> <Gold.Protein.RotatedAtoms>
  152.3742  133.6459  159.6110 H   0  0  0  0  0  0  0  0  0  0  0  0  # atno 6907 bound_to 6896
  150.7691  133.9221  159.3410 H   0  0  0  0  0  0  0  0  0  0  0  0  # atno 6908 bound_to 6896
  151.7038  135.0926  160.0307 H   0  0  0  0  0  0  0  0  0  0  0  0  # atno 6909 bound_to 6896
  145.2850  139.2619  143.3895 H   0  0  0  0  0  0  0  0  0  0  0  0  # atno 7974 bound_to 7965
  156.2997  140.2503  156.3371 H   0  0  0  0  0  0  0  0  0  0  0  0  # atno 8008 bound_to 7997
  154.9090  140.0404  157.1955 H   0  0  0  0  0  0  0  0  0  0  0  0  # atno 8009 bound_to 7997
  154.8424  140.2893  155.5655 H   0  0  0  0  0  0  0  0  0  0  0  0  # atno 8010 bound_to 7997
  140.5957  143.2350  151.6041 H   0  0  0  0  0  0  0  0  0  0  0  0  # atno 10167 bound_to 10162
  156.0126  130.5269  150.6627 H   0  0  0  0  0  0  0  0  0  0  0  0  # atno 10718 bound_to 10713
  154.6884  135.5222  153.8359 H   0  0  0  0  0  0  0  0  0  0  0  0  # atno 10763 bound_to 10752
  153.0614  135.6570  154.0463 H   0  0  0  0  0  0  0  0  0  0  0  0  # atno 10764 bound_to 10752
  154.0340  135.2983  155.3344 H   0  0  0  0  0  0  0  0  0  0  0  0  # atno 10765 bound_to 10752
  139.9886  134.9523  156.9802 H   0  0  0  0  0  0  0  0  0  0  0  0  # atno 11005 bound_to 11000
  146.3204  140.3327  142.8641 LP  0  0  0  0  0  0  0  0  0  0  0  0  # atno 17320 bound_to 7965
  144.9221  140.7879  143.5742 LP  0  0  0  0  0  0  0  0  0  0  0  0  # atno 17321 bound_to 7965
  139.5256  144.3068  152.1027 LP  0  0  0  0  0  0  0  0  0  0  0  0  # atno 17342 bound_to 10162
  140.2240  144.4437  150.6329 LP  0  0  0  0  0  0  0  0  0  0  0  0  # atno 17343 bound_to 10162
  157.4366  131.0856  151.0985 LP  0  0  0  0  0  0  0  0  0  0  0  0  # atno 17370 bound_to 10713
  157.1542  130.6197  149.5591 LP  0  0  0  0  0  0  0  0  0  0  0  0  # atno 17371 bound_to 10713
  140.4953  134.1152  155.7240 LP  0  0  0  0  0  0  0  0  0  0  0  0  # atno 17394 bound_to 11000
  141.1546  133.8906  157.2010 LP  0  0  0  0  0  0  0  0  0  0  0  0  # atno 17395 bound_to 11000

$$$$
