AV-unprocessed.smi:1412|AV-procd|sdf|5746|dock10
  -GOLD-   22720 5383D 1   1.00000     0.00000
 Structure written by MMmdl.
 41 42  0  0  0  0  0  0  0  0  3 V2000
  148.0253  140.2496  153.7815 C   0  0  0  0  0  0  0  0  0  0  0  0
  147.4058  138.8659  153.5173 C   0  0  0  0  0  0  0  0  0  0  0  0
  147.5177  137.8261  154.6738 C   0  0  1  0  0  0  0  0  0  0  0  0
  147.2255  138.5293  156.0265 C   0  0  0  0  0  0  0  0  0  0  0  0
  146.4452  136.7078  154.5028 C   0  0  0  0  0  0  0  0  0  0  0  0
  146.6615  135.9134  153.2920 N   0  0  0  0  0  0  0  0  0  0  0  0
  145.9376  134.8621  152.8821 C   0  0  0  0  0  0  0  0  0  0  0  0
  145.0538  134.3984  153.6050 O   0  0  0  0  0  0  0  0  0  0  0  0
  146.2613  134.4339  151.6427 N   0  5  0  0  0  0  0  0  0  0  0  0
  145.4416  133.5918  150.9925 C   0  0  0  0  0  0  0  0  0  0  0  0
  145.8824  132.7614  150.0334 N   0  0  0  0  0  0  0  0  0  0  0  0
  144.8760  131.9780  149.4858 N   0  0  0  0  0  0  0  0  0  0  0  0
  143.6980  132.2327  150.0549 C   0  0  0  0  0  0  0  0  0  0  0  0
  143.7112  133.4529  151.3111 S   0  0  0  0  0  0  0  0  0  0  0  0
  148.8868  137.1894  154.6921 N   0  3  0  0  0  0  0  0  0  0  0  0
  150.0324  138.1316  154.8224 C   0  0  0  0  0  0  0  0  0  0  0  0
  151.3496  137.4008  154.5262 C   0  0  0  0  0  0  0  0  0  0  0  0
  151.5030  136.3360  155.4553 O   0  0  0  0  0  0  0  0  0  0  0  0
  150.4580  135.3791  155.3392 C   0  0  0  0  0  0  0  0  0  0  0  0
  149.0940  136.0389  155.6149 C   0  0  0  0  0  0  0  0  0  0  0  0
  147.8598  140.9069  152.9277 H   0  0  0  0  0  0  0  0  0  0  0  0
  149.1025  140.1925  153.9348 H   0  0  0  0  0  0  0  0  0  0  0  0
  147.5824  140.7351  154.6507 H   0  0  0  0  0  0  0  0  0  0  0  0
  146.3579  139.0327  153.2677 H   0  0  0  0  0  0  0  0  0  0  0  0
  147.8662  138.4585  152.6168 H   0  0  0  0  0  0  0  0  0  0  0  0
  146.1760  138.8096  156.1178 H   0  0  0  0  0  0  0  0  0  0  0  0
  147.8034  139.4468  156.1433 H   0  0  0  0  0  0  0  0  0  0  0  0
  147.4484  137.8825  156.8760 H   0  0  0  0  0  0  0  0  0  0  0  0
  146.4815  136.0147  155.3430 H   0  0  0  0  0  0  0  0  0  0  0  0
  145.4358  137.1193  154.5224 H   0  0  0  0  0  0  0  0  0  0  0  0
  147.3872  136.2357  152.6679 H   0  0  0  0  0  0  0  0  0  0  0  0
  142.8165  131.6983  149.7340 H   0  0  0  0  0  0  0  0  0  0  0  0
  149.9326  138.9781  154.1460 H   0  0  0  0  0  0  0  0  0  0  0  0
  150.0732  138.5390  155.8332 H   0  0  0  0  0  0  0  0  0  0  0  0
  151.3695  137.0228  153.5023 H   0  0  0  0  0  0  0  0  0  0  0  0
  152.1916  138.0849  154.6316 H   0  0  0  0  0  0  0  0  0  0  0  0
  150.4750  134.9293  154.3449 H   0  0  0  0  0  0  0  0  0  0  0  0
  150.6367  134.5751  156.0533 H   0  0  0  0  0  0  0  0  0  0  0  0
  149.0381  136.3768  156.6503 H   0  0  0  0  0  0  0  0  0  0  0  0
  148.3369  135.2680  155.4847 H   0  0  0  0  0  0  0  0  0  0  0  0
  148.9763  136.7907  153.7673 H   0  0  0  0  0  0  0  0  0  0  0  0
  1  2  1  0  0  0  0
  1 21  1  0  0  0  0
  1 22  1  0  0  0  0
  1 23  1  0  0  0  0
  2  3  1  0  0  0  0
  2 24  1  0  0  0  0
  2 25  1  0  0  0  0
  3  4  1  0  0  0  0
  3  5  1  0  0  0  0
  3 15  1  0  0  0  0
  4 26  1  0  0  0  0
  4 27  1  0  0  0  0
  4 28  1  0  0  0  0
  5  6  1  0  0  0  0
  5 29  1  0  0  0  0
  5 30  1  0  0  0  0
  6  7  1  0  0  0  0
  6 31  1  0  0  0  0
  7  8  2  0  0  0  0
  7  9  1  0  0  0  0
  9 10  1  0  0  0  0
 10 14  1  0  0  0  0
 10 11  2  0  0  0  0
 11 12  1  0  0  0  0
 12 13  2  0  0  0  0
 13 14  1  0  0  0  0
 13 32  1  0  0  0  0
 15 20  1  0  0  0  0
 15 16  1  0  0  0  0
 15 41  1  0  0  0  0
 16 17  1  0  0  0  0
 16 33  1  0  0  0  0
 16 34  1  0  0  0  0
 17 18  1  0  0  0  0
 17 35  1  0  0  0  0
 17 36  1  0  0  0  0
 18 19  1  0  0  0  0
 19 20  1  0  0  0  0
 19 37  1  0  0  0  0
 19 38  1  0  0  0  0
 20 39  1  0  0  0  0
 20 40  1  0  0  0  0
M  CHG  1   9  -1
M  CHG  1  15   1
M  END
> <s_m_source_file>
AV-unprocessed.smi

> <i_m_source_file_index>
1412

> <i_lp_mmshare_version>
43012

> <i_f3d_flags>
0

> <s_epik_input>
W0NIMl0xW0NIMl1PW0NIMl1bQ0gyXU4xW0NAQF0oW0NIM10pKFtDSDJdW0NIM10pW0NIMl1bTkhdQyg9TylbTkhdYzJubltjSF1zMg==

> <s_epik_cmdline>
J2VwaWtfcHl0aG9uJywgJy1waCcsICc3LjAnLCAnLXRuJywgJzgnLCAnLW1hJywgJzIwMCcsICctbWV0YWxfYmluZGluZycsICctaW1hZScsICc8aW5maWxlLm1hZT4nLCAnLW9tYWUnLCAnPG91dGZpbGUubWFlPic=

> <r_lp_tautomer_probability>
1

> <r_epik_Ionization_Penalty>
4.35651

> <r_epik_Ionization_Penalty_Charging>
4.3235

> <r_epik_Ionization_Penalty_Neutral>
0.0330098

> <r_epik_State_Penalty>
4.4846

> <r_epik_Charging_Adjusted_Penalty>
8.8081

> <i_epik_Tot_Q>
0

> <i_epik_Tot_abs_Q>
2

> <r_epik_Metal_State_Penalty>
1.11611

> <b_epik_Metal_Only>
1

> <s_lp_Force_Field>
OPLS_2005

> <r_lp_Energy>
23.2339

> <b_lp_Chiralities_Consistent>
1

> <s_lp_Variant>
AV-unprocessed.smi:1412-7

> <Gold.Version>
5.8.1

> <Gold.Id.Protein>
6NUR|6NUR_protein|mol2

> <Gold.PLP.Fitness>
39.8192

> <Gold.PLP.PLP>
-25.6680

> <Gold.PLP.part.hbond>
-3.3962

> <Gold.PLP.part.metal>
0.0000

> <Gold.PLP.part.buried>
-5.5675

> <Gold.PLP.part.nonpolar>
-19.1476

> <Gold.PLP.part.repulsive>
0.6728

> <Gold.PLP.ligand.clash>
0.0000

> <Gold.PLP.ligand.torsion>
0.5118

> <Gold.PLP.Chemscore.Hbond>
4.0000

> <Gold.PLP.Chemscore.CHOScore>
1.0000

> <Gold.PLP.Chemscore.Metal>
0.0000

> <Gold.Chemscore.Hbonds>
donor molecule, donor type, donor heavy atom, donor atom, acceptor molecule, acceptor atom, score
      L1  H     6    31       P1  7948  1.00
      L1  H    15    41       P1  7948  2.00
      P1  H 10752 10763       L1    18  1.00
      L1  C    13    32       P1 10952  1.00

> <Gold.PLP.Chemscore.Internal.Correction>
0.1747

> <Gold.Rescore>
     Score         DG    S(hbond)    S(metal)    S(lipo)     H(rot)  DE(clash)    DE(int)     intcor
     13.15     -15.45       2.42        0.00      57.30       1.88       0.25       2.05       ----

> <Gold.Chemscore.Fitness>
13.1506

> <Gold.Chemscore.DG>
-15.4540

> <Gold.Chemscore.ZeroCoef>
-5.4800

> <Gold.Chemscore.Hbond>
2.4182

> <Gold.Chemscore.Metal>
0.0000

> <Gold.Chemscore.Lipo>
57.3035

> <Gold.Chemscore.Internal_Hbond>
0.0000

> <Gold.Chemscore.DEClash>
0.2540

> <Gold.Chemscore.DEInternal>
2.0494

> <Gold.Chemscore.Rot>
1.8779

> <Gold.Chemscore.Internal.Correction>
   9.000000E+99

> <Gold.Chemscore.Hbonds>
donor molecule, donor type, donor heavy atom, donor atom, acceptor molecule, acceptor atom, score
      L1  H     6    31       P1  7948  0.99
      L1  H    15    41       P1  7948  0.98
      P1  H 10752 10763       L1    18  0.32

> <Gold.Chemscore.Hbond.Weighted>
-8.0769

> <Gold.Chemscore.Metal.Weighted>
-0.0000

> <Gold.Chemscore.Lipo.Weighted>
-6.7045

> <Gold.Chemscore.Internal_Hbond.Weighted>
0.0000

> <Gold.Chemscore.DEClash.Weighted>
0.2540

> <Gold.Chemscore.DEInternal.Weighted>
2.0494

> <Gold.Chemscore.Rot.Weighted>
4.8074

> <Gold.Chemscore.Internal.Correction.Weighted>
   9.000000E+99

> <Gold.Protein.RotatedTorsions>
[ 6907 6896 6895 6894 ] final  157.41 input  -60.11 | X-H torsion
[ 7974 7965 7964 7962 ] final  -99.56 input  175.53 | X-H torsion
[ 8008 7997 7996 7995 ] final -146.58 input   59.86 | X-H torsion
[ 10167 10162 10161 10158 ] final   -8.71 input  -65.29 | X-H torsion
[ 10718 10713 10712 10709 ] final   31.24 input   66.30 | X-H torsion
[ 10763 10752 10751 10750 ] final   85.88 input  -60.55 | X-H torsion
[ 11005 11000 10999 10996 ] final   -9.51 input  -57.11 | X-H torsion

> <Gold.Protein.ActiveResidues>
 VAL166  LYS551  ARG553  GLY616  TRP617  ASP618  TYR619  PRO620  LYS621  CYS622 
 ASP623  PHE694  ASN695  SER759  ASP760  ASP761  ALA762  ILE779  LEU786  VAL792 
 PHE793  MET794  SER795  GLU796  ALA797  LYS798  CYS799  TRP800  GLU811  SER814 

> <Gold.Protein.RotatedAtoms>
  152.0155  133.3878  159.4236 H   0  0  0  0  0  0  0  0  0  0  0  0  # atno 6907 bound_to 6896
  150.6895  134.3683  159.4990 H   0  0  0  0  0  0  0  0  0  0  0  0  # atno 6908 bound_to 6896
  152.1450  134.9033  160.0602 H   0  0  0  0  0  0  0  0  0  0  0  0  # atno 6909 bound_to 6896
  145.3060  140.9389  143.2797 H   0  0  0  0  0  0  0  0  0  0  0  0  # atno 7974 bound_to 7965
  155.5617  140.0626  157.2827 H   0  0  0  0  0  0  0  0  0  0  0  0  # atno 8008 bound_to 7997
  154.4388  140.1884  156.0835 H   0  0  0  0  0  0  0  0  0  0  0  0  # atno 8009 bound_to 7997
  156.0442  140.3292  155.7281 H   0  0  0  0  0  0  0  0  0  0  0  0  # atno 8010 bound_to 7997
  140.7067  143.5939  150.8866 H   0  0  0  0  0  0  0  0  0  0  0  0  # atno 10167 bound_to 10162
  157.2700  130.7203  149.6499 H   0  0  0  0  0  0  0  0  0  0  0  0  # atno 10718 bound_to 10713
  153.1517  135.4601  154.9645 H   0  0  0  0  0  0  0  0  0  0  0  0  # atno 10763 bound_to 10752
  154.7829  135.3194  154.7952 H   0  0  0  0  0  0  0  0  0  0  0  0  # atno 10764 bound_to 10752
  153.8456  135.6926  153.4852 H   0  0  0  0  0  0  0  0  0  0  0  0  # atno 10765 bound_to 10752
  140.7349  133.8718  155.8922 H   0  0  0  0  0  0  0  0  0  0  0  0  # atno 11005 bound_to 11000
  144.9055  139.4595  143.6612 LP  0  0  0  0  0  0  0  0  0  0  0  0  # atno 17320 bound_to 7965
  146.3135  139.7833  142.9001 LP  0  0  0  0  0  0  0  0  0  0  0  0  # atno 17321 bound_to 7965
  139.9664  143.6106  152.2987 LP  0  0  0  0  0  0  0  0  0  0  0  0  # atno 17342 bound_to 10162
  139.6677  144.7662  151.1842 LP  0  0  0  0  0  0  0  0  0  0  0  0  # atno 17343 bound_to 10162
  155.9663  130.4371  150.5160 LP  0  0  0  0  0  0  0  0  0  0  0  0  # atno 17370 bound_to 10713
  157.3082  131.0658  151.2020 LP  0  0  0  0  0  0  0  0  0  0  0  0  # atno 17371 bound_to 10713
  140.9888  134.1306  157.4427 LP  0  0  0  0  0  0  0  0  0  0  0  0  # atno 17394 bound_to 11000
  139.8818  135.0034  156.6184 LP  0  0  0  0  0  0  0  0  0  0  0  0  # atno 17395 bound_to 11000

$$$$
