#       Name:                AV-unprocessed.smi:67
#       Creating user name   scv26
#       Creation time:       Thu Mar 26 16:52:52 2020


#       File generated by GOLD software.
#

@<TRIPOS>MOLECULE
AV-unprocessed.smi:67
    53    55     1
SMALL
NO_CHARGES


@<TRIPOS>ATOM
      1 ****        -3.9803  -0.1028  -1.5196 O.3            1 S1                 0.0000
      2 ****        -3.7420   0.0770  -0.1347 C.3            1 S1                 0.0000
      3 ****        -2.8507  -1.0795   0.3851 C.3            1 S1                 0.0000
      4 ****        -1.4008  -0.9111   0.2363 N.3            1 S1                 0.0000
      5 ****        -0.9646  -0.9656  -1.1637 C.3            1 S1                 0.0000
      6 ****         0.5431  -0.7135  -1.3335 C.3            1 S1                 0.0000
      7 ****         1.3534  -1.6855  -0.4513 C.3            1 S1                 0.0000
      8 ****         2.7735  -1.5827  -0.5865 O.3            1 S1                 0.0000
      9 ****         3.4934  -0.4649  -0.2100 C.ar           1 S1                 0.0000
     10 ****         2.9614   0.7090   0.3797 C.ar           1 S1                 0.0000
     11 ****         3.8039   1.7862   0.7144 C.ar           1 S1                 0.0000
     12 ****         5.1867   1.7091   0.4703 C.ar           1 S1                 0.0000
     13 ****         5.7363   0.5470  -0.1096 C.ar           1 S1                 0.0000
     14 ****         7.2280   0.4363  -0.3875 C.3            1 S1                 0.0000
     15 ****         7.6915  -0.7225   0.0811 F              1 S1                 0.0000
     16 ****         7.4359   0.4812  -1.7029 F              1 S1                 0.0000
     17 ****         7.9142   1.4254   0.1863 F              1 S1                 0.0000
     18 ****         4.8830  -0.5248  -0.4461 C.ar           1 S1                 0.0000
     19 ****         0.8372  -1.7394   1.0013 C.3            1 S1                 0.0000
     20 ****        -0.6885  -1.9306   1.0115 C.3            1 S1                 0.0000
     21 ****        -3.2056   1.4863   0.1405 C.3            1 S1                 0.0000
     22 ****        -4.4486   2.3784   0.1014 C.3            1 S1                 0.0000
     23 ****        -5.5913   1.5161   0.4601 N.4            1 S1                 1.0000
     24 ****        -5.1206   0.1191   0.5450 C.3            1 S1                 0.0000
     25 ****        -3.1489  -0.1020  -1.9698 H              1 S1                 0.0000
     26 ****        -3.0555  -1.1806   1.4515 H              1 S1                 0.0000
     27 ****        -3.1678  -2.0257  -0.0565 H              1 S1                 0.0000
     28 ****        -1.2244  -1.9341  -1.5938 H              1 S1                 0.0000
     29 ****        -1.4884  -0.2149  -1.7523 H              1 S1                 0.0000
     30 ****         0.8224  -0.8462  -2.3790 H              1 S1                 0.0000
     31 ****         0.7487   0.3278  -1.0999 H              1 S1                 0.0000
     32 ****         1.1472  -2.6758  -0.8600 H              1 S1                 0.0000
     33 ****         1.9123   0.8247   0.5896 H              1 S1                 0.0000
     34 ****         3.3862   2.6770   1.1600 H              1 S1                 0.0000
     35 ****         5.8165   2.5469   0.7305 H              1 S1                 0.0000
     36 ****         5.3029  -1.4122  -0.8970 H              1 S1                 0.0000
     37 ****         1.3142  -2.5645   1.5307 H              1 S1                 0.0000
     38 ****         1.0812  -0.8424   1.5644 H              1 S1                 0.0000
     39 ****        -1.0305  -1.9135   2.0469 H              1 S1                 0.0000
     40 ****        -0.9322  -2.9220   0.6261 H              1 S1                 0.0000
     41 ****        -2.7696   1.5250   1.1399 H              1 S1                 0.0000
     42 ****        -2.4367   1.8026  -0.5653 H              1 S1                 0.0000
     43 ****        -4.3664   3.2324   0.7742 H              1 S1                 0.0000
     44 ****        -4.6090   2.7591  -0.9080 H              1 S1                 0.0000
     45 ****        -5.9847   1.7990   1.3462 H              1 S1                 0.0000
     46 ****        -5.8400  -0.5776   0.1123 H              1 S1                 0.0000
     47 ****        -5.0313  -0.1223   1.6049 H              1 S1                 0.0000
     48 ****        -6.2929   1.5912  -0.2628 H              1 S1                 0.0000
     49 ****        -4.5507   0.6432  -1.8633 LP             1 S1                 0.0000
     50 ****        -4.4453  -0.9750  -1.6714 LP             1 S1                 0.0000
     51 ****        -1.1806   0.0001   0.5843 LP             1 S1                 0.0000
     52 ****         2.9667  -1.7185  -1.5582 LP             1 S1                 0.0000
     53 ****         3.1545  -2.3436  -0.0613 LP             1 S1                 0.0000
@<TRIPOS>BOND
    1    1    2 1     
    2    1   25 1     
    3    2   24 1     
    4    2    3 1     
    5    2   21 1     
    6    3    4 1     
    7    3   26 1     
    8    3   27 1     
    9    4   20 1     
   10    4    5 1     
   11    5    6 1     
   12    5   28 1     
   13    5   29 1     
   14    6    7 1     
   15    6   30 1     
   16    6   31 1     
   17    7    8 1     
   18    7   19 1     
   19    7   32 1     
   20    8    9 1     
   21    9   18 ar    
   22    9   10 ar    
   23   10   11 ar    
   24   10   33 1     
   25   11   12 ar    
   26   11   34 1     
   27   12   13 ar    
   28   12   35 1     
   29   13   14 1     
   30   13   18 ar    
   31   14   15 1     
   32   14   16 1     
   33   14   17 1     
   34   18   36 1     
   35   19   20 1     
   36   19   37 1     
   37   19   38 1     
   38   20   39 1     
   39   20   40 1     
   40   21   22 1     
   41   21   41 1     
   42   21   42 1     
   43   22   23 1     
   44   22   43 1     
   45   22   44 1     
   46   23   24 1     
   47   23   45 1     
   48   23   48 1     
   49   24   46 1     
   50   24   47 1     
   51    1   49 1     
   52    1   50 1     
   53    4   51 1     
   54    8   52 1     
   55    8   53 1     
@<TRIPOS>SUBSTRUCTURE
      1 S1             1
@<TRIPOS>SET
LONE_PAIRS      STATIC     ATOMS    <user>   **** ""
5 49 50 51 52 53
DONOR_HYDROGENS      STATIC     ATOMS    <user>   **** ""
3 25 45 48
ATOM$BLUE        STATIC     ATOMS    COLORGROUP SYSTEM
5 49 50 51 52 53
ATOM$RED        STATIC     ATOMS    COLORGROUP SYSTEM
3 25 45 48
