AV-unprocessed.smi:2735|AV-procd|sdf|10543|dock7
  -GOLD-   2272014593D 1   1.00000     0.00000
 Structure written by MMmdl.
 42 42  0  0  0  0  0  0  0  0  2 V2000
  147.5844  136.7398  163.6645 C   0  0  0  0  0  0  0  0  0  0  0  0
  147.5586  136.2264  162.2553 C   0  0  0  0  0  0  0  0  0  0  0  0
  147.4495  134.8810  161.8084 C   0  0  0  0  0  0  0  0  0  0  0  0
  147.4616  134.9756  160.4455 C   0  0  0  0  0  0  0  0  0  0  0  0
  147.3527  133.9007  159.4136 C   0  0  0  0  0  0  0  0  0  0  0  0
  147.5895  136.3198  160.1320 N   0  0  0  0  0  0  0  0  0  0  0  0
  147.5879  136.9625  158.8164 C   0  0  2  0  0  0  0  0  0  0  0  0
  146.5034  136.3767  157.8880 C   0  0  0  0  0  0  0  0  0  0  0  0
  148.9980  136.9173  158.2017 C   0  0  0  0  0  0  0  0  0  0  0  0
  149.8883  136.2294  158.7030 O   0  0  0  0  0  0  0  0  0  0  0  0
  149.1819  137.6756  157.1098 N   0  0  0  0  0  0  0  0  0  0  0  0
  150.4373  137.8578  156.3866 C   0  0  2  0  0  0  0  0  0  0  0  0
  150.1882  138.8177  155.1977 C   0  0  0  0  0  0  0  0  0  0  0  0
  149.8648  140.2807  155.5856 C   0  0  0  0  0  0  0  0  0  0  0  0
  149.2128  141.0195  154.4073 C   0  0  0  0  0  0  0  0  0  0  0  0
  151.0992  141.0482  156.0873 C   0  0  0  0  0  0  0  0  0  0  0  0
  150.9134  136.5068  155.8291 C   0  0  0  0  0  0  0  0  0  0  0  0
  150.1632  135.9390  155.0058 O   0  0  0  0  0  0  0  0  0  0  0  0
  152.0098  136.0589  156.2363 O   0  5  0  0  0  0  0  0  0  0  0  0
  147.6381  137.0811  161.2504 N   0  0  0  0  0  0  0  0  0  0  0  0
  151.2057  138.2661  157.0451 H   0  0  0  0  0  0  0  0  0  0  0  0
  147.3338  135.9521  164.3754 H   0  0  0  0  0  0  0  0  0  0  0  0
  146.8670  137.5494  163.8020 H   0  0  0  0  0  0  0  0  0  0  0  0
  148.5725  137.1204  163.9244 H   0  0  0  0  0  0  0  0  0  0  0  0
  147.3637  133.9817  162.4001 H   0  0  0  0  0  0  0  0  0  0  0  0
  147.2497  132.9214  159.8810 H   0  0  0  0  0  0  0  0  0  0  0  0
  148.2402  133.8769  158.7812 H   0  0  0  0  0  0  0  0  0  0  0  0
  146.4833  134.0580  158.7756 H   0  0  0  0  0  0  0  0  0  0  0  0
  147.3454  138.0156  158.9595 H   0  0  0  0  0  0  0  0  0  0  0  0
  146.4564  136.9227  156.9450 H   0  0  0  0  0  0  0  0  0  0  0  0
  145.5188  136.4431  158.3513 H   0  0  0  0  0  0  0  0  0  0  0  0
  146.6881  135.3275  157.6531 H   0  0  0  0  0  0  0  0  0  0  0  0
  148.3882  138.1897  156.7576 H   0  0  0  0  0  0  0  0  0  0  0  0
  151.0630  138.8107  154.5452 H   0  0  0  0  0  0  0  0  0  0  0  0
  149.3640  138.4365  154.5917 H   0  0  0  0  0  0  0  0  0  0  0  0
  149.1320  140.2734  156.3933 H   0  0  0  0  0  0  0  0  0  0  0  0
  149.8893  141.0793  153.5541 H   0  0  0  0  0  0  0  0  0  0  0  0
  148.9355  142.0368  154.6852 H   0  0  0  0  0  0  0  0  0  0  0  0
  148.3056  140.5117  154.0784 H   0  0  0  0  0  0  0  0  0  0  0  0
  151.8962  141.0481  155.3433 H   0  0  0  0  0  0  0  0  0  0  0  0
  151.4957  140.6123  157.0043 H   0  0  0  0  0  0  0  0  0  0  0  0
  150.8508  142.0862  156.3098 H   0  0  0  0  0  0  0  0  0  0  0  0
  1  2  1  0  0  0  0
  1 22  1  0  0  0  0
  1 23  1  0  0  0  0
  1 24  1  0  0  0  0
  2 20  2  0  0  0  0
  2  3  1  0  0  0  0
  3  4  2  0  0  0  0
  3 25  1  0  0  0  0
  4  5  1  0  0  0  0
  4  6  1  0  0  0  0
  5 26  1  0  0  0  0
  5 27  1  0  0  0  0
  5 28  1  0  0  0  0
  6  7  1  0  0  0  0
  6 20  1  0  0  0  0
  7  8  1  0  0  0  0
  7  9  1  0  0  0  0
  7 29  1  0  0  0  0
  8 30  1  0  0  0  0
  8 31  1  0  0  0  0
  8 32  1  0  0  0  0
  9 10  2  0  0  0  0
  9 11  1  0  0  0  0
 11 12  1  0  0  0  0
 11 33  1  0  0  0  0
 12 21  1  0  0  0  0
 12 13  1  0  0  0  0
 12 17  1  0  0  0  0
 13 14  1  0  0  0  0
 13 34  1  0  0  0  0
 13 35  1  0  0  0  0
 14 15  1  0  0  0  0
 14 16  1  0  0  0  0
 14 36  1  0  0  0  0
 15 37  1  0  0  0  0
 15 38  1  0  0  0  0
 15 39  1  0  0  0  0
 16 40  1  0  0  0  0
 16 41  1  0  0  0  0
 16 42  1  0  0  0  0
 17 18  2  0  0  0  0
 17 19  1  0  0  0  0
M  CHG  1  19  -1
M  END
> <s_m_source_file>
AV-unprocessed.smi

> <i_m_source_file_index>
2735

> <i_lp_mmshare_version>
43012

> <i_f3d_flags>
0

> <s_epik_input>
W0NIM11jMVtjSF1jKFtDSDNdKW4objEpW0NASF0oW0NIM10pQyg9TylbTkhdW0NASF0oQyg9TylbT0hdKVtDSDJdW0NIXShbQ0gzXSlbQ0gzXQ==

> <s_epik_cmdline>
J2VwaWtfcHl0aG9uJywgJy1waCcsICc3LjAnLCAnLXRuJywgJzgnLCAnLW1hJywgJzIwMCcsICctbWV0YWxfYmluZGluZycsICctaW1hZScsICc8aW5maWxlLm1hZT4nLCAnLW9tYWUnLCAnPG91dGZpbGUubWFlPic=

> <r_lp_tautomer_probability>
1

> <r_epik_Ionization_Penalty>
0.0012303

> <r_epik_Ionization_Penalty_Charging>
0.000186407

> <r_epik_Ionization_Penalty_Neutral>
0.0010439

> <r_epik_State_Penalty>
-0

> <r_epik_Charging_Adjusted_Penalty>
0.000186407

> <i_epik_Tot_Q>
-1

> <i_epik_Tot_abs_Q>
1

> <r_epik_Metal_State_Penalty>
-0

> <b_epik_Metal_Only>
0

> <s_lp_Force_Field>
OPLS_2005

> <r_lp_Energy>
6.45659

> <b_lp_Chiralities_Consistent>
1

> <s_lp_Variant>
AV-unprocessed.smi:2735-3

> <Gold.Version>
5.8.1

> <Gold.Id.Protein>
6NUR|6NUR_protein|mol2

> <Gold.PLP.Fitness>
44.3582

> <Gold.PLP.PLP>
-31.2821

> <Gold.PLP.part.hbond>
-4.0000

> <Gold.PLP.part.metal>
0.0000

> <Gold.PLP.part.buried>
-4.7719

> <Gold.PLP.part.nonpolar>
-23.0518

> <Gold.PLP.part.repulsive>
0.1660

> <Gold.PLP.ligand.clash>
0.0000

> <Gold.PLP.ligand.torsion>
0.8104

> <Gold.PLP.Chemscore.Hbond>
4.8320

> <Gold.PLP.Chemscore.CHOScore>
0.0000

> <Gold.PLP.Chemscore.Metal>
0.0000

> <Gold.Chemscore.Hbonds>
donor molecule, donor type, donor heavy atom, donor atom, acceptor molecule, acceptor atom, score
      P1  H  6896  6908       L1    10  1.00
      P1  H  6931  6943       L1    20  0.99
      P1  H  6934  6947       L1    20  0.88
      P1  H 10752 10763       L1    19  2.00

> <Gold.PLP.Chemscore.Internal.Correction>
0.2008

> <Gold.Rescore>
     Score         DG    S(hbond)    S(metal)    S(lipo)     H(rot)  DE(clash)    DE(int)     intcor
     15.37     -17.74       2.88        0.00      71.42       2.24       0.60       1.76       ----

> <Gold.Chemscore.Fitness>
15.3700

> <Gold.Chemscore.DG>
-17.7376

> <Gold.Chemscore.ZeroCoef>
-5.4800

> <Gold.Chemscore.Hbond>
2.8842

> <Gold.Chemscore.Metal>
0.0000

> <Gold.Chemscore.Lipo>
71.4150

> <Gold.Chemscore.Internal_Hbond>
0.0000

> <Gold.Chemscore.DEClash>
0.6037

> <Gold.Chemscore.DEInternal>
1.7639

> <Gold.Chemscore.Rot>
2.2388

> <Gold.Chemscore.Internal.Correction>
   9.000000E+99

> <Gold.Chemscore.Hbonds>
donor molecule, donor type, donor heavy atom, donor atom, acceptor molecule, acceptor atom, score
      P1  H  6896  6908       L1    10  0.99
      P1  H  6931  6943       L1    20  0.24
      P1  H  6934  6947       L1    20  0.72
      P1  H 10752 10763       L1    19  0.78

> <Gold.Chemscore.Hbond.Weighted>
-9.6334

> <Gold.Chemscore.Metal.Weighted>
-0.0000

> <Gold.Chemscore.Lipo.Weighted>
-8.3556

> <Gold.Chemscore.Internal_Hbond.Weighted>
0.0000

> <Gold.Chemscore.DEClash.Weighted>
0.6037

> <Gold.Chemscore.DEInternal.Weighted>
1.7639

> <Gold.Chemscore.Rot.Weighted>
5.7314

> <Gold.Chemscore.Internal.Correction.Weighted>
   9.000000E+99

> <Gold.Protein.RotatedTorsions>
[ 6907 6896 6895 6894 ] final -165.19 input  -60.11 | X-H torsion
[ 7974 7965 7964 7962 ] final  -25.37 input  175.53 | X-H torsion
[ 8008 7997 7996 7995 ] final  106.17 input   59.86 | X-H torsion
[ 10167 10162 10161 10158 ] final    8.93 input  -65.29 | X-H torsion
[ 10718 10713 10712 10709 ] final   -8.45 input   66.30 | X-H torsion
[ 10763 10752 10751 10750 ] final   75.22 input  -60.55 | X-H torsion
[ 11005 11000 10999 10996 ] final -112.63 input  -57.11 | X-H torsion

> <Gold.Protein.ActiveResidues>
 VAL166  LYS551  ARG553  GLY616  TRP617  ASP618  TYR619  PRO620  LYS621  CYS622 
 ASP623  PHE694  ASN695  SER759  ASP760  ASP761  ALA762  ILE779  LEU786  VAL792 
 PHE793  MET794  SER795  GLU796  ALA797  LYS798  CYS799  TRP800  GLU811  SER814 

> <Gold.Protein.RotatedAtoms>
  151.4238  133.3690  159.2759 H   0  0  0  0  0  0  0  0  0  0  0  0  # atno 6907 bound_to 6896
  150.9274  134.8692  159.7539 H   0  0  0  0  0  0  0  0  0  0  0  0  # atno 6908 bound_to 6896
  152.5012  134.4180  159.9523 H   0  0  0  0  0  0  0  0  0  0  0  0  # atno 6909 bound_to 6896
  146.1495  140.4877  142.8617 H   0  0  0  0  0  0  0  0  0  0  0  0  # atno 7974 bound_to 7965
  156.1720  140.3117  155.8992 H   0  0  0  0  0  0  0  0  0  0  0  0  # atno 8008 bound_to 7997
  155.3566  140.0474  157.3063 H   0  0  0  0  0  0  0  0  0  0  0  0  # atno 8009 bound_to 7997
  154.5251  140.2211  155.8915 H   0  0  0  0  0  0  0  0  0  0  0  0  # atno 8010 bound_to 7997
  140.6285  143.8047  150.7264 H   0  0  0  0  0  0  0  0  0  0  0  0  # atno 10167 bound_to 10162
  156.7024  130.5097  149.5913 H   0  0  0  0  0  0  0  0  0  0  0  0  # atno 10718 bound_to 10713
  153.0640  135.4996  154.8158 H   0  0  0  0  0  0  0  0  0  0  0  0  # atno 10763 bound_to 10752
  154.6926  135.2987  154.9460 H   0  0  0  0  0  0  0  0  0  0  0  0  # atno 10764 bound_to 10752
  154.0210  135.6742  153.4825 H   0  0  0  0  0  0  0  0  0  0  0  0  # atno 10765 bound_to 10752
  141.0663  133.9453  157.2572 H   0  0  0  0  0  0  0  0  0  0  0  0  # atno 11005 bound_to 11000
  144.7887  140.5989  143.6556 LP  0  0  0  0  0  0  0  0  0  0  0  0  # atno 17320 bound_to 7965
  145.4856  139.1492  143.3738 LP  0  0  0  0  0  0  0  0  0  0  0  0  # atno 17321 bound_to 7965
  140.1653  143.4241  152.2039 LP  0  0  0  0  0  0  0  0  0  0  0  0  # atno 17342 bound_to 10162
  139.5502  144.7331  151.4458 LP  0  0  0  0  0  0  0  0  0  0  0  0  # atno 17343 bound_to 10162
  156.1719  130.6443  151.0848 LP  0  0  0  0  0  0  0  0  0  0  0  0  # atno 17370 bound_to 10713
  157.6968  131.0791  150.6944 LP  0  0  0  0  0  0  0  0  0  0  0  0  # atno 17371 bound_to 10713
  139.9480  135.0181  156.8909 LP  0  0  0  0  0  0  0  0  0  0  0  0  # atno 17394 bound_to 11000
  140.5766  134.0392  155.7449 LP  0  0  0  0  0  0  0  0  0  0  0  0  # atno 17395 bound_to 11000

$$$$
