AV-unprocessed.smi:2061|AV-procd|sdf|8368|dock1
  -GOLD-   2272011 43D 1   1.00000     0.00000
 Structure written by MMmdl.
 46 47  0  0  0  0  0  0  0  0  2 V2000
  151.0530  142.2359  156.8078 C   0  0  0  0  0  0  0  0  0  0  0  0
  150.6214  141.1915  155.8364 C   0  0  0  0  0  0  0  0  0  0  0  0
  149.4148  140.8883  155.2718 C   0  0  0  0  0  0  0  0  0  0  0  0
  149.7233  139.7731  154.4391 C   0  0  0  0  0  0  0  0  0  0  0  0
  148.8134  139.0615  153.6152 N   0  0  0  0  0  0  0  0  0  0  0  0
  147.5948  138.5908  153.9297 C   0  0  0  0  0  0  0  0  0  0  0  0
  147.0414  138.7151  155.0221 O   0  0  0  0  0  0  0  0  0  0  0  0
  147.0365  137.9565  152.8877 N   0  0  0  0  0  0  0  0  0  0  0  0
  145.7396  137.2826  152.9000 C   0  0  0  0  0  0  0  0  0  0  0  0
  145.5283  136.3182  151.6980 C   0  0  2  0  0  0  0  0  0  0  0  0
  144.0188  136.1459  151.3954 C   0  0  0  0  0  0  0  0  0  0  0  0
  146.2044  134.9919  151.9096 N   0  3  1  0  0  0  0  0  0  0  0  0
  146.1967  134.5377  153.3293 C   0  0  0  0  0  0  0  0  0  0  0  0
  146.9235  133.1920  153.5188 C   0  0  2  0  0  0  0  0  0  0  0  0
  148.4570  133.2991  153.4267 C   0  0  0  0  0  0  0  0  0  0  0  0
  146.3900  132.2151  152.6318 O   0  0  0  0  0  0  0  0  0  0  0  0
  146.4485  132.5817  151.2600 C   0  0  1  0  0  0  0  0  0  0  0  0
  145.8493  131.4307  150.4445 C   0  0  0  0  0  0  0  0  0  0  0  0
  145.6849  133.9000  151.0397 C   0  0  0  0  0  0  0  0  0  0  0  0
  150.9989  139.4364  154.4918 N   0  0  0  0  0  0  0  0  0  0  0  0
  151.5824  140.3397  155.3877 O   0  0  0  0  0  0  0  0  0  0  0  0
  150.2500  142.9487  156.9961 H   0  0  0  0  0  0  0  0  0  0  0  0
  151.9119  142.7882  156.4260 H   0  0  0  0  0  0  0  0  0  0  0  0
  151.3353  141.7852  157.7594 H   0  0  0  0  0  0  0  0  0  0  0  0
  148.4754  141.3932  155.4392 H   0  0  0  0  0  0  0  0  0  0  0  0
  149.1396  138.8740  152.6786 H   0  0  0  0  0  0  0  0  0  0  0  0
  147.5631  137.9088  152.0273 H   0  0  0  0  0  0  0  0  0  0  0  0
  145.7356  136.7370  153.8417 H   0  0  0  0  0  0  0  0  0  0  0  0
  144.9211  138.0024  152.9563 H   0  0  0  0  0  0  0  0  0  0  0  0
  145.9873  136.7814  150.8229 H   0  0  0  0  0  0  0  0  0  0  0  0
  143.5103  137.1023  151.2856 H   0  0  0  0  0  0  0  0  0  0  0  0
  143.5150  135.5958  152.1910 H   0  0  0  0  0  0  0  0  0  0  0  0
  143.8359  135.6298  150.4547 H   0  0  0  0  0  0  0  0  0  0  0  0
  146.6781  135.2597  153.9855 H   0  0  0  0  0  0  0  0  0  0  0  0
  145.1621  134.4441  153.6636 H   0  0  0  0  0  0  0  0  0  0  0  0
  146.6970  132.8348  154.5239 H   0  0  0  0  0  0  0  0  0  0  0  0
  148.8470  133.9399  154.2179 H   0  0  0  0  0  0  0  0  0  0  0  0
  148.7886  133.7213  152.4784 H   0  0  0  0  0  0  0  0  0  0  0  0
  148.9222  132.3195  153.5393 H   0  0  0  0  0  0  0  0  0  0  0  0
  147.4870  132.7046  150.9523 H   0  0  0  0  0  0  0  0  0  0  0  0
  145.8733  131.6500  149.3766 H   0  0  0  0  0  0  0  0  0  0  0  0
  144.8117  131.2459  150.7251 H   0  0  0  0  0  0  0  0  0  0  0  0
  146.4070  130.5079  150.6059 H   0  0  0  0  0  0  0  0  0  0  0  0
  144.6192  133.7605  151.2293 H   0  0  0  0  0  0  0  0  0  0  0  0
  145.7983  134.1506  149.9871 H   0  0  0  0  0  0  0  0  0  0  0  0
  147.1734  135.1213  151.6552 H   0  0  0  0  0  0  0  0  0  0  0  0
  1  2  1  0  0  0  0
  1 22  1  0  0  0  0
  1 23  1  0  0  0  0
  1 24  1  0  0  0  0
  2 21  1  0  0  0  0
  2  3  2  0  0  0  0
  3  4  1  0  0  0  0
  3 25  1  0  0  0  0
  4  5  1  0  0  0  0
  4 20  2  0  0  0  0
  5  6  1  0  0  0  0
  5 26  1  0  0  0  0
  6  7  2  0  0  0  0
  6  8  1  0  0  0  0
  8  9  1  0  0  0  0
  8 27  1  0  0  0  0
  9 10  1  0  0  0  0
  9 28  1  0  0  0  0
  9 29  1  0  0  0  0
 10 11  1  0  0  0  0
 10 12  1  0  0  0  0
 10 30  1  0  0  0  0
 11 31  1  0  0  0  0
 11 32  1  0  0  0  0
 11 33  1  0  0  0  0
 12 19  1  0  0  0  0
 12 13  1  0  0  0  0
 12 46  1  0  0  0  0
 13 14  1  0  0  0  0
 13 34  1  0  0  0  0
 13 35  1  0  0  0  0
 14 15  1  0  0  0  0
 14 16  1  0  0  0  0
 14 36  1  0  0  0  0
 15 37  1  0  0  0  0
 15 38  1  0  0  0  0
 15 39  1  0  0  0  0
 16 17  1  0  0  0  0
 17 18  1  0  0  0  0
 17 19  1  0  0  0  0
 17 40  1  0  0  0  0
 18 41  1  0  0  0  0
 18 42  1  0  0  0  0
 18 43  1  0  0  0  0
 19 44  1  0  0  0  0
 19 45  1  0  0  0  0
 20 21  1  0  0  0  0
M  CHG  1  12   1
M  END
> <s_m_source_file>
AV-unprocessed.smi

> <i_m_source_file_index>
2061

> <i_lp_mmshare_version>
43012

> <i_f3d_flags>
0

> <s_epik_input>
W0NIM11jMVtjSF1jKG5vMSlbTkhdQyg9TylbTkhdW0NIMl1bQ0BIXShbQ0gzXSlOMltDSDJdW0NAQEhdKFtDSDNdKU9bQ0BASF0oW0NIM10pW0NIMl0y

> <s_epik_cmdline>
J2VwaWtfcHl0aG9uJywgJy1waCcsICc3LjAnLCAnLXRuJywgJzgnLCAnLW1hJywgJzIwMCcsICctbWV0YWxfYmluZGluZycsICctaW1hZScsICc8aW5maWxlLm1hZT4nLCAnLW9tYWUnLCAnPG91dGZpbGUubWFlPic=

> <r_epik_Ionization_Penalty>
0.707076

> <r_epik_Ionization_Penalty_Charging>
0.707039

> <r_epik_Ionization_Penalty_Neutral>
3.6548e-05

> <r_epik_State_Penalty>
0.730276

> <r_epik_Charging_Adjusted_Penalty>
1.43732

> <i_epik_Tot_Q>
1

> <i_epik_Tot_abs_Q>
1

> <r_epik_Metal_State_Penalty>
0.743132

> <b_epik_Metal_Only>
0

> <s_lp_Force_Field>
OPLS_2005

> <r_lp_Energy>
23.7206

> <b_lp_Chiralities_Consistent>
1

> <s_lp_Variant>
AV-unprocessed.smi:2061-9

> <Gold.Version>
5.8.1

> <Gold.Id.Protein>
6NUR|6NUR_protein|mol2

> <Gold.PLP.Fitness>
40.1590

> <Gold.PLP.PLP>
-33.9587

> <Gold.PLP.part.hbond>
-5.0000

> <Gold.PLP.part.metal>
0.0000

> <Gold.PLP.part.buried>
-1.3597

> <Gold.PLP.part.nonpolar>
-26.9442

> <Gold.PLP.part.repulsive>
0.4746

> <Gold.PLP.ligand.clash>
0.0000

> <Gold.PLP.ligand.torsion>
1.2948

> <Gold.PLP.Chemscore.Hbond>
2.9016

> <Gold.PLP.Chemscore.CHOScore>
0.0000

> <Gold.PLP.Chemscore.Metal>
0.0000

> <Gold.Chemscore.Hbonds>
donor molecule, donor type, donor heavy atom, donor atom, acceptor molecule, acceptor atom, score
      L1  H     5    26       P1  7957  0.69
      L1  H     8    27       P1  7948  0.23
      L1  H    12    46       P1  7948  1.85

> <Gold.PLP.Chemscore.Internal.Correction>
0.0850

> <Gold.Rescore>
     Score         DG    S(hbond)    S(metal)    S(lipo)     H(rot)  DE(clash)    DE(int)     intcor
     14.47     -16.46       1.89        0.00      74.55       1.58       0.54       1.45       ----

> <Gold.Chemscore.Fitness>
14.4666

> <Gold.Chemscore.DG>
-16.4641

> <Gold.Chemscore.ZeroCoef>
-5.4800

> <Gold.Chemscore.Hbond>
1.8907

> <Gold.Chemscore.Metal>
0.0000

> <Gold.Chemscore.Lipo>
74.5534

> <Gold.Chemscore.Internal_Hbond>
0.0000

> <Gold.Chemscore.DEClash>
0.5432

> <Gold.Chemscore.DEInternal>
1.4543

> <Gold.Chemscore.Rot>
1.5834

> <Gold.Chemscore.Internal.Correction>
   9.000000E+99

> <Gold.Chemscore.Hbonds>
donor molecule, donor type, donor heavy atom, donor atom, acceptor molecule, acceptor atom, score
      L1  H     5    26       P1  7957  0.66
      L1  H     8    27       P1  7948  0.23
      L1  H    12    46       P1  7948  0.78

> <Gold.Chemscore.Hbond.Weighted>
-6.3148

> <Gold.Chemscore.Metal.Weighted>
-0.0000

> <Gold.Chemscore.Lipo.Weighted>
-8.7228

> <Gold.Chemscore.Internal_Hbond.Weighted>
0.0000

> <Gold.Chemscore.DEClash.Weighted>
0.5432

> <Gold.Chemscore.DEInternal.Weighted>
1.4543

> <Gold.Chemscore.Rot.Weighted>
4.0535

> <Gold.Chemscore.Internal.Correction.Weighted>
   9.000000E+99

> <Gold.Protein.RotatedTorsions>
[ 6907 6896 6895 6894 ] final  -29.87 input  -60.11 | X-H torsion
[ 7974 7965 7964 7962 ] final  160.18 input  175.53 | X-H torsion
[ 8008 7997 7996 7995 ] final   80.42 input   59.86 | X-H torsion
[ 10167 10162 10161 10158 ] final  118.52 input  -65.29 | X-H torsion
[ 10718 10713 10712 10709 ] final   27.13 input   66.30 | X-H torsion
[ 10763 10752 10751 10750 ] final  177.33 input  -60.55 | X-H torsion
[ 11005 11000 10999 10996 ] final   15.36 input  -57.11 | X-H torsion

> <Gold.Protein.ActiveResidues>
 VAL166  LYS551  ARG553  GLY616  TRP617  ASP618  TYR619  PRO620  LYS621  CYS622 
 ASP623  PHE694  ASN695  SER759  ASP760  ASP761  ALA762  ILE779  LEU786  VAL792 
 PHE793  MET794  SER795  GLU796  ALA797  LYS798  CYS799  TRP800  GLU811  SER814 

> <Gold.Protein.RotatedAtoms>
  151.1133  135.0039  159.8503 H   0  0  0  0  0  0  0  0  0  0  0  0  # atno 6907 bound_to 6896
  152.5444  134.1810  159.8645 H   0  0  0  0  0  0  0  0  0  0  0  0  # atno 6908 bound_to 6896
  151.1862  133.4650  159.2627 H   0  0  0  0  0  0  0  0  0  0  0  0  # atno 6909 bound_to 6896
  144.7750  139.7721  143.6282 H   0  0  0  0  0  0  0  0  0  0  0  0  # atno 7974 bound_to 7965
  155.8833  140.3443  155.5903 H   0  0  0  0  0  0  0  0  0  0  0  0  # atno 8008 bound_to 7997
  155.7695  140.0843  157.2134 H   0  0  0  0  0  0  0  0  0  0  0  0  # atno 8009 bound_to 7997
  154.4026  140.1521  156.2913 H   0  0  0  0  0  0  0  0  0  0  0  0  # atno 8010 bound_to 7997
  139.6106  144.7081  151.2853 H   0  0  0  0  0  0  0  0  0  0  0  0  # atno 10167 bound_to 10162
  157.2161  130.6957  149.6249 H   0  0  0  0  0  0  0  0  0  0  0  0  # atno 10718 bound_to 10713
  154.4930  135.2780  155.1481 H   0  0  0  0  0  0  0  0  0  0  0  0  # atno 10763 bound_to 10752
  154.3145  135.6222  153.5484 H   0  0  0  0  0  0  0  0  0  0  0  0  # atno 10764 bound_to 10752
  152.9891  135.5727  154.5356 H   0  0  0  0  0  0  0  0  0  0  0  0  # atno 10765 bound_to 10752
  140.4592  134.1145  155.7714 H   0  0  0  0  0  0  0  0  0  0  0  0  # atno 11005 bound_to 11000
  146.1924  139.5171  142.9796 LP  0  0  0  0  0  0  0  0  0  0  0  0  # atno 17320 bound_to 7965
  145.6211  141.0322  143.1914 LP  0  0  0  0  0  0  0  0  0  0  0  0  # atno 17321 bound_to 7965
  140.7316  143.6846  150.7972 LP  0  0  0  0  0  0  0  0  0  0  0  0  # atno 17342 bound_to 10162
  140.0440  143.5317  152.2704 LP  0  0  0  0  0  0  0  0  0  0  0  0  # atno 17343 bound_to 10162
  155.9686  130.4535  150.5814 LP  0  0  0  0  0  0  0  0  0  0  0  0  # atno 17370 bound_to 10713
  157.3623  131.0752  151.1626 LP  0  0  0  0  0  0  0  0  0  0  0  0  # atno 17371 bound_to 10713
  141.1629  133.8758  157.1797 LP  0  0  0  0  0  0  0  0  0  0  0  0  # atno 17394 bound_to 11000
  139.9956  135.0048  157.0075 LP  0  0  0  0  0  0  0  0  0  0  0  0  # atno 17395 bound_to 11000

$$$$
