#       Name:                AV-unprocessed.smi:48
#       Creating user name   scv26
#       Creation time:       Thu Mar 26 16:31:44 2020


#       File generated by GOLD software.
#

@<TRIPOS>MOLECULE
AV-unprocessed.smi:48
    41    43     1
SMALL
NO_CHARGES


@<TRIPOS>ATOM
      1 ****        -3.5866   1.5397  -1.8260 O.3            1 S1                 0.0000
      2 ****        -3.3360   0.1636  -1.6363 C.3            1 S1                 0.0000
      3 ****        -1.8676  -0.0512  -1.2407 C.3            1 S1                 0.0000
      4 ****        -1.7085   0.1631   0.1577 O.3            1 S1                 0.0000
      5 ****        -0.5458  -0.4697   0.6035 C.3            1 S1                 0.0000
      6 ****         0.5219   0.5694   0.7753 N.pl3          1 S1                 0.0000
      7 ****         0.5902   1.8207   0.2712 C.2            1 S1                 0.0000
      8 ****         1.6605   2.5504   0.5861 N.2            1 S1                 0.0000
      9 ****         2.3680   1.6717   1.3895 C.ar           1 S1                 0.0000
     10 ****         3.6033   1.7745   2.0739 C.ar           1 S1                 0.0000
     11 ****         4.5445   3.2189   1.9984 Cl             1 S1                 0.0000
     12 ****         4.0325   0.7089   2.7922 N.ar           1 S1                 0.0000
     13 ****         3.2829  -0.4000   2.8335 C.ar           1 S1                 0.0000
     14 ****         2.1063  -0.6427   2.2437 N.ar           1 S1                 0.0000
     15 ****         1.6774   0.4346   1.5224 C.ar           1 S1                 0.0000
     16 ****        -0.1758  -1.5378  -0.4543 C.3            1 S1                 0.0000
     17 ****         1.0314  -1.2654  -1.1512 O.3            1 S1                 0.0000
     18 ****        -1.3972  -1.4996  -1.3710 C.3            1 S1                 0.0000
     19 ****        -1.1162  -1.8720  -2.7075 O.3            1 S1                 0.0000
     20 ****        -1.2034   0.6072  -1.8040 H              1 S1                 0.0000
     21 ****        -0.6981  -0.8753   1.6043 H              1 S1                 0.0000
     22 ****        -0.0807  -2.5101   0.0301 H              1 S1                 0.0000
     23 ****        -2.1629  -2.1669  -0.9725 H              1 S1                 0.0000
     24 ****        -4.4902   1.6480  -2.0808 H              1 S1                 0.0000
     25 ****        -4.0141  -0.2476  -0.8881 H              1 S1                 0.0000
     26 ****        -3.5487  -0.3407  -2.5792 H              1 S1                 0.0000
     27 ****        -0.1872   2.2240  -0.3607 H              1 S1                 0.0000
     28 ****         3.6836  -1.2108   3.4238 H              1 S1                 0.0000
     29 ****         1.7439  -1.2733  -0.5305 H              1 S1                 0.0000
     30 ****        -0.7271  -2.7330  -2.7032 H              1 S1                 0.0000
     31 ****        -2.9887   1.8955  -2.5443 LP             1 S1                 0.0000
     32 ****        -3.4149   2.0344  -0.9740 LP             1 S1                 0.0000
     33 ****        -2.4980  -0.2124   0.6432 LP             1 S1                 0.0000
     34 ****        -1.6424   1.1446   0.3379 LP             1 S1                 0.0000
     35 ****         1.8913   3.4847   0.3143 LP             1 S1                 0.0000
     36 ****         4.9007   0.7501   3.2868 LP             1 S1                 0.0000
     37 ****         1.6045  -1.5042   2.3214 LP             1 S1                 0.0000
     38 ****         0.9739  -0.3674  -1.5874 LP             1 S1                 0.0000
     39 ****         1.1837  -1.9656  -1.8486 LP             1 S1                 0.0000
     40 ****        -0.4799  -1.2162  -3.1137 LP             1 S1                 0.0000
     41 ****        -1.9633  -1.8872  -3.2387 LP             1 S1                 0.0000
@<TRIPOS>BOND
    1    1    2 1     
    2    1   24 1     
    3    2    3 1     
    4    2   25 1     
    5    2   26 1     
    6    3   20 1     
    7    3   18 1     
    8    3    4 1     
    9    4    5 1     
   10    5   21 1     
   11    5    6 1     
   12    5   16 1     
   13    6   15 1     
   14    6    7 1     
   15    7    8 2     
   16    7   27 1     
   17    8    9 1     
   18    9   15 ar    
   19    9   10 ar    
   20   10   11 1     
   21   10   12 ar    
   22   12   13 ar    
   23   13   14 ar    
   24   13   28 1     
   25   14   15 ar    
   26   16   22 1     
   27   16   17 1     
   28   16   18 1     
   29   17   29 1     
   30   18   23 1     
   31   18   19 1     
   32   19   30 1     
   33    1   31 1     
   34    1   32 1     
   35    4   33 1     
   36    4   34 1     
   37    8   35 1     
   38   12   36 1     
   39   14   37 1     
   40   17   38 1     
   41   17   39 1     
   42   19   40 1     
   43   19   41 1     
@<TRIPOS>SUBSTRUCTURE
      1 S1             1
@<TRIPOS>SET
LONE_PAIRS      STATIC     ATOMS    <user>   **** ""
11 31 32 33 34 35 36 37 38 39 40 41
DONOR_HYDROGENS      STATIC     ATOMS    <user>   **** ""
3 24 29 30
ATOM$BLUE        STATIC     ATOMS    COLORGROUP SYSTEM
11 31 32 33 34 35 36 37 38 39 40 41
ATOM$RED        STATIC     ATOMS    COLORGROUP SYSTEM
3 24 29 30
