AV-unprocessed.smi:1531|AV-procd|sdf|6158|dock3
  -GOLD-   22720 6303D 1   1.00000     0.00000
 Structure written by MMmdl.
 44 45  0  0  0  0  0  0  0  0  1 V2000
  154.5437  140.3526  161.5323 C   0  0  0  0  0  0  0  0  0  0  0  0
  153.9455  140.8818  160.2217 C   0  0  0  0  0  0  0  0  0  0  0  0
  153.5193  142.3669  160.2748 C   0  0  2  0  0  0  0  0  0  0  0  0
  152.5617  142.6209  161.4595 C   0  0  0  0  0  0  0  0  0  0  0  0
  152.1641  144.1013  161.5684 C   0  0  0  0  0  0  0  0  0  0  0  0
  151.5366  144.6056  160.2616 C   0  0  0  0  0  0  0  0  0  0  0  0
  152.4800  144.3721  159.0703 C   0  0  0  0  0  0  0  0  0  0  0  0
  152.9135  142.8968  158.9471 C   0  0  2  0  0  0  0  0  0  0  0  0
  151.7867  142.0713  158.5087 N   0  0  0  0  0  0  0  0  0  0  0  0
  151.0787  142.2411  157.3832 C   0  0  0  0  0  0  0  0  0  0  0  0
  151.2942  143.1367  156.5664 O   0  0  0  0  0  0  0  0  0  0  0  0
  150.1130  141.3142  157.2734 N   0  0  0  0  0  0  0  0  0  0  0  0
  149.1969  141.1504  156.2039 C   0  0  0  0  0  0  0  0  0  0  0  0
  149.0928  142.0175  155.0855 C   0  0  0  0  0  0  0  0  0  0  0  0
  148.1434  141.6154  154.2544 N   0  0  0  0  0  0  0  0  0  0  0  0
  147.6274  140.4966  154.8228 N   0  0  0  0  0  0  0  0  0  0  0  0
  146.5456  139.7871  154.1632 C   0  0  0  0  0  0  0  0  0  0  0  0
  147.0263  138.4568  153.5809 C   0  0  0  0  0  0  0  0  0  0  0  0
  147.9713  138.5088  152.6378 N   0  0  0  0  0  0  0  0  0  0  0  0
  146.5544  137.3945  153.9803 O   0  0  0  0  0  0  0  0  0  0  0  0
  148.2484  140.1852  156.0168 C   0  0  0  0  0  0  0  0  0  0  0  0
  154.7389  139.2824  161.4619 H   0  0  0  0  0  0  0  0  0  0  0  0
  153.8635  140.5108  162.3696 H   0  0  0  0  0  0  0  0  0  0  0  0
  155.4894  140.8402  161.7680 H   0  0  0  0  0  0  0  0  0  0  0  0
  154.6521  140.7173  159.4076 H   0  0  0  0  0  0  0  0  0  0  0  0
  153.0720  140.2747  159.9808 H   0  0  0  0  0  0  0  0  0  0  0  0
  154.4215  142.9489  160.4695 H   0  0  0  0  0  0  0  0  0  0  0  0
  151.6646  142.0104  161.3507 H   0  0  0  0  0  0  0  0  0  0  0  0
  153.0322  142.3066  162.3919 H   0  0  0  0  0  0  0  0  0  0  0  0
  151.4645  144.2388  162.3932 H   0  0  0  0  0  0  0  0  0  0  0  0
  153.0442  144.7000  161.8066 H   0  0  0  0  0  0  0  0  0  0  0  0
  150.5879  144.0960  160.0890 H   0  0  0  0  0  0  0  0  0  0  0  0
  151.3038  145.6672  160.3476 H   0  0  0  0  0  0  0  0  0  0  0  0
  152.0049  144.7052  158.1467 H   0  0  0  0  0  0  0  0  0  0  0  0
  153.3670  144.9949  159.1940 H   0  0  0  0  0  0  0  0  0  0  0  0
  153.6976  142.8611  158.1895 H   0  0  0  0  0  0  0  0  0  0  0  0
  151.5297  141.3069  159.1157 H   0  0  0  0  0  0  0  0  0  0  0  0
  150.0288  140.6513  158.0301 H   0  0  0  0  0  0  0  0  0  0  0  0
  149.6618  142.9057  154.8529 H   0  0  0  0  0  0  0  0  0  0  0  0
  145.7460  139.6141  154.8849 H   0  0  0  0  0  0  0  0  0  0  0  0
  146.1308  140.4129  153.3712 H   0  0  0  0  0  0  0  0  0  0  0  0
  148.3231  137.6564  152.2261 H   0  0  0  0  0  0  0  0  0  0  0  0
  148.3336  139.4039  152.3425 H   0  0  0  0  0  0  0  0  0  0  0  0
  147.9606  139.3266  156.6054 H   0  0  0  0  0  0  0  0  0  0  0  0
  1  2  1  0  0  0  0
  1 22  1  0  0  0  0
  1 23  1  0  0  0  0
  1 24  1  0  0  0  0
  2  3  1  0  0  0  0
  2 25  1  0  0  0  0
  2 26  1  0  0  0  0
  3  8  1  0  0  0  0
  3  4  1  0  0  0  0
  3 27  1  0  0  0  0
  4  5  1  0  0  0  0
  4 28  1  0  0  0  0
  4 29  1  0  0  0  0
  5  6  1  0  0  0  0
  5 30  1  0  0  0  0
  5 31  1  0  0  0  0
  6  7  1  0  0  0  0
  6 32  1  0  0  0  0
  6 33  1  0  0  0  0
  7  8  1  0  0  0  0
  7 34  1  0  0  0  0
  7 35  1  0  0  0  0
  8  9  1  0  0  0  0
  8 36  1  0  0  0  0
  9 10  1  0  0  0  0
  9 37  1  0  0  0  0
 10 11  2  0  0  0  0
 10 12  1  0  0  0  0
 12 13  1  0  0  0  0
 12 38  1  0  0  0  0
 13 21  2  0  0  0  0
 13 14  1  0  0  0  0
 14 15  2  0  0  0  0
 14 39  1  0  0  0  0
 15 16  1  0  0  0  0
 16 17  1  0  0  0  0
 16 21  1  0  0  0  0
 17 18  1  0  0  0  0
 17 40  1  0  0  0  0
 17 41  1  0  0  0  0
 18 19  1  0  0  0  0
 18 20  2  0  0  0  0
 19 42  1  0  0  0  0
 19 43  1  0  0  0  0
 21 44  1  0  0  0  0
M  END
> <s_m_source_file>
AV-unprocessed.smi

> <i_m_source_file_index>
1531

> <i_lp_mmshare_version>
43012

> <i_f3d_flags>
0

> <s_epik_input>
W0NIM11bQ0gyXVtDQEBIXTFbQ0gyXVtDSDJdW0NIMl1bQ0gyXVtDQEhdMVtOSF1DKD1PKVtOSF1jMltjSF1ubihbY0hdMilbQ0gyXUMoPU8pW05IMl0=

> <s_epik_cmdline>
J2VwaWtfcHl0aG9uJywgJy1waCcsICc3LjAnLCAnLXRuJywgJzgnLCAnLW1hJywgJzIwMCcsICctbWV0YWxfYmluZGluZycsICctaW1hZScsICc8aW5maWxlLm1hZT4nLCAnLW9tYWUnLCAnPG91dGZpbGUubWFlPic=

> <r_lp_tautomer_probability>
1

> <r_epik_Ionization_Penalty>
4.83437e-05

> <r_epik_Ionization_Penalty_Charging>
0

> <r_epik_Ionization_Penalty_Neutral>
4.83437e-05

> <r_epik_State_Penalty>
-0

> <r_epik_Charging_Adjusted_Penalty>
0

> <i_epik_Tot_Q>
0

> <i_epik_Tot_abs_Q>
0

> <r_epik_Metal_State_Penalty>
-0

> <b_epik_Metal_Only>
0

> <s_lp_Force_Field>
OPLS_2005

> <r_lp_Energy>
15.1652

> <b_lp_Chiralities_Consistent>
1

> <s_lp_Variant>
AV-unprocessed.smi:1531-3

> <Gold.Version>
5.8.1

> <Gold.Id.Protein>
6NUR|6NUR_protein|mol2

> <Gold.PLP.Fitness>
45.6418

> <Gold.PLP.PLP>
-38.4889

> <Gold.PLP.part.hbond>
-2.0000

> <Gold.PLP.part.metal>
0.0000

> <Gold.PLP.part.buried>
-2.9263

> <Gold.PLP.part.nonpolar>
-35.1161

> <Gold.PLP.part.repulsive>
1.2806

> <Gold.PLP.ligand.clash>
0.0000

> <Gold.PLP.ligand.torsion>
0.1425

> <Gold.PLP.Chemscore.Hbond>
1.7520

> <Gold.PLP.Chemscore.CHOScore>
0.7147

> <Gold.PLP.Chemscore.Metal>
0.0000

> <Gold.Chemscore.Hbonds>
donor molecule, donor type, donor heavy atom, donor atom, acceptor molecule, acceptor atom, score
      L1  H    19    42       P1  7948  1.00
      L1  H    19    43       P1  7957  0.74
      L1  C    14    39       P1  8028  0.72

> <Gold.PLP.Chemscore.Internal.Correction>
0.0376

> <Gold.Rescore>
     Score         DG    S(hbond)    S(metal)    S(lipo)     H(rot)  DE(clash)    DE(int)     intcor
     14.92     -18.79       1.84        0.00     108.01       2.13       1.55       2.32       ----

> <Gold.Chemscore.Fitness>
14.9177

> <Gold.Chemscore.DG>
-18.7897

> <Gold.Chemscore.ZeroCoef>
-5.4800

> <Gold.Chemscore.Hbond>
1.8367

> <Gold.Chemscore.Metal>
0.0000

> <Gold.Chemscore.Lipo>
108.0087

> <Gold.Chemscore.Internal_Hbond>
0.0000

> <Gold.Chemscore.DEClash>
1.5492

> <Gold.Chemscore.DEInternal>
2.3229

> <Gold.Chemscore.Rot>
2.1335

> <Gold.Chemscore.Internal.Correction>
   9.000000E+99

> <Gold.Chemscore.Hbonds>
donor molecule, donor type, donor heavy atom, donor atom, acceptor molecule, acceptor atom, score
      L1  H    19    42       P1  7948  0.97
      L1  H    19    43       P1  7957  0.74

> <Gold.Chemscore.Hbond.Weighted>
-6.1346

> <Gold.Chemscore.Metal.Weighted>
-0.0000

> <Gold.Chemscore.Lipo.Weighted>
-12.6370

> <Gold.Chemscore.Internal_Hbond.Weighted>
0.0000

> <Gold.Chemscore.DEClash.Weighted>
1.5492

> <Gold.Chemscore.DEInternal.Weighted>
2.3229

> <Gold.Chemscore.Rot.Weighted>
5.4618

> <Gold.Chemscore.Internal.Correction.Weighted>
   9.000000E+99

> <Gold.Protein.RotatedTorsions>
[ 6907 6896 6895 6894 ] final  147.91 input  -60.11 | X-H torsion
[ 7974 7965 7964 7962 ] final  150.55 input  175.53 | X-H torsion
[ 8008 7997 7996 7995 ] final   55.99 input   59.86 | X-H torsion
[ 10167 10162 10161 10158 ] final   -5.86 input  -65.29 | X-H torsion
[ 10718 10713 10712 10709 ] final -142.85 input   66.30 | X-H torsion
[ 10763 10752 10751 10750 ] final   55.04 input  -60.55 | X-H torsion
[ 11005 11000 10999 10996 ] final   -0.60 input  -57.11 | X-H torsion

> <Gold.Protein.ActiveResidues>
 VAL166  LYS551  ARG553  GLY616  TRP617  ASP618  TYR619  PRO620  LYS621  CYS622 
 ASP623  PHE694  ASN695  SER759  ASP760  ASP761  ALA762  ILE779  LEU786  VAL792 
 PHE793  MET794  SER795  GLU796  ALA797  LYS798  CYS799  TRP800  GLU811  SER814 

> <Gold.Protein.RotatedAtoms>
  152.1486  133.4507  159.4801 H   0  0  0  0  0  0  0  0  0  0  0  0  # atno 6907 bound_to 6896
  150.6893  134.2217  159.4408 H   0  0  0  0  0  0  0  0  0  0  0  0  # atno 6908 bound_to 6896
  152.0113  134.9874  160.0619 H   0  0  0  0  0  0  0  0  0  0  0  0  # atno 6909 bound_to 6896
  144.8356  139.6423  143.6039 H   0  0  0  0  0  0  0  0  0  0  0  0  # atno 7974 bound_to 7965
  155.5102  140.3477  155.4387 H   0  0  0  0  0  0  0  0  0  0  0  0  # atno 8008 bound_to 7997
  156.0854  140.1397  156.9687 H   0  0  0  0  0  0  0  0  0  0  0  0  # atno 8009 bound_to 7997
  154.4604  140.0937  156.6853 H   0  0  0  0  0  0  0  0  0  0  0  0  # atno 8010 bound_to 7997
  140.6977  143.6260  150.8567 H   0  0  0  0  0  0  0  0  0  0  0  0  # atno 10167 bound_to 10162
  156.3509  130.7687  151.1840 H   0  0  0  0  0  0  0  0  0  0  0  0  # atno 10718 bound_to 10713
  152.9812  135.5724  154.5002 H   0  0  0  0  0  0  0  0  0  0  0  0  # atno 10763 bound_to 10752
  154.4522  135.2779  155.1775 H   0  0  0  0  0  0  0  0  0  0  0  0  # atno 10764 bound_to 10752
  154.3397  135.6232  153.5644 H   0  0  0  0  0  0  0  0  0  0  0  0  # atno 10765 bound_to 10752
  140.6380  133.9515  155.8310 H   0  0  0  0  0  0  0  0  0  0  0  0  # atno 11005 bound_to 11000
  146.2655  139.6510  142.9332 LP  0  0  0  0  0  0  0  0  0  0  0  0  # atno 17320 bound_to 7965
  145.4802  141.0438  143.2650 LP  0  0  0  0  0  0  0  0  0  0  0  0  # atno 17321 bound_to 7965
  139.9980  143.5775  152.2886 LP  0  0  0  0  0  0  0  0  0  0  0  0  # atno 17342 bound_to 10162
  139.6454  144.7658  151.2254 LP  0  0  0  0  0  0  0  0  0  0  0  0  # atno 17343 bound_to 10162
  157.7461  131.0428  150.4711 LP  0  0  0  0  0  0  0  0  0  0  0  0  # atno 17370 bound_to 10713
  156.4906  130.4094  149.6409 LP  0  0  0  0  0  0  0  0  0  0  0  0  # atno 17371 bound_to 10713
  141.0627  134.0322  157.3636 LP  0  0  0  0  0  0  0  0  0  0  0  0  # atno 17394 bound_to 11000
  139.9091  135.0186  156.7614 LP  0  0  0  0  0  0  0  0  0  0  0  0  # atno 17395 bound_to 11000

$$$$
