#       Name:                AV-unprocessed.smi:221
#       Creating user name   scv26
#       Creation time:       Thu Mar 26 20:14:51 2020


#       File generated by GOLD software.
#

@<TRIPOS>MOLECULE
AV-unprocessed.smi:221
    59    62     1
SMALL
NO_CHARGES


@<TRIPOS>ATOM
      1 ****         0.0135   4.8135   0.5866 N.am           1 S1                 0.0000
      2 ****        -1.2267   5.1302   0.9736 C.2            1 S1                 0.0000
      3 ****        -1.4414   6.0697   1.7362 O.2            1 S1                 0.0000
      4 ****        -2.4073   4.2886   0.4498 C.3            1 S1                 0.0000
      5 ****        -3.2786   5.1081  -0.5165 C.3            1 S1                 0.0000
      6 ****        -3.9421   4.0533  -1.3951 C.3            1 S1                 0.0000
      7 ****        -4.9981   3.5437  -0.7589 F              1 S1                 0.0000
      8 ****        -2.8624   2.9803  -1.5290 C.3            1 S1                 0.0000
      9 ****        -2.0268   3.1082  -0.3393 N.pl3          1 S1                 0.0000
     10 ****        -1.5267   1.9791   0.2328 C.ar           1 S1                 0.0000
     11 ****        -1.4982   1.8698   1.5877 N.ar           1 S1                 0.0000
     12 ****        -1.0084   0.7725   2.1712 C.ar           1 S1                 0.0000
     13 ****        -0.4949  -0.3176   1.5994 N.ar           1 S1                 0.0000
     14 ****        -0.5080  -0.2127   0.2403 C.ar           1 S1                 0.0000
     15 ****        -1.0013   0.8873  -0.5181 C.ar           1 S1                 0.0000
     16 ****        -0.8344   0.6323  -1.8753 N.2            1 S1                 0.0000
     17 ****        -0.2867  -0.5512  -1.9160 C.2            1 S1                 0.0000
     18 ****        -0.0464  -1.1269  -0.6895 N.pl3          1 S1                 0.0000
     19 ****         0.5575  -2.4234  -0.4370 C.3            1 S1                 0.0000
     20 ****         2.0177  -2.3168   0.0743 C.3            1 S1                 0.0000
     21 ****         2.9393  -1.6625  -0.9813 C.3            1 S1                 0.0000
     22 ****         4.2004  -1.3405  -0.4329 O.3            1 S1                 0.0000
     23 ****         2.5901  -3.6680   0.5845 C.3            1 S1                 0.0000
     24 ****         1.9212  -4.2440   1.8329 C.3            1 S1                 0.0000
     25 ****         1.7899  -5.7394   1.5323 C.3            1 S1                 0.0000
     26 ****         2.6697  -5.9687   0.4423 O.3            1 S1                 0.0000
     27 ****         2.5725  -4.8374  -0.4055 C.3            1 S1                 0.0000
     28 ****        -3.0236   3.9761   1.2947 H              1 S1                 0.0000
     29 ****        -4.2896   4.4396  -2.3535 H              1 S1                 0.0000
     30 ****         0.7975   5.3526   0.9242 H              1 S1                 0.0000
     31 ****         0.1612   4.0343  -0.0382 H              1 S1                 0.0000
     32 ****        -4.0022   5.7393   0.0006 H              1 S1                 0.0000
     33 ****        -2.6610   5.7564  -1.1412 H              1 S1                 0.0000
     34 ****        -3.3064   1.9895  -1.6393 H              1 S1                 0.0000
     35 ****        -2.2426   3.1720  -2.4055 H              1 S1                 0.0000
     36 ****        -1.0295   0.7688   3.2510 H              1 S1                 0.0000
     37 ****        -0.0315  -1.0348  -2.8478 H              1 S1                 0.0000
     38 ****        -0.0772  -2.9448   0.2784 H              1 S1                 0.0000
     39 ****         0.5152  -2.9997  -1.3612 H              1 S1                 0.0000
     40 ****         2.0030  -1.6472   0.9357 H              1 S1                 0.0000
     41 ****         3.0748  -2.3192  -1.8409 H              1 S1                 0.0000
     42 ****         2.5098  -0.7338  -1.3554 H              1 S1                 0.0000
     43 ****         4.7269  -0.9351  -1.1047 H              1 S1                 0.0000
     44 ****         3.6342  -3.5138   0.8601 H              1 S1                 0.0000
     45 ****         2.5536  -4.0780   2.7057 H              1 S1                 0.0000
     46 ****         0.9494  -3.8046   2.0543 H              1 S1                 0.0000
     47 ****         2.0445  -6.3644   2.3884 H              1 S1                 0.0000
     48 ****         0.7710  -5.9801   1.2256 H              1 S1                 0.0000
     49 ****         1.6395  -4.9003  -0.9650 H              1 S1                 0.0000
     50 ****         3.3976  -4.7993  -1.1171 H              1 S1                 0.0000
     51 ****        -0.6793   6.6172   2.0820 LP             1 S1                 0.0000
     52 ****        -2.3781   6.2866   2.0110 LP             1 S1                 0.0000
     53 ****        -1.8470   2.6176   2.1526 LP             1 S1                 0.0000
     54 ****        -0.1458  -1.1085   2.1020 LP             1 S1                 0.0000
     55 ****        -1.0787   1.2221  -2.6450 LP             1 S1                 0.0000
     56 ****         4.6497  -2.1734  -0.1096 LP             1 S1                 0.0000
     57 ****         4.0834  -0.7067   0.3317 LP             1 S1                 0.0000
     58 ****         2.3977  -6.7942  -0.0522 LP             1 S1                 0.0000
     59 ****         3.6079  -6.0720   0.7727 LP             1 S1                 0.0000
@<TRIPOS>BOND
    1    1    2 am    
    2    1   30 1     
    3    1   31 1     
    4    2    3 2     
    5    2    4 1     
    6    4   28 1     
    7    4    9 1     
    8    4    5 1     
    9    5    6 1     
   10    5   32 1     
   11    5   33 1     
   12    6   29 1     
   13    6    7 1     
   14    6    8 1     
   15    8    9 1     
   16    8   34 1     
   17    8   35 1     
   18    9   10 1     
   19   10   15 ar    
   20   10   11 ar    
   21   11   12 ar    
   22   12   13 ar    
   23   12   36 1     
   24   13   14 ar    
   25   14   18 1     
   26   14   15 ar    
   27   15   16 1     
   28   16   17 2     
   29   17   18 1     
   30   17   37 1     
   31   18   19 1     
   32   19   20 1     
   33   19   38 1     
   34   19   39 1     
   35   20   21 1     
   36   20   23 1     
   37   20   40 1     
   38   21   22 1     
   39   21   41 1     
   40   21   42 1     
   41   22   43 1     
   42   23   27 1     
   43   23   24 1     
   44   23   44 1     
   45   24   25 1     
   46   24   45 1     
   47   24   46 1     
   48   25   26 1     
   49   25   47 1     
   50   25   48 1     
   51   26   27 1     
   52   27   49 1     
   53   27   50 1     
   54    3   51 1     
   55    3   52 1     
   56   11   53 1     
   57   13   54 1     
   58   16   55 1     
   59   22   56 1     
   60   22   57 1     
   61   26   58 1     
   62   26   59 1     
@<TRIPOS>SUBSTRUCTURE
      1 S1             1
@<TRIPOS>SET
LONE_PAIRS      STATIC     ATOMS    <user>   **** ""
9 51 52 53 54 55 56 57 58 59
DONOR_HYDROGENS      STATIC     ATOMS    <user>   **** ""
3 30 31 43
ATOM$BLUE        STATIC     ATOMS    COLORGROUP SYSTEM
9 51 52 53 54 55 56 57 58 59
ATOM$RED        STATIC     ATOMS    COLORGROUP SYSTEM
3 30 31 43
