AV-unprocessed.smi:1065|AV-procd|sdf|4666|dock2
  -GOLD-   22720 3173D 1   1.00000     0.00000
 Structure written by MMmdl.
 39 40  0  0  0  0  0  0  0  0  1 V2000
  152.1225  145.5167  159.5820 C   0  0  0  0  0  0  0  0  0  0  0  0
  152.4627  144.2046  160.3026 C   0  0  0  0  0  0  0  0  0  0  0  0
  152.3713  142.9517  159.4073 C   0  0  2  0  0  0  0  0  0  0  0  0
  150.9754  142.8390  158.7630 C   0  0  0  0  0  0  0  0  0  0  0  0
  150.8585  141.6025  157.8570 C   0  0  0  0  0  0  0  0  0  0  0  0
  151.1872  140.3028  158.6224 C   0  0  1  0  0  0  0  0  0  0  0  0
  151.0943  139.0502  157.7301 C   0  0  0  0  0  0  0  0  0  0  0  0
  149.7604  138.4659  157.7664 N   0  0  0  0  0  0  0  0  0  0  0  0
  149.3648  137.5262  158.6368 C   0  0  0  0  0  0  0  0  0  0  0  0
  150.0899  137.0720  159.5214 O   0  0  0  0  0  0  0  0  0  0  0  0
  147.9328  137.0145  158.4825 C   0  0  0  0  0  0  0  0  0  0  0  0
  147.3944  136.5947  159.7623 N   0  0  0  0  0  0  0  0  0  0  0  0
  147.1069  135.3808  160.2365 C   0  0  0  0  0  0  0  0  0  0  0  0
  146.6116  135.4404  161.4633 N   0  0  0  0  0  0  0  0  0  0  0  0
  146.6050  136.7986  161.7350 N   0  0  0  0  0  0  0  0  0  0  0  0
  147.0681  137.4888  160.7292 N   0  0  0  0  0  0  0  0  0  0  0  0
  152.5814  140.4139  159.2681 C   0  0  0  0  0  0  0  0  0  0  0  0
  152.6978  141.6517  160.1723 C   0  0  0  0  0  0  0  0  0  0  0  0
  152.1241  146.3516  160.2829 H   0  0  0  0  0  0  0  0  0  0  0  0
  151.1340  145.4712  159.1244 H   0  0  0  0  0  0  0  0  0  0  0  0
  152.8462  145.7479  158.8009 H   0  0  0  0  0  0  0  0  0  0  0  0
  153.4586  144.2768  160.7412 H   0  0  0  0  0  0  0  0  0  0  0  0
  151.7728  144.0929  161.1400 H   0  0  0  0  0  0  0  0  0  0  0  0
  153.0978  143.0635  158.6010 H   0  0  0  0  0  0  0  0  0  0  0  0
  150.2130  142.7903  159.5417 H   0  0  0  0  0  0  0  0  0  0  0  0
  150.7603  143.7346  158.1791 H   0  0  0  0  0  0  0  0  0  0  0  0
  149.8497  141.5593  157.4455 H   0  0  0  0  0  0  0  0  0  0  0  0
  151.5324  141.7098  157.0058 H   0  0  0  0  0  0  0  0  0  0  0  0
  150.4577  140.1925  159.4264 H   0  0  0  0  0  0  0  0  0  0  0  0
  151.3508  139.3034  156.6999 H   0  0  0  0  0  0  0  0  0  0  0  0
  151.8149  138.3017  158.0635 H   0  0  0  0  0  0  0  0  0  0  0  0
  149.1014  138.7812  157.0688 H   0  0  0  0  0  0  0  0  0  0  0  0
  147.2959  137.8009  158.0750 H   0  0  0  0  0  0  0  0  0  0  0  0
  147.9029  136.1787  157.7817 H   0  0  0  0  0  0  0  0  0  0  0  0
  147.2556  134.4634  159.6862 H   0  0  0  0  0  0  0  0  0  0  0  0
  152.7936  139.5178  159.8524 H   0  0  0  0  0  0  0  0  0  0  0  0
  153.3450  140.4610  158.4905 H   0  0  0  0  0  0  0  0  0  0  0  0
  153.7072  141.6931  160.5807 H   0  0  0  0  0  0  0  0  0  0  0  0
  152.0246  141.5448  161.0239 H   0  0  0  0  0  0  0  0  0  0  0  0
  1  2  1  0  0  0  0
  1 19  1  0  0  0  0
  1 20  1  0  0  0  0
  1 21  1  0  0  0  0
  2  3  1  0  0  0  0
  2 22  1  0  0  0  0
  2 23  1  0  0  0  0
  3 18  1  0  0  0  0
  3  4  1  0  0  0  0
  3 24  1  0  0  0  0
  4  5  1  0  0  0  0
  4 25  1  0  0  0  0
  4 26  1  0  0  0  0
  5  6  1  0  0  0  0
  5 27  1  0  0  0  0
  5 28  1  0  0  0  0
  6  7  1  0  0  0  0
  6 17  1  0  0  0  0
  6 29  1  0  0  0  0
  7  8  1  0  0  0  0
  7 30  1  0  0  0  0
  7 31  1  0  0  0  0
  8  9  1  0  0  0  0
  8 32  1  0  0  0  0
  9 10  2  0  0  0  0
  9 11  1  0  0  0  0
 11 12  1  0  0  0  0
 11 33  1  0  0  0  0
 11 34  1  0  0  0  0
 12 16  1  0  0  0  0
 12 13  1  0  0  0  0
 13 14  2  0  0  0  0
 13 35  1  0  0  0  0
 14 15  1  0  0  0  0
 15 16  2  0  0  0  0
 17 18  1  0  0  0  0
 17 36  1  0  0  0  0
 17 37  1  0  0  0  0
 18 38  1  0  0  0  0
 18 39  1  0  0  0  0
M  END
> <s_m_source_file>
AV-unprocessed.smi

> <i_m_source_file_index>
1065

> <i_lp_mmshare_version>
43012

> <i_f3d_flags>
0

> <s_epik_input>
W0NIM11bQ0gyXVtDQEBIXTFbQ0gyXVtDSDJdW0NASF0oW0NIMl1bQ0gyXTEpW0NIMl1bTkhdQyg9TylbQ0gyXW4yW2NIXW5ubjI=

> <s_epik_cmdline>
J2VwaWtfcHl0aG9uJywgJy1waCcsICc3LjAnLCAnLXRuJywgJzgnLCAnLW1hJywgJzIwMCcsICctbWV0YWxfYmluZGluZycsICctaW1hZScsICc8aW5maWxlLm1hZT4nLCAnLW9tYWUnLCAnPG91dGZpbGUubWFlPic=

> <r_lp_tautomer_probability>
1

> <r_epik_Ionization_Penalty>
4.54759e-07

> <r_epik_Ionization_Penalty_Charging>
0

> <r_epik_Ionization_Penalty_Neutral>
4.54759e-07

> <r_epik_State_Penalty>
-0

> <r_epik_Charging_Adjusted_Penalty>
0

> <i_epik_Tot_Q>
0

> <i_epik_Tot_abs_Q>
0

> <r_epik_Metal_State_Penalty>
-0

> <b_epik_Metal_Only>
0

> <s_lp_Force_Field>
OPLS_2005

> <r_lp_Energy>
13.9446

> <b_lp_Chiralities_Consistent>
1

> <s_lp_Variant>
AV-unprocessed.smi:1065-1

> <Gold.Version>
5.8.1

> <Gold.Id.Protein>
6NUR|6NUR_protein|mol2

> <Gold.PLP.Fitness>
42.3506

> <Gold.PLP.PLP>
-36.1098

> <Gold.PLP.part.hbond>
-3.1195

> <Gold.PLP.part.metal>
0.0000

> <Gold.PLP.part.buried>
-5.5661

> <Gold.PLP.part.nonpolar>
-27.1485

> <Gold.PLP.part.repulsive>
0.0894

> <Gold.PLP.ligand.clash>
0.0000

> <Gold.PLP.ligand.torsion>
1.1033

> <Gold.PLP.Chemscore.Hbond>
2.8080

> <Gold.PLP.Chemscore.CHOScore>
0.0000

> <Gold.PLP.Chemscore.Metal>
0.0000

> <Gold.Chemscore.Hbonds>
donor molecule, donor type, donor heavy atom, donor atom, acceptor molecule, acceptor atom, score
      P1  H  6896  6907       L1    10  0.42
      P1  H  6931  6943       L1    16  0.03
      P1  H  6934  6947       L1    16  1.00

> <Gold.PLP.Chemscore.Internal.Correction>
0.0234

> <Gold.Rescore>
     Score         DG    S(hbond)    S(metal)    S(lipo)     H(rot)  DE(clash)    DE(int)     intcor
     15.43     -16.53       2.43        0.00      78.76       2.45       0.05       1.05       ----

> <Gold.Chemscore.Fitness>
15.4277

> <Gold.Chemscore.DG>
-16.5344

> <Gold.Chemscore.ZeroCoef>
-5.4800

> <Gold.Chemscore.Hbond>
2.4296

> <Gold.Chemscore.Metal>
0.0000

> <Gold.Chemscore.Lipo>
78.7557

> <Gold.Chemscore.Internal_Hbond>
0.0000

> <Gold.Chemscore.DEClash>
0.0536

> <Gold.Chemscore.DEInternal>
1.0530

> <Gold.Chemscore.Rot>
2.4512

> <Gold.Chemscore.Internal.Correction>
   9.000000E+99

> <Gold.Chemscore.Hbonds>
donor molecule, donor type, donor heavy atom, donor atom, acceptor molecule, acceptor atom, score
      P1  H  6896  6907       L1    10  0.41
      P1  H  6931  6943       L1    16  0.01
      P1  H  6934  6947       L1    16  0.90

> <Gold.Chemscore.Hbond.Weighted>
-8.1150

> <Gold.Chemscore.Metal.Weighted>
-0.0000

> <Gold.Chemscore.Lipo.Weighted>
-9.2144

> <Gold.Chemscore.Internal_Hbond.Weighted>
0.0000

> <Gold.Chemscore.DEClash.Weighted>
0.0536

> <Gold.Chemscore.DEInternal.Weighted>
1.0530

> <Gold.Chemscore.Rot.Weighted>
6.2750

> <Gold.Chemscore.Internal.Correction.Weighted>
   9.000000E+99

> <Gold.Protein.RotatedTorsions>
[ 6907 6896 6895 6894 ] final  -32.59 input  -60.11 | X-H torsion
[ 7974 7965 7964 7962 ] final  117.96 input  175.53 | X-H torsion
[ 8008 7997 7996 7995 ] final  123.14 input   59.86 | X-H torsion
[ 10167 10162 10161 10158 ] final -104.45 input  -65.29 | X-H torsion
[ 10718 10713 10712 10709 ] final -122.63 input   66.30 | X-H torsion
[ 10763 10752 10751 10750 ] final  -57.68 input  -60.55 | X-H torsion
[ 11005 11000 10999 10996 ] final  -24.73 input  -57.11 | X-H torsion

> <Gold.Protein.ActiveResidues>
 VAL166  LYS551  ARG553  GLY616  TRP617  ASP618  TYR619  PRO620  LYS621  CYS622 
 ASP623  PHE694  ASN695  SER759  ASP760  ASP761  ALA762  ILE779  LEU786  VAL792 
 PHE793  MET794  SER795  GLU796  ALA797  LYS798  CYS799  TRP800  GLU811  SER814 

> <Gold.Protein.RotatedAtoms>
  151.0768  134.9833  159.8335 H   0  0  0  0  0  0  0  0  0  0  0  0  # atno 6907 bound_to 6896
  152.5415  134.2231  159.8805 H   0  0  0  0  0  0  0  0  0  0  0  0  # atno 6908 bound_to 6896
  151.2259  133.4433  159.2635 H   0  0  0  0  0  0  0  0  0  0  0  0  # atno 6909 bound_to 6896
  145.1609  139.3155  143.4517 H   0  0  0  0  0  0  0  0  0  0  0  0  # atno 7974 bound_to 7965
  156.2754  140.2770  156.1579 H   0  0  0  0  0  0  0  0  0  0  0  0  # atno 8008 bound_to 7997
  155.0784  140.0387  157.2649 H   0  0  0  0  0  0  0  0  0  0  0  0  # atno 8009 bound_to 7997
  154.6984  140.2644  155.6749 H   0  0  0  0  0  0  0  0  0  0  0  0  # atno 8010 bound_to 7997
  140.2091  143.3760  152.1065 H   0  0  0  0  0  0  0  0  0  0  0  0  # atno 10167 bound_to 10162
  156.1435  130.6483  150.9806 H   0  0  0  0  0  0  0  0  0  0  0  0  # atno 10718 bound_to 10713
  154.2262  135.6369  153.5160 H   0  0  0  0  0  0  0  0  0  0  0  0  # atno 10763 bound_to 10752
  152.9958  135.5508  154.6061 H   0  0  0  0  0  0  0  0  0  0  0  0  # atno 10764 bound_to 10752
  154.5533  135.2903  155.0962 H   0  0  0  0  0  0  0  0  0  0  0  0  # atno 10765 bound_to 10752
  140.8872  133.7613  156.0376 H   0  0  0  0  0  0  0  0  0  0  0  0  # atno 11005 bound_to 11000
  146.3482  140.1720  142.8589 LP  0  0  0  0  0  0  0  0  0  0  0  0  # atno 17320 bound_to 7965
  145.0331  140.8887  143.5097 LP  0  0  0  0  0  0  0  0  0  0  0  0  # atno 17321 bound_to 7965
  139.5187  144.7009  151.5496 LP  0  0  0  0  0  0  0  0  0  0  0  0  # atno 17342 bound_to 10162
  140.6336  143.9028  150.6627 LP  0  0  0  0  0  0  0  0  0  0  0  0  # atno 17343 bound_to 10162
  157.6596  131.0883  150.7869 LP  0  0  0  0  0  0  0  0  0  0  0  0  # atno 17370 bound_to 10713
  156.7942  130.4900  149.5380 LP  0  0  0  0  0  0  0  0  0  0  0  0  # atno 17371 bound_to 10713
  140.8390  134.3089  157.5320 LP  0  0  0  0  0  0  0  0  0  0  0  0  # atno 17394 bound_to 11000
  139.8725  134.9405  156.3772 LP  0  0  0  0  0  0  0  0  0  0  0  0  # atno 17395 bound_to 11000

$$$$
