#       Name:                AV-unprocessed.smi:886
#       Creating user name   scv26
#       Creation time:       Fri Mar 27 01:53:42 2020


#       File generated by GOLD software.
#

@<TRIPOS>MOLECULE
AV-unprocessed.smi:886
    40    42     1
SMALL
NO_CHARGES


@<TRIPOS>ATOM
      1 ****        -3.2454  -3.3513   0.6032 C.3            1 S1                 0.0000
      2 ****        -1.8131  -3.0984   0.5847 N.am           1 S1                 0.0000
      3 ****        -1.2490  -1.9878   0.0855 C.2            1 S1                 0.0000
      4 ****        -1.8988  -1.0581  -0.3948 O.2            1 S1                 0.0000
      5 ****         0.2546  -1.9313   0.1827 C.ar           1 S1                 0.0000
      6 ****         1.0152  -3.0860  -0.1174 C.ar           1 S1                 0.0000
      7 ****         2.4188  -3.0304  -0.0538 C.ar           1 S1                 0.0000
      8 ****         3.0199  -1.8119   0.3041 C.ar           1 S1                 0.0000
      9 ****         2.3147  -0.6986   0.5872 N.ar           1 S1                 0.0000
     10 ****         0.9611  -0.7422   0.5270 C.ar           1 S1                 0.0000
     11 ****         0.2707   0.4395   0.8505 N.pl3          1 S1                 0.0000
     12 ****         0.9158   1.7404   0.6978 C.3            1 S1                 0.0000
     13 ****         0.0164   2.9026   1.1257 C.3            1 S1                 0.0000
     14 ****         0.0310   3.7917  -0.1254 C.3            1 S1                 0.0000
     15 ****        -0.8273   3.1961  -1.2492 C.3            1 S1                 0.0000
     16 ****         0.0389   2.0273  -1.7139 C.3            1 S1                 0.0000
     17 ****         1.2424   2.1239  -0.7606 C.3            1 S1                 0.0000
     18 ****         1.3325   3.5321  -0.6246 O.3            1 S1                 0.0000
     19 ****        -3.4449  -4.3274   1.0451 H              1 S1                 0.0000
     20 ****        -3.6544  -3.3446  -0.4080 H              1 S1                 0.0000
     21 ****        -3.7651  -2.5967   1.1949 H              1 S1                 0.0000
     22 ****        -1.2123  -3.8091   0.9767 H              1 S1                 0.0000
     23 ****         0.5346  -4.0110  -0.4019 H              1 S1                 0.0000
     24 ****         3.0194  -3.8996  -0.2772 H              1 S1                 0.0000
     25 ****         4.0948  -1.7282   0.3644 H              1 S1                 0.0000
     26 ****        -0.7350   0.4200   0.7581 H              1 S1                 0.0000
     27 ****         1.8265   1.7695   1.2979 H              1 S1                 0.0000
     28 ****        -0.9954   2.6002   1.3995 H              1 S1                 0.0000
     29 ****         0.4540   3.4240   1.9776 H              1 S1                 0.0000
     30 ****        -0.1732   4.8435   0.0762 H              1 S1                 0.0000
     31 ****        -1.8103   2.8807  -0.8979 H              1 S1                 0.0000
     32 ****        -0.9667   3.9146  -2.0577 H              1 S1                 0.0000
     33 ****        -0.4749   1.0674  -1.6628 H              1 S1                 0.0000
     34 ****         0.3573   2.1804  -2.7456 H              1 S1                 0.0000
     35 ****         2.1483   1.6574  -1.1487 H              1 S1                 0.0000
     36 ****        -2.8970  -1.1093  -0.4258 LP             1 S1                 0.0000
     37 ****        -1.4282  -0.2520  -0.7537 LP             1 S1                 0.0000
     38 ****         2.7837   0.1482   0.8383 LP             1 S1                 0.0000
     39 ****         2.0436   3.8012   0.0250 LP             1 S1                 0.0000
     40 ****         1.4943   3.9838  -1.5020 LP             1 S1                 0.0000
@<TRIPOS>BOND
    1    1    2 1     
    2    1   19 1     
    3    1   20 1     
    4    1   21 1     
    5    2    3 am    
    6    2   22 1     
    7    3    4 2     
    8    3    5 1     
    9    5   10 ar    
   10    5    6 ar    
   11    6    7 ar    
   12    6   23 1     
   13    7    8 ar    
   14    7   24 1     
   15    8    9 ar    
   16    8   25 1     
   17    9   10 ar    
   18   10   11 1     
   19   11   12 1     
   20   11   26 1     
   21   12   17 1     
   22   12   13 1     
   23   12   27 1     
   24   13   14 1     
   25   13   28 1     
   26   13   29 1     
   27   14   18 1     
   28   14   15 1     
   29   14   30 1     
   30   15   16 1     
   31   15   31 1     
   32   15   32 1     
   33   16   17 1     
   34   16   33 1     
   35   16   34 1     
   36   17   18 1     
   37   17   35 1     
   38    4   36 1     
   39    4   37 1     
   40    9   38 1     
   41   18   39 1     
   42   18   40 1     
@<TRIPOS>SUBSTRUCTURE
      1 S1             1
@<TRIPOS>SET
LONE_PAIRS      STATIC     ATOMS    <user>   **** ""
5 36 37 38 39 40
DONOR_HYDROGENS      STATIC     ATOMS    <user>   **** ""
2 22 26
ATOM$BLUE        STATIC     ATOMS    COLORGROUP SYSTEM
5 36 37 38 39 40
ATOM$RED        STATIC     ATOMS    COLORGROUP SYSTEM
2 22 26
