AV-unprocessed.smi:1747|AV-procd|sdf|7035|dock1
  -GOLD-   22720 8253D 1   1.00000     0.00000
 Structure written by MMmdl.
 40 41  0  0  0  0  0  0  0  0  1 V2000
  153.0562  142.1877  161.0634 C   0  0  0  0  0  0  0  0  0  0  0  0
  152.3221  143.1649  160.1422 C   0  0  0  0  0  0  0  0  0  0  0  0
  152.5287  144.3686  160.2967 O   0  0  0  0  0  0  0  0  0  0  0  0
  151.4769  142.6814  159.2001 N   0  0  0  0  0  0  0  0  0  0  0  0
  150.7264  143.4933  158.2290 C   0  0  0  0  0  0  0  0  0  0  0  0
  151.1949  143.1330  156.8054 C   0  0  0  0  0  0  0  0  0  0  0  0
  150.9750  141.6908  156.5810 N   0  0  0  0  0  0  0  0  0  0  0  0
  150.1183  141.1321  155.6883 C   0  0  0  0  0  0  0  0  0  0  0  0
  149.9464  139.9169  155.5833 O   0  0  0  0  0  0  0  0  0  0  0  0
  149.4709  142.0097  154.9068 N   0  0  0  0  0  0  0  0  0  0  0  0
  148.5409  141.6572  153.8412 C   0  0  0  0  0  0  0  0  0  0  0  0
  147.0813  141.6653  154.3306 C   0  0  0  0  0  0  0  0  0  0  0  0
  146.3430  142.9303  153.9965 C   0  0  0  0  0  0  0  0  0  0  0  0
  145.4014  143.5611  154.7707 C   0  0  0  0  0  0  0  0  0  0  0  0
  144.7691  144.9866  153.9938 S   0  0  0  0  0  0  0  0  0  0  0  0
  145.8239  144.6697  152.6224 C   0  0  0  0  0  0  0  0  0  0  0  0
  145.8683  145.5346  151.4099 C   0  0  0  0  0  0  0  0  0  0  0  0
  146.5742  143.5764  152.7771 N   0  0  0  0  0  0  0  0  0  0  0  0
  151.7334  140.8831  157.5485 C   0  0  0  0  0  0  0  0  0  0  0  0
  151.2743  141.2418  158.9763 C   0  0  0  0  0  0  0  0  0  0  0  0
  152.3468  141.5915  161.6378 H   0  0  0  0  0  0  0  0  0  0  0  0
  153.6858  142.7272  161.7717 H   0  0  0  0  0  0  0  0  0  0  0  0
  153.6992  141.5208  160.4881 H   0  0  0  0  0  0  0  0  0  0  0  0
  149.6611  143.2832  158.3377 H   0  0  0  0  0  0  0  0  0  0  0  0
  150.8310  144.5661  158.3813 H   0  0  0  0  0  0  0  0  0  0  0  0
  150.6904  143.7792  156.0873 H   0  0  0  0  0  0  0  0  0  0  0  0
  152.2581  143.3518  156.6942 H   0  0  0  0  0  0  0  0  0  0  0  0
  149.6577  142.9932  155.0410 H   0  0  0  0  0  0  0  0  0  0  0  0
  148.6556  142.3728  153.0256 H   0  0  0  0  0  0  0  0  0  0  0  0
  148.7947  140.6746  153.4415 H   0  0  0  0  0  0  0  0  0  0  0  0
  146.5597  140.8079  153.9040 H   0  0  0  0  0  0  0  0  0  0  0  0
  147.0676  141.5066  155.4097 H   0  0  0  0  0  0  0  0  0  0  0  0
  145.0376  143.2706  155.7452 H   0  0  0  0  0  0  0  0  0  0  0  0
  146.6490  145.1989  150.7267 H   0  0  0  0  0  0  0  0  0  0  0  0
  146.0734  146.5665  151.6951 H   0  0  0  0  0  0  0  0  0  0  0  0
  144.9103  145.4969  150.8914 H   0  0  0  0  0  0  0  0  0  0  0  0
  151.6164  139.8105  157.3889 H   0  0  0  0  0  0  0  0  0  0  0  0
  152.7987  141.0876  157.4314 H   0  0  0  0  0  0  0  0  0  0  0  0
  151.8114  140.6219  159.6952 H   0  0  0  0  0  0  0  0  0  0  0  0
  150.2175  141.0035  159.1049 H   0  0  0  0  0  0  0  0  0  0  0  0
  1  2  1  0  0  0  0
  1 21  1  0  0  0  0
  1 22  1  0  0  0  0
  1 23  1  0  0  0  0
  2  3  2  0  0  0  0
  2  4  1  0  0  0  0
  4 20  1  0  0  0  0
  4  5  1  0  0  0  0
  5  6  1  0  0  0  0
  5 24  1  0  0  0  0
  5 25  1  0  0  0  0
  6  7  1  0  0  0  0
  6 26  1  0  0  0  0
  6 27  1  0  0  0  0
  7  8  1  0  0  0  0
  7 19  1  0  0  0  0
  8  9  2  0  0  0  0
  8 10  1  0  0  0  0
 10 11  1  0  0  0  0
 10 28  1  0  0  0  0
 11 12  1  0  0  0  0
 11 29  1  0  0  0  0
 11 30  1  0  0  0  0
 12 13  1  0  0  0  0
 12 31  1  0  0  0  0
 12 32  1  0  0  0  0
 13 18  1  0  0  0  0
 13 14  2  0  0  0  0
 14 15  1  0  0  0  0
 14 33  1  0  0  0  0
 15 16  1  0  0  0  0
 16 17  1  0  0  0  0
 16 18  2  0  0  0  0
 17 34  1  0  0  0  0
 17 35  1  0  0  0  0
 17 36  1  0  0  0  0
 19 20  1  0  0  0  0
 19 37  1  0  0  0  0
 19 38  1  0  0  0  0
 20 39  1  0  0  0  0
 20 40  1  0  0  0  0
M  END
> <s_m_source_file>
AV-unprocessed.smi

> <i_m_source_file_index>
1747

> <i_lp_mmshare_version>
43012

> <i_f3d_flags>
0

> <s_epik_input>
W0NIM11DKD1PKU4xW0NIMl1bQ0gyXU4oW0NIMl1bQ0gyXTEpQyg9TylbTkhdW0NIMl1bQ0gyXWMyW2NIXXNjKG4yKVtDSDNd

> <s_epik_cmdline>
J2VwaWtfcHl0aG9uJywgJy1waCcsICc3LjAnLCAnLXRuJywgJzgnLCAnLW1hJywgJzIwMCcsICctbWV0YWxfYmluZGluZycsICctaW1hZScsICc8aW5maWxlLm1hZT4nLCAnLW9tYWUnLCAnPG91dGZpbGUubWFlPic=

> <r_epik_Ionization_Penalty>
0.00199956

> <r_epik_Ionization_Penalty_Charging>
0

> <r_epik_Ionization_Penalty_Neutral>
0.00199956

> <r_epik_State_Penalty>
0.00133382

> <r_epik_Charging_Adjusted_Penalty>
0.00133382

> <i_epik_Tot_Q>
0

> <i_epik_Tot_abs_Q>
0

> <r_epik_Metal_State_Penalty>
-0

> <b_epik_Metal_Only>
0

> <s_lp_Force_Field>
OPLS_2005

> <r_lp_Energy>
44.3218

> <b_lp_Chiralities_Consistent>
1

> <s_lp_Variant>
AV-unprocessed.smi:1747-1

> <Gold.Version>
5.8.1

> <Gold.Id.Protein>
6NUR|6NUR_protein|mol2

> <Gold.PLP.Fitness>
44.0601

> <Gold.PLP.PLP>
-42.5875

> <Gold.PLP.part.hbond>
-1.5341

> <Gold.PLP.part.metal>
0.0000

> <Gold.PLP.part.buried>
-1.3395

> <Gold.PLP.part.nonpolar>
-39.7928

> <Gold.PLP.part.repulsive>
0.5181

> <Gold.PLP.ligand.clash>
0.0000

> <Gold.PLP.ligand.torsion>
0.7811

> <Gold.PLP.Chemscore.Hbond>
1.0000

> <Gold.PLP.Chemscore.CHOScore>
0.0000

> <Gold.PLP.Chemscore.Metal>
0.0000

> <Gold.Chemscore.Hbonds>
donor molecule, donor type, donor heavy atom, donor atom, acceptor molecule, acceptor atom, score
      L1  H    10    28       P1  8028  0.90

> <Gold.PLP.Chemscore.Internal.Correction>
0.0349

> <Gold.Rescore>
     Score         DG    S(hbond)    S(metal)    S(lipo)     H(rot)  DE(clash)    DE(int)     intcor
     14.11     -15.44       0.99        0.00      87.12       1.38       0.58       0.75       ----

> <Gold.Chemscore.Fitness>
14.1140

> <Gold.Chemscore.DG>
-15.4444

> <Gold.Chemscore.ZeroCoef>
-5.4800

> <Gold.Chemscore.Hbond>
0.9883

> <Gold.Chemscore.Metal>
0.0000

> <Gold.Chemscore.Lipo>
87.1163

> <Gold.Chemscore.Internal_Hbond>
0.0000

> <Gold.Chemscore.DEClash>
0.5772

> <Gold.Chemscore.DEInternal>
0.7532

> <Gold.Chemscore.Rot>
1.3786

> <Gold.Chemscore.Internal.Correction>
   9.000000E+99

> <Gold.Chemscore.Hbonds>
donor molecule, donor type, donor heavy atom, donor atom, acceptor molecule, acceptor atom, score
      L1  H    10    28       P1  8028  0.86

> <Gold.Chemscore.Hbond.Weighted>
-3.3010

> <Gold.Chemscore.Metal.Weighted>
-0.0000

> <Gold.Chemscore.Lipo.Weighted>
-10.1926

> <Gold.Chemscore.Internal_Hbond.Weighted>
0.0000

> <Gold.Chemscore.DEClash.Weighted>
0.5772

> <Gold.Chemscore.DEInternal.Weighted>
0.7532

> <Gold.Chemscore.Rot.Weighted>
3.5291

> <Gold.Chemscore.Internal.Correction.Weighted>
   9.000000E+99

> <Gold.Protein.RotatedTorsions>
[ 6907 6896 6895 6894 ] final  -51.66 input  -60.11 | X-H torsion
[ 7974 7965 7964 7962 ] final   -5.56 input  175.53 | X-H torsion
[ 8008 7997 7996 7995 ] final  -65.74 input   59.86 | X-H torsion
[ 10167 10162 10161 10158 ] final -166.06 input  -65.29 | X-H torsion
[ 10718 10713 10712 10709 ] final   64.44 input   66.30 | X-H torsion
[ 10763 10752 10751 10750 ] final   -5.28 input  -60.55 | X-H torsion
[ 11005 11000 10999 10996 ] final   74.64 input  -57.11 | X-H torsion

> <Gold.Protein.ActiveResidues>
 VAL166  LYS551  ARG553  GLY616  TRP617  ASP618  TYR619  PRO620  LYS621  CYS622 
 ASP623  PHE694  ASN695  SER759  ASP760  ASP761  ALA762  ILE779  LEU786  VAL792 
 PHE793  MET794  SER795  GLU796  ALA797  LYS798  CYS799  TRP800  GLU811  SER814 

> <Gold.Protein.RotatedAtoms>
  150.8591  134.7937  159.7068 H   0  0  0  0  0  0  0  0  0  0  0  0  # atno 6907 bound_to 6896
  152.4633  134.5130  159.9769 H   0  0  0  0  0  0  0  0  0  0  0  0  # atno 6908 bound_to 6896
  151.5237  133.3423  159.2941 H   0  0  0  0  0  0  0  0  0  0  0  0  # atno 6909 bound_to 6896
  146.2350  140.2039  142.8334 H   0  0  0  0  0  0  0  0  0  0  0  0  # atno 7974 bound_to 7965
  154.4690  140.0927  156.7096 H   0  0  0  0  0  0  0  0  0  0  0  0  # atno 8008 bound_to 7997
  155.4777  140.3466  155.4316 H   0  0  0  0  0  0  0  0  0  0  0  0  # atno 8009 bound_to 7997
  156.1007  140.1421  156.9460 H   0  0  0  0  0  0  0  0  0  0  0  0  # atno 8010 bound_to 7997
  139.6140  144.0757  152.1870 H   0  0  0  0  0  0  0  0  0  0  0  0  # atno 10167 bound_to 10162
  157.6039  130.9160  149.9846 H   0  0  0  0  0  0  0  0  0  0  0  0  # atno 10718 bound_to 10713
  153.3964  135.7003  153.6458 H   0  0  0  0  0  0  0  0  0  0  0  0  # atno 10763 bound_to 10752
  153.5009  135.3652  155.2540 H   0  0  0  0  0  0  0  0  0  0  0  0  # atno 10764 bound_to 10752
  154.8707  135.4112  154.3290 H   0  0  0  0  0  0  0  0  0  0  0  0  # atno 10765 bound_to 10752
  139.9381  134.7450  156.1172 H   0  0  0  0  0  0  0  0  0  0  0  0  # atno 11005 bound_to 11000
  144.9760  140.8414  143.5426 LP  0  0  0  0  0  0  0  0  0  0  0  0  # atno 17320 bound_to 7965
  145.2027  139.2244  143.5184 LP  0  0  0  0  0  0  0  0  0  0  0  0  # atno 17321 bound_to 7965
  140.0383  144.6027  150.7432 LP  0  0  0  0  0  0  0  0  0  0  0  0  # atno 17342 bound_to 10162
  140.7338  143.2722  151.3853 LP  0  0  0  0  0  0  0  0  0  0  0  0  # atno 17343 bound_to 10162
  156.1120  130.3649  150.0033 LP  0  0  0  0  0  0  0  0  0  0  0  0  # atno 17370 bound_to 10713
  156.8129  130.9331  151.3643 LP  0  0  0  0  0  0  0  0  0  0  0  0  # atno 17371 bound_to 10713
  141.1004  133.6679  156.2742 LP  0  0  0  0  0  0  0  0  0  0  0  0  # atno 17394 bound_to 11000
  140.6022  134.5543  157.5519 LP  0  0  0  0  0  0  0  0  0  0  0  0  # atno 17395 bound_to 11000

$$$$
