AV-unprocessed.smi:243|AV-procd|sdf|1858|dock1
  -GOLD-   2262020483D 1   1.00000     0.00000
 Structure written by MMmdl.
 58 61  0  0  0  0  0  0  0  0  2 V2000
  151.9779  143.1746  158.9596 C   0  0  0  0  0  0  0  0  0  0  0  0
  150.9964  143.9699  158.0863 C   0  0  0  0  0  0  0  0  0  0  0  0
  150.0291  143.0965  157.3741 N   0  3  2  0  0  0  0  0  0  0  0  0
  149.0324  142.4985  158.2988 C   0  0  0  0  0  0  0  0  0  0  0  0
  147.9632  141.6835  157.5457 C   0  0  0  0  0  0  0  0  0  0  0  0
  148.5291  140.6686  156.5300 C   0  0  2  0  0  0  0  0  0  0  0  0
  148.8659  139.3614  157.1232 N   0  0  0  0  0  0  0  0  0  0  0  0
  150.0113  139.1371  158.0032 C   0  0  0  0  0  0  0  0  0  0  0  0
  148.3194  138.2589  156.5477 C   0  0  0  0  0  0  0  0  0  0  0  0
  148.7016  137.0288  156.9826 N   0  0  0  0  0  0  0  0  0  0  0  0
  148.1966  135.9271  156.4205 C   0  0  0  0  0  0  0  0  0  0  0  0
  147.3087  135.8282  155.4298 N   0  0  0  0  0  0  0  0  0  0  0  0
  146.9071  137.0583  154.9995 C   0  0  0  0  0  0  0  0  0  0  0  0
  147.3575  138.3134  155.4985 C   0  0  0  0  0  0  0  0  0  0  0  0
  146.7201  139.3467  154.8214 N   0  0  0  0  0  0  0  0  0  0  0  0
  145.9485  138.7375  153.9631 C   0  0  0  0  0  0  0  0  0  0  0  0
  145.9930  137.3621  154.0053 N   0  0  0  0  0  0  0  0  0  0  0  0
  145.2450  136.4399  153.1638 C   0  0  0  0  0  0  0  0  0  0  0  0
  143.7214  136.4480  153.4321 C   0  0  1  0  0  0  0  0  0  0  0  0
  143.1742  137.6657  152.9549 O   0  0  0  0  0  0  0  0  0  0  0  0
  142.9950  135.2976  152.7449 C   0  0  0  0  0  0  0  0  0  0  0  0
  141.8137  135.0419  153.6711 C   0  0  0  0  0  0  0  0  0  0  0  0
  142.3836  135.2050  154.9583 O   0  0  0  0  0  0  0  0  0  0  0  0
  143.3201  136.2776  154.9129 C   0  0  0  0  0  0  0  0  0  0  0  0
  149.6458  141.3121  155.6711 C   0  0  2  0  0  0  0  0  0  0  0  0
  150.2924  140.3425  154.6670 C   0  0  0  0  0  0  0  0  0  0  0  0
  150.6839  142.0676  156.5235 C   0  0  0  0  0  0  0  0  0  0  0  0
  152.7312  143.8368  159.3870 H   0  0  0  0  0  0  0  0  0  0  0  0
  152.5000  142.4161  158.3754 H   0  0  0  0  0  0  0  0  0  0  0  0
  151.4796  142.6770  159.7909 H   0  0  0  0  0  0  0  0  0  0  0  0
  150.4632  144.7126  158.6816 H   0  0  0  0  0  0  0  0  0  0  0  0
  151.5838  144.5262  157.3545 H   0  0  0  0  0  0  0  0  0  0  0  0
  149.5387  141.8973  159.0509 H   0  0  0  0  0  0  0  0  0  0  0  0
  148.5309  143.2965  158.8480 H   0  0  0  0  0  0  0  0  0  0  0  0
  147.2956  141.1862  158.2506 H   0  0  0  0  0  0  0  0  0  0  0  0
  147.3376  142.3893  156.9978 H   0  0  0  0  0  0  0  0  0  0  0  0
  147.7193  140.4903  155.8233 H   0  0  0  0  0  0  0  0  0  0  0  0
  149.8763  138.2230  158.5833 H   0  0  0  0  0  0  0  0  0  0  0  0
  150.1452  139.9427  158.7174 H   0  0  0  0  0  0  0  0  0  0  0  0
  150.9303  139.0348  157.4263 H   0  0  0  0  0  0  0  0  0  0  0  0
  148.5564  134.9906  156.8209 H   0  0  0  0  0  0  0  0  0  0  0  0
  145.3174  139.2787  153.2731 H   0  0  0  0  0  0  0  0  0  0  0  0
  145.4459  136.6912  152.1214 H   0  0  0  0  0  0  0  0  0  0  0  0
  145.6461  135.4371  153.3167 H   0  0  0  0  0  0  0  0  0  0  0  0
  143.3584  137.7342  152.0304 H   0  0  0  0  0  0  0  0  0  0  0  0
  142.6973  135.5145  151.7180 H   0  0  0  0  0  0  0  0  0  0  0  0
  143.6268  134.4084  152.7251 H   0  0  0  0  0  0  0  0  0  0  0  0
  141.0275  135.7835  153.5201 H   0  0  0  0  0  0  0  0  0  0  0  0
  141.3828  134.0486  153.5440 H   0  0  0  0  0  0  0  0  0  0  0  0
  144.1657  136.0159  155.5476 H   0  0  0  0  0  0  0  0  0  0  0  0
  142.8703  137.1822  155.3255 H   0  0  0  0  0  0  0  0  0  0  0  0
  149.1519  142.0733  155.0647 H   0  0  0  0  0  0  0  0  0  0  0  0
  150.8866  139.5768  155.1648 H   0  0  0  0  0  0  0  0  0  0  0  0
  150.9535  140.8742  153.9821 H   0  0  0  0  0  0  0  0  0  0  0  0
  149.5353  139.8379  154.0660 H   0  0  0  0  0  0  0  0  0  0  0  0
  151.3961  142.5464  155.8526 H   0  0  0  0  0  0  0  0  0  0  0  0
  151.2623  141.3844  157.1444 H   0  0  0  0  0  0  0  0  0  0  0  0
  149.5069  143.6982  156.7531 H   0  0  0  0  0  0  0  0  0  0  0  0
  1  2  1  0  0  0  0
  1 28  1  0  0  0  0
  1 29  1  0  0  0  0
  1 30  1  0  0  0  0
  2  3  1  0  0  0  0
  2 31  1  0  0  0  0
  2 32  1  0  0  0  0
  3 27  1  0  0  0  0
  3  4  1  0  0  0  0
  3 58  1  0  0  0  0
  4  5  1  0  0  0  0
  4 33  1  0  0  0  0
  4 34  1  0  0  0  0
  5  6  1  0  0  0  0
  5 35  1  0  0  0  0
  5 36  1  0  0  0  0
  6  7  1  0  0  0  0
  6 25  1  0  0  0  0
  6 37  1  0  0  0  0
  7  8  1  0  0  0  0
  7  9  1  0  0  0  0
  8 38  1  0  0  0  0
  8 39  1  0  0  0  0
  8 40  1  0  0  0  0
  9 14  1  0  0  0  0
  9 10  2  0  0  0  0
 10 11  1  0  0  0  0
 11 12  2  0  0  0  0
 11 41  1  0  0  0  0
 12 13  1  0  0  0  0
 13 17  1  0  0  0  0
 13 14  2  0  0  0  0
 14 15  1  0  0  0  0
 15 16  2  0  0  0  0
 16 17  1  0  0  0  0
 16 42  1  0  0  0  0
 17 18  1  0  0  0  0
 18 19  1  0  0  0  0
 18 43  1  0  0  0  0
 18 44  1  0  0  0  0
 19 24  1  0  0  0  0
 19 20  1  0  0  0  0
 19 21  1  0  0  0  0
 20 45  1  0  0  0  0
 21 22  1  0  0  0  0
 21 46  1  0  0  0  0
 21 47  1  0  0  0  0
 22 23  1  0  0  0  0
 22 48  1  0  0  0  0
 22 49  1  0  0  0  0
 23 24  1  0  0  0  0
 24 50  1  0  0  0  0
 24 51  1  0  0  0  0
 25 26  1  0  0  0  0
 25 27  1  0  0  0  0
 25 52  1  0  0  0  0
 26 53  1  0  0  0  0
 26 54  1  0  0  0  0
 26 55  1  0  0  0  0
 27 56  1  0  0  0  0
 27 57  1  0  0  0  0
M  CHG  1   3   1
M  END
> <s_m_source_file>
AV-unprocessed.smi

> <i_m_source_file_index>
243

> <i_lp_mmshare_version>
43012

> <i_f3d_flags>
0

> <s_epik_input>
W0NIM11bQ0gyXU4xW0NIMl1bQ0gyXVtDQEhdKFtDQEBIXShbQ0gzXSlbQ0gyXTEpTihbQ0gzXSljKG5bY0hdbjIpYyhjMjMpbltjSF1uM1tDSDJdW0NAQF00KFtPSF0pW0NIMl1bQ0gyXU9bQ0gyXTQ=

> <s_epik_cmdline>
J2VwaWtfcHl0aG9uJywgJy1waCcsICc3LjAnLCAnLXRuJywgJzgnLCAnLW1hJywgJzIwMCcsICctbWV0YWxfYmluZGluZycsICctaW1hZScsICc8aW5maWxlLm1hZT4nLCAnLW9tYWUnLCAnPG91dGZpbGUubWFlPic=

> <r_lp_tautomer_probability>
1

> <r_epik_Ionization_Penalty>
0.00253099

> <r_epik_Ionization_Penalty_Charging>
0.00137877

> <r_epik_Ionization_Penalty_Neutral>
0.00115221

> <r_epik_State_Penalty>
-0

> <r_epik_Charging_Adjusted_Penalty>
0.00137877

> <i_epik_Tot_Q>
1

> <i_epik_Tot_abs_Q>
1

> <r_epik_Metal_State_Penalty>
-0

> <b_epik_Metal_Only>
0

> <s_lp_Force_Field>
OPLS_2005

> <r_lp_Energy>
51.0856

> <b_lp_Chiralities_Consistent>
1

> <s_lp_Variant>
AV-unprocessed.smi:243-11

> <Gold.Version>
5.8.1

> <Gold.Id.Protein>
6NUR|6NUR_protein|mol2

> <Gold.PLP.Fitness>
43.6329

> <Gold.PLP.PLP>
-31.9027

> <Gold.PLP.part.hbond>
-3.8116

> <Gold.PLP.part.metal>
0.0000

> <Gold.PLP.part.buried>
-4.3739

> <Gold.PLP.part.nonpolar>
-23.9919

> <Gold.PLP.part.repulsive>
0.1902

> <Gold.PLP.ligand.clash>
0.0000

> <Gold.PLP.ligand.torsion>
0.4006

> <Gold.PLP.Chemscore.Hbond>
2.9920

> <Gold.PLP.Chemscore.CHOScore>
1.0000

> <Gold.PLP.Chemscore.Metal>
0.0000

> <Gold.Chemscore.Hbonds>
donor molecule, donor type, donor heavy atom, donor atom, acceptor molecule, acceptor atom, score
      L1  H     3    58       P1  8028  2.00
      L1  H    20    45       P1 10171  0.03
      P1  H 11000 11005       L1    23  0.04
      L1  C    16    42       P1 10175  1.00

> <Gold.PLP.Chemscore.Internal.Correction>
0.5554

> <Gold.Rescore>
     Score         DG    S(hbond)    S(metal)    S(lipo)     H(rot)  DE(clash)    DE(int)     intcor
     12.28     -14.42       1.83        0.00      73.21       2.24       0.12       2.03       ----

> <Gold.Chemscore.Fitness>
12.2759

> <Gold.Chemscore.DG>
-14.4229

> <Gold.Chemscore.ZeroCoef>
-5.4800

> <Gold.Chemscore.Hbond>
1.8283

> <Gold.Chemscore.Metal>
0.0000

> <Gold.Chemscore.Lipo>
73.2087

> <Gold.Chemscore.Internal_Hbond>
0.0000

> <Gold.Chemscore.DEClash>
0.1214

> <Gold.Chemscore.DEInternal>
2.0255

> <Gold.Chemscore.Rot>
2.2379

> <Gold.Chemscore.Internal.Correction>
   9.000000E+99

> <Gold.Chemscore.Hbonds>
donor molecule, donor type, donor heavy atom, donor atom, acceptor molecule, acceptor atom, score
      L1  H     3    58       P1  8028  0.97
      L1  H    20    45       P1 10171  0.08

> <Gold.Chemscore.Hbond.Weighted>
-6.1065

> <Gold.Chemscore.Metal.Weighted>
-0.0000

> <Gold.Chemscore.Lipo.Weighted>
-8.5654

> <Gold.Chemscore.Internal_Hbond.Weighted>
0.0000

> <Gold.Chemscore.DEClash.Weighted>
0.1214

> <Gold.Chemscore.DEInternal.Weighted>
2.0255

> <Gold.Chemscore.Rot.Weighted>
5.7291

> <Gold.Chemscore.Internal.Correction.Weighted>
   9.000000E+99

> <Gold.Protein.RotatedTorsions>
[ 6907 6896 6895 6894 ] final   66.04 input  -60.11 | X-H torsion
[ 7974 7965 7964 7962 ] final  -25.42 input  175.53 | X-H torsion
[ 8008 7997 7996 7995 ] final   24.88 input   59.86 | X-H torsion
[ 10167 10162 10161 10158 ] final  125.24 input  -65.29 | X-H torsion
[ 10718 10713 10712 10709 ] final   37.61 input   66.30 | X-H torsion
[ 10763 10752 10751 10750 ] final  133.07 input  -60.55 | X-H torsion
[ 11005 11000 10999 10996 ] final   17.37 input  -57.11 | X-H torsion

> <Gold.Protein.ActiveResidues>
 VAL166  LYS551  ARG553  GLY616  TRP617  ASP618  TYR619  PRO620  LYS621  CYS622 
 ASP623  PHE694  ASN695  SER759  ASP760  ASP761  ALA762  ILE779  LEU786  VAL792 
 PHE793  MET794  SER795  GLU796  ALA797  LYS798  CYS799  TRP800  GLU811  SER814 

> <Gold.Protein.RotatedAtoms>
  152.4452  134.5510  159.9866 H   0  0  0  0  0  0  0  0  0  0  0  0  # atno 6907 bound_to 6896
  151.5597  133.3399  159.2976 H   0  0  0  0  0  0  0  0  0  0  0  0  # atno 6908 bound_to 6896
  150.8366  134.7675  159.6962 H   0  0  0  0  0  0  0  0  0  0  0  0  # atno 6909 bound_to 6896
  146.1492  140.4884  142.8618 H   0  0  0  0  0  0  0  0  0  0  0  0  # atno 7974 bound_to 7965
  155.0031  140.3127  155.4859 H   0  0  0  0  0  0  0  0  0  0  0  0  # atno 8008 bound_to 7997
  156.2922  140.2228  156.5082 H   0  0  0  0  0  0  0  0  0  0  0  0  # atno 8009 bound_to 7997
  154.7601  140.0460  157.0954 H   0  0  0  0  0  0  0  0  0  0  0  0  # atno 8010 bound_to 7997
  139.5696  144.6931  151.3814 H   0  0  0  0  0  0  0  0  0  0  0  0  # atno 10167 bound_to 10162
  157.3490  130.7588  149.6965 H   0  0  0  0  0  0  0  0  0  0  0  0  # atno 10718 bound_to 10713
  153.8011  135.3142  155.3390 H   0  0  0  0  0  0  0  0  0  0  0  0  # atno 10763 bound_to 10752
  154.8088  135.4680  154.0466 H   0  0  0  0  0  0  0  0  0  0  0  0  # atno 10764 bound_to 10752
  153.1814  135.6894  153.8560 H   0  0  0  0  0  0  0  0  0  0  0  0  # atno 10765 bound_to 10752
  140.4367  134.1364  155.7686 H   0  0  0  0  0  0  0  0  0  0  0  0  # atno 11005 bound_to 11000
  144.7883  140.5981  143.6558 LP  0  0  0  0  0  0  0  0  0  0  0  0  # atno 17320 bound_to 7965
  145.4864  139.1491  143.3734 LP  0  0  0  0  0  0  0  0  0  0  0  0  # atno 17321 bound_to 7965
  140.6981  143.7700  150.7358 LP  0  0  0  0  0  0  0  0  0  0  0  0  # atno 17342 bound_to 10162
  140.1202  143.4619  152.2317 LP  0  0  0  0  0  0  0  0  0  0  0  0  # atno 17343 bound_to 10162
  155.9718  130.4146  150.4140 LP  0  0  0  0  0  0  0  0  0  0  0  0  # atno 17370 bound_to 10713
  157.2200  131.0480  151.2552 LP  0  0  0  0  0  0  0  0  0  0  0  0  # atno 17371 bound_to 10713
  141.1723  133.8584  157.1532 LP  0  0  0  0  0  0  0  0  0  0  0  0  # atno 17394 bound_to 11000
  140.0097  134.9993  157.0369 LP  0  0  0  0  0  0  0  0  0  0  0  0  # atno 17395 bound_to 11000

$$$$
