AV-unprocessed.smi:2448|AV-procd|sdf|9651|dock6
  -GOLD-   2272013283D 1   1.00000     0.00000
 Structure written by MMmdl.
 37 38  0  0  0  0  0  0  0  0  1 V2000
  151.0412  144.0078  156.7917 O   0  0  0  0  0  0  0  0  0  0  0  0
  150.8709  143.2450  157.9736 C   0  0  1  0  0  0  0  0  0  0  0  0
  150.1447  141.9366  157.6000 C   0  0  0  0  0  0  0  0  0  0  0  0
  148.9407  142.1822  156.8042 N   0  0  0  0  0  0  0  0  0  0  0  0
  148.5243  141.1040  155.8942 C   0  0  2  0  0  0  0  0  0  0  0  0
  149.5159  140.8775  154.7219 C   0  0  0  0  0  0  0  0  0  0  0  0
  150.3277  139.5936  154.7937 C   0  0  0  0  0  0  0  0  0  0  0  0
  149.7417  138.3536  154.4620 C   0  0  0  0  0  0  0  0  0  0  0  0
  150.5332  137.1906  154.5440 C   0  0  0  0  0  0  0  0  0  0  0  0
  151.8267  137.1996  154.9308 N   0  0  0  0  0  0  0  0  0  0  0  0
  152.3788  138.3873  155.2586 C   0  0  0  0  0  0  0  0  0  0  0  0
  151.6758  139.6077  155.2102 C   0  0  0  0  0  0  0  0  0  0  0  0
  147.1025  141.3975  155.3696 C   0  0  0  0  0  0  0  0  0  0  0  0
  146.3351  141.8446  156.3646 F   0  0  0  0  0  0  0  0  0  0  0  0
  147.1357  142.3172  154.4043 F   0  0  0  0  0  0  0  0  0  0  0  0
  146.5476  140.2848  154.8887 F   0  0  0  0  0  0  0  0  0  0  0  0
  152.2701  142.9694  158.5486 C   0  0  0  0  0  0  0  0  0  0  0  0
  152.7846  144.2687  159.1751 C   0  0  0  0  0  0  0  0  0  0  0  0
  151.3595  145.1346  159.8783 S   0  0  0  0  0  0  0  0  0  0  0  0
  150.1424  144.0822  159.0414 C   0  0  0  0  0  0  0  0  0  0  0  0
  150.2238  144.0133  156.3177 H   0  0  0  0  0  0  0  0  0  0  0  0
  150.8359  141.2883  157.0649 H   0  0  0  0  0  0  0  0  0  0  0  0
  149.8688  141.4121  158.5157 H   0  0  0  0  0  0  0  0  0  0  0  0
  148.1690  142.4167  157.4207 H   0  0  0  0  0  0  0  0  0  0  0  0
  148.4422  140.1786  156.4650 H   0  0  0  0  0  0  0  0  0  0  0  0
  148.9666  140.8311  153.7816 H   0  0  0  0  0  0  0  0  0  0  0  0
  150.1829  141.7356  154.6300 H   0  0  0  0  0  0  0  0  0  0  0  0
  148.7109  138.2909  154.1454 H   0  0  0  0  0  0  0  0  0  0  0  0
  150.1158  136.2271  154.2913 H   0  0  0  0  0  0  0  0  0  0  0  0
  153.4126  138.3647  155.5701 H   0  0  0  0  0  0  0  0  0  0  0  0
  152.1653  140.5296  155.4875 H   0  0  0  0  0  0  0  0  0  0  0  0
  152.1974  142.2113  159.3296 H   0  0  0  0  0  0  0  0  0  0  0  0
  152.9600  142.5820  157.7977 H   0  0  0  0  0  0  0  0  0  0  0  0
  153.5473  144.0865  159.9324 H   0  0  0  0  0  0  0  0  0  0  0  0
  153.2246  144.9066  158.4080 H   0  0  0  0  0  0  0  0  0  0  0  0
  149.3303  144.6797  158.6252 H   0  0  0  0  0  0  0  0  0  0  0  0
  149.7094  143.4265  159.7976 H   0  0  0  0  0  0  0  0  0  0  0  0
  1  2  1  0  0  0  0
  1 21  1  0  0  0  0
  2 20  1  0  0  0  0
  2  3  1  0  0  0  0
  2 17  1  0  0  0  0
  3  4  1  0  0  0  0
  3 22  1  0  0  0  0
  3 23  1  0  0  0  0
  4  5  1  0  0  0  0
  4 24  1  0  0  0  0
  5  6  1  0  0  0  0
  5 13  1  0  0  0  0
  5 25  1  0  0  0  0
  6  7  1  0  0  0  0
  6 26  1  0  0  0  0
  6 27  1  0  0  0  0
  7 12  1  0  0  0  0
  7  8  2  0  0  0  0
  8  9  1  0  0  0  0
  8 28  1  0  0  0  0
  9 10  2  0  0  0  0
  9 29  1  0  0  0  0
 10 11  1  0  0  0  0
 11 12  2  0  0  0  0
 11 30  1  0  0  0  0
 12 31  1  0  0  0  0
 13 14  1  0  0  0  0
 13 15  1  0  0  0  0
 13 16  1  0  0  0  0
 17 18  1  0  0  0  0
 17 32  1  0  0  0  0
 17 33  1  0  0  0  0
 18 19  1  0  0  0  0
 18 34  1  0  0  0  0
 18 35  1  0  0  0  0
 19 20  1  0  0  0  0
 20 36  1  0  0  0  0
 20 37  1  0  0  0  0
M  END
> <s_m_source_file>
AV-unprocessed.smi

> <i_m_source_file_index>
2448

> <i_lp_mmshare_version>
43012

> <i_f3d_flags>
0

> <s_epik_input>
W0NIMl0xU1tDSDJdW0NIMl1bQ0BAXTEoW09IXSlbQ0gyXVtOSF1bQ0BASF0oQyhGKShGKUYpW0NIMl1jMltjSF1bY0hdbltjSF1bY0hdMg==

> <s_epik_cmdline>
J2VwaWtfcHl0aG9uJywgJy1waCcsICc3LjAnLCAnLXRuJywgJzgnLCAnLW1hJywgJzIwMCcsICctbWV0YWxfYmluZGluZycsICctaW1hZScsICc8aW5maWxlLm1hZT4nLCAnLW9tYWUnLCAnPG91dGZpbGUubWFlPic=

> <r_epik_Ionization_Penalty>
0.187708

> <r_epik_Ionization_Penalty_Charging>
0

> <r_epik_Ionization_Penalty_Neutral>
0.187708

> <r_epik_State_Penalty>
0.22769

> <r_epik_Charging_Adjusted_Penalty>
0.22769

> <i_epik_Tot_Q>
0

> <i_epik_Tot_abs_Q>
0

> <r_epik_Metal_State_Penalty>
0.176206

> <b_epik_Metal_Only>
0

> <s_lp_Force_Field>
OPLS_2005

> <r_lp_Energy>
32.3304

> <b_lp_Chiralities_Consistent>
1

> <s_lp_Variant>
AV-unprocessed.smi:2448-1

> <Gold.Version>
5.8.1

> <Gold.Id.Protein>
6NUR|6NUR_protein|mol2

> <Gold.PLP.Fitness>
47.7842

> <Gold.PLP.PLP>
-42.5262

> <Gold.PLP.part.hbond>
-3.0000

> <Gold.PLP.part.metal>
0.0000

> <Gold.PLP.part.buried>
-0.7868

> <Gold.PLP.part.nonpolar>
-38.7744

> <Gold.PLP.part.repulsive>
0.1082

> <Gold.PLP.ligand.clash>
0.0000

> <Gold.PLP.ligand.torsion>
1.5944

> <Gold.PLP.Chemscore.Hbond>
2.0000

> <Gold.PLP.Chemscore.CHOScore>
0.6977

> <Gold.PLP.Chemscore.Metal>
0.0000

> <Gold.Chemscore.Hbonds>
donor molecule, donor type, donor heavy atom, donor atom, acceptor molecule, acceptor atom, score
      L1  H     1    21       P1  8028  1.00
      P1  H 10752 10763       L1    10  0.99
      L1  C     9    29       P1  7948  0.42

> <Gold.PLP.Chemscore.Internal.Correction>
0.3537

> <Gold.Rescore>
     Score         DG    S(hbond)    S(metal)    S(lipo)     H(rot)  DE(clash)    DE(int)     intcor
     16.40     -17.87       1.71        0.00     107.61       2.31       0.03       1.44       ----

> <Gold.Chemscore.Fitness>
16.4044

> <Gold.Chemscore.DG>
-17.8691

> <Gold.Chemscore.ZeroCoef>
-5.4800

> <Gold.Chemscore.Hbond>
1.7110

> <Gold.Chemscore.Metal>
0.0000

> <Gold.Chemscore.Lipo>
107.6119

> <Gold.Chemscore.Internal_Hbond>
0.0000

> <Gold.Chemscore.DEClash>
0.0262

> <Gold.Chemscore.DEInternal>
1.4385

> <Gold.Chemscore.Rot>
2.3111

> <Gold.Chemscore.Internal.Correction>
   9.000000E+99

> <Gold.Chemscore.Hbonds>
donor molecule, donor type, donor heavy atom, donor atom, acceptor molecule, acceptor atom, score
      L1  H     1    21       P1  8028  0.96
      P1  H 10752 10763       L1    10  0.87

> <Gold.Chemscore.Hbond.Weighted>
-5.7149

> <Gold.Chemscore.Metal.Weighted>
-0.0000

> <Gold.Chemscore.Lipo.Weighted>
-12.5906

> <Gold.Chemscore.Internal_Hbond.Weighted>
0.0000

> <Gold.Chemscore.DEClash.Weighted>
0.0262

> <Gold.Chemscore.DEInternal.Weighted>
1.4385

> <Gold.Chemscore.Rot.Weighted>
5.9164

> <Gold.Chemscore.Internal.Correction.Weighted>
   9.000000E+99

> <Gold.Protein.RotatedTorsions>
[ 6907 6896 6895 6894 ] final  109.05 input  -60.11 | X-H torsion
[ 7974 7965 7964 7962 ] final  -46.60 input  175.53 | X-H torsion
[ 8008 7997 7996 7995 ] final  136.42 input   59.86 | X-H torsion
[ 10167 10162 10161 10158 ] final  -26.58 input  -65.29 | X-H torsion
[ 10718 10713 10712 10709 ] final -149.45 input   66.30 | X-H torsion
[ 10763 10752 10751 10750 ] final   59.13 input  -60.55 | X-H torsion
[ 11005 11000 10999 10996 ] final  -34.41 input  -57.11 | X-H torsion

> <Gold.Protein.ActiveResidues>
 VAL166  LYS551  ARG553  GLY616  TRP617  ASP618  TYR619  PRO620  LYS621  CYS622 
 ASP623  PHE694  ASN695  SER759  ASP760  ASP761  ALA762  ILE779  LEU786  VAL792 
 PHE793  MET794  SER795  GLU796  ALA797  LYS798  CYS799  TRP800  GLU811  SER814 

> <Gold.Protein.RotatedAtoms>
  152.5085  133.9000  159.7435 H   0  0  0  0  0  0  0  0  0  0  0  0  # atno 6907 bound_to 6896
  150.9418  133.6639  159.2796 H   0  0  0  0  0  0  0  0  0  0  0  0  # atno 6908 bound_to 6896
  151.3948  135.0967  159.9590 H   0  0  0  0  0  0  0  0  0  0  0  0  # atno 6909 bound_to 6896
  145.9703  140.7390  142.9414 H   0  0  0  0  0  0  0  0  0  0  0  0  # atno 7974 bound_to 7965
  156.3004  140.2445  156.3742 H   0  0  0  0  0  0  0  0  0  0  0  0  # atno 8008 bound_to 7997
  154.8760  140.0414  157.1773 H   0  0  0  0  0  0  0  0  0  0  0  0  # atno 8009 bound_to 7997
  154.8745  140.2940  155.5465 H   0  0  0  0  0  0  0  0  0  0  0  0  # atno 8010 bound_to 7997
  140.7282  143.4166  151.1019 H   0  0  0  0  0  0  0  0  0  0  0  0  # atno 10167 bound_to 10162
  156.4333  130.8086  151.2314 H   0  0  0  0  0  0  0  0  0  0  0  0  # atno 10718 bound_to 10713
  152.9887  135.5582  154.5664 H   0  0  0  0  0  0  0  0  0  0  0  0  # atno 10763 bound_to 10752
  154.5073  135.2800  155.1373 H   0  0  0  0  0  0  0  0  0  0  0  0  # atno 10764 bound_to 10752
  154.2779  135.6350  153.5388 H   0  0  0  0  0  0  0  0  0  0  0  0  # atno 10765 bound_to 10752
  140.9714  133.7107  156.1530 H   0  0  0  0  0  0  0  0  0  0  0  0  # atno 11005 bound_to 11000
  144.6835  140.2737  143.7302 LP  0  0  0  0  0  0  0  0  0  0  0  0  # atno 17320 bound_to 7965
  145.7916  139.1929  143.2100 LP  0  0  0  0  0  0  0  0  0  0  0  0  # atno 17321 bound_to 7965
  139.7806  143.8361  152.3137 LP  0  0  0  0  0  0  0  0  0  0  0  0  # atno 17342 bound_to 10162
  139.8311  144.7253  150.9450 LP  0  0  0  0  0  0  0  0  0  0  0  0  # atno 17343 bound_to 10162
  157.7508  131.0191  150.3655 LP  0  0  0  0  0  0  0  0  0  0  0  0  # atno 17370 bound_to 10713
  156.3997  130.3913  149.6969 LP  0  0  0  0  0  0  0  0  0  0  0  0  # atno 17371 bound_to 10713
  140.7323  134.4241  157.5564 LP  0  0  0  0  0  0  0  0  0  0  0  0  # atno 17394 bound_to 11000
  139.8914  134.8782  156.2324 LP  0  0  0  0  0  0  0  0  0  0  0  0  # atno 17395 bound_to 11000

$$$$
