AV-unprocessed.smi:896|AV-procd|sdf|4077|dock4
  -GOLD-   22720 1563D 1   1.00000     0.00000
 Structure written by MMmdl.
 49 50  0  0  0  0  0  0  0  0  2 V2000
  151.6072  141.8665  157.1206 C   0  0  0  0  0  0  0  0  0  0  0  0
  150.5100  142.2486  156.2984 O   0  0  0  0  0  0  0  0  0  0  0  0
  149.8798  141.2736  155.5529 C   0  0  0  0  0  0  0  0  0  0  0  0
  148.5130  141.4307  155.2541 C   0  0  0  0  0  0  0  0  0  0  0  0
  147.8662  140.4424  154.4889 C   0  0  0  0  0  0  0  0  0  0  0  0
  148.6083  139.3250  154.0366 C   0  0  0  0  0  0  0  0  0  0  0  0
  148.0355  138.2678  153.2751 N   0  0  0  0  0  0  0  0  0  0  0  0
  146.7344  137.9950  153.0785 C   0  0  0  0  0  0  0  0  0  0  0  0
  145.7939  138.6444  153.5365 O   0  0  0  0  0  0  0  0  0  0  0  0
  146.5760  136.9225  152.2897 N   0  0  0  0  0  0  0  0  0  0  0  0
  145.2897  136.3733  151.8763 C   0  0  0  0  0  0  0  0  0  0  0  0
  145.4642  135.2511  150.8361 C   0  0  0  0  0  0  0  0  0  0  0  0
  145.4129  133.8301  151.4322 C   0  0  2  0  0  0  0  0  0  0  0  0
  146.7525  133.4654  152.0992 C   0  0  0  0  0  0  0  0  0  0  0  0
  146.7270  132.0413  152.6783 C   0  0  0  0  0  0  0  0  0  0  0  0
  146.3897  131.0482  151.6295 N   0  3  1  0  0  0  0  0  0  0  0  0
  146.4747  129.6569  152.1230 C   0  0  0  0  0  0  0  0  0  0  0  0
  145.0846  131.3427  150.9888 C   0  0  0  0  0  0  0  0  0  0  0  0
  145.0718  132.7552  150.3799 C   0  0  0  0  0  0  0  0  0  0  0  0
  149.9727  139.2488  154.4076 C   0  0  0  0  0  0  0  0  0  0  0  0
  150.8427  138.0755  153.9925 C   0  0  0  0  0  0  0  0  0  0  0  0
  150.5947  140.1986  155.1402 N   0  0  0  0  0  0  0  0  0  0  0  0
  151.9912  142.7443  157.6396 H   0  0  0  0  0  0  0  0  0  0  0  0
  152.4229  141.4498  156.5279 H   0  0  0  0  0  0  0  0  0  0  0  0
  151.3060  141.1404  157.8772 H   0  0  0  0  0  0  0  0  0  0  0  0
  147.9685  142.2934  155.6086 H   0  0  0  0  0  0  0  0  0  0  0  0
  146.8138  140.5525  154.2770 H   0  0  0  0  0  0  0  0  0  0  0  0
  148.6920  137.7007  152.7591 H   0  0  0  0  0  0  0  0  0  0  0  0
  147.4031  136.4514  151.9531 H   0  0  0  0  0  0  0  0  0  0  0  0
  144.7877  135.9842  152.7625 H   0  0  0  0  0  0  0  0  0  0  0  0
  144.6600  137.1757  151.4906 H   0  0  0  0  0  0  0  0  0  0  0  0
  144.7083  135.3444  150.0549 H   0  0  0  0  0  0  0  0  0  0  0  0
  146.4259  135.3922  150.3404 H   0  0  0  0  0  0  0  0  0  0  0  0
  144.6413  133.8138  152.2035 H   0  0  0  0  0  0  0  0  0  0  0  0
  147.5623  133.5479  151.3725 H   0  0  0  0  0  0  0  0  0  0  0  0
  146.9797  134.1758  152.8948 H   0  0  0  0  0  0  0  0  0  0  0  0
  147.7027  131.8055  153.1049 H   0  0  0  0  0  0  0  0  0  0  0  0
  146.0012  131.9780  153.4907 H   0  0  0  0  0  0  0  0  0  0  0  0
  145.7444  129.4766  152.9128 H   0  0  0  0  0  0  0  0  0  0  0  0
  147.4683  129.4497  152.5217 H   0  0  0  0  0  0  0  0  0  0  0  0
  146.2869  128.9495  151.3146 H   0  0  0  0  0  0  0  0  0  0  0  0
  144.8887  130.6087  150.2061 H   0  0  0  0  0  0  0  0  0  0  0  0
  144.2846  131.2432  151.7245 H   0  0  0  0  0  0  0  0  0  0  0  0
  144.0899  132.9420  149.9457 H   0  0  0  0  0  0  0  0  0  0  0  0
  145.7864  132.8034  149.5568 H   0  0  0  0  0  0  0  0  0  0  0  0
  150.8549  137.9761  152.9066 H   0  0  0  0  0  0  0  0  0  0  0  0
  150.4589  137.1491  154.4208 H   0  0  0  0  0  0  0  0  0  0  0  0
  151.8726  138.2008  154.3296 H   0  0  0  0  0  0  0  0  0  0  0  0
  147.0916  131.1403  150.9089 H   0  0  0  0  0  0  0  0  0  0  0  0
  1  2  1  0  0  0  0
  1 23  1  0  0  0  0
  1 24  1  0  0  0  0
  1 25  1  0  0  0  0
  2  3  1  0  0  0  0
  3 22  1  0  0  0  0
  3  4  2  0  0  0  0
  4  5  1  0  0  0  0
  4 26  1  0  0  0  0
  5  6  2  0  0  0  0
  5 27  1  0  0  0  0
  6  7  1  0  0  0  0
  6 20  1  0  0  0  0
  7  8  1  0  0  0  0
  7 28  1  0  0  0  0
  8  9  2  0  0  0  0
  8 10  1  0  0  0  0
 10 11  1  0  0  0  0
 10 29  1  0  0  0  0
 11 12  1  0  0  0  0
 11 30  1  0  0  0  0
 11 31  1  0  0  0  0
 12 13  1  0  0  0  0
 12 32  1  0  0  0  0
 12 33  1  0  0  0  0
 13 19  1  0  0  0  0
 13 14  1  0  0  0  0
 13 34  1  0  0  0  0
 14 15  1  0  0  0  0
 14 35  1  0  0  0  0
 14 36  1  0  0  0  0
 15 16  1  0  0  0  0
 15 37  1  0  0  0  0
 15 38  1  0  0  0  0
 16 17  1  0  0  0  0
 16 18  1  0  0  0  0
 16 49  1  0  0  0  0
 17 39  1  0  0  0  0
 17 40  1  0  0  0  0
 17 41  1  0  0  0  0
 18 19  1  0  0  0  0
 18 42  1  0  0  0  0
 18 43  1  0  0  0  0
 19 44  1  0  0  0  0
 19 45  1  0  0  0  0
 20 21  1  0  0  0  0
 20 22  2  0  0  0  0
 21 46  1  0  0  0  0
 21 47  1  0  0  0  0
 21 48  1  0  0  0  0
M  CHG  1  16   1
M  END
> <s_m_source_file>
AV-unprocessed.smi

> <i_m_source_file_index>
896

> <i_lp_mmshare_version>
43012

> <i_f3d_flags>
0

> <s_epik_input>
W0NIM11PYzFbY0hdW2NIXWMoYyhuMSlbQ0gzXSlbTkhdQyg9TylbTkhdW0NIMl1bQ0gyXVtDSF0yW0NIMl1bQ0gyXU4oW0NIM10pW0NIMl1bQ0gyXTI=

> <s_epik_cmdline>
J2VwaWtfcHl0aG9uJywgJy1waCcsICc3LjAnLCAnLXRuJywgJzgnLCAnLW1hJywgJzIwMCcsICctbWV0YWxfYmluZGluZycsICctaW1hZScsICc8aW5maWxlLm1hZT4nLCAnLW9tYWUnLCAnPG91dGZpbGUubWFlPic=

> <r_lp_tautomer_probability>
1

> <r_epik_Ionization_Penalty>
0.000968128

> <r_epik_Ionization_Penalty_Charging>
0.000718523

> <r_epik_Ionization_Penalty_Neutral>
0.000249604

> <r_epik_State_Penalty>
0.00045807

> <r_epik_Charging_Adjusted_Penalty>
0.00117659

> <i_epik_Tot_Q>
1

> <i_epik_Tot_abs_Q>
1

> <r_epik_Metal_State_Penalty>
-0

> <b_epik_Metal_Only>
0

> <s_lp_Force_Field>
OPLS_2005

> <r_lp_Energy>
19.0488

> <b_lp_Chiralities_Consistent>
1

> <s_lp_Variant>
AV-unprocessed.smi:896-1

> <Gold.Version>
5.8.1

> <Gold.Id.Protein>
6NUR|6NUR_protein|mol2

> <Gold.PLP.Fitness>
46.3199

> <Gold.PLP.PLP>
-37.4936

> <Gold.PLP.part.hbond>
-4.4629

> <Gold.PLP.part.metal>
0.0000

> <Gold.PLP.part.buried>
-6.1632

> <Gold.PLP.part.nonpolar>
-30.1559

> <Gold.PLP.part.repulsive>
2.0417

> <Gold.PLP.ligand.clash>
0.0000

> <Gold.PLP.ligand.torsion>
0.8998

> <Gold.PLP.Chemscore.Hbond>
3.5078

> <Gold.PLP.Chemscore.CHOScore>
0.0000

> <Gold.PLP.Chemscore.Metal>
0.0000

> <Gold.Chemscore.Hbonds>
donor molecule, donor type, donor heavy atom, donor atom, acceptor molecule, acceptor atom, score
      L1  H     7    28       P1  7948  0.96
      L1  H    10    29       P1  7948  1.00
      L1  H    16    49       P1 10747  0.99
      P1  H  7989  7998       L1    22  0.57

> <Gold.PLP.Chemscore.Internal.Correction>
0.1026

> <Gold.Rescore>
     Score         DG    S(hbond)    S(metal)    S(lipo)     H(rot)  DE(clash)    DE(int)     intcor
     19.57     -21.77       2.87        0.00      93.57       1.65       0.13       2.07       ----

> <Gold.Chemscore.Fitness>
19.5744

> <Gold.Chemscore.DG>
-21.7722

> <Gold.Chemscore.ZeroCoef>
-5.4800

> <Gold.Chemscore.Hbond>
2.8663

> <Gold.Chemscore.Metal>
0.0000

> <Gold.Chemscore.Lipo>
93.5739

> <Gold.Chemscore.Internal_Hbond>
0.0000

> <Gold.Chemscore.DEClash>
0.1277

> <Gold.Chemscore.DEInternal>
2.0701

> <Gold.Chemscore.Rot>
1.6521

> <Gold.Chemscore.Internal.Correction>
   9.000000E+99

> <Gold.Chemscore.Hbonds>
donor molecule, donor type, donor heavy atom, donor atom, acceptor molecule, acceptor atom, score
      L1  H     7    28       P1  7948  0.92
      L1  H    10    29       P1  7948  0.93
      L1  H    16    49       P1 10747  0.90
      P1  H  7989  7998       L1    22  0.02

> <Gold.Chemscore.Hbond.Weighted>
-9.5735

> <Gold.Chemscore.Metal.Weighted>
-0.0000

> <Gold.Chemscore.Lipo.Weighted>
-10.9481

> <Gold.Chemscore.Internal_Hbond.Weighted>
0.0000

> <Gold.Chemscore.DEClash.Weighted>
0.1277

> <Gold.Chemscore.DEInternal.Weighted>
2.0701

> <Gold.Chemscore.Rot.Weighted>
4.2294

> <Gold.Chemscore.Internal.Correction.Weighted>
   9.000000E+99

> <Gold.Protein.RotatedTorsions>
[ 6907 6896 6895 6894 ] final  -29.60 input  -60.11 | X-H torsion
[ 7974 7965 7964 7962 ] final    2.12 input  175.53 | X-H torsion
[ 8008 7997 7996 7995 ] final  -80.18 input   59.86 | X-H torsion
[ 10167 10162 10161 10158 ] final -101.35 input  -65.29 | X-H torsion
[ 10718 10713 10712 10709 ] final  160.91 input   66.30 | X-H torsion
[ 10763 10752 10751 10750 ] final -117.09 input  -60.55 | X-H torsion
[ 11005 11000 10999 10996 ] final  137.56 input  -57.11 | X-H torsion

> <Gold.Protein.ActiveResidues>
 VAL166  LYS551  ARG553  GLY616  TRP617  ASP618  TYR619  PRO620  LYS621  CYS622 
 ASP623  PHE694  ASN695  SER759  ASP760  ASP761  ALA762  ILE779  LEU786  VAL792 
 PHE793  MET794  SER795  GLU796  ALA797  LYS798  CYS799  TRP800  GLU811  SER814 

> <Gold.Protein.RotatedAtoms>
  151.1170  135.0058  159.8520 H   0  0  0  0  0  0  0  0  0  0  0  0  # atno 6907 bound_to 6896
  152.5446  134.1768  159.8629 H   0  0  0  0  0  0  0  0  0  0  0  0  # atno 6908 bound_to 6896
  151.1823  133.4673  159.2627 H   0  0  0  0  0  0  0  0  0  0  0  0  # atno 6909 bound_to 6896
  146.2443  140.0884  142.8353 H   0  0  0  0  0  0  0  0  0  0  0  0  # atno 7974 bound_to 7965
  154.5858  140.0667  156.9169 H   0  0  0  0  0  0  0  0  0  0  0  0  # atno 8008 bound_to 7997
  155.2382  140.3342  155.4277 H   0  0  0  0  0  0  0  0  0  0  0  0  # atno 8009 bound_to 7997
  156.2221  140.1803  156.7435 H   0  0  0  0  0  0  0  0  0  0  0  0  # atno 8010 bound_to 7997
  140.2422  143.3531  152.0791 H   0  0  0  0  0  0  0  0  0  0  0  0  # atno 10167 bound_to 10162
  157.1439  131.0547  151.2313 H   0  0  0  0  0  0  0  0  0  0  0  0  # atno 10718 bound_to 10713
  154.8542  135.4322  154.1924 H   0  0  0  0  0  0  0  0  0  0  0  0  # atno 10763 bound_to 10752
  153.2989  135.6967  153.7228 H   0  0  0  0  0  0  0  0  0  0  0  0  # atno 10764 bound_to 10752
  153.6365  135.3475  155.3032 H   0  0  0  0  0  0  0  0  0  0  0  0  # atno 10765 bound_to 10752
  140.0123  134.9433  157.0303 H   0  0  0  0  0  0  0  0  0  0  0  0  # atno 11005 bound_to 11000
  145.0671  140.9129  143.4904 LP  0  0  0  0  0  0  0  0  0  0  0  0  # atno 17320 bound_to 7965
  145.1011  139.2822  143.5686 LP  0  0  0  0  0  0  0  0  0  0  0  0  # atno 17321 bound_to 7965
  139.5073  144.6830  151.5959 LP  0  0  0  0  0  0  0  0  0  0  0  0  # atno 17342 bound_to 10162
  140.6105  143.9445  150.6450 LP  0  0  0  0  0  0  0  0  0  0  0  0  # atno 17343 bound_to 10162
  157.4282  130.7475  149.6968 LP  0  0  0  0  0  0  0  0  0  0  0  0  # atno 17370 bound_to 10713
  155.9783  130.4053  150.3656 LP  0  0  0  0  0  0  0  0  0  0  0  0  # atno 17371 bound_to 10713
  140.4533  134.1560  155.7183 LP  0  0  0  0  0  0  0  0  0  0  0  0  # atno 17394 bound_to 11000
  141.1719  133.8591  157.1544 LP  0  0  0  0  0  0  0  0  0  0  0  0  # atno 17395 bound_to 11000

$$$$
