AV-unprocessed.smi:43|AV-procd|sdf|391|dock4
  -GOLD-   2262016243D 1   1.00000     0.00000
 Structure written by MMmdl.
 25 26  0  0  0  0  0  0  0  0  2 V2000
  152.9227  140.2511  159.5734 C   0  0  0  0  0  0  0  0  0  0  0  0
  152.4686  138.9321  159.1709 N   0  0  0  0  0  0  0  0  0  0  0  0
  152.8382  137.8515  159.9035 N   0  0  0  0  0  0  0  0  0  0  0  0
  152.3065  136.8081  159.3383 N   0  0  0  0  0  0  0  0  0  0  0  0
  151.5740  137.1619  158.2243 N   0  0  0  0  0  0  0  0  0  0  0  0
  151.7045  138.4823  158.1571 C   0  0  0  0  0  0  0  0  0  0  0  0
  151.1218  139.3007  157.1784 N   0  0  0  0  0  0  0  0  0  0  0  0
  150.7134  140.7049  157.2719 C   0  0  0  0  0  0  0  0  0  0  0  0
  150.2763  141.1752  155.8844 C   0  0  2  0  0  0  0  0  0  0  0  0
  149.2839  142.1785  155.9404 O   0  0  0  0  0  0  0  0  0  0  0  0
  149.7771  139.8911  155.2528 C   0  0  0  0  0  0  0  0  0  0  0  0
  150.7399  138.8500  155.8339 C   0  0  1  0  0  0  0  0  0  0  0  0
  151.9687  138.6248  154.9342 C   0  0  0  0  0  0  0  0  0  0  0  0
  152.0885  137.4913  154.4208 O   0  0  0  0  0  0  0  0  0  0  0  0
  152.7614  139.5795  154.7695 O   0  5  0  0  0  0  0  0  0  0  0  0
  151.1360  141.5519  155.3287 H   0  0  0  0  0  0  0  0  0  0  0  0
  150.2141  137.8981  155.9213 H   0  0  0  0  0  0  0  0  0  0  0  0
  152.0698  140.9152  159.7086 H   0  0  0  0  0  0  0  0  0  0  0  0
  153.5931  140.6577  158.8168 H   0  0  0  0  0  0  0  0  0  0  0  0
  153.4652  140.1951  160.5181 H   0  0  0  0  0  0  0  0  0  0  0  0
  149.8839  140.7688  157.9774 H   0  0  0  0  0  0  0  0  0  0  0  0
  151.5223  141.3354  157.6383 H   0  0  0  0  0  0  0  0  0  0  0  0
  149.6486  142.9785  155.5944 H   0  0  0  0  0  0  0  0  0  0  0  0
  148.7609  139.6714  155.5838 H   0  0  0  0  0  0  0  0  0  0  0  0
  149.7721  139.9290  154.1624 H   0  0  0  0  0  0  0  0  0  0  0  0
  1  2  1  0  0  0  0
  1 18  1  0  0  0  0
  1 19  1  0  0  0  0
  1 20  1  0  0  0  0
  2  6  1  0  0  0  0
  2  3  1  0  0  0  0
  3  4  2  0  0  0  0
  4  5  1  0  0  0  0
  5  6  2  0  0  0  0
  6  7  1  0  0  0  0
  7 12  1  0  0  0  0
  7  8  1  0  0  0  0
  8  9  1  0  0  0  0
  8 21  1  0  0  0  0
  8 22  1  0  0  0  0
  9 16  1  0  0  0  0
  9 10  1  0  0  0  0
  9 11  1  0  0  0  0
 10 23  1  0  0  0  0
 11 12  1  0  0  0  0
 11 24  1  0  0  0  0
 11 25  1  0  0  0  0
 12 17  1  0  0  0  0
 12 13  1  0  0  0  0
 13 14  2  0  0  0  0
 13 15  1  0  0  0  0
M  CHG  1  15  -1
M  END
> <s_m_source_file>
AV-unprocessed.smi

> <i_m_source_file_index>
43

> <i_lp_mmshare_version>
43012

> <i_f3d_flags>
0

> <s_epik_input>
W0NIM11uMW5ubmMxTjJbQ0gyXVtDQEhdKFtPSF0pW0NIMl1bQ0BIXTJDKD1PKVtPSF0=

> <s_epik_cmdline>
J2VwaWtfcHl0aG9uJywgJy1waCcsICc3LjAnLCAnLXRuJywgJzgnLCAnLW1hJywgJzIwMCcsICctbWV0YWxfYmluZGluZycsICctaW1hZScsICc8aW5maWxlLm1hZT4nLCAnLW9tYWUnLCAnPG91dGZpbGUubWFlPic=

> <r_lp_tautomer_probability>
1

> <r_epik_Ionization_Penalty>
0.000193127

> <r_epik_Ionization_Penalty_Charging>
0.000192933

> <r_epik_Ionization_Penalty_Neutral>
1.93728e-07

> <r_epik_State_Penalty>
-0

> <r_epik_Charging_Adjusted_Penalty>
0.000192933

> <i_epik_Tot_Q>
-1

> <i_epik_Tot_abs_Q>
1

> <r_epik_Metal_State_Penalty>
-0

> <b_epik_Metal_Only>
0

> <s_lp_Force_Field>
OPLS_2005

> <r_lp_Energy>
20.0938

> <b_lp_Chiralities_Consistent>
1

> <s_lp_Variant>
AV-unprocessed.smi:43-1

> <Gold.Version>
5.8.1

> <Gold.Id.Protein>
6NUR|6NUR_protein|mol2

> <Gold.PLP.Fitness>
38.8867

> <Gold.PLP.PLP>
-22.7678

> <Gold.PLP.part.hbond>
-4.9822

> <Gold.PLP.part.metal>
0.0000

> <Gold.PLP.part.buried>
-5.8158

> <Gold.PLP.part.nonpolar>
-13.7670

> <Gold.PLP.part.repulsive>
0.1530

> <Gold.PLP.ligand.clash>
0.0000

> <Gold.PLP.ligand.torsion>
0.3314

> <Gold.PLP.Chemscore.Hbond>
5.5925

> <Gold.PLP.Chemscore.CHOScore>
0.0000

> <Gold.PLP.Chemscore.Metal>
0.0000

> <Gold.Chemscore.Hbonds>
donor molecule, donor type, donor heavy atom, donor atom, acceptor molecule, acceptor atom, score
      L1  H    10    23       P1  8028  0.56
      P1  H  6896  6907       L1     4  1.00
      P1  H  7989  7998       L1    15  0.42
      P1  H  7997  8008       L1    15  1.56
      P1  H 10752 10765       L1    14  1.70

> <Gold.PLP.Chemscore.Internal.Correction>
0.0041

> <Gold.Rescore>
     Score         DG    S(hbond)    S(metal)    S(lipo)     H(rot)  DE(clash)    DE(int)     intcor
     15.47     -15.75       3.37        0.00      28.59       1.69       0.00       0.28       ----

> <Gold.Chemscore.Fitness>
15.4656

> <Gold.Chemscore.DG>
-15.7479

> <Gold.Chemscore.ZeroCoef>
-5.4800

> <Gold.Chemscore.Hbond>
3.3672

> <Gold.Chemscore.Metal>
0.0000

> <Gold.Chemscore.Lipo>
28.5861

> <Gold.Chemscore.Internal_Hbond>
0.0000

> <Gold.Chemscore.DEClash>
0.0000

> <Gold.Chemscore.DEInternal>
0.2823

> <Gold.Chemscore.Rot>
1.6887

> <Gold.Chemscore.Internal.Correction>
   9.000000E+99

> <Gold.Chemscore.Hbonds>
donor molecule, donor type, donor heavy atom, donor atom, acceptor molecule, acceptor atom, score
      L1  H    10    23       P1  8028  0.56
      P1  H  6896  6907       L1     4  0.87
      P1  H  7989  7998       L1    15  0.17
      P1  H  7997  8008       L1    15  0.77
      P1  H 10752 10765       L1    14  0.79

> <Gold.Chemscore.Hbond.Weighted>
-11.2465

> <Gold.Chemscore.Metal.Weighted>
-0.0000

> <Gold.Chemscore.Lipo.Weighted>
-3.3446

> <Gold.Chemscore.Internal_Hbond.Weighted>
0.0000

> <Gold.Chemscore.DEClash.Weighted>
0.0000

> <Gold.Chemscore.DEInternal.Weighted>
0.2823

> <Gold.Chemscore.Rot.Weighted>
4.3232

> <Gold.Chemscore.Internal.Correction.Weighted>
   9.000000E+99

> <Gold.Protein.RotatedTorsions>
[ 6907 6896 6895 6894 ] final   21.37 input  -60.11 | X-H torsion
[ 7974 7965 7964 7962 ] final   50.37 input  175.53 | X-H torsion
[ 8008 7997 7996 7995 ] final  -12.65 input   59.86 | X-H torsion
[ 10167 10162 10161 10158 ] final   95.71 input  -65.29 | X-H torsion
[ 10718 10713 10712 10709 ] final   44.90 input   66.30 | X-H torsion
[ 10763 10752 10751 10750 ] final  158.38 input  -60.55 | X-H torsion
[ 11005 11000 10999 10996 ] final -158.87 input  -57.11 | X-H torsion

> <Gold.Protein.ActiveResidues>
 VAL166  LYS551  ARG553  GLY616  TRP617  ASP618  TYR619  PRO620  LYS621  CYS622 
 ASP623  PHE694  ASN695  SER759  ASP760  ASP761  ALA762  ILE779  LEU786  VAL792 
 PHE793  MET794  SER795  GLU796  ALA797  LYS798  CYS799  TRP800  GLU811  SER814 

> <Gold.Protein.RotatedAtoms>
  151.9107  135.0340  160.0513 H   0  0  0  0  0  0  0  0  0  0  0  0  # atno 6907 bound_to 6896
  152.2282  133.5032  159.5209 H   0  0  0  0  0  0  0  0  0  0  0  0  # atno 6908 bound_to 6896
  150.7018  134.1169  159.4063 H   0  0  0  0  0  0  0  0  0  0  0  0  # atno 6909 bound_to 6896
  146.0019  139.4448  143.0010 H   0  0  0  0  0  0  0  0  0  0  0  0  # atno 7974 bound_to 7965
  154.5359  140.2270  155.8724 H   0  0  0  0  0  0  0  0  0  0  0  0  # atno 8008 bound_to 7997
  156.1811  140.3100  155.9112 H   0  0  0  0  0  0  0  0  0  0  0  0  # atno 8009 bound_to 7997
  155.3356  140.0447  157.3034 H   0  0  0  0  0  0  0  0  0  0  0  0  # atno 8010 bound_to 7997
  139.7963  144.6832  150.9825 H   0  0  0  0  0  0  0  0  0  0  0  0  # atno 10167 bound_to 10162
  157.4318  130.8029  149.7610 H   0  0  0  0  0  0  0  0  0  0  0  0  # atno 10718 bound_to 10713
  154.2151  135.2784  155.2945 H   0  0  0  0  0  0  0  0  0  0  0  0  # atno 10763 bound_to 10752
  154.5747  135.5608  153.7132 H   0  0  0  0  0  0  0  0  0  0  0  0  # atno 10764 bound_to 10752
  153.0055  135.6330  154.2290 H   0  0  0  0  0  0  0  0  0  0  0  0  # atno 10765 bound_to 10752
  140.6489  134.4472  157.5235 H   0  0  0  0  0  0  0  0  0  0  0  0  # atno 11005 bound_to 11000
  145.7475  140.9985  143.1268 LP  0  0  0  0  0  0  0  0  0  0  0  0  # atno 17320 bound_to 7965
  144.6922  139.9174  143.7466 LP  0  0  0  0  0  0  0  0  0  0  0  0  # atno 17321 bound_to 7965
  140.7820  143.4328  151.0668 LP  0  0  0  0  0  0  0  0  0  0  0  0  # atno 17342 bound_to 10162
  139.8002  143.8094  152.3162 LP  0  0  0  0  0  0  0  0  0  0  0  0  # atno 17343 bound_to 10162
  155.9916  130.3936  150.2978 LP  0  0  0  0  0  0  0  0  0  0  0  0  # atno 17370 bound_to 10713
  157.1136  131.0228  151.3038 LP  0  0  0  0  0  0  0  0  0  0  0  0  # atno 17371 bound_to 10713
  139.9053  134.8463  156.1731 LP  0  0  0  0  0  0  0  0  0  0  0  0  # atno 17394 bound_to 11000
  141.0551  133.6869  156.1846 LP  0  0  0  0  0  0  0  0  0  0  0  0  # atno 17395 bound_to 11000

$$$$
