#       Name:                AV-unprocessed.smi:2152
#       Creating user name   scv26
#       Creation time:       Fri Mar 27 11:54:14 2020


#       File generated by GOLD software.
#

@<TRIPOS>MOLECULE
AV-unprocessed.smi:2152
    47    48     1
SMALL
NO_CHARGES


@<TRIPOS>ATOM
      1 ****        -2.0530  -0.6953  -3.6146 C.3            1 S1                 0.0000
      2 ****        -2.3748  -1.3682  -2.2689 C.3            1 S1                 0.0000
      3 ****        -1.6967  -2.7491  -2.1487 C.3            1 S1                 0.0000
      4 ****        -2.0580  -3.4447  -0.8265 C.3            1 S1                 0.0000
      5 ****        -1.7153  -2.5616   0.3825 C.3            1 S1                 0.0000
      6 ****        -2.3895  -1.1833   0.2728 C.3            1 S1                 0.0000
      7 ****        -2.0427  -0.4687  -1.0521 C.3            1 S1                 0.0000
      8 ****        -0.6397  -0.0539  -1.0709 N.am           1 S1                 0.0000
      9 ****        -0.1369   1.0329  -0.4667 C.2            1 S1                 0.0000
     10 ****        -0.8243   1.8370   0.1639 O.2            1 S1                 0.0000
     11 ****         1.3751   1.2457  -0.6152 C.3            1 S1                 0.0000
     12 ****         1.9818   1.8683   0.5684 N.am           1 S1                 0.0000
     13 ****         2.2852   3.2178   0.5535 C.2            1 S1                 0.0000
     14 ****         2.8327   3.8697   1.6022 C.2            1 S1                 0.0000
     15 ****         3.1419   3.1655   2.8401 C.2            1 S1                 0.0000
     16 ****         3.6300   3.7151   3.8287 O.2            1 S1                 0.0000
     17 ****         2.8305   1.7867   2.8273 N.am           1 S1                 0.0000
     18 ****         3.1077   1.0518   4.0437 C.3            1 S1                 0.0000
     19 ****         2.2508   1.1093   1.7290 C.2            1 S1                 0.0000
     20 ****         1.9787  -0.0933   1.7622 O.2            1 S1                 0.0000
     21 ****        -0.9829  -0.5277  -3.7384 H              1 S1                 0.0000
     22 ****        -2.5544   0.2692  -3.6998 H              1 S1                 0.0000
     23 ****        -2.3865  -1.3130  -4.4488 H              1 S1                 0.0000
     24 ****        -3.4526  -1.5381  -2.2552 H              1 S1                 0.0000
     25 ****        -1.9941  -3.3834  -2.9845 H              1 S1                 0.0000
     26 ****        -0.6138  -2.6404  -2.2186 H              1 S1                 0.0000
     27 ****        -3.1232  -3.6790  -0.8170 H              1 S1                 0.0000
     28 ****        -1.5318  -4.3968  -0.7522 H              1 S1                 0.0000
     29 ****        -2.0298  -3.0551   1.3023 H              1 S1                 0.0000
     30 ****        -0.6336  -2.4394   0.4541 H              1 S1                 0.0000
     31 ****        -3.4708  -1.3116   0.3357 H              1 S1                 0.0000
     32 ****        -2.1115  -0.5645   1.1268 H              1 S1                 0.0000
     33 ****        -2.6595   0.4291  -1.1252 H              1 S1                 0.0000
     34 ****         0.0001  -0.6524  -1.5728 H              1 S1                 0.0000
     35 ****         1.8683   0.2951  -0.8271 H              1 S1                 0.0000
     36 ****         1.5441   1.8674  -1.4955 H              1 S1                 0.0000
     37 ****         2.0698   3.7848  -0.3406 H              1 S1                 0.0000
     38 ****         3.0417   4.9267   1.5256 H              1 S1                 0.0000
     39 ****         2.9809  -0.0202   3.8961 H              1 S1                 0.0000
     40 ****         2.4132   1.4183   4.8014 H              1 S1                 0.0000
     41 ****         4.1440   1.2512   4.3228 H              1 S1                 0.0000
     42 ****        -1.8110   1.6957   0.2450 LP             1 S1                 0.0000
     43 ****        -0.3958   2.6311   0.5948 LP             1 S1                 0.0000
     44 ****         3.8341   4.6938   3.8069 LP             1 S1                 0.0000
     45 ****         3.8221   3.1825   4.6530 LP             1 S1                 0.0000
     46 ****         1.5660  -0.5348   0.9655 LP             1 S1                 0.0000
     47 ****         2.1708  -0.6269   2.5859 LP             1 S1                 0.0000
@<TRIPOS>BOND
    1    1    2 1     
    2    1   21 1     
    3    1   22 1     
    4    1   23 1     
    5    2    7 1     
    6    2    3 1     
    7    2   24 1     
    8    3    4 1     
    9    3   25 1     
   10    3   26 1     
   11    4    5 1     
   12    4   27 1     
   13    4   28 1     
   14    5    6 1     
   15    5   29 1     
   16    5   30 1     
   17    6    7 1     
   18    6   31 1     
   19    6   32 1     
   20    7    8 1     
   21    7   33 1     
   22    8    9 am    
   23    8   34 1     
   24    9   10 2     
   25    9   11 1     
   26   11   12 1     
   27   11   35 1     
   28   11   36 1     
   29   12   19 am    
   30   12   13 1     
   31   13   14 2     
   32   13   37 1     
   33   14   15 1     
   34   14   38 1     
   35   15   16 2     
   36   15   17 am    
   37   17   18 1     
   38   17   19 am    
   39   18   39 1     
   40   18   40 1     
   41   18   41 1     
   42   19   20 2     
   43   10   42 1     
   44   10   43 1     
   45   16   44 1     
   46   16   45 1     
   47   20   46 1     
   48   20   47 1     
@<TRIPOS>SUBSTRUCTURE
      1 S1             1
@<TRIPOS>SET
LONE_PAIRS      STATIC     ATOMS    <user>   **** ""
6 42 43 44 45 46 47
DONOR_HYDROGENS      STATIC     ATOMS    <user>   **** ""
1 34
ATOM$BLUE        STATIC     ATOMS    COLORGROUP SYSTEM
6 42 43 44 45 46 47
ATOM$RED        STATIC     ATOMS    COLORGROUP SYSTEM
1 34
