AV-unprocessed.smi:2718|AV-procd|sdf|10490|dock8
  -GOLD-   2272014533D 1   1.00000     0.00000
 Structure written by MMmdl.
 47 48  0  0  0  0  0  0  0  0  1 V2000
  153.0857  142.5800  159.6962 C   0  0  0  0  0  0  0  0  0  0  0  0
  151.9446  142.2120  158.7689 C   0  0  0  0  0  0  0  0  0  0  0  0
  151.3333  143.3821  158.0183 C   0  0  0  0  0  0  0  0  0  0  0  0
  151.5235  140.9399  158.6356 C   0  0  0  0  0  0  0  0  0  0  0  0
  150.4242  140.4585  157.7585 C   0  0  2  0  0  0  0  0  0  0  0  0
  150.1314  138.9755  157.6269 C   0  0  1  0  0  0  0  0  0  0  0  0
  148.7026  138.5308  157.5742 C   0  0  0  0  0  0  0  0  0  0  0  0
  147.8889  138.9420  156.7462 O   0  0  0  0  0  0  0  0  0  0  0  0
  148.3777  137.6549  158.5364 N   0  0  0  0  0  0  0  0  0  0  0  0
  147.0457  137.0966  158.7517 C   0  0  0  0  0  0  0  0  0  0  0  0
  146.9394  136.2861  160.0631 C   0  0  1  0  0  0  0  0  0  0  0  0
  148.0452  135.2255  160.1681 C   0  0  0  0  0  0  0  0  0  0  0  0
  146.8951  137.1652  161.2850 C   0  0  0  0  0  0  0  0  0  0  0  0
  146.8892  138.5042  161.2305 N   0  0  0  0  0  0  0  0  0  0  0  0
  146.8251  138.9326  162.5407 N   0  0  0  0  0  0  0  0  0  0  0  0
  146.7968  137.8107  163.2584 C   0  0  0  0  0  0  0  0  0  0  0  0
  146.8359  136.6768  162.5428 N   0  0  0  0  0  0  0  0  0  0  0  0
  146.8153  135.3098  163.0251 C   0  0  0  0  0  0  0  0  0  0  0  0
  150.7208  139.7448  156.4491 C   0  0  0  0  0  0  0  0  0  0  0  0
  149.9170  140.1254  155.2111 C   0  0  0  0  0  0  0  0  0  0  0  0
  152.1467  139.4093  156.0377 C   0  0  0  0  0  0  0  0  0  0  0  0
  153.8915  143.0523  159.1337 H   0  0  0  0  0  0  0  0  0  0  0  0
  153.4934  141.7027  160.1995 H   0  0  0  0  0  0  0  0  0  0  0  0
  152.7430  143.2798  160.4586 H   0  0  0  0  0  0  0  0  0  0  0  0
  152.0859  143.8583  157.3896 H   0  0  0  0  0  0  0  0  0  0  0  0
  150.9588  144.1245  158.7234 H   0  0  0  0  0  0  0  0  0  0  0  0
  150.5043  143.0820  157.3780 H   0  0  0  0  0  0  0  0  0  0  0  0
  152.0159  140.1720  159.2149 H   0  0  0  0  0  0  0  0  0  0  0  0
  149.5719  141.1363  157.7784 H   0  0  0  0  0  0  0  0  0  0  0  0
  150.8113  138.2939  158.1372 H   0  0  0  0  0  0  0  0  0  0  0  0
  149.1001  137.3698  159.1819 H   0  0  0  0  0  0  0  0  0  0  0  0
  146.2992  137.8924  158.7306 H   0  0  0  0  0  0  0  0  0  0  0  0
  146.8267  136.4486  157.9025 H   0  0  0  0  0  0  0  0  0  0  0  0
  146.0018  135.7333  160.0134 H   0  0  0  0  0  0  0  0  0  0  0  0
  147.9148  134.6108  161.0593 H   0  0  0  0  0  0  0  0  0  0  0  0
  149.0332  135.6840  160.2209 H   0  0  0  0  0  0  0  0  0  0  0  0
  148.0339  134.5606  159.3042 H   0  0  0  0  0  0  0  0  0  0  0  0
  146.7447  137.8173  164.3374 H   0  0  0  0  0  0  0  0  0  0  0  0
  146.8118  135.2962  164.1154 H   0  0  0  0  0  0  0  0  0  0  0  0
  147.6984  134.7789  162.6691 H   0  0  0  0  0  0  0  0  0  0  0  0
  145.9198  134.8038  162.6639 H   0  0  0  0  0  0  0  0  0  0  0  0
  149.7157  139.2419  154.6048 H   0  0  0  0  0  0  0  0  0  0  0  0
  150.4710  140.8419  154.6042 H   0  0  0  0  0  0  0  0  0  0  0  0
  148.9680  140.5914  155.4740 H   0  0  0  0  0  0  0  0  0  0  0  0
  152.1492  138.6047  155.3019 H   0  0  0  0  0  0  0  0  0  0  0  0
  152.7378  139.0854  156.8949 H   0  0  0  0  0  0  0  0  0  0  0  0
  152.6320  140.2826  155.6011 H   0  0  0  0  0  0  0  0  0  0  0  0
  1  2  1  0  0  0  0
  1 22  1  0  0  0  0
  1 23  1  0  0  0  0
  1 24  1  0  0  0  0
  2  3  1  0  0  0  0
  2  4  2  0  0  0  0
  3 25  1  0  0  0  0
  3 26  1  0  0  0  0
  3 27  1  0  0  0  0
  4  5  1  0  0  0  0
  4 28  1  0  0  0  0
  5 19  1  0  0  0  0
  5  6  1  0  0  0  0
  5 29  1  0  0  0  0
  6  7  1  0  0  0  0
  6 19  1  0  0  0  0
  6 30  1  0  0  0  0
  7  8  2  0  0  0  0
  7  9  1  0  0  0  0
  9 10  1  0  0  0  0
  9 31  1  0  0  0  0
 10 11  1  0  0  0  0
 10 32  1  0  0  0  0
 10 33  1  0  0  0  0
 11 12  1  0  0  0  0
 11 13  1  0  0  0  0
 11 34  1  0  0  0  0
 12 35  1  0  0  0  0
 12 36  1  0  0  0  0
 12 37  1  0  0  0  0
 13 17  1  0  0  0  0
 13 14  2  0  0  0  0
 14 15  1  0  0  0  0
 15 16  2  0  0  0  0
 16 17  1  0  0  0  0
 16 38  1  0  0  0  0
 17 18  1  0  0  0  0
 18 39  1  0  0  0  0
 18 40  1  0  0  0  0
 18 41  1  0  0  0  0
 19 20  1  0  0  0  0
 19 21  1  0  0  0  0
 20 42  1  0  0  0  0
 20 43  1  0  0  0  0
 20 44  1  0  0  0  0
 21 45  1  0  0  0  0
 21 46  1  0  0  0  0
 21 47  1  0  0  0  0
M  END
> <s_m_source_file>
AV-unprocessed.smi

> <i_m_source_file_index>
2718

> <i_lp_mmshare_version>
43012

> <i_f3d_flags>
0

> <s_epik_input>
W0NIM11DKFtDSDNdKT1bQ0hdW0NAQEhdKEMxKFtDSDNdKVtDSDNdKVtDQEhdMUMoPU8pW05IXVtDSDJdW0NASF0oW0NIM10pYzJubltjSF1uMltDSDNd

> <s_epik_cmdline>
J2VwaWtfcHl0aG9uJywgJy1waCcsICc3LjAnLCAnLXRuJywgJzgnLCAnLW1hJywgJzIwMCcsICctbWV0YWxfYmluZGluZycsICctaW1hZScsICc8aW5maWxlLm1hZT4nLCAnLW9tYWUnLCAnPG91dGZpbGUubWFlPic=

> <r_lp_tautomer_probability>
1

> <r_epik_Ionization_Penalty>
0.000449586

> <r_epik_Ionization_Penalty_Charging>
0

> <r_epik_Ionization_Penalty_Neutral>
0.000449586

> <r_epik_State_Penalty>
0.000243372

> <r_epik_Charging_Adjusted_Penalty>
0.000243372

> <i_epik_Tot_Q>
0

> <i_epik_Tot_abs_Q>
0

> <r_epik_Metal_State_Penalty>
-0

> <b_epik_Metal_Only>
0

> <s_lp_Force_Field>
OPLS_2005

> <r_lp_Energy>
15.9496

> <b_lp_Chiralities_Consistent>
1

> <s_lp_Variant>
AV-unprocessed.smi:2718-5

> <Gold.Version>
5.8.1

> <Gold.Id.Protein>
6NUR|6NUR_protein|mol2

> <Gold.PLP.Fitness>
41.0191

> <Gold.PLP.PLP>
-38.8765

> <Gold.PLP.part.hbond>
-3.9952

> <Gold.PLP.part.metal>
0.0000

> <Gold.PLP.part.buried>
-3.6277

> <Gold.PLP.part.nonpolar>
-31.7739

> <Gold.PLP.part.repulsive>
0.1193

> <Gold.PLP.ligand.clash>
0.0000

> <Gold.PLP.ligand.torsion>
0.4568

> <Gold.PLP.Chemscore.Hbond>
0.9440

> <Gold.PLP.Chemscore.CHOScore>
0.0000

> <Gold.PLP.Chemscore.Metal>
0.0000

> <Gold.PLP.Chemscore.Internal.Correction>
0.2241

> <Gold.Rescore>
     Score         DG    S(hbond)    S(metal)    S(lipo)     H(rot)  DE(clash)    DE(int)     intcor
     10.53     -12.52       0.86        0.00      78.44       1.95       0.02       1.97       ----

> <Gold.Chemscore.Fitness>
10.5340

> <Gold.Chemscore.DG>
-12.5211

> <Gold.Chemscore.ZeroCoef>
-5.4800

> <Gold.Chemscore.Hbond>
0.8575

> <Gold.Chemscore.Metal>
0.0000

> <Gold.Chemscore.Lipo>
78.4396

> <Gold.Chemscore.Internal_Hbond>
0.0000

> <Gold.Chemscore.DEClash>
0.0202

> <Gold.Chemscore.DEInternal>
1.9668

> <Gold.Chemscore.Rot>
1.9533

> <Gold.Chemscore.Internal.Correction>
   9.000000E+99

> <Gold.Chemscore.Hbond.Weighted>
-2.8642

> <Gold.Chemscore.Metal.Weighted>
-0.0000

> <Gold.Chemscore.Lipo.Weighted>
-9.1774

> <Gold.Chemscore.Internal_Hbond.Weighted>
0.0000

> <Gold.Chemscore.DEClash.Weighted>
0.0202

> <Gold.Chemscore.DEInternal.Weighted>
1.9668

> <Gold.Chemscore.Rot.Weighted>
5.0005

> <Gold.Chemscore.Internal.Correction.Weighted>
   9.000000E+99

> <Gold.Protein.RotatedTorsions>
[ 6907 6896 6895 6894 ] final -169.38 input  -60.11 | X-H torsion
[ 7974 7965 7964 7962 ] final  -75.60 input  175.53 | X-H torsion
[ 8008 7997 7996 7995 ] final  -16.07 input   59.86 | X-H torsion
[ 10167 10162 10161 10158 ] final  -61.65 input  -65.29 | X-H torsion
[ 10718 10713 10712 10709 ] final   24.80 input   66.30 | X-H torsion
[ 10763 10752 10751 10750 ] final  -66.19 input  -60.55 | X-H torsion
[ 11005 11000 10999 10996 ] final -162.08 input  -57.11 | X-H torsion

> <Gold.Protein.ActiveResidues>
 VAL166  LYS551  ARG553  GLY616  TRP617  ASP618  TYR619  PRO620  LYS621  CYS622 
 ASP623  PHE694  ASN695  SER759  ASP760  ASP761  ALA762  ILE779  LEU786  VAL792 
 PHE793  MET794  SER795  GLU796  ALA797  LYS798  CYS799  TRP800  GLU811  SER814 

> <Gold.Protein.RotatedAtoms>
  151.4906  133.3526  159.2852 H   0  0  0  0  0  0  0  0  0  0  0  0  # atno 6907 bound_to 6896
  150.8837  134.8234  159.7254 H   0  0  0  0  0  0  0  0  0  0  0  0  # atno 6908 bound_to 6896
  152.4779  134.4807  159.9716 H   0  0  0  0  0  0  0  0  0  0  0  0  # atno 6909 bound_to 6896
  145.6239  140.9355  143.1123 H   0  0  0  0  0  0  0  0  0  0  0  0  # atno 7974 bound_to 7965
  154.5081  140.2179  155.9211 H   0  0  0  0  0  0  0  0  0  0  0  0  # atno 8008 bound_to 7997
  156.1518  140.3160  155.8627 H   0  0  0  0  0  0  0  0  0  0  0  0  # atno 8009 bound_to 7997
  155.3923  140.0479  157.3031 H   0  0  0  0  0  0  0  0  0  0  0  0  # atno 8010 bound_to 7997
  140.5992  143.2357  151.5968 H   0  0  0  0  0  0  0  0  0  0  0  0  # atno 10167 bound_to 10162
  157.1847  130.6819  149.6126 H   0  0  0  0  0  0  0  0  0  0  0  0  # atno 10718 bound_to 10713
  154.3561  135.6126  153.5667 H   0  0  0  0  0  0  0  0  0  0  0  0  # atno 10763 bound_to 10752
  152.9796  135.5804  154.4687 H   0  0  0  0  0  0  0  0  0  0  0  0  # atno 10764 bound_to 10752
  154.4416  135.2850  155.1821 H   0  0  0  0  0  0  0  0  0  0  0  0  # atno 10765 bound_to 10752
  140.6132  134.4827  157.5217 H   0  0  0  0  0  0  0  0  0  0  0  0  # atno 11005 bound_to 11000
  144.7220  139.7999  143.7378 LP  0  0  0  0  0  0  0  0  0  0  0  0  # atno 17320 bound_to 7965
  146.1409  139.4466  143.0109 LP  0  0  0  0  0  0  0  0  0  0  0  0  # atno 17321 bound_to 7965
  139.5279  144.3004  152.1078 LP  0  0  0  0  0  0  0  0  0  0  0  0  # atno 17342 bound_to 10162
  140.2182  144.4494  150.6354 LP  0  0  0  0  0  0  0  0  0  0  0  0  # atno 17343 bound_to 10162
  155.9719  130.4635  150.6183 LP  0  0  0  0  0  0  0  0  0  0  0  0  # atno 17370 bound_to 10713
  157.3919  131.0797  151.1386 LP  0  0  0  0  0  0  0  0  0  0  0  0  # atno 17371 bound_to 10713
  139.9183  134.8200  156.1293 LP  0  0  0  0  0  0  0  0  0  0  0  0  # atno 17394 bound_to 11000
  141.0793  133.6761  156.2303 LP  0  0  0  0  0  0  0  0  0  0  0  0  # atno 17395 bound_to 11000

$$$$
