AV-unprocessed.smi:690|AV-procd|sdf|3361|dock9
  -GOLD-   22720 0343D 1   1.00000     0.00000
 Structure written by MMmdl.
 46 48  0  0  0  0  0  0  0  0  1 V2000
  151.0931  142.7579  157.1335 C   0  0  0  0  0  0  0  0  0  0  0  0
  150.1421  141.9948  158.0575 C   0  0  0  0  0  0  0  0  0  0  0  0
  150.0688  140.6477  157.6223 O   0  0  0  0  0  0  0  0  0  0  0  0
  151.3436  140.0320  157.4890 C   0  0  1  0  0  0  0  0  0  0  0  0
  151.7151  139.3293  158.7989 C   0  0  0  0  0  0  0  0  0  0  0  0
  151.1354  138.0361  158.2171 C   0  0  1  0  0  0  0  0  0  0  0  0
  149.7326  137.8705  158.5972 N   0  0  0  0  0  0  0  0  0  0  0  0
  149.1375  136.6949  158.8418 C   0  0  0  0  0  0  0  0  0  0  0  0
  149.7207  135.6132  158.7591 O   0  0  0  0  0  0  0  0  0  0  0  0
  147.6480  136.7558  159.2063 C   0  0  0  0  0  0  0  0  0  0  0  0
  147.3211  135.9778  160.4124 N   0  0  0  0  0  0  0  0  0  0  0  0
  147.2889  134.5746  160.2847 C   0  0  0  0  0  0  0  0  0  0  0  0
  147.0071  133.7735  161.3245 C   0  0  0  0  0  0  0  0  0  0  0  0
  146.7326  134.3857  162.6029 C   0  0  0  0  0  0  0  0  0  0  0  0
  146.7627  135.7265  162.7365 C   0  0  0  0  0  0  0  0  0  0  0  0
  147.0698  136.6060  161.6027 C   0  0  0  0  0  0  0  0  0  0  0  0
  147.0994  137.8319  161.7158 O   0  0  0  0  0  0  0  0  0  0  0  0
  151.3215  138.6394  156.8014 C   0  0  0  0  0  0  0  0  0  0  0  0
  152.6067  138.2630  156.0646 C   0  0  0  0  0  0  0  0  0  0  0  0
  152.4291  138.6969  154.6088 C   0  0  0  0  0  0  0  0  0  0  0  0
  150.9196  138.6772  154.3589 C   0  0  0  0  0  0  0  0  0  0  0  0
  150.2782  138.3597  155.7140 C   0  0  0  0  0  0  0  0  0  0  0  0
  151.1729  143.8032  157.4324 H   0  0  0  0  0  0  0  0  0  0  0  0
  150.7427  142.7301  156.1015 H   0  0  0  0  0  0  0  0  0  0  0  0
  152.0934  142.3246  157.1603 H   0  0  0  0  0  0  0  0  0  0  0  0
  150.5005  142.0496  159.0853 H   0  0  0  0  0  0  0  0  0  0  0  0
  149.1497  142.4467  158.0319 H   0  0  0  0  0  0  0  0  0  0  0  0
  152.1268  140.7085  157.1415 H   0  0  0  0  0  0  0  0  0  0  0  0
  152.7938  139.2720  158.9511 H   0  0  0  0  0  0  0  0  0  0  0  0
  151.2100  139.7104  159.6877 H   0  0  0  0  0  0  0  0  0  0  0  0
  151.7621  137.1648  158.4153 H   0  0  0  0  0  0  0  0  0  0  0  0
  149.1784  138.7118  158.6711 H   0  0  0  0  0  0  0  0  0  0  0  0
  147.3417  137.7958  159.3374 H   0  0  0  0  0  0  0  0  0  0  0  0
  147.0765  136.3967  158.3494 H   0  0  0  0  0  0  0  0  0  0  0  0
  147.5136  134.1963  159.2981 H   0  0  0  0  0  0  0  0  0  0  0  0
  146.9908  132.6997  161.2095 H   0  0  0  0  0  0  0  0  0  0  0  0
  146.5036  133.7655  163.4570 H   0  0  0  0  0  0  0  0  0  0  0  0
  146.5565  136.1666  163.7012 H   0  0  0  0  0  0  0  0  0  0  0  0
  153.4949  138.7157  156.5065 H   0  0  0  0  0  0  0  0  0  0  0  0
  152.7532  137.1826  156.1030 H   0  0  0  0  0  0  0  0  0  0  0  0
  152.8095  139.7101  154.4746 H   0  0  0  0  0  0  0  0  0  0  0  0
  152.9719  138.0470  153.9218 H   0  0  0  0  0  0  0  0  0  0  0  0
  150.5877  139.6468  153.9872 H   0  0  0  0  0  0  0  0  0  0  0  0
  150.6445  137.9305  153.6133 H   0  0  0  0  0  0  0  0  0  0  0  0
  150.0055  137.3036  155.7322 H   0  0  0  0  0  0  0  0  0  0  0  0
  149.3515  138.9151  155.8573 H   0  0  0  0  0  0  0  0  0  0  0  0
  1  2  1  0  0  0  0
  1 23  1  0  0  0  0
  1 24  1  0  0  0  0
  1 25  1  0  0  0  0
  2  3  1  0  0  0  0
  2 26  1  0  0  0  0
  2 27  1  0  0  0  0
  3  4  1  0  0  0  0
  4 18  1  0  0  0  0
  4  5  1  0  0  0  0
  4 28  1  0  0  0  0
  5  6  1  0  0  0  0
  5 29  1  0  0  0  0
  5 30  1  0  0  0  0
  6  7  1  0  0  0  0
  6 18  1  0  0  0  0
  6 31  1  0  0  0  0
  7  8  1  0  0  0  0
  7 32  1  0  0  0  0
  8  9  2  0  0  0  0
  8 10  1  0  0  0  0
 10 11  1  0  0  0  0
 10 33  1  0  0  0  0
 10 34  1  0  0  0  0
 11 16  1  0  0  0  0
 11 12  1  0  0  0  0
 12 13  2  0  0  0  0
 12 35  1  0  0  0  0
 13 14  1  0  0  0  0
 13 36  1  0  0  0  0
 14 15  2  0  0  0  0
 14 37  1  0  0  0  0
 15 16  1  0  0  0  0
 15 38  1  0  0  0  0
 16 17  2  0  0  0  0
 18 22  1  0  0  0  0
 18 19  1  0  0  0  0
 19 20  1  0  0  0  0
 19 39  1  0  0  0  0
 19 40  1  0  0  0  0
 20 21  1  0  0  0  0
 20 41  1  0  0  0  0
 20 42  1  0  0  0  0
 21 22  1  0  0  0  0
 21 43  1  0  0  0  0
 21 44  1  0  0  0  0
 22 45  1  0  0  0  0
 22 46  1  0  0  0  0
M  END
> <s_m_source_file>
AV-unprocessed.smi

> <i_m_source_file_index>
690

> <i_lp_mmshare_version>
43012

> <i_f3d_flags>
0

> <s_epik_input>
W0NIMl0xW0NIMl1bQ0gyXVtDSDJdQzEyW0NASF0oT1tDSDJdW0NIM10pW0NIMl1bQ0BIXTJbTkhdQyg9TylbQ0gyXW4zW2NIXVtjSF1bY0hdW2NIXWMzPU8=

> <s_epik_cmdline>
J2VwaWtfcHl0aG9uJywgJy1waCcsICc3LjAnLCAnLXRuJywgJzgnLCAnLW1hJywgJzIwMCcsICctbWV0YWxfYmluZGluZycsICctaW1hZScsICc8aW5maWxlLm1hZT4nLCAnLW9tYWUnLCAnPG91dGZpbGUubWFlPic=

> <r_lp_tautomer_probability>
1

> <r_epik_Ionization_Penalty>
4.11691e-07

> <r_epik_Ionization_Penalty_Charging>
3.92797e-07

> <r_epik_Ionization_Penalty_Neutral>
1.88943e-08

> <r_epik_State_Penalty>
-0

> <r_epik_Charging_Adjusted_Penalty>
3.92797e-07

> <i_epik_Tot_Q>
0

> <i_epik_Tot_abs_Q>
0

> <r_epik_Metal_State_Penalty>
-0

> <b_epik_Metal_Only>
0

> <s_lp_Force_Field>
OPLS_2005

> <r_lp_Energy>
47.4249

> <b_lp_Chiralities_Consistent>
1

> <s_lp_Variant>
AV-unprocessed.smi:690-2

> <Gold.Version>
5.8.1

> <Gold.Id.Protein>
6NUR|6NUR_protein|mol2

> <Gold.PLP.Fitness>
45.7108

> <Gold.PLP.PLP>
-39.1908

> <Gold.PLP.part.hbond>
-2.7858

> <Gold.PLP.part.metal>
0.0000

> <Gold.PLP.part.buried>
-5.5557

> <Gold.PLP.part.nonpolar>
-31.6009

> <Gold.PLP.part.repulsive>
0.1657

> <Gold.PLP.ligand.clash>
0.0000

> <Gold.PLP.ligand.torsion>
0.7087

> <Gold.PLP.Chemscore.Hbond>
2.5120

> <Gold.PLP.Chemscore.CHOScore>
0.0000

> <Gold.PLP.Chemscore.Metal>
0.0000

> <Gold.Chemscore.Hbonds>
donor molecule, donor type, donor heavy atom, donor atom, acceptor molecule, acceptor atom, score
      P1  H  6896  6909       L1     9  0.86
      P1  H  6931  6943       L1    17  0.51
      P1  H  6934  6947       L1    17  0.54

> <Gold.PLP.Chemscore.Internal.Correction>
0.4015

> <Gold.Rescore>
     Score         DG    S(hbond)    S(metal)    S(lipo)     H(rot)  DE(clash)    DE(int)     intcor
     19.16     -20.19       2.61        0.00      88.03       1.69       0.07       0.96       ----

> <Gold.Chemscore.Fitness>
19.1564

> <Gold.Chemscore.DG>
-20.1868

> <Gold.Chemscore.ZeroCoef>
-5.4800

> <Gold.Chemscore.Hbond>
2.6149

> <Gold.Chemscore.Metal>
0.0000

> <Gold.Chemscore.Lipo>
88.0281

> <Gold.Chemscore.Internal_Hbond>
0.0000

> <Gold.Chemscore.DEClash>
0.0726

> <Gold.Chemscore.DEInternal>
0.9578

> <Gold.Chemscore.Rot>
1.6900

> <Gold.Chemscore.Internal.Correction>
   9.000000E+99

> <Gold.Chemscore.Hbonds>
donor molecule, donor type, donor heavy atom, donor atom, acceptor molecule, acceptor atom, score
      P1  H  6896  6909       L1     9  0.85
      P1  H  6931  6943       L1    17  0.25
      P1  H  6934  6947       L1    17  0.54

> <Gold.Chemscore.Hbond.Weighted>
-8.7339

> <Gold.Chemscore.Metal.Weighted>
-0.0000

> <Gold.Chemscore.Lipo.Weighted>
-10.2993

> <Gold.Chemscore.Internal_Hbond.Weighted>
0.0000

> <Gold.Chemscore.DEClash.Weighted>
0.0726

> <Gold.Chemscore.DEInternal.Weighted>
0.9578

> <Gold.Chemscore.Rot.Weighted>
4.3265

> <Gold.Chemscore.Internal.Correction.Weighted>
   9.000000E+99

> <Gold.Protein.RotatedTorsions>
[ 6907 6896 6895 6894 ] final   33.14 input  -60.11 | X-H torsion
[ 7974 7965 7964 7962 ] final   -2.79 input  175.53 | X-H torsion
[ 8008 7997 7996 7995 ] final  143.81 input   59.86 | X-H torsion
[ 10167 10162 10161 10158 ] final  156.68 input  -65.29 | X-H torsion
[ 10718 10713 10712 10709 ] final  147.63 input   66.30 | X-H torsion
[ 10763 10752 10751 10750 ] final  -54.71 input  -60.55 | X-H torsion
[ 11005 11000 10999 10996 ] final  -69.01 input  -57.11 | X-H torsion

> <Gold.Protein.ActiveResidues>
 VAL166  LYS551  ARG553  GLY616  TRP617  ASP618  TYR619  PRO620  LYS621  CYS622 
 ASP623  PHE694  ASN695  SER759  ASP760  ASP761  ALA762  ILE779  LEU786  VAL792 
 PHE793  MET794  SER795  GLU796  ALA797  LYS798  CYS799  TRP800  GLU811  SER814 

> <Gold.Protein.RotatedAtoms>
  152.0844  134.9449  160.0572 H   0  0  0  0  0  0  0  0  0  0  0  0  # atno 6907 bound_to 6896
  152.0725  133.4109  159.4474 H   0  0  0  0  0  0  0  0  0  0  0  0  # atno 6908 bound_to 6896
  150.6836  134.2995  159.4743 H   0  0  0  0  0  0  0  0  0  0  0  0  # atno 6909 bound_to 6896
  146.2399  140.1624  142.8332 H   0  0  0  0  0  0  0  0  0  0  0  0  # atno 7974 bound_to 7965
  156.2922  140.2252  156.4951 H   0  0  0  0  0  0  0  0  0  0  0  0  # atno 8008 bound_to 7997
  154.7737  140.0465  157.1093 H   0  0  0  0  0  0  0  0  0  0  0  0  # atno 8009 bound_to 7997
  154.9842  140.3082  155.4936 H   0  0  0  0  0  0  0  0  0  0  0  0  # atno 8010 bound_to 7997
  139.4821  144.4986  151.8202 H   0  0  0  0  0  0  0  0  0  0  0  0  # atno 10167 bound_to 10162
  157.3186  131.0900  151.1259 H   0  0  0  0  0  0  0  0  0  0  0  0  # atno 10718 bound_to 10713
  154.1792  135.6446  153.5029 H   0  0  0  0  0  0  0  0  0  0  0  0  # atno 10763 bound_to 10752
  153.0063  135.5402  154.6532 H   0  0  0  0  0  0  0  0  0  0  0  0  # atno 10764 bound_to 10752
  154.5892  135.2932  155.0626 H   0  0  0  0  0  0  0  0  0  0  0  0  # atno 10765 bound_to 10752
  141.1545  133.6754  156.6533 H   0  0  0  0  0  0  0  0  0  0  0  0  # atno 11005 bound_to 11000
  145.0078  140.8688  143.5242 LP  0  0  0  0  0  0  0  0  0  0  0  0  # atno 17320 bound_to 7965
  145.1653  139.2435  143.5370 LP  0  0  0  0  0  0  0  0  0  0  0  0  # atno 17321 bound_to 7965
  140.4477  144.1898  150.5895 LP  0  0  0  0  0  0  0  0  0  0  0  0  # atno 17342 bound_to 10162
  140.4617  143.2446  151.9211 LP  0  0  0  0  0  0  0  0  0  0  0  0  # atno 17343 bound_to 10162
  157.2553  130.6633  149.5949 LP  0  0  0  0  0  0  0  0  0  0  0  0  # atno 17370 bound_to 10713
  155.9684  130.4526  150.5778 LP  0  0  0  0  0  0  0  0  0  0  0  0  # atno 17371 bound_to 10713
  140.3303  134.7934  157.4321 LP  0  0  0  0  0  0  0  0  0  0  0  0  # atno 17394 bound_to 11000
  140.1022  134.5457  155.8342 LP  0  0  0  0  0  0  0  0  0  0  0  0  # atno 17395 bound_to 11000

$$$$
