AV-unprocessed.smi:2061|AV-procd|sdf|8362|dock5
  -GOLD-   2272011 33D 1   1.00000     0.00000
 Structure written by MMmdl.
 45 46  0  0  0  0  0  0  0  0  1 V2000
  142.3119  144.9658  161.1602 C   0  0  0  0  0  0  0  0  0  0  0  0
  143.4804  145.0286  160.2368 C   0  0  0  0  0  0  0  0  0  0  0  0
  144.4463  144.1239  159.8958 C   0  0  0  0  0  0  0  0  0  0  0  0
  145.2491  144.8453  158.9725 C   0  0  0  0  0  0  0  0  0  0  0  0
  146.3869  144.2472  158.3729 N   0  0  0  0  0  0  0  0  0  0  0  0
  146.8332  142.9903  158.5374 C   0  0  0  0  0  0  0  0  0  0  0  0
  146.3097  142.1415  159.2596 O   0  0  0  0  0  0  0  0  0  0  0  0
  147.9375  142.7675  157.8105 N   0  0  0  0  0  0  0  0  0  0  0  0
  148.6880  141.5138  157.7630 C   0  0  0  0  0  0  0  0  0  0  0  0
  149.4509  141.3271  156.4246 C   0  0  2  0  0  0  0  0  0  0  0  0
  148.4167  141.2418  155.2793 C   0  0  0  0  0  0  0  0  0  0  0  0
  150.4174  140.2065  156.4322 N   0  0  0  0  0  0  0  0  0  0  0  0
  151.3000  140.2330  157.6004 C   0  0  0  0  0  0  0  0  0  0  0  0
  152.2843  139.0498  157.6247 C   0  0  2  0  0  0  0  0  0  0  0  0
  153.2557  139.1325  158.8068 C   0  0  0  0  0  0  0  0  0  0  0  0
  153.0506  139.0441  156.4243 O   0  0  0  0  0  0  0  0  0  0  0  0
  152.2826  139.0311  155.2224 C   0  0  1  0  0  0  0  0  0  0  0  0
  151.6535  137.6522  154.9588 C   0  0  0  0  0  0  0  0  0  0  0  0
  151.2551  140.1805  155.2296 C   0  0  0  0  0  0  0  0  0  0  0  0
  144.8109  146.0779  158.7663 N   0  0  0  0  0  0  0  0  0  0  0  0
  143.6758  146.2018  159.5760 O   0  0  0  0  0  0  0  0  0  0  0  0
  141.9955  143.9345  161.3179 H   0  0  0  0  0  0  0  0  0  0  0  0
  141.4647  145.5195  160.7551 H   0  0  0  0  0  0  0  0  0  0  0  0
  142.5645  145.3949  162.1299 H   0  0  0  0  0  0  0  0  0  0  0  0
  144.5593  143.1114  160.2536 H   0  0  0  0  0  0  0  0  0  0  0  0
  146.9149  144.8384  157.7482 H   0  0  0  0  0  0  0  0  0  0  0  0
  148.3006  143.5284  157.2554 H   0  0  0  0  0  0  0  0  0  0  0  0
  149.3808  141.4470  158.6034 H   0  0  0  0  0  0  0  0  0  0  0  0
  147.9888  140.6947  157.9272 H   0  0  0  0  0  0  0  0  0  0  0  0
  150.0102  142.2499  156.2623 H   0  0  0  0  0  0  0  0  0  0  0  0
  147.6478  142.0079  155.3821 H   0  0  0  0  0  0  0  0  0  0  0  0
  147.9156  140.2733  155.2630 H   0  0  0  0  0  0  0  0  0  0  0  0
  148.8726  141.4009  154.3027 H   0  0  0  0  0  0  0  0  0  0  0  0
  151.8544  141.1726  157.6224 H   0  0  0  0  0  0  0  0  0  0  0  0
  150.7185  140.1894  158.5195 H   0  0  0  0  0  0  0  0  0  0  0  0
  151.7281  138.1156  157.7054 H   0  0  0  0  0  0  0  0  0  0  0  0
  152.7206  139.1226  159.7564 H   0  0  0  0  0  0  0  0  0  0  0  0
  153.8503  140.0455  158.7664 H   0  0  0  0  0  0  0  0  0  0  0  0
  153.9440  138.2869  158.8045 H   0  0  0  0  0  0  0  0  0  0  0  0
  152.9859  139.2181  154.4105 H   0  0  0  0  0  0  0  0  0  0  0  0
  151.1723  137.6272  153.9809 H   0  0  0  0  0  0  0  0  0  0  0  0
  150.8958  137.3979  155.6995 H   0  0  0  0  0  0  0  0  0  0  0  0
  152.4124  136.8699  154.9731 H   0  0  0  0  0  0  0  0  0  0  0  0
  150.6433  140.0837  154.3341 H   0  0  0  0  0  0  0  0  0  0  0  0
  151.7868  141.1291  155.1408 H   0  0  0  0  0  0  0  0  0  0  0  0
  1  2  1  0  0  0  0
  1 22  1  0  0  0  0
  1 23  1  0  0  0  0
  1 24  1  0  0  0  0
  2 21  1  0  0  0  0
  2  3  2  0  0  0  0
  3  4  1  0  0  0  0
  3 25  1  0  0  0  0
  4  5  1  0  0  0  0
  4 20  2  0  0  0  0
  5  6  1  0  0  0  0
  5 26  1  0  0  0  0
  6  7  2  0  0  0  0
  6  8  1  0  0  0  0
  8  9  1  0  0  0  0
  8 27  1  0  0  0  0
  9 10  1  0  0  0  0
  9 28  1  0  0  0  0
  9 29  1  0  0  0  0
 10 11  1  0  0  0  0
 10 12  1  0  0  0  0
 10 30  1  0  0  0  0
 11 31  1  0  0  0  0
 11 32  1  0  0  0  0
 11 33  1  0  0  0  0
 12 19  1  0  0  0  0
 12 13  1  0  0  0  0
 13 14  1  0  0  0  0
 13 34  1  0  0  0  0
 13 35  1  0  0  0  0
 14 15  1  0  0  0  0
 14 16  1  0  0  0  0
 14 36  1  0  0  0  0
 15 37  1  0  0  0  0
 15 38  1  0  0  0  0
 15 39  1  0  0  0  0
 16 17  1  0  0  0  0
 17 18  1  0  0  0  0
 17 19  1  0  0  0  0
 17 40  1  0  0  0  0
 18 41  1  0  0  0  0
 18 42  1  0  0  0  0
 18 43  1  0  0  0  0
 19 44  1  0  0  0  0
 19 45  1  0  0  0  0
 20 21  1  0  0  0  0
M  END
> <s_m_source_file>
AV-unprocessed.smi

> <i_m_source_file_index>
2061

> <i_lp_mmshare_version>
43012

> <i_f3d_flags>
0

> <s_epik_input>
W0NIM11jMVtjSF1jKG5vMSlbTkhdQyg9TylbTkhdW0NIMl1bQ0BIXShbQ0gzXSlOMltDSDJdW0NAQEhdKFtDSDNdKU9bQ0BASF0oW0NIM10pW0NIMl0y

> <s_epik_cmdline>
J2VwaWtfcHl0aG9uJywgJy1waCcsICc3LjAnLCAnLXRuJywgJzgnLCAnLW1hJywgJzIwMCcsICctbWV0YWxfYmluZGluZycsICctaW1hZScsICc8aW5maWxlLm1hZT4nLCAnLW9tYWUnLCAnPG91dGZpbGUubWFlPic=

> <r_epik_Ionization_Penalty>
0.214073

> <r_epik_Ionization_Penalty_Charging>
0

> <r_epik_Ionization_Penalty_Neutral>
0.214073

> <r_epik_State_Penalty>
0.204211

> <r_epik_Charging_Adjusted_Penalty>
0.204211

> <i_epik_Tot_Q>
0

> <i_epik_Tot_abs_Q>
0

> <r_epik_Metal_State_Penalty>
0.217067

> <b_epik_Metal_Only>
0

> <s_lp_Force_Field>
OPLS_2005

> <r_lp_Energy>
31.3151

> <b_lp_Chiralities_Consistent>
1

> <s_lp_Variant>
AV-unprocessed.smi:2061-3

> <Gold.Version>
5.8.1

> <Gold.Id.Protein>
6NUR|6NUR_protein|mol2

> <Gold.PLP.Fitness>
35.2663

> <Gold.PLP.PLP>
-25.1679

> <Gold.PLP.part.hbond>
-4.3516

> <Gold.PLP.part.metal>
0.0000

> <Gold.PLP.part.buried>
-1.4722

> <Gold.PLP.part.nonpolar>
-20.4544

> <Gold.PLP.part.repulsive>
0.3126

> <Gold.PLP.ligand.clash>
0.0000

> <Gold.PLP.ligand.torsion>
0.2736

> <Gold.PLP.Chemscore.Hbond>
3.5362

> <Gold.PLP.Chemscore.CHOScore>
0.0000

> <Gold.PLP.Chemscore.Metal>
0.0000

> <Gold.Chemscore.Hbonds>
donor molecule, donor type, donor heavy atom, donor atom, acceptor molecule, acceptor atom, score
      L1  H     5    26       P1  8029  0.96
      L1  H     8    27       P1  8028  0.53
      P1  H  6934  6946       L1     7  1.00
      P1  H  7997  8009       L1    16  1.00

> <Gold.PLP.Chemscore.Internal.Correction>
0.0369

> <Gold.Rescore>
     Score         DG    S(hbond)    S(metal)    S(lipo)     H(rot)  DE(clash)    DE(int)     intcor
     15.65     -18.65       2.77        0.00      67.27       1.55       1.24       1.76       ----

> <Gold.Chemscore.Fitness>
15.6529

> <Gold.Chemscore.DG>
-18.6529

> <Gold.Chemscore.ZeroCoef>
-5.4800

> <Gold.Chemscore.Hbond>
2.7735

> <Gold.Chemscore.Metal>
0.0000

> <Gold.Chemscore.Lipo>
67.2710

> <Gold.Chemscore.Internal_Hbond>
0.0000

> <Gold.Chemscore.DEClash>
1.2377

> <Gold.Chemscore.DEInternal>
1.7622

> <Gold.Chemscore.Rot>
1.5474

> <Gold.Chemscore.Internal.Correction>
   9.000000E+99

> <Gold.Chemscore.Hbonds>
donor molecule, donor type, donor heavy atom, donor atom, acceptor molecule, acceptor atom, score
      L1  H     5    26       P1  8029  0.36
      L1  H     8    27       P1  8028  0.03
      P1  H  6934  6946       L1     7  0.90
      P1  H  7997  8009       L1    16  0.76

> <Gold.Chemscore.Hbond.Weighted>
-9.2634

> <Gold.Chemscore.Metal.Weighted>
-0.0000

> <Gold.Chemscore.Lipo.Weighted>
-7.8707

> <Gold.Chemscore.Internal_Hbond.Weighted>
0.0000

> <Gold.Chemscore.DEClash.Weighted>
1.2377

> <Gold.Chemscore.DEInternal.Weighted>
1.7622

> <Gold.Chemscore.Rot.Weighted>
3.9612

> <Gold.Chemscore.Internal.Correction.Weighted>
   9.000000E+99

> <Gold.Protein.RotatedTorsions>
[ 6907 6896 6895 6894 ] final  133.91 input  -60.11 | X-H torsion
[ 7974 7965 7964 7962 ] final  119.44 input  175.53 | X-H torsion
[ 8008 7997 7996 7995 ] final -175.34 input   59.86 | X-H torsion
[ 10167 10162 10161 10158 ] final   71.28 input  -65.29 | X-H torsion
[ 10718 10713 10712 10709 ] final  166.09 input   66.30 | X-H torsion
[ 10763 10752 10751 10750 ] final  168.49 input  -60.55 | X-H torsion
[ 11005 11000 10999 10996 ] final   27.92 input  -57.11 | X-H torsion

> <Gold.Protein.ActiveResidues>
 VAL166  LYS551  ARG553  GLY616  TRP617  ASP618  TYR619  PRO620  LYS621  CYS622 
 ASP623  PHE694  ASN695  SER759  ASP760  ASP761  ALA762  ILE779  LEU786  VAL792 
 PHE793  MET794  SER795  GLU796  ALA797  LYS798  CYS799  TRP800  GLU811  SER814 

> <Gold.Protein.RotatedAtoms>
  152.3169  133.5812  159.5717 H   0  0  0  0  0  0  0  0  0  0  0  0  # atno 6907 bound_to 6896
  150.7351  134.0069  159.3665 H   0  0  0  0  0  0  0  0  0  0  0  0  # atno 6908 bound_to 6896
  151.7957  135.0724  160.0444 H   0  0  0  0  0  0  0  0  0  0  0  0  # atno 6909 bound_to 6896
  145.1431  139.3256  143.4605 H   0  0  0  0  0  0  0  0  0  0  0  0  # atno 7974 bound_to 7965
  155.9814  140.1182  157.0723 H   0  0  0  0  0  0  0  0  0  0  0  0  # atno 8008 bound_to 7997
  154.4184  140.1144  156.5508 H   0  0  0  0  0  0  0  0  0  0  0  0  # atno 8009 bound_to 7997
  155.6466  140.3473  155.4735 H   0  0  0  0  0  0  0  0  0  0  0  0  # atno 8010 bound_to 7997
  140.0478  144.5337  150.7386 H   0  0  0  0  0  0  0  0  0  0  0  0  # atno 10167 bound_to 10162
  157.0708  131.0365  151.2612 H   0  0  0  0  0  0  0  0  0  0  0  0  # atno 10718 bound_to 10713
  154.3693  135.2753  155.2275 H   0  0  0  0  0  0  0  0  0  0  0  0  # atno 10763 bound_to 10752
  154.4430  135.5949  153.6145 H   0  0  0  0  0  0  0  0  0  0  0  0  # atno 10764 bound_to 10752
  152.9839  135.6023  154.3922 H   0  0  0  0  0  0  0  0  0  0  0  0  # atno 10765 bound_to 10752
  140.3211  134.2542  155.7717 H   0  0  0  0  0  0  0  0  0  0  0  0  # atno 11005 bound_to 11000
  146.3503  140.1476  142.8593 LP  0  0  0  0  0  0  0  0  0  0  0  0  # atno 17320 bound_to 7965
  145.0511  140.9018  143.4995 LP  0  0  0  0  0  0  0  0  0  0  0  0  # atno 17321 bound_to 7965
  140.7231  143.2608  151.4213 LP  0  0  0  0  0  0  0  0  0  0  0  0  # atno 17342 bound_to 10162
  139.5972  144.1371  152.2158 LP  0  0  0  0  0  0  0  0  0  0  0  0  # atno 17343 bound_to 10162
  157.4880  130.7805  149.7479 LP  0  0  0  0  0  0  0  0  0  0  0  0  # atno 17370 bound_to 10713
  155.9951  130.3914  150.2832 LP  0  0  0  0  0  0  0  0  0  0  0  0  # atno 17371 bound_to 10713
  141.2086  133.7772  157.0047 LP  0  0  0  0  0  0  0  0  0  0  0  0  # atno 17394 bound_to 11000
  140.0941  134.9575  157.1822 LP  0  0  0  0  0  0  0  0  0  0  0  0  # atno 17395 bound_to 11000

$$$$
