AV-unprocessed.smi:467|AV-procd|sdf|2647|dock4
  -GOLD-   2262023 53D 1   1.00000     0.00000
 Structure written by MMmdl.
 45 47  0  0  0  0  0  0  0  0  2 V2000
  151.7757  145.1865  160.4938 C   0  0  0  0  0  0  0  0  0  0  0  0
  151.7079  143.9506  159.6128 C   0  0  0  0  0  0  0  0  0  0  0  0
  150.9471  144.0114  158.4236 C   0  0  0  0  0  0  0  0  0  0  0  0
  150.9003  142.8638  157.6413 C   0  0  0  0  0  0  0  0  0  0  0  0
  150.2454  142.6074  156.4350 N   0  3  0  0  0  0  0  0  0  0  0  0
  150.4911  141.3252  156.0487 C   0  0  0  0  0  0  0  0  0  0  0  0
  151.2951  140.7592  156.9891 N   0  0  0  0  0  0  0  0  0  0  0  0
  151.8451  139.3974  157.0491 C   0  0  0  0  0  0  0  0  0  0  0  0
  151.9150  138.7216  155.6640 C   0  0  2  0  0  0  0  0  0  0  0  0
  152.5592  139.5841  154.7486 O   0  0  0  0  0  0  0  0  0  0  0  0
  150.5220  138.3884  155.0932 C   0  0  0  0  0  0  0  0  0  0  0  0
  149.8376  137.2577  155.7213 N   0  0  0  0  0  0  0  0  0  0  0  0
  149.5119  137.5050  157.1249 C   0  0  0  0  0  0  0  0  0  0  0  0
  148.8252  136.2929  157.7788 C   0  0  0  0  0  0  0  0  0  0  0  0
  149.6508  135.1412  157.6422 O   0  0  0  0  0  0  0  0  0  0  0  0
  149.9474  134.8386  156.2833 C   0  0  0  0  0  0  0  0  0  0  0  0
  150.6437  136.0445  155.6295 C   0  0  0  0  0  0  0  0  0  0  0  0
  151.5783  141.6830  158.0026 C   0  0  0  0  0  0  0  0  0  0  0  0
  152.3349  141.6078  159.1700 C   0  0  0  0  0  0  0  0  0  0  0  0
  152.3937  142.7642  159.9805 C   0  0  0  0  0  0  0  0  0  0  0  0
  153.2086  142.7097  161.2616 C   0  0  0  0  0  0  0  0  0  0  0  0
  151.1609  145.9945  160.0959 H   0  0  0  0  0  0  0  0  0  0  0  0
  152.8013  145.5502  160.5635 H   0  0  0  0  0  0  0  0  0  0  0  0
  151.4182  144.9619  161.4988 H   0  0  0  0  0  0  0  0  0  0  0  0
  150.4222  144.9109  158.1368 H   0  0  0  0  0  0  0  0  0  0  0  0
  150.1147  140.8433  155.1577 H   0  0  0  0  0  0  0  0  0  0  0  0
  152.8468  139.4824  157.4718 H   0  0  0  0  0  0  0  0  0  0  0  0
  151.2678  138.8015  157.7564 H   0  0  0  0  0  0  0  0  0  0  0  0
  152.5255  137.8211  155.7262 H   0  0  0  0  0  0  0  0  0  0  0  0
  153.4825  139.5980  154.9483 H   0  0  0  0  0  0  0  0  0  0  0  0
  149.8991  139.2786  155.1923 H   0  0  0  0  0  0  0  0  0  0  0  0
  150.6057  138.2039  154.0207 H   0  0  0  0  0  0  0  0  0  0  0  0
  150.4204  137.7468  157.6787 H   0  0  0  0  0  0  0  0  0  0  0  0
  148.8507  138.3656  157.2162 H   0  0  0  0  0  0  0  0  0  0  0  0
  148.6497  136.4823  158.8378 H   0  0  0  0  0  0  0  0  0  0  0  0
  147.8525  136.1075  157.3206 H   0  0  0  0  0  0  0  0  0  0  0  0
  150.5936  133.9614  156.2463 H   0  0  0  0  0  0  0  0  0  0  0  0
  149.0298  134.5851  155.7499 H   0  0  0  0  0  0  0  0  0  0  0  0
  150.8501  135.8154  154.5834 H   0  0  0  0  0  0  0  0  0  0  0  0
  151.6103  136.2047  156.1101 H   0  0  0  0  0  0  0  0  0  0  0  0
  152.8542  140.7049  159.4542 H   0  0  0  0  0  0  0  0  0  0  0  0
  153.6887  141.7389  161.3883 H   0  0  0  0  0  0  0  0  0  0  0  0
  152.5701  142.8807  162.1286 H   0  0  0  0  0  0  0  0  0  0  0  0
  153.9910  143.4689  161.2517 H   0  0  0  0  0  0  0  0  0  0  0  0
  149.6711  143.2570  155.9130 H   0  0  0  0  0  0  0  0  0  0  0  0
  1  2  1  0  0  0  0
  1 22  1  0  0  0  0
  1 23  1  0  0  0  0
  1 24  1  0  0  0  0
  2 20  1  0  0  0  0
  2  3  2  0  0  0  0
  3  4  1  0  0  0  0
  3 25  1  0  0  0  0
  4 18  2  0  0  0  0
  4  5  1  0  0  0  0
  5  6  2  0  0  0  0
  5 45  1  0  0  0  0
  6  7  1  0  0  0  0
  6 26  1  0  0  0  0
  7  8  1  0  0  0  0
  7 18  1  0  0  0  0
  8  9  1  0  0  0  0
  8 27  1  0  0  0  0
  8 28  1  0  0  0  0
  9 10  1  0  0  0  0
  9 11  1  0  0  0  0
  9 29  1  0  0  0  0
 10 30  1  0  0  0  0
 11 12  1  0  0  0  0
 11 31  1  0  0  0  0
 11 32  1  0  0  0  0
 12 17  1  0  0  0  0
 12 13  1  0  0  0  0
 13 14  1  0  0  0  0
 13 33  1  0  0  0  0
 13 34  1  0  0  0  0
 14 15  1  0  0  0  0
 14 35  1  0  0  0  0
 14 36  1  0  0  0  0
 15 16  1  0  0  0  0
 16 17  1  0  0  0  0
 16 37  1  0  0  0  0
 16 38  1  0  0  0  0
 17 39  1  0  0  0  0
 17 40  1  0  0  0  0
 18 19  1  0  0  0  0
 19 20  2  0  0  0  0
 19 41  1  0  0  0  0
 20 21  1  0  0  0  0
 21 42  1  0  0  0  0
 21 43  1  0  0  0  0
 21 44  1  0  0  0  0
M  CHG  1   5   1
M  END
> <s_m_source_file>
AV-unprocessed.smi

> <i_m_source_file_index>
467

> <i_lp_mmshare_version>
43012

> <i_f3d_flags>
0

> <s_epik_input>
W0NIM11jKFtjSF0xKWMoW0NIM10pW2NIXWMoYzEyKW4oW2NIXW4yKVtDSDJdW0NASF0oW09IXSlbQ0gyXU4zW0NIMl1bQ0gyXU9bQ0gyXVtDSDJdMw==

> <s_epik_cmdline>
J2VwaWtfcHl0aG9uJywgJy1waCcsICc3LjAnLCAnLXRuJywgJzgnLCAnLW1hJywgJzIwMCcsICctbWV0YWxfYmluZGluZycsICctaW1hZScsICc8aW5maWxlLm1hZT4nLCAnLW9tYWUnLCAnPG91dGZpbGUubWFlPic=

> <r_epik_Ionization_Penalty>
1.42557

> <r_epik_Ionization_Penalty_Charging>
1.21121

> <r_epik_Ionization_Penalty_Neutral>
0.214359

> <r_epik_State_Penalty>
1.47019

> <r_epik_Charging_Adjusted_Penalty>
2.68141

> <i_epik_Tot_Q>
1

> <i_epik_Tot_abs_Q>
1

> <r_epik_Metal_State_Penalty>
5.48819

> <b_epik_Metal_Only>
0

> <s_lp_Force_Field>
OPLS_2005

> <r_lp_Energy>
33.4521

> <b_lp_Chiralities_Consistent>
1

> <s_lp_Variant>
AV-unprocessed.smi:467-5

> <Gold.Version>
5.8.1

> <Gold.Id.Protein>
6NUR|6NUR_protein|mol2

> <Gold.PLP.Fitness>
50.8504

> <Gold.PLP.PLP>
-40.9962

> <Gold.PLP.part.hbond>
-3.0000

> <Gold.PLP.part.metal>
0.0000

> <Gold.PLP.part.buried>
-6.7053

> <Gold.PLP.part.nonpolar>
-31.8046

> <Gold.PLP.part.repulsive>
0.1308

> <Gold.PLP.ligand.clash>
0.0069

> <Gold.PLP.ligand.torsion>
0.4721

> <Gold.PLP.Chemscore.Hbond>
3.6000

> <Gold.PLP.Chemscore.CHOScore>
0.0000

> <Gold.PLP.Chemscore.Metal>
0.0000

> <Gold.Chemscore.Hbonds>
donor molecule, donor type, donor heavy atom, donor atom, acceptor molecule, acceptor atom, score
      L1  H     5    45       P1  8028  2.00
      P1  H  6896  6907       L1    15  0.58
      P1  H  7989  7998       L1    10  0.61

> <Gold.PLP.Chemscore.Internal.Correction>
0.0052

> <Gold.Rescore>
     Score         DG    S(hbond)    S(metal)    S(lipo)     H(rot)  DE(clash)    DE(int)     intcor
     19.81     -21.76       2.57        0.00     111.29       2.08       0.15       1.80       ----

> <Gold.Chemscore.Fitness>
19.8095

> <Gold.Chemscore.DG>
-21.7599

> <Gold.Chemscore.ZeroCoef>
-5.4800

> <Gold.Chemscore.Hbond>
2.5709

> <Gold.Chemscore.Metal>
0.0000

> <Gold.Chemscore.Lipo>
111.2878

> <Gold.Chemscore.Internal_Hbond>
0.0000

> <Gold.Chemscore.DEClash>
0.1482

> <Gold.Chemscore.DEInternal>
1.8021

> <Gold.Chemscore.Rot>
2.0811

> <Gold.Chemscore.Internal.Correction>
   9.000000E+99

> <Gold.Chemscore.Hbonds>
donor molecule, donor type, donor heavy atom, donor atom, acceptor molecule, acceptor atom, score
      L1  H     5    45       P1  8028  0.97
      P1  H  6896  6907       L1    15  0.52
      P1  H  7989  7998       L1    10  0.58

> <Gold.Chemscore.Hbond.Weighted>
-8.5868

> <Gold.Chemscore.Metal.Weighted>
-0.0000

> <Gold.Chemscore.Lipo.Weighted>
-13.0207

> <Gold.Chemscore.Internal_Hbond.Weighted>
0.0000

> <Gold.Chemscore.DEClash.Weighted>
0.1482

> <Gold.Chemscore.DEInternal.Weighted>
1.8021

> <Gold.Chemscore.Rot.Weighted>
5.3275

> <Gold.Chemscore.Internal.Correction.Weighted>
   9.000000E+99

> <Gold.Protein.RotatedTorsions>
[ 6907 6896 6895 6894 ] final  -82.71 input  -60.11 | X-H torsion
[ 7974 7965 7964 7962 ] final   58.99 input  175.53 | X-H torsion
[ 8008 7997 7996 7995 ] final  -24.00 input   59.86 | X-H torsion
[ 10167 10162 10161 10158 ] final  119.37 input  -65.29 | X-H torsion
[ 10718 10713 10712 10709 ] final  -51.82 input   66.30 | X-H torsion
[ 10763 10752 10751 10750 ] final   83.32 input  -60.55 | X-H torsion
[ 11005 11000 10999 10996 ] final    7.88 input  -57.11 | X-H torsion

> <Gold.Protein.ActiveResidues>
 VAL166  LYS551  ARG553  GLY616  TRP617  ASP618  TYR619  PRO620  LYS621  CYS622 
 ASP623  PHE694  ASN695  SER759  ASP760  ASP761  ALA762  ILE779  LEU786  VAL792 
 PHE793  MET794  SER795  GLU796  ALA797  LYS798  CYS799  TRP800  GLU811  SER814 

> <Gold.Protein.RotatedAtoms>
  150.6894  134.3623  159.4955 H   0  0  0  0  0  0  0  0  0  0  0  0  # atno 6907 bound_to 6896
  152.1450  134.9030  160.0560 H   0  0  0  0  0  0  0  0  0  0  0  0  # atno 6908 bound_to 6896
  152.0149  133.3841  159.4271 H   0  0  0  0  0  0  0  0  0  0  0  0  # atno 6909 bound_to 6896
  145.9121  139.3662  143.0529 H   0  0  0  0  0  0  0  0  0  0  0  0  # atno 7974 bound_to 7965
  154.4553  140.1965  156.0397 H   0  0  0  0  0  0  0  0  0  0  0  0  # atno 8008 bound_to 7997
  156.0734  140.3281  155.7575 H   0  0  0  0  0  0  0  0  0  0  0  0  # atno 8009 bound_to 7997
  155.5227  140.0571  157.2894 H   0  0  0  0  0  0  0  0  0  0  0  0  # atno 8010 bound_to 7997
  139.6051  144.7067  151.2973 H   0  0  0  0  0  0  0  0  0  0  0  0  # atno 10167 bound_to 10162
  156.1676  130.4149  149.9696 H   0  0  0  0  0  0  0  0  0  0  0  0  # atno 10718 bound_to 10713
  153.1280  135.4696  154.9303 H   0  0  0  0  0  0  0  0  0  0  0  0  # atno 10763 bound_to 10752
  154.7638  135.3139  154.8329 H   0  0  0  0  0  0  0  0  0  0  0  0  # atno 10764 bound_to 10752
  153.8877  135.6888  153.4816 H   0  0  0  0  0  0  0  0  0  0  0  0  # atno 10765 bound_to 10752
  140.5433  134.0354  155.7911 H   0  0  0  0  0  0  0  0  0  0  0  0  # atno 11005 bound_to 11000
  145.8658  140.9449  143.0676 LP  0  0  0  0  0  0  0  0  0  0  0  0  # atno 17320 bound_to 7965
  144.6744  140.0589  143.7476 LP  0  0  0  0  0  0  0  0  0  0  0  0  # atno 17321 bound_to 7965
  140.7278  143.6952  150.7890 LP  0  0  0  0  0  0  0  0  0  0  0  0  # atno 17342 bound_to 10162
  140.0536  143.5225  152.2662 LP  0  0  0  0  0  0  0  0  0  0  0  0  # atno 17343 bound_to 10162
  156.7506  130.9114  151.3637 LP  0  0  0  0  0  0  0  0  0  0  0  0  # atno 17370 bound_to 10713
  157.6779  130.9112  150.0195 LP  0  0  0  0  0  0  0  0  0  0  0  0  # atno 17371 bound_to 10713
  141.1215  133.9454  157.2721 LP  0  0  0  0  0  0  0  0  0  0  0  0  # atno 17394 bound_to 11000
  139.9493  135.0178  156.8946 LP  0  0  0  0  0  0  0  0  0  0  0  0  # atno 17395 bound_to 11000

$$$$
