#       Name:                AV-unprocessed.smi:107
#       Creating user name   scv26
#       Creation time:       Thu Mar 26 18:02:28 2020


#       File generated by GOLD software.
#

@<TRIPOS>MOLECULE
AV-unprocessed.smi:107
    41    42     1
SMALL
NO_CHARGES


@<TRIPOS>ATOM
      1 ****        -3.7659   1.4519   0.1845 C.3            1 S1                 0.0000
      2 ****        -2.9817   0.1760   0.4361 C.2            1 S1                 0.0000
      3 ****        -1.6339   0.1278   0.3450 C.2            1 S1                 0.0000
      4 ****        -0.9252  -1.0386   0.5731 N.am           1 S1                 0.0000
      5 ****         0.5783  -1.0649   0.4396 C.3            1 S1                 0.0000
      6 ****         0.9958  -1.3619  -0.9949 C.3            1 S1                 0.0000
      7 ****         2.3287  -0.6299  -1.0977 C.3            1 S1                 0.0000
      8 ****         2.4017   0.0738  -2.3242 O.3            1 S1                 0.0000
      9 ****         2.3940   0.2670   0.1635 C.3            1 S1                 0.0000
     10 ****         2.7775   1.7410  -0.0671 C.3            1 S1                 0.0000
     11 ****         3.1964   2.3302   1.1457 O.3            1 S1                 0.0000
     12 ****         1.0870   0.1960   0.7207 O.3            1 S1                 0.0000
     13 ****        -1.6212  -2.2361   0.8800 C.2            1 S1                 0.0000
     14 ****        -0.9645  -3.2663   1.0331 O.2            1 S1                 0.0000
     15 ****        -2.9804  -2.1952   0.9833 N.pl3          1 S1                -1.0000
     16 ****        -3.7025  -1.0550   0.7836 C.2            1 S1                 0.0000
     17 ****        -4.9292  -1.0321   0.8829 O.2            1 S1                 0.0000
     18 ****        -3.1044   2.2813  -0.0668 H              1 S1                 0.0000
     19 ****        -4.3350   1.7305   1.0717 H              1 S1                 0.0000
     20 ****        -4.4624   1.3129  -0.6429 H              1 S1                 0.0000
     21 ****        -1.0989   1.0274   0.0791 H              1 S1                 0.0000
     22 ****         0.9654  -1.7760   1.1719 H              1 S1                 0.0000
     23 ****         1.0644  -2.4363  -1.1676 H              1 S1                 0.0000
     24 ****         0.2569  -0.9375  -1.6773 H              1 S1                 0.0000
     25 ****         3.1508  -1.3462  -1.0726 H              1 S1                 0.0000
     26 ****         3.2439   0.4987  -2.3775 H              1 S1                 0.0000
     27 ****         3.0895  -0.1938   0.8678 H              1 S1                 0.0000
     28 ****         3.6174   1.8153  -0.7582 H              1 S1                 0.0000
     29 ****         1.9473   2.3029  -0.4966 H              1 S1                 0.0000
     30 ****         3.4093   3.2362   0.9816 H              1 S1                 0.0000
     31 ****         1.6751   0.7597  -2.3630 LP             1 S1                 0.0000
     32 ****         2.2978  -0.5653  -3.0862 LP             1 S1                 0.0000
     33 ****         4.0032   1.8516   1.4921 LP             1 S1                 0.0000
     34 ****         2.4602   2.2736   1.8201 LP             1 S1                 0.0000
     35 ****         1.1304   0.3333   1.7103 LP             1 S1                 0.0000
     36 ****         0.5036   0.8979   0.3121 LP             1 S1                 0.0000
     37 ****         0.0310  -3.2431   0.9404 LP             1 S1                 0.0000
     38 ****        -1.4265  -4.1261   1.2501 LP             1 S1                 0.0000
     39 ****        -3.4685  -3.0366   1.2153 LP             1 S1                 0.0000
     40 ****        -5.4276  -0.1792   0.7273 LP             1 S1                 0.0000
     41 ****        -5.4273  -1.8663   1.1192 LP             1 S1                 0.0000
@<TRIPOS>BOND
    1    1    2 1     
    2    1   18 1     
    3    1   19 1     
    4    1   20 1     
    5    2   16 1     
    6    2    3 2     
    7    3    4 1     
    8    3   21 1     
    9    4    5 1     
   10    4   13 am    
   11    5   12 1     
   12    5    6 1     
   13    5   22 1     
   14    6    7 1     
   15    6   23 1     
   16    6   24 1     
   17    7    8 1     
   18    7    9 1     
   19    7   25 1     
   20    8   26 1     
   21    9   10 1     
   22    9   12 1     
   23    9   27 1     
   24   10   11 1     
   25   10   28 1     
   26   10   29 1     
   27   11   30 1     
   28   13   14 2     
   29   13   15 1     
   30   15   16 1     
   31   16   17 2     
   32    8   31 1     
   33    8   32 1     
   34   11   33 1     
   35   11   34 1     
   36   12   35 1     
   37   12   36 1     
   38   14   37 1     
   39   14   38 1     
   40   15   39 1     
   41   17   40 1     
   42   17   41 1     
@<TRIPOS>SUBSTRUCTURE
      1 S1             1
@<TRIPOS>SET
LONE_PAIRS      STATIC     ATOMS    <user>   **** ""
11 31 32 33 34 35 36 37 38 39 40 41
DONOR_HYDROGENS      STATIC     ATOMS    <user>   **** ""
2 26 30
ATOM$BLUE        STATIC     ATOMS    COLORGROUP SYSTEM
11 31 32 33 34 35 36 37 38 39 40 41
ATOM$RED        STATIC     ATOMS    COLORGROUP SYSTEM
2 26 30
