AV-unprocessed.smi:1346|AV-procd|sdf|5515|dock3
  -GOLD-   22720 5103D 1   1.00000     0.00000
 Structure written by MMmdl.
 47 48  0  0  0  0  0  0  0  0  1 V2000
  156.5409  138.9267  167.0572 C   0  0  0  0  0  0  0  0  0  0  0  0
  155.9177  140.1729  166.4960 C   0  0  0  0  0  0  0  0  0  0  0  0
  156.0168  141.3041  167.1735 N   0  0  0  0  0  0  0  0  0  0  0  0
  155.3392  142.2651  166.4174 O   0  0  0  0  0  0  0  0  0  0  0  0
  154.8496  141.6666  165.3021 C   0  0  0  0  0  0  0  0  0  0  0  0
  154.0809  142.5304  164.3606 C   0  0  0  0  0  0  0  0  0  0  0  0
  155.1821  140.3400  165.2859 C   0  0  0  0  0  0  0  0  0  0  0  0
  154.8438  139.3051  164.2430 C   0  0  0  0  0  0  0  0  0  0  0  0
  155.2618  139.8135  162.8636 C   0  0  0  0  0  0  0  0  0  0  0  0
  156.4457  140.0481  162.6229 O   0  0  0  0  0  0  0  0  0  0  0  0
  154.2752  139.9960  161.9757 N   0  0  0  0  0  0  0  0  0  0  0  0
  154.4435  140.5605  160.6448 C   0  0  0  0  0  0  0  0  0  0  0  0
  153.1116  140.5263  159.8884 C   0  0  0  0  0  0  0  0  0  0  0  0
  153.1098  141.5753  158.9307 O   0  0  0  0  0  0  0  0  0  0  0  0
  152.2589  142.6703  159.2442 C   0  0  1  0  0  0  0  0  0  0  0  0
  152.6999  143.3021  160.5827 C   0  0  0  0  0  0  0  0  0  0  0  0
  151.9069  144.5795  160.8946 C   0  0  0  0  0  0  0  0  0  0  0  0
  152.0253  145.5938  159.7492 C   0  0  0  0  0  0  0  0  0  0  0  0
  151.5751  144.9746  158.4177 C   0  0  0  0  0  0  0  0  0  0  0  0
  152.3641  143.6913  158.0880 C   0  0  2  0  0  0  0  0  0  0  0  0
  151.8907  143.0927  156.7534 C   0  0  0  0  0  0  0  0  0  0  0  0
  156.7569  138.2016  166.2729 H   0  0  0  0  0  0  0  0  0  0  0  0
  155.8730  138.4503  167.7745 H   0  0  0  0  0  0  0  0  0  0  0  0
  157.4783  139.1445  167.5696 H   0  0  0  0  0  0  0  0  0  0  0  0
  153.2126  141.9993  163.9701 H   0  0  0  0  0  0  0  0  0  0  0  0
  154.7030  142.8283  163.5169 H   0  0  0  0  0  0  0  0  0  0  0  0
  153.7265  143.4340  164.8572 H   0  0  0  0  0  0  0  0  0  0  0  0
  155.3542  138.3613  164.4381 H   0  0  0  0  0  0  0  0  0  0  0  0
  153.7777  139.0743  164.2415 H   0  0  0  0  0  0  0  0  0  0  0  0
  153.3316  139.7781  162.2614 H   0  0  0  0  0  0  0  0  0  0  0  0
  154.8055  141.5875  160.7156 H   0  0  0  0  0  0  0  0  0  0  0  0
  155.1972  139.9868  160.1041 H   0  0  0  0  0  0  0  0  0  0  0  0
  152.9967  139.5664  159.3830 H   0  0  0  0  0  0  0  0  0  0  0  0
  152.2839  140.6274  160.5905 H   0  0  0  0  0  0  0  0  0  0  0  0
  151.2232  142.3327  159.3184 H   0  0  0  0  0  0  0  0  0  0  0  0
  152.5740  142.5967  161.4032 H   0  0  0  0  0  0  0  0  0  0  0  0
  153.7637  143.5391  160.5423 H   0  0  0  0  0  0  0  0  0  0  0  0
  150.8578  144.3288  161.0567 H   0  0  0  0  0  0  0  0  0  0  0  0
  152.2669  145.0235  161.8231 H   0  0  0  0  0  0  0  0  0  0  0  0
  151.4254  146.4770  159.9707 H   0  0  0  0  0  0  0  0  0  0  0  0
  153.0584  145.9336  159.6650 H   0  0  0  0  0  0  0  0  0  0  0  0
  150.5087  144.7500  158.4652 H   0  0  0  0  0  0  0  0  0  0  0  0
  151.7002  145.7049  157.6175 H   0  0  0  0  0  0  0  0  0  0  0  0
  153.4137  143.9667  157.9729 H   0  0  0  0  0  0  0  0  0  0  0  0
  150.8469  142.7821  156.8065 H   0  0  0  0  0  0  0  0  0  0  0  0
  152.4833  142.2205  156.4760 H   0  0  0  0  0  0  0  0  0  0  0  0
  151.9816  143.8177  155.9443 H   0  0  0  0  0  0  0  0  0  0  0  0
  1  2  1  0  0  0  0
  1 22  1  0  0  0  0
  1 23  1  0  0  0  0
  1 24  1  0  0  0  0
  2  7  1  0  0  0  0
  2  3  2  0  0  0  0
  3  4  1  0  0  0  0
  4  5  1  0  0  0  0
  5  6  1  0  0  0  0
  5  7  2  0  0  0  0
  6 25  1  0  0  0  0
  6 26  1  0  0  0  0
  6 27  1  0  0  0  0
  7  8  1  0  0  0  0
  8  9  1  0  0  0  0
  8 28  1  0  0  0  0
  8 29  1  0  0  0  0
  9 10  2  0  0  0  0
  9 11  1  0  0  0  0
 11 12  1  0  0  0  0
 11 30  1  0  0  0  0
 12 13  1  0  0  0  0
 12 31  1  0  0  0  0
 12 32  1  0  0  0  0
 13 14  1  0  0  0  0
 13 33  1  0  0  0  0
 13 34  1  0  0  0  0
 14 15  1  0  0  0  0
 15 20  1  0  0  0  0
 15 16  1  0  0  0  0
 15 35  1  0  0  0  0
 16 17  1  0  0  0  0
 16 36  1  0  0  0  0
 16 37  1  0  0  0  0
 17 18  1  0  0  0  0
 17 38  1  0  0  0  0
 17 39  1  0  0  0  0
 18 19  1  0  0  0  0
 18 40  1  0  0  0  0
 18 41  1  0  0  0  0
 19 20  1  0  0  0  0
 19 42  1  0  0  0  0
 19 43  1  0  0  0  0
 20 21  1  0  0  0  0
 20 44  1  0  0  0  0
 21 45  1  0  0  0  0
 21 46  1  0  0  0  0
 21 47  1  0  0  0  0
M  END
> <s_m_source_file>
AV-unprocessed.smi

> <i_m_source_file_index>
1346

> <i_lp_mmshare_version>
43012

> <i_f3d_flags>
0

> <s_epik_input>
W0NIM11jMW5vYyhbQ0gzXSljMVtDSDJdQyg9TylbTkhdW0NIMl1bQ0gyXU9bQ0BASF0yW0NIMl1bQ0gyXVtDSDJdW0NIMl1bQ0BIXTJbQ0gzXQ==

> <s_epik_cmdline>
J2VwaWtfcHl0aG9uJywgJy1waCcsICc3LjAnLCAnLXRuJywgJzgnLCAnLW1hJywgJzIwMCcsICctbWV0YWxfYmluZGluZycsICctaW1hZScsICc8aW5maWxlLm1hZT4nLCAnLW9tYWUnLCAnPG91dGZpbGUubWFlPic=

> <r_lp_tautomer_probability>
1

> <r_epik_Ionization_Penalty>
3.26154e-08

> <r_epik_Ionization_Penalty_Charging>
0

> <r_epik_Ionization_Penalty_Neutral>
3.26154e-08

> <r_epik_State_Penalty>
-0

> <r_epik_Charging_Adjusted_Penalty>
0

> <i_epik_Tot_Q>
0

> <i_epik_Tot_abs_Q>
0

> <r_epik_Metal_State_Penalty>
-0

> <b_epik_Metal_Only>
0

> <s_lp_Force_Field>
OPLS_2005

> <r_lp_Energy>
4.3429

> <b_lp_Chiralities_Consistent>
1

> <s_lp_Variant>
AV-unprocessed.smi:1346-4

> <Gold.Version>
5.8.1

> <Gold.Id.Protein>
6NUR|6NUR_protein|mol2

> <Gold.PLP.Fitness>
42.8805

> <Gold.PLP.PLP>
-43.9399

> <Gold.PLP.part.hbond>
-1.0000

> <Gold.PLP.part.metal>
0.0000

> <Gold.PLP.part.buried>
-3.7826

> <Gold.PLP.part.nonpolar>
-37.8001

> <Gold.PLP.part.repulsive>
0.0000

> <Gold.PLP.ligand.clash>
0.0000

> <Gold.PLP.ligand.torsion>
0.5700

> <Gold.PLP.Chemscore.Hbond>
0.0000

> <Gold.PLP.Chemscore.CHOScore>
0.0000

> <Gold.PLP.Chemscore.Metal>
0.0000

> <Gold.PLP.Chemscore.Internal.Correction>
0.0807

> <Gold.Rescore>
     Score         DG    S(hbond)    S(metal)    S(lipo)     H(rot)  DE(clash)    DE(int)     intcor
     15.96     -16.59       0.00        0.00     132.90       1.74       0.04       0.59       ----

> <Gold.Chemscore.Fitness>
15.9625

> <Gold.Chemscore.DG>
-16.5874

> <Gold.Chemscore.ZeroCoef>
-5.4800

> <Gold.Chemscore.Hbond>
0.0000

> <Gold.Chemscore.Metal>
0.0000

> <Gold.Chemscore.Lipo>
132.9010

> <Gold.Chemscore.Internal_Hbond>
0.0000

> <Gold.Chemscore.DEClash>
0.0361

> <Gold.Chemscore.DEInternal>
0.5888

> <Gold.Chemscore.Rot>
1.7352

> <Gold.Chemscore.Internal.Correction>
   9.000000E+99

> <Gold.Chemscore.Hbond.Weighted>
-0.0000

> <Gold.Chemscore.Metal.Weighted>
-0.0000

> <Gold.Chemscore.Lipo.Weighted>
-15.5494

> <Gold.Chemscore.Internal_Hbond.Weighted>
0.0000

> <Gold.Chemscore.DEClash.Weighted>
0.0361

> <Gold.Chemscore.DEInternal.Weighted>
0.5888

> <Gold.Chemscore.Rot.Weighted>
4.4420

> <Gold.Chemscore.Internal.Correction.Weighted>
   9.000000E+99

> <Gold.Protein.RotatedTorsions>
[ 6907 6896 6895 6894 ] final  -22.78 input  -60.11 | X-H torsion
[ 7974 7965 7964 7962 ] final -173.77 input  175.53 | X-H torsion
[ 8008 7997 7996 7995 ] final   46.06 input   59.86 | X-H torsion
[ 10167 10162 10161 10158 ] final  115.56 input  -65.29 | X-H torsion
[ 10718 10713 10712 10709 ] final  -31.95 input   66.30 | X-H torsion
[ 10763 10752 10751 10750 ] final -136.12 input  -60.55 | X-H torsion
[ 11005 11000 10999 10996 ] final -154.35 input  -57.11 | X-H torsion

> <Gold.Protein.ActiveResidues>
 VAL166  LYS551  ARG553  GLY616  TRP617  ASP618  TYR619  PRO620  LYS621  CYS622 
 ASP623  PHE694  ASN695  SER759  ASP760  ASP761  ALA762  ILE779  LEU786  VAL792 
 PHE793  MET794  SER795  GLU796  ALA797  LYS798  CYS799  TRP800  GLU811  SER814 

> <Gold.Protein.RotatedAtoms>
  151.2136  135.0491  159.8920 H   0  0  0  0  0  0  0  0  0  0  0  0  # atno 6907 bound_to 6896
  152.5422  134.0718  159.8207 H   0  0  0  0  0  0  0  0  0  0  0  0  # atno 6908 bound_to 6896
  151.0874  133.5294  159.2649 H   0  0  0  0  0  0  0  0  0  0  0  0  # atno 6909 bound_to 6896
  144.7136  140.1572  143.6379 H   0  0  0  0  0  0  0  0  0  0  0  0  # atno 7974 bound_to 7965
  155.3462  140.3411  155.4239 H   0  0  0  0  0  0  0  0  0  0  0  0  # atno 8008 bound_to 7997
  156.1788  140.1657  156.8349 H   0  0  0  0  0  0  0  0  0  0  0  0  # atno 8009 bound_to 7997
  154.5311  140.0745  156.8328 H   0  0  0  0  0  0  0  0  0  0  0  0  # atno 8010 bound_to 7997
  139.6309  144.7114  151.2435 H   0  0  0  0  0  0  0  0  0  0  0  0  # atno 10167 bound_to 10162
  156.3809  130.4356  149.7469 H   0  0  0  0  0  0  0  0  0  0  0  0  # atno 10718 bound_to 10713
  154.8690  135.3682  154.5009 H   0  0  0  0  0  0  0  0  0  0  0  0  # atno 10763 bound_to 10752
  153.5650  135.7022  153.5535 H   0  0  0  0  0  0  0  0  0  0  0  0  # atno 10764 bound_to 10752
  153.3594  135.4050  155.1670 H   0  0  0  0  0  0  0  0  0  0  0  0  # atno 10765 bound_to 10752
  140.6982  134.3966  157.5212 H   0  0  0  0  0  0  0  0  0  0  0  0  # atno 11005 bound_to 11000
  145.9063  139.2460  143.1464 LP  0  0  0  0  0  0  0  0  0  0  0  0  # atno 17320 bound_to 7965
  145.9761  140.8721  143.0138 LP  0  0  0  0  0  0  0  0  0  0  0  0  # atno 17321 bound_to 7965
  140.7438  143.6482  150.8272 LP  0  0  0  0  0  0  0  0  0  0  0  0  # atno 17342 bound_to 10162
  140.0107  143.5645  152.2840 LP  0  0  0  0  0  0  0  0  0  0  0  0  # atno 17343 bound_to 10162
  156.4560  130.7929  151.2950 LP  0  0  0  0  0  0  0  0  0  0  0  0  # atno 17370 bound_to 10713
  157.7492  131.0080  150.3213 LP  0  0  0  0  0  0  0  0  0  0  0  0  # atno 17371 bound_to 10713
  139.8904  134.8806  156.2372 LP  0  0  0  0  0  0  0  0  0  0  0  0  # atno 17394 bound_to 11000
  141.0185  133.7055  156.1229 LP  0  0  0  0  0  0  0  0  0  0  0  0  # atno 17395 bound_to 11000

$$$$
