AV-unprocessed.smi:2269|AV-procd|sdf|9153|dock2
  -GOLD-   2272012363D 1   1.00000     0.00000
 Structure written by MMmdl.
 41 42  0  0  0  0  0  0  0  0  1 V2000
  146.3109  136.2727  150.1771 C   0  0  0  0  0  0  0  0  0  0  0  0
  146.5396  137.3775  151.1937 C   0  0  0  0  0  0  0  0  0  0  0  0
  146.9162  138.6158  150.6651 N   0  0  0  0  0  0  0  0  0  0  0  0
  147.1302  139.6160  151.4560 C   0  0  0  0  0  0  0  0  0  0  0  0
  146.9928  139.4974  152.8482 N   0  0  0  0  0  0  0  0  0  0  0  0
  147.2703  140.7086  153.6361 C   0  0  0  0  0  0  0  0  0  0  0  0
  148.5729  140.5798  154.4593 C   0  0  1  0  0  0  0  0  0  0  0  0
  149.6788  140.7364  153.5932 O   0  0  0  0  0  0  0  0  0  0  0  0
  148.6798  141.6668  155.5383 C   0  0  0  0  0  0  0  0  0  0  0  0
  149.8645  141.4376  156.2871 O   0  0  0  0  0  0  0  0  0  0  0  0
  150.7673  142.5333  156.2964 C   0  0  0  0  0  0  0  0  0  0  0  0
  151.2396  142.9057  157.6943 C   0  0  0  0  0  0  0  0  0  0  0  0
  151.1759  144.2533  158.1097 C   0  0  0  0  0  0  0  0  0  0  0  0
  151.6080  144.6235  159.3975 C   0  0  0  0  0  0  0  0  0  0  0  0
  152.1099  143.6476  160.2783 C   0  0  0  0  0  0  0  0  0  0  0  0
  152.1813  142.3025  159.8690 C   0  0  0  0  0  0  0  0  0  0  0  0
  151.7505  141.9268  158.5807 C   0  0  0  0  0  0  0  0  0  0  0  0
  151.8626  140.2650  158.1157 Cl  0  0  0  0  0  0  0  0  0  0  0  0
  146.6386  138.3237  153.4476 C   0  0  0  0  0  0  0  0  0  0  0  0
  146.5374  138.2272  154.6722 O   0  0  0  0  0  0  0  0  0  0  0  0
  146.3950  137.1952  152.5348 C   0  0  0  0  0  0  0  0  0  0  0  0
  145.9892  135.8696  153.1672 C   0  0  0  0  0  0  0  0  0  0  0  0
  146.9923  135.4408  150.3571 H   0  0  0  0  0  0  0  0  0  0  0  0
  146.4791  136.6280  149.1597 H   0  0  0  0  0  0  0  0  0  0  0  0
  145.2862  135.9050  150.2367 H   0  0  0  0  0  0  0  0  0  0  0  0
  147.4307  140.6015  151.0956 H   0  0  0  0  0  0  0  0  0  0  0  0
  147.2897  141.6095  153.0186 H   0  0  0  0  0  0  0  0  0  0  0  0
  146.4260  140.8754  154.3071 H   0  0  0  0  0  0  0  0  0  0  0  0
  148.6465  139.6024  154.9381 H   0  0  0  0  0  0  0  0  0  0  0  0
  149.3668  140.7195  152.7014 H   0  0  0  0  0  0  0  0  0  0  0  0
  148.7391  142.6557  155.0809 H   0  0  0  0  0  0  0  0  0  0  0  0
  147.7936  141.6523  156.1747 H   0  0  0  0  0  0  0  0  0  0  0  0
  151.6412  142.2564  155.7064 H   0  0  0  0  0  0  0  0  0  0  0  0
  150.3200  143.3920  155.7934 H   0  0  0  0  0  0  0  0  0  0  0  0
  150.7913  145.0103  157.4420 H   0  0  0  0  0  0  0  0  0  0  0  0
  151.5543  145.6563  159.7092 H   0  0  0  0  0  0  0  0  0  0  0  0
  152.4418  143.9304  161.2665 H   0  0  0  0  0  0  0  0  0  0  0  0
  152.5699  141.5567  160.5467 H   0  0  0  0  0  0  0  0  0  0  0  0
  145.0640  135.9904  153.7316 H   0  0  0  0  0  0  0  0  0  0  0  0
  146.7631  135.5294  153.8558 H   0  0  0  0  0  0  0  0  0  0  0  0
  145.8277  135.0770  152.4384 H   0  0  0  0  0  0  0  0  0  0  0  0
  1  2  1  0  0  0  0
  1 23  1  0  0  0  0
  1 24  1  0  0  0  0
  1 25  1  0  0  0  0
  2 21  2  0  0  0  0
  2  3  1  0  0  0  0
  3  4  2  0  0  0  0
  4  5  1  0  0  0  0
  4 26  1  0  0  0  0
  5  6  1  0  0  0  0
  5 19  1  0  0  0  0
  6  7  1  0  0  0  0
  6 27  1  0  0  0  0
  6 28  1  0  0  0  0
  7  8  1  0  0  0  0
  7  9  1  0  0  0  0
  7 29  1  0  0  0  0
  8 30  1  0  0  0  0
  9 10  1  0  0  0  0
  9 31  1  0  0  0  0
  9 32  1  0  0  0  0
 10 11  1  0  0  0  0
 11 12  1  0  0  0  0
 11 33  1  0  0  0  0
 11 34  1  0  0  0  0
 12 17  1  0  0  0  0
 12 13  2  0  0  0  0
 13 14  1  0  0  0  0
 13 35  1  0  0  0  0
 14 15  2  0  0  0  0
 14 36  1  0  0  0  0
 15 16  1  0  0  0  0
 15 37  1  0  0  0  0
 16 17  2  0  0  0  0
 16 38  1  0  0  0  0
 17 18  1  0  0  0  0
 19 20  2  0  0  0  0
 19 21  1  0  0  0  0
 21 22  1  0  0  0  0
 22 39  1  0  0  0  0
 22 40  1  0  0  0  0
 22 41  1  0  0  0  0
M  END
> <s_m_source_file>
AV-unprocessed.smi

> <i_m_source_file_index>
2269

> <i_lp_mmshare_version>
43012

> <i_f3d_flags>
0

> <s_epik_input>
W0NIM11jMW5bY0hdbihjKD1PKWMxW0NIM10pW0NIMl1bQ0BIXShbT0hdKVtDSDJdT1tDSDJdYzJbY0hdW2NIXVtjSF1bY0hdYzJDbA==

> <s_epik_cmdline>
J2VwaWtfcHl0aG9uJywgJy1waCcsICc3LjAnLCAnLXRuJywgJzgnLCAnLW1hJywgJzIwMCcsICctbWV0YWxfYmluZGluZycsICctaW1hZScsICc8aW5maWxlLm1hZT4nLCAnLW9tYWUnLCAnPG91dGZpbGUubWFlPic=

> <r_lp_tautomer_probability>
1

> <r_epik_Ionization_Penalty>
5.36022e-05

> <r_epik_Ionization_Penalty_Charging>
1.17753e-07

> <r_epik_Ionization_Penalty_Neutral>
5.34845e-05

> <r_epik_State_Penalty>
-0

> <r_epik_Charging_Adjusted_Penalty>
1.17753e-07

> <i_epik_Tot_Q>
0

> <i_epik_Tot_abs_Q>
0

> <r_epik_Metal_State_Penalty>
-0

> <b_epik_Metal_Only>
0

> <s_lp_Force_Field>
OPLS_2005

> <r_lp_Energy>
21.6364

> <b_lp_Chiralities_Consistent>
1

> <s_lp_Variant>
AV-unprocessed.smi:2269-2

> <Gold.Version>
5.8.1

> <Gold.Id.Protein>
6NUR|6NUR_protein|mol2

> <Gold.PLP.Fitness>
52.2146

> <Gold.PLP.PLP>
-43.9889

> <Gold.PLP.part.hbond>
-3.0000

> <Gold.PLP.part.metal>
0.0000

> <Gold.PLP.part.buried>
-1.2896

> <Gold.PLP.part.nonpolar>
-41.4035

> <Gold.PLP.part.repulsive>
1.0815

> <Gold.PLP.ligand.clash>
0.0000

> <Gold.PLP.ligand.torsion>
1.0219

> <Gold.PLP.Chemscore.Hbond>
2.6289

> <Gold.PLP.Chemscore.CHOScore>
0.7356

> <Gold.PLP.Chemscore.Metal>
0.0000

> <Gold.Chemscore.Hbonds>
donor molecule, donor type, donor heavy atom, donor atom, acceptor molecule, acceptor atom, score
      L1  H     8    30       P1  7957  0.90
      P1  H  7954  7966       L1     3  0.42
      P1  H  7989  7998       L1     8  0.42
      L1  C     4    26       P1  7957  0.25

> <Gold.PLP.Chemscore.Internal.Correction>
0.1759

> <Gold.Rescore>
     Score         DG    S(hbond)    S(metal)    S(lipo)     H(rot)  DE(clash)    DE(int)     intcor
     15.01     -19.64       1.96        0.00     120.06       2.52       2.23       2.41       ----

> <Gold.Chemscore.Fitness>
15.0060

> <Gold.Chemscore.DG>
-19.6422

> <Gold.Chemscore.ZeroCoef>
-5.4800

> <Gold.Chemscore.Hbond>
1.9629

> <Gold.Chemscore.Metal>
0.0000

> <Gold.Chemscore.Lipo>
120.0644

> <Gold.Chemscore.Internal_Hbond>
0.0000

> <Gold.Chemscore.DEClash>
2.2309

> <Gold.Chemscore.DEInternal>
2.4053

> <Gold.Chemscore.Rot>
2.5162

> <Gold.Chemscore.Internal.Correction>
   9.000000E+99

> <Gold.Chemscore.Hbonds>
donor molecule, donor type, donor heavy atom, donor atom, acceptor molecule, acceptor atom, score
      L1  H     8    30       P1  7957  0.88
      P1  H  7954  7966       L1     3  0.02
      P1  H  7989  7998       L1     8  0.20

> <Gold.Chemscore.Hbond.Weighted>
-6.5561

> <Gold.Chemscore.Metal.Weighted>
-0.0000

> <Gold.Chemscore.Lipo.Weighted>
-14.0475

> <Gold.Chemscore.Internal_Hbond.Weighted>
0.0000

> <Gold.Chemscore.DEClash.Weighted>
2.2309

> <Gold.Chemscore.DEInternal.Weighted>
2.4053

> <Gold.Chemscore.Rot.Weighted>
6.4414

> <Gold.Chemscore.Internal.Correction.Weighted>
   9.000000E+99

> <Gold.Protein.RotatedTorsions>
[ 6907 6896 6895 6894 ] final  -29.90 input  -60.11 | X-H torsion
[ 7974 7965 7964 7962 ] final -179.22 input  175.53 | X-H torsion
[ 8008 7997 7996 7995 ] final   78.71 input   59.86 | X-H torsion
[ 10167 10162 10161 10158 ] final -155.67 input  -65.29 | X-H torsion
[ 10718 10713 10712 10709 ] final -174.90 input   66.30 | X-H torsion
[ 10763 10752 10751 10750 ] final   22.23 input  -60.55 | X-H torsion
[ 11005 11000 10999 10996 ] final   12.02 input  -57.11 | X-H torsion

> <Gold.Protein.ActiveResidues>
 VAL166  LYS551  ARG553  GLY616  TRP617  ASP618  TYR619  PRO620  LYS621  CYS622 
 ASP623  PHE694  ASN695  SER759  ASP760  ASP761  ALA762  ILE779  LEU786  VAL792 
 PHE793  MET794  SER795  GLU796  ALA797  LYS798  CYS799  TRP800  GLU811  SER814 

> <Gold.Protein.RotatedAtoms>
  151.1129  135.0036  159.8501 H   0  0  0  0  0  0  0  0  0  0  0  0  # atno 6907 bound_to 6896
  152.5444  134.1815  159.8647 H   0  0  0  0  0  0  0  0  0  0  0  0  # atno 6908 bound_to 6896
  151.1866  133.4647  159.2627 H   0  0  0  0  0  0  0  0  0  0  0  0  # atno 6909 bound_to 6896
  144.7135  140.0751  143.6428 H   0  0  0  0  0  0  0  0  0  0  0  0  # atno 7974 bound_to 7965
  155.8596  140.3454  155.5747 H   0  0  0  0  0  0  0  0  0  0  0  0  # atno 8008 bound_to 7997
  155.7948  140.0877  157.2008 H   0  0  0  0  0  0  0  0  0  0  0  0  # atno 8009 bound_to 7997
  154.4011  140.1476  156.3193 H   0  0  0  0  0  0  0  0  0  0  0  0  # atno 8010 bound_to 7997
  139.6912  143.9417  152.2386 H   0  0  0  0  0  0  0  0  0  0  0  0  # atno 10167 bound_to 10162
  156.7919  130.9521  151.3120 H   0  0  0  0  0  0  0  0  0  0  0  0  # atno 10718 bound_to 10713
  153.0932  135.6652  153.9814 H   0  0  0  0  0  0  0  0  0  0  0  0  # atno 10763 bound_to 10752
  153.9405  135.2994  155.3444 H   0  0  0  0  0  0  0  0  0  0  0  0  # atno 10764 bound_to 10752
  154.7348  135.5106  153.9097 H   0  0  0  0  0  0  0  0  0  0  0  0  # atno 10765 bound_to 10752
  140.4967  134.0786  155.7784 H   0  0  0  0  0  0  0  0  0  0  0  0  # atno 11005 bound_to 11000
  145.9750  139.2898  143.1076 LP  0  0  0  0  0  0  0  0  0  0  0  0  # atno 17320 bound_to 7965
  145.9074  140.9202  143.0471 LP  0  0  0  0  0  0  0  0  0  0  0  0  # atno 17321 bound_to 7965
  139.9233  144.6786  150.8438 LP  0  0  0  0  0  0  0  0  0  0  0  0  # atno 17342 bound_to 10162
  140.7683  143.3359  151.2310 LP  0  0  0  0  0  0  0  0  0  0  0  0  # atno 17343 bound_to 10162
  157.6596  130.8954  149.9802 LP  0  0  0  0  0  0  0  0  0  0  0  0  # atno 17370 bound_to 10713
  156.1154  130.3648  149.9978 LP  0  0  0  0  0  0  0  0  0  0  0  0  # atno 17371 bound_to 10713
  141.1456  133.9060  157.2222 LP  0  0  0  0  0  0  0  0  0  0  0  0  # atno 17394 bound_to 11000
  139.9737  135.0120  156.9577 LP  0  0  0  0  0  0  0  0  0  0  0  0  # atno 17395 bound_to 11000

$$$$
