#       Name:                AV-unprocessed.smi:281
#       Creating user name   scv26
#       Creation time:       Thu Mar 26 21:40:38 2020


#       File generated by GOLD software.
#

@<TRIPOS>MOLECULE
AV-unprocessed.smi:281
    67    71     1
SMALL
NO_CHARGES


@<TRIPOS>ATOM
      1 ****        -3.7397  -0.8288   2.1362 C.3            1 S1                 0.0000
      2 ****        -3.1538  -0.0504   0.9542 C.3            1 S1                 0.0000
      3 ****        -1.6188   0.0280   1.0248 C.3            1 S1                 0.0000
      4 ****        -1.1098   0.8791  -0.0435 N.3            1 S1                 0.0000
      5 ****         0.2232   0.7722  -0.2734 C.ar           1 S1                 0.0000
      6 ****         1.0359   1.8461  -0.0832 N.ar           1 S1                 0.0000
      7 ****         2.3507   1.7440  -0.2977 C.ar           1 S1                 0.0000
      8 ****         3.0506   0.6814  -0.6990 N.ar           1 S1                 0.0000
      9 ****         2.2414  -0.3981  -0.8972 C.ar           1 S1                 0.0000
     10 ****         0.8301  -0.4374  -0.7145 C.ar           1 S1                 0.0000
     11 ****         0.3471  -1.7002  -1.0365 N.2            1 S1                 0.0000
     12 ****         1.4125  -2.3711  -1.3785 C.2            1 S1                 0.0000
     13 ****         2.5965  -1.6723  -1.3060 N.pl3          1 S1                 0.0000
     14 ****         3.9262  -2.1766  -1.6151 C.3            1 S1                 0.0000
     15 ****         4.6644  -2.8280  -0.4153 C.3            1 S1                 0.0000
     16 ****         5.9251  -3.2674  -0.8815 O.3            1 S1                 0.0000
     17 ****         3.9176  -4.0006   0.2205 C.3            1 S1                 0.0000
     18 ****         3.2440  -3.4097   1.4649 C.3            1 S1                 0.0000
     19 ****         3.6505  -2.0487   1.5306 O.3            1 S1                 0.0000
     20 ****         4.8493  -1.8971   0.7874 C.3            1 S1                 0.0000
     21 ****        -1.7035   2.2129  -0.0389 C.3            1 S1                 0.0000
     22 ****        -3.2500   2.1214  -0.0782 C.3            1 S1                 0.0000
     23 ****        -3.7821   1.6645  -1.4338 C.3            1 S1                 0.0000
     24 ****        -3.8398   2.9587  -2.2364 C.3            1 S1                 0.0000
     25 ****        -4.1147   3.9830  -1.2891 O.3            1 S1                 0.0000
     26 ****        -3.9678   3.4814   0.0369 C.3            1 S1                 0.0000
     27 ****        -3.3212   4.5332   0.9499 C.3            1 S1                 0.0000
     28 ****        -3.7042   1.2669   0.9758 O.3            1 S1                 0.0000
     29 ****        -3.3631  -1.8515   2.1575 H              1 S1                 0.0000
     30 ****        -4.8271  -0.8752   2.0719 H              1 S1                 0.0000
     31 ****        -3.4820  -0.3574   3.0850 H              1 S1                 0.0000
     32 ****        -3.4505  -0.5553   0.0340 H              1 S1                 0.0000
     33 ****        -1.3078   0.4454   1.9835 H              1 S1                 0.0000
     34 ****        -1.2004  -0.9764   0.9686 H              1 S1                 0.0000
     35 ****         2.9241   2.6420  -0.1207 H              1 S1                 0.0000
     36 ****         1.3629  -3.4047  -1.6883 H              1 S1                 0.0000
     37 ****         3.8298  -2.8977  -2.4282 H              1 S1                 0.0000
     38 ****         4.5177  -1.3512  -2.0138 H              1 S1                 0.0000
     39 ****         6.3951  -3.6520  -0.1575 H              1 S1                 0.0000
     40 ****         3.2069  -4.4692  -0.4600 H              1 S1                 0.0000
     41 ****         4.6121  -4.7807   0.5373 H              1 S1                 0.0000
     42 ****         2.1568  -3.4696   1.4096 H              1 S1                 0.0000
     43 ****         3.5665  -3.9341   2.3650 H              1 S1                 0.0000
     44 ****         5.6805  -2.2267   1.4136 H              1 S1                 0.0000
     45 ****         5.0340  -0.8597   0.5096 H              1 S1                 0.0000
     46 ****        -1.3782   2.7203   0.8699 H              1 S1                 0.0000
     47 ****        -1.3348   2.7964  -0.8835 H              1 S1                 0.0000
     48 ****        -3.1736   0.8981  -1.9152 H              1 S1                 0.0000
     49 ****        -4.7913   1.2654  -1.3212 H              1 S1                 0.0000
     50 ****        -2.8761   3.1638  -2.7040 H              1 S1                 0.0000
     51 ****        -4.5961   2.9281  -3.0211 H              1 S1                 0.0000
     52 ****        -4.9818   3.2965   0.3961 H              1 S1                 0.0000
     53 ****        -3.1850   4.1451   1.9597 H              1 S1                 0.0000
     54 ****        -3.9495   5.4214   1.0179 H              1 S1                 0.0000
     55 ****        -2.3489   4.8509   0.5730 H              1 S1                 0.0000
     56 ****        -1.4532   0.4988  -0.9023 LP             1 S1                 0.0000
     57 ****         0.6473   2.7167   0.2187 LP             1 S1                 0.0000
     58 ****         4.0411   0.6772  -0.8367 LP             1 S1                 0.0000
     59 ****        -0.5997  -2.0209  -1.0118 LP             1 S1                 0.0000
     60 ****         6.4403  -2.4906  -1.2436 LP             1 S1                 0.0000
     61 ****         5.7994  -3.9490  -1.6023 LP             1 S1                 0.0000
     62 ****         3.8101  -1.7905   2.4834 LP             1 S1                 0.0000
     63 ****         2.9374  -1.4651   1.1421 LP             1 S1                 0.0000
     64 ****        -5.0517   4.3082  -1.4171 LP             1 S1                 0.0000
     65 ****        -3.4771   4.7408  -1.4279 LP             1 S1                 0.0000
     66 ****        -3.4614   1.6918   1.8479 LP             1 S1                 0.0000
     67 ****        -4.6989   1.1902   0.9079 LP             1 S1                 0.0000
@<TRIPOS>BOND
    1    1    2 1     
    2    1   29 1     
    3    1   30 1     
    4    1   31 1     
    5    2   28 1     
    6    2    3 1     
    7    2   32 1     
    8    3    4 1     
    9    3   33 1     
   10    3   34 1     
   11    4    5 1     
   12    4   21 1     
   13    5   10 ar    
   14    5    6 ar    
   15    6    7 ar    
   16    7    8 ar    
   17    7   35 1     
   18    8    9 ar    
   19    9   13 1     
   20    9   10 ar    
   21   10   11 1     
   22   11   12 2     
   23   12   13 1     
   24   12   36 1     
   25   13   14 1     
   26   14   15 1     
   27   14   37 1     
   28   14   38 1     
   29   15   20 1     
   30   15   16 1     
   31   15   17 1     
   32   16   39 1     
   33   17   18 1     
   34   17   40 1     
   35   17   41 1     
   36   18   19 1     
   37   18   42 1     
   38   18   43 1     
   39   19   20 1     
   40   20   44 1     
   41   20   45 1     
   42   21   22 1     
   43   21   46 1     
   44   21   47 1     
   45   22   26 1     
   46   22   23 1     
   47   22   28 1     
   48   23   24 1     
   49   23   48 1     
   50   23   49 1     
   51   24   25 1     
   52   24   50 1     
   53   24   51 1     
   54   25   26 1     
   55   26   27 1     
   56   26   52 1     
   57   27   53 1     
   58   27   54 1     
   59   27   55 1     
   60    4   56 1     
   61    6   57 1     
   62    8   58 1     
   63   11   59 1     
   64   16   60 1     
   65   16   61 1     
   66   19   62 1     
   67   19   63 1     
   68   25   64 1     
   69   25   65 1     
   70   28   66 1     
   71   28   67 1     
@<TRIPOS>SUBSTRUCTURE
      1 S1             1
@<TRIPOS>SET
LONE_PAIRS      STATIC     ATOMS    <user>   **** ""
12 56 57 58 59 60 61 62 63 64 65 66 67
DONOR_HYDROGENS      STATIC     ATOMS    <user>   **** ""
1 39
ATOM$BLUE        STATIC     ATOMS    COLORGROUP SYSTEM
12 56 57 58 59 60 61 62 63 64 65 66 67
ATOM$RED        STATIC     ATOMS    COLORGROUP SYSTEM
1 39
