AV-unprocessed.smi:766|AV-procd|sdf|3655|dock5
  -GOLD-   22720 1 63D 1   1.00000     0.00000
 Structure written by MMmdl.
 46 48  0  0  0  0  0  0  0  0  1 V2000
  153.0477  143.1488  161.3914 C   0  0  0  0  0  0  0  0  0  0  0  0
  152.4015  142.6812  160.0993 C   0  0  0  0  0  0  0  0  0  0  0  0
  152.8353  141.4708  159.5129 C   0  0  0  0  0  0  0  0  0  0  0  0
  152.2598  141.0005  158.3123 C   0  0  0  0  0  0  0  0  0  0  0  0
  152.5266  139.8602  157.5739 N   0  0  0  0  0  0  0  0  0  0  0  0
  151.6654  139.9853  156.5681 C   0  0  0  0  0  0  0  0  0  0  0  0
  150.8705  141.0728  156.5677 N   0  0  0  0  0  0  0  0  0  0  0  0
  149.8659  141.4261  155.5801 C   0  0  0  0  0  0  0  0  0  0  0  0
  149.5037  140.2495  154.6529 C   0  0  2  0  0  0  0  0  0  0  0  0
  149.4081  140.7221  153.3230 O   0  0  0  0  0  0  0  0  0  0  0  0
  148.1598  139.6112  155.0426 C   0  0  0  0  0  0  0  0  0  0  0  0
  147.8684  138.4465  154.2138 N   0  0  0  0  0  0  0  0  0  0  0  0
  146.4413  138.1564  154.1022 C   0  0  0  0  0  0  0  0  0  0  0  0
  146.1813  136.9120  153.2377 C   0  0  0  0  0  0  0  0  0  0  0  0
  144.8693  136.3376  153.4768 N   0  0  0  0  0  0  0  0  0  0  0  0
  143.6370  136.8284  153.1001 C   0  0  0  0  0  0  0  0  0  0  0  0
  142.6948  135.9451  153.5435 C   0  0  0  0  0  0  0  0  0  0  0  0
  143.4583  134.9340  154.1911 C   0  0  0  0  0  0  0  0  0  0  0  0
  144.7592  135.1731  154.1524 N   0  0  0  0  0  0  0  0  0  0  0  0
  151.2309  141.7812  157.7088 C   0  0  0  0  0  0  0  0  0  0  0  0
  150.7919  142.9879  158.2814 C   0  0  0  0  0  0  0  0  0  0  0  0
  151.3755  143.4418  159.4827 C   0  0  0  0  0  0  0  0  0  0  0  0
  150.8900  144.7432  160.0964 C   0  0  0  0  0  0  0  0  0  0  0  0
  153.8467  142.4755  161.7033 H   0  0  0  0  0  0  0  0  0  0  0  0
  152.3107  143.1886  162.1937 H   0  0  0  0  0  0  0  0  0  0  0  0
  153.4788  144.1423  161.2669 H   0  0  0  0  0  0  0  0  0  0  0  0
  153.6156  140.8904  159.9827 H   0  0  0  0  0  0  0  0  0  0  0  0
  151.6086  139.2419  155.7864 H   0  0  0  0  0  0  0  0  0  0  0  0
  148.9787  141.7711  156.1124 H   0  0  0  0  0  0  0  0  0  0  0  0
  150.2293  142.2739  154.9973 H   0  0  0  0  0  0  0  0  0  0  0  0
  150.2983  139.5033  154.7029 H   0  0  0  0  0  0  0  0  0  0  0  0
  149.4424  139.9812  152.7376 H   0  0  0  0  0  0  0  0  0  0  0  0
  148.2024  139.2933  156.0851 H   0  0  0  0  0  0  0  0  0  0  0  0
  147.3558  140.3460  154.9796 H   0  0  0  0  0  0  0  0  0  0  0  0
  148.2671  138.5780  153.2893 H   0  0  0  0  0  0  0  0  0  0  0  0
  146.0051  138.0173  155.0922 H   0  0  0  0  0  0  0  0  0  0  0  0
  145.9296  139.0100  153.6563 H   0  0  0  0  0  0  0  0  0  0  0  0
  146.2507  137.1741  152.1811 H   0  0  0  0  0  0  0  0  0  0  0  0
  146.9408  136.1506  153.4200 H   0  0  0  0  0  0  0  0  0  0  0  0
  143.5349  137.7531  152.5520 H   0  0  0  0  0  0  0  0  0  0  0  0
  141.6238  136.0108  153.4235 H   0  0  0  0  0  0  0  0  0  0  0  0
  143.1077  134.0399  154.6851 H   0  0  0  0  0  0  0  0  0  0  0  0
  150.0099  143.5570  157.8006 H   0  0  0  0  0  0  0  0  0  0  0  0
  150.0780  145.1792  159.5137 H   0  0  0  0  0  0  0  0  0  0  0  0
  151.7008  145.4708  160.1380 H   0  0  0  0  0  0  0  0  0  0  0  0
  150.5219  144.5754  161.1088 H   0  0  0  0  0  0  0  0  0  0  0  0
  1  2  1  0  0  0  0
  1 24  1  0  0  0  0
  1 25  1  0  0  0  0
  1 26  1  0  0  0  0
  2 22  1  0  0  0  0
  2  3  2  0  0  0  0
  3  4  1  0  0  0  0
  3 27  1  0  0  0  0
  4 20  2  0  0  0  0
  4  5  1  0  0  0  0
  5  6  2  0  0  0  0
  6  7  1  0  0  0  0
  6 28  1  0  0  0  0
  7  8  1  0  0  0  0
  7 20  1  0  0  0  0
  8  9  1  0  0  0  0
  8 29  1  0  0  0  0
  8 30  1  0  0  0  0
  9 10  1  0  0  0  0
  9 11  1  0  0  0  0
  9 31  1  0  0  0  0
 10 32  1  0  0  0  0
 11 12  1  0  0  0  0
 11 33  1  0  0  0  0
 11 34  1  0  0  0  0
 12 13  1  0  0  0  0
 12 35  1  0  0  0  0
 13 14  1  0  0  0  0
 13 36  1  0  0  0  0
 13 37  1  0  0  0  0
 14 15  1  0  0  0  0
 14 38  1  0  0  0  0
 14 39  1  0  0  0  0
 15 19  1  0  0  0  0
 15 16  1  0  0  0  0
 16 17  2  0  0  0  0
 16 40  1  0  0  0  0
 17 18  1  0  0  0  0
 17 41  1  0  0  0  0
 18 19  2  0  0  0  0
 18 42  1  0  0  0  0
 20 21  1  0  0  0  0
 21 22  2  0  0  0  0
 21 43  1  0  0  0  0
 22 23  1  0  0  0  0
 23 44  1  0  0  0  0
 23 45  1  0  0  0  0
 23 46  1  0  0  0  0
M  END
> <s_m_source_file>
AV-unprocessed.smi

> <i_m_source_file_index>
766

> <i_lp_mmshare_version>
43012

> <i_f3d_flags>
0

> <s_epik_input>
W0NIM11jKFtjSF0xKWMoW0NIM10pW2NIXWMoYzEyKW4oW2NIXW4yKVtDSDJdW0NASF0oW09IXSlbQ0gyXVtOSF1bQ0gyXVtDSDJdbjNbY0hdW2NIXVtjSF1uMw==

> <s_epik_cmdline>
J2VwaWtfcHl0aG9uJywgJy1waCcsICc3LjAnLCAnLXRuJywgJzgnLCAnLW1hJywgJzIwMCcsICctbWV0YWxfYmluZGluZycsICctaW1hZScsICc8aW5maWxlLm1hZT4nLCAnLW9tYWUnLCAnPG91dGZpbGUubWFlPic=

> <r_lp_tautomer_probability>
1

> <r_epik_Ionization_Penalty>
1.68727

> <r_epik_Ionization_Penalty_Charging>
0

> <r_epik_Ionization_Penalty_Neutral>
1.68727

> <r_epik_State_Penalty>
1.78741

> <r_epik_Charging_Adjusted_Penalty>
1.78741

> <i_epik_Tot_Q>
0

> <i_epik_Tot_abs_Q>
0

> <r_epik_Metal_State_Penalty>
1.73664

> <b_epik_Metal_Only>
0

> <s_lp_Force_Field>
OPLS_2005

> <r_lp_Energy>
17.6974

> <b_lp_Chiralities_Consistent>
1

> <s_lp_Variant>
AV-unprocessed.smi:766-5

> <Gold.Version>
5.8.1

> <Gold.Id.Protein>
6NUR|6NUR_protein|mol2

> <Gold.PLP.Fitness>
56.9701

> <Gold.PLP.PLP>
-42.3308

> <Gold.PLP.part.hbond>
-3.0676

> <Gold.PLP.part.metal>
0.0000

> <Gold.PLP.part.buried>
-6.0093

> <Gold.PLP.part.nonpolar>
-34.2978

> <Gold.PLP.part.repulsive>
0.0501

> <Gold.PLP.ligand.clash>
0.0000

> <Gold.PLP.ligand.torsion>
1.1617

> <Gold.PLP.Chemscore.Hbond>
2.6370

> <Gold.PLP.Chemscore.CHOScore>
2.9724

> <Gold.PLP.Chemscore.Metal>
0.0000

> <Gold.Chemscore.Hbonds>
donor molecule, donor type, donor heavy atom, donor atom, acceptor molecule, acceptor atom, score
      L1  H    10    32       P1  7957  0.53
      P1  H  7989  7998       L1    10  0.03
      P1  H  7997  8009       L1     5  0.89
      P1  H  8011  8017       L1    10  1.00
      L1  C    16    40       P1 10171  0.15
      L1  C    16    40       P1 10175  0.62
      L1  C    18    42       P1 10957  1.00

> <Gold.PLP.Chemscore.Internal.Correction>
0.1346

> <Gold.Rescore>
     Score         DG    S(hbond)    S(metal)    S(lipo)     H(rot)  DE(clash)    DE(int)     intcor
     17.15     -18.46       2.09        0.00     113.37       2.83       0.11       1.20       ----

> <Gold.Chemscore.Fitness>
17.1524

> <Gold.Chemscore.DG>
-18.4590

> <Gold.Chemscore.ZeroCoef>
-5.4800

> <Gold.Chemscore.Hbond>
2.0873

> <Gold.Chemscore.Metal>
0.0000

> <Gold.Chemscore.Lipo>
113.3709

> <Gold.Chemscore.Internal_Hbond>
0.0000

> <Gold.Chemscore.DEClash>
0.1099

> <Gold.Chemscore.DEInternal>
1.1967

> <Gold.Chemscore.Rot>
2.8348

> <Gold.Chemscore.Internal.Correction>
   9.000000E+99

> <Gold.Chemscore.Hbonds>
donor molecule, donor type, donor heavy atom, donor atom, acceptor molecule, acceptor atom, score
      L1  H    10    32       P1  7957  0.51
      P1  H  7997  8009       L1     5  0.25
      P1  H  8011  8017       L1    10  0.72

> <Gold.Chemscore.Hbond.Weighted>
-6.9717

> <Gold.Chemscore.Metal.Weighted>
-0.0000

> <Gold.Chemscore.Lipo.Weighted>
-13.2644

> <Gold.Chemscore.Internal_Hbond.Weighted>
0.0000

> <Gold.Chemscore.DEClash.Weighted>
0.1099

> <Gold.Chemscore.DEInternal.Weighted>
1.1967

> <Gold.Chemscore.Rot.Weighted>
7.2572

> <Gold.Chemscore.Internal.Correction.Weighted>
   9.000000E+99

> <Gold.Protein.RotatedTorsions>
[ 6907 6896 6895 6894 ] final  -20.16 input  -60.11 | X-H torsion
[ 7974 7965 7964 7962 ] final  155.26 input  175.53 | X-H torsion
[ 8008 7997 7996 7995 ] final  178.08 input   59.86 | X-H torsion
[ 10167 10162 10161 10158 ] final  -17.21 input  -65.29 | X-H torsion
[ 10718 10713 10712 10709 ] final -103.28 input   66.30 | X-H torsion
[ 10763 10752 10751 10750 ] final   17.43 input  -60.55 | X-H torsion
[ 11005 11000 10999 10996 ] final  -36.52 input  -57.11 | X-H torsion

> <Gold.Protein.ActiveResidues>
 VAL166  LYS551  ARG553  GLY616  TRP617  ASP618  TYR619  PRO620  LYS621  CYS622 
 ASP623  PHE694  ASN695  SER759  ASP760  ASP761  ALA762  ILE779  LEU786  VAL792 
 PHE793  MET794  SER795  GLU796  ALA797  LYS798  CYS799  TRP800  GLU811  SER814 

> <Gold.Protein.RotatedAtoms>
  151.2523  135.0626  159.9066 H   0  0  0  0  0  0  0  0  0  0  0  0  # atno 6907 bound_to 6896
  152.5378  134.0318  159.8038 H   0  0  0  0  0  0  0  0  0  0  0  0  # atno 6908 bound_to 6896
  151.0529  133.5560  159.2672 H   0  0  0  0  0  0  0  0  0  0  0  0  # atno 6909 bound_to 6896
  144.8036  139.7045  143.6171 H   0  0  0  0  0  0  0  0  0  0  0  0  # atno 7974 bound_to 7965
  156.0585  140.1342  156.9968 H   0  0  0  0  0  0  0  0  0  0  0  0  # atno 8008 bound_to 7997
  154.4470  140.0996  156.6553 H   0  0  0  0  0  0  0  0  0  0  0  0  # atno 8009 bound_to 7997
  155.5413  140.3461  155.4450 H   0  0  0  0  0  0  0  0  0  0  0  0  # atno 8010 bound_to 7997
  140.7244  143.5039  150.9835 H   0  0  0  0  0  0  0  0  0  0  0  0  # atno 10167 bound_to 10162
  156.0259  130.5460  150.7230 H   0  0  0  0  0  0  0  0  0  0  0  0  # atno 10718 bound_to 10713
  153.1340  135.6746  153.9133 H   0  0  0  0  0  0  0  0  0  0  0  0  # atno 10763 bound_to 10752
  153.8611  135.3081  155.3439 H   0  0  0  0  0  0  0  0  0  0  0  0  # atno 10764 bound_to 10752
  154.7731  135.4928  153.9772 H   0  0  0  0  0  0  0  0  0  0  0  0  # atno 10765 bound_to 10752
  140.9881  133.7019  156.1801 H   0  0  0  0  0  0  0  0  0  0  0  0  # atno 11005 bound_to 11000
  146.2322  139.5836  142.9547 LP  0  0  0  0  0  0  0  0  0  0  0  0  # atno 17320 bound_to 7965
  145.5493  141.0414  143.2287 LP  0  0  0  0  0  0  0  0  0  0  0  0  # atno 17321 bound_to 7965
  139.8749  143.7145  152.3163 LP  0  0  0  0  0  0  0  0  0  0  0  0  # atno 17342 bound_to 10162
  139.7407  144.7560  151.0657 LP  0  0  0  0  0  0  0  0  0  0  0  0  # atno 17343 bound_to 10162
  157.4841  131.0905  151.0502 LP  0  0  0  0  0  0  0  0  0  0  0  0  # atno 17370 bound_to 10713
  157.0927  130.5949  149.5443 LP  0  0  0  0  0  0  0  0  0  0  0  0  # atno 17371 bound_to 10713
  140.7083  134.4489  157.5583 LP  0  0  0  0  0  0  0  0  0  0  0  0  # atno 17394 bound_to 11000
  139.8980  134.8624  156.2022 LP  0  0  0  0  0  0  0  0  0  0  0  0  # atno 17395 bound_to 11000

$$$$
