AV-unprocessed.smi:2146|AV-procd|sdf|8741|dock8
  -GOLD-   2272011513D 1   1.00000     0.00000
 Structure written by MMmdl.
 45 46  0  0  0  0  0  0  0  0  2 V2000
  149.8928  138.4730  154.8598 C   0  0  0  0  0  0  0  0  0  0  0  0
  150.4034  137.0273  155.0630 C   0  0  1  0  0  0  0  0  0  0  0  0
  150.8481  136.8156  156.5396 C   0  0  0  0  0  0  0  0  0  0  0  0
  149.7935  137.1094  157.5066 N   0  0  0  0  0  0  0  0  0  0  0  0
  149.3911  136.2811  158.4824 C   0  0  0  0  0  0  0  0  0  0  0  0
  149.8702  135.1587  158.6488 O   0  0  0  0  0  0  0  0  0  0  0  0
  148.2782  136.8113  159.3976 C   0  0  0  0  0  0  0  0  0  0  0  0
  147.8982  135.8634  160.4583 N   0  0  0  0  0  0  0  0  0  0  0  0
  147.5588  134.5591  160.0493 C   0  0  0  0  0  0  0  0  0  0  0  0
  147.1999  133.5896  160.9119 C   0  0  0  0  0  0  0  0  0  0  0  0
  146.7808  132.2105  160.4270 C   0  0  0  0  0  0  0  0  0  0  0  0
  146.4688  131.4124  161.4483 F   0  0  0  0  0  0  0  0  0  0  0  0
  145.7228  132.2906  159.6193 F   0  0  0  0  0  0  0  0  0  0  0  0
  147.7782  131.6469  159.7469 F   0  0  0  0  0  0  0  0  0  0  0  0
  147.1503  133.9591  162.3131 C   0  0  0  0  0  0  0  0  0  0  0  0
  147.4558  135.2070  162.7196 C   0  0  0  0  0  0  0  0  0  0  0  0
  147.8534  136.2481  161.7690 C   0  0  0  0  0  0  0  0  0  0  0  0
  148.1265  137.3936  162.1281 O   0  0  0  0  0  0  0  0  0  0  0  0
  149.3738  136.0406  154.5962 N   0  3  0  0  0  0  0  0  0  0  0  0
  149.8535  134.6327  154.6741 C   0  0  0  0  0  0  0  0  0  0  0  0
  148.8058  133.6543  154.1192 C   0  0  0  0  0  0  0  0  0  0  0  0
  147.5930  133.8011  154.8412 O   0  0  0  0  0  0  0  0  0  0  0  0
  147.0563  135.1064  154.6915 C   0  0  0  0  0  0  0  0  0  0  0  0
  148.0410  136.1476  155.2523 C   0  0  0  0  0  0  0  0  0  0  0  0
  150.6281  139.2126  155.1759 H   0  0  0  0  0  0  0  0  0  0  0  0
  148.9824  138.6513  155.4322 H   0  0  0  0  0  0  0  0  0  0  0  0
  149.6792  138.7004  153.8172 H   0  0  0  0  0  0  0  0  0  0  0  0
  151.2866  136.8881  154.4374 H   0  0  0  0  0  0  0  0  0  0  0  0
  151.1635  135.7827  156.6915 H   0  0  0  0  0  0  0  0  0  0  0  0
  151.6996  137.4469  156.7963 H   0  0  0  0  0  0  0  0  0  0  0  0
  149.3427  138.0104  157.4329 H   0  0  0  0  0  0  0  0  0  0  0  0
  148.6045  137.7504  159.8483 H   0  0  0  0  0  0  0  0  0  0  0  0
  147.4185  137.0775  158.7807 H   0  0  0  0  0  0  0  0  0  0  0  0
  147.5987  134.3997  158.9813 H   0  0  0  0  0  0  0  0  0  0  0  0
  146.8667  133.2235  163.0513 H   0  0  0  0  0  0  0  0  0  0  0  0
  147.4087  135.4470  163.7717 H   0  0  0  0  0  0  0  0  0  0  0  0
  150.7750  134.4981  154.1111 H   0  0  0  0  0  0  0  0  0  0  0  0
  150.0775  134.3808  155.7120 H   0  0  0  0  0  0  0  0  0  0  0  0
  148.6380  133.8221  153.0540 H   0  0  0  0  0  0  0  0  0  0  0  0
  149.1569  132.6281  154.2283 H   0  0  0  0  0  0  0  0  0  0  0  0
  146.8369  135.3044  153.6409 H   0  0  0  0  0  0  0  0  0  0  0  0
  146.1088  135.1605  155.2281 H   0  0  0  0  0  0  0  0  0  0  0  0
  148.1515  136.0178  156.3304 H   0  0  0  0  0  0  0  0  0  0  0  0
  147.6014  137.1295  155.0816 H   0  0  0  0  0  0  0  0  0  0  0  0
  149.2139  136.2412  153.6192 H   0  0  0  0  0  0  0  0  0  0  0  0
  1  2  1  0  0  0  0
  1 25  1  0  0  0  0
  1 26  1  0  0  0  0
  1 27  1  0  0  0  0
  2  3  1  0  0  0  0
  2 19  1  0  0  0  0
  2 28  1  0  0  0  0
  3  4  1  0  0  0  0
  3 29  1  0  0  0  0
  3 30  1  0  0  0  0
  4  5  1  0  0  0  0
  4 31  1  0  0  0  0
  5  6  2  0  0  0  0
  5  7  1  0  0  0  0
  7  8  1  0  0  0  0
  7 32  1  0  0  0  0
  7 33  1  0  0  0  0
  8 17  1  0  0  0  0
  8  9  1  0  0  0  0
  9 10  2  0  0  0  0
  9 34  1  0  0  0  0
 10 11  1  0  0  0  0
 10 15  1  0  0  0  0
 11 12  1  0  0  0  0
 11 13  1  0  0  0  0
 11 14  1  0  0  0  0
 15 16  2  0  0  0  0
 15 35  1  0  0  0  0
 16 17  1  0  0  0  0
 16 36  1  0  0  0  0
 17 18  2  0  0  0  0
 19 24  1  0  0  0  0
 19 20  1  0  0  0  0
 19 45  1  0  0  0  0
 20 21  1  0  0  0  0
 20 37  1  0  0  0  0
 20 38  1  0  0  0  0
 21 22  1  0  0  0  0
 21 39  1  0  0  0  0
 21 40  1  0  0  0  0
 22 23  1  0  0  0  0
 23 24  1  0  0  0  0
 23 41  1  0  0  0  0
 23 42  1  0  0  0  0
 24 43  1  0  0  0  0
 24 44  1  0  0  0  0
M  CHG  1  19   1
M  END
> <s_m_source_file>
AV-unprocessed.smi

> <i_m_source_file_index>
2146

> <i_lp_mmshare_version>
43012

> <i_f3d_flags>
0

> <s_epik_input>
W0NIMl0xW0NIMl1PW0NIMl1bQ0gyXU4xW0NASF0oW0NIM10pW0NIMl1bTkhdQyg9TylbQ0gyXW4yW2NIXWMoQyhGKShGKUYpW2NIXVtjSF1jMj1P

> <s_epik_cmdline>
J2VwaWtfcHl0aG9uJywgJy1waCcsICc3LjAnLCAnLXRuJywgJzgnLCAnLW1hJywgJzIwMCcsICctbWV0YWxfYmluZGluZycsICctaW1hZScsICc8aW5maWxlLm1hZT4nLCAnLW9tYWUnLCAnPG91dGZpbGUubWFlPic=

> <r_lp_tautomer_probability>
1

> <r_epik_Ionization_Penalty>
0.656654

> <r_epik_Ionization_Penalty_Charging>
0.656653

> <r_epik_Ionization_Penalty_Neutral>
9.12373e-08

> <r_epik_State_Penalty>
0.675641

> <r_epik_Charging_Adjusted_Penalty>
1.33229

> <i_epik_Tot_Q>
1

> <i_epik_Tot_abs_Q>
1

> <r_epik_Metal_State_Penalty>
0.675692

> <b_epik_Metal_Only>
0

> <s_lp_Force_Field>
OPLS_2005

> <r_lp_Energy>
32.7302

> <b_lp_Chiralities_Consistent>
1

> <s_lp_Variant>
AV-unprocessed.smi:2146-4

> <Gold.Version>
5.8.1

> <Gold.Id.Protein>
6NUR|6NUR_protein|mol2

> <Gold.PLP.Fitness>
49.0386

> <Gold.PLP.PLP>
-36.1150

> <Gold.PLP.part.hbond>
-3.9129

> <Gold.PLP.part.metal>
0.0000

> <Gold.PLP.part.buried>
-4.0537

> <Gold.PLP.part.nonpolar>
-28.5814

> <Gold.PLP.part.repulsive>
0.1181

> <Gold.PLP.ligand.clash>
0.0000

> <Gold.PLP.ligand.torsion>
0.1494

> <Gold.PLP.Chemscore.Hbond>
4.3600

> <Gold.PLP.Chemscore.CHOScore>
0.0000

> <Gold.PLP.Chemscore.Metal>
0.0000

> <Gold.Chemscore.Hbonds>
donor molecule, donor type, donor heavy atom, donor atom, acceptor molecule, acceptor atom, score
      L1  H    19    45       P1  7948  2.00
      P1  H  6896  6908       L1     6  0.50
      P1  H  6931  6943       L1    18  0.32
      P1  H  6934  6947       L1    18  0.21

> <Gold.PLP.Chemscore.Internal.Correction>
0.1423

> <Gold.Rescore>
     Score         DG    S(hbond)    S(metal)    S(lipo)     H(rot)  DE(clash)    DE(int)     intcor
     17.04     -18.59       3.47        0.00      60.71       2.18       0.00       1.55       ----

> <Gold.Chemscore.Fitness>
17.0372

> <Gold.Chemscore.DG>
-18.5923

> <Gold.Chemscore.ZeroCoef>
-5.4800

> <Gold.Chemscore.Hbond>
3.4704

> <Gold.Chemscore.Metal>
0.0000

> <Gold.Chemscore.Lipo>
60.7114

> <Gold.Chemscore.Internal_Hbond>
0.0000

> <Gold.Chemscore.DEClash>
0.0048

> <Gold.Chemscore.DEInternal>
1.5503

> <Gold.Chemscore.Rot>
2.1805

> <Gold.Chemscore.Internal.Correction>
   9.000000E+99

> <Gold.Chemscore.Hbonds>
donor molecule, donor type, donor heavy atom, donor atom, acceptor molecule, acceptor atom, score
      L1  H    19    45       P1  7948  0.91
      P1  H  6896  6908       L1     6  0.52
      P1  H  6931  6943       L1    18  0.30
      P1  H  6934  6947       L1    18  0.20

> <Gold.Chemscore.Hbond.Weighted>
-11.5913

> <Gold.Chemscore.Metal.Weighted>
-0.0000

> <Gold.Chemscore.Lipo.Weighted>
-7.1032

> <Gold.Chemscore.Internal_Hbond.Weighted>
0.0000

> <Gold.Chemscore.DEClash.Weighted>
0.0048

> <Gold.Chemscore.DEInternal.Weighted>
1.5503

> <Gold.Chemscore.Rot.Weighted>
5.5822

> <Gold.Chemscore.Internal.Correction.Weighted>
   9.000000E+99

> <Gold.Protein.RotatedTorsions>
[ 6907 6896 6895 6894 ] final  164.05 input  -60.11 | X-H torsion
[ 7974 7965 7964 7962 ] final   65.43 input  175.53 | X-H torsion
[ 8008 7997 7996 7995 ] final -154.60 input   59.86 | X-H torsion
[ 10167 10162 10161 10158 ] final  -80.34 input  -65.29 | X-H torsion
[ 10718 10713 10712 10709 ] final  -17.68 input   66.30 | X-H torsion
[ 10763 10752 10751 10750 ] final  108.61 input  -60.55 | X-H torsion
[ 11005 11000 10999 10996 ] final   10.34 input  -57.11 | X-H torsion

> <Gold.Protein.ActiveResidues>
 VAL166  LYS551  ARG553  GLY616  TRP617  ASP618  TYR619  PRO620  LYS621  CYS622 
 ASP623  PHE694  ASN695  SER759  ASP760  ASP761  ALA762  ILE779  LEU786  VAL792 
 PHE793  MET794  SER795  GLU796  ALA797  LYS798  CYS799  TRP800  GLU811  SER814 

> <Gold.Protein.RotatedAtoms>
  151.9158  133.3573  159.3879 H   0  0  0  0  0  0  0  0  0  0  0  0  # atno 6907 bound_to 6896
  150.7048  134.4685  159.5423 H   0  0  0  0  0  0  0  0  0  0  0  0  # atno 6908 bound_to 6896
  152.2300  134.8331  160.0526 H   0  0  0  0  0  0  0  0  0  0  0  0  # atno 6909 bound_to 6896
  145.8386  139.3181  143.0945 H   0  0  0  0  0  0  0  0  0  0  0  0  # atno 7974 bound_to 7965
  155.6889  140.0753  157.2456 H   0  0  0  0  0  0  0  0  0  0  0  0  # atno 8008 bound_to 7997
  154.4092  140.1668  156.2116 H   0  0  0  0  0  0  0  0  0  0  0  0  # atno 8009 bound_to 7997
  155.9470  140.3380  155.6378 H   0  0  0  0  0  0  0  0  0  0  0  0  # atno 8010 bound_to 7997
  140.4512  143.2482  151.8486 H   0  0  0  0  0  0  0  0  0  0  0  0  # atno 10167 bound_to 10162
  156.5702  130.4747  149.6366 H   0  0  0  0  0  0  0  0  0  0  0  0  # atno 10718 bound_to 10713
  153.4230  135.3806  155.2123 H   0  0  0  0  0  0  0  0  0  0  0  0  # atno 10763 bound_to 10752
  154.8746  135.3822  154.4360 H   0  0  0  0  0  0  0  0  0  0  0  0  # atno 10764 bound_to 10752
  153.4883  135.7088  153.5961 H   0  0  0  0  0  0  0  0  0  0  0  0  # atno 10765 bound_to 10752
  140.5156  134.0609  155.7830 H   0  0  0  0  0  0  0  0  0  0  0  0  # atno 11005 bound_to 11000
  145.9491  140.8922  143.0268 LP  0  0  0  0  0  0  0  0  0  0  0  0  # atno 17320 bound_to 7965
  144.6735  140.1655  143.7419 LP  0  0  0  0  0  0  0  0  0  0  0  0  # atno 17321 bound_to 7965
  139.4797  144.5118  151.8922 LP  0  0  0  0  0  0  0  0  0  0  0  0  # atno 17342 bound_to 10162
  140.4205  144.2249  150.5887 LP  0  0  0  0  0  0  0  0  0  0  0  0  # atno 17343 bound_to 10162
  156.2721  130.7023  151.1823 LP  0  0  0  0  0  0  0  0  0  0  0  0  # atno 17370 bound_to 10713
  157.7350  131.0577  150.5495 LP  0  0  0  0  0  0  0  0  0  0  0  0  # atno 17371 bound_to 10713
  141.1362  133.9217  157.2428 LP  0  0  0  0  0  0  0  0  0  0  0  0  # atno 17394 bound_to 11000
  139.9634  135.0148  156.9323 LP  0  0  0  0  0  0  0  0  0  0  0  0  # atno 17395 bound_to 11000

$$$$
