AV-unprocessed.smi:788|AV-procd|sdf|3734|dock1
  -GOLD-   22720 1173D 1   1.00000     0.00000
 Structure written by MMmdl.
 35 36  0  0  0  0  0  0  0  0  1 V2000
  150.9148  141.8227  158.5189 C   0  0  0  0  0  0  0  0  0  0  0  0
  152.2946  142.5028  158.6443 C   0  0  1  0  0  0  0  0  0  0  0  0
  152.2584  143.9671  158.1637 C   0  0  0  0  0  0  0  0  0  0  0  0
  151.5439  144.8897  159.1631 C   0  0  0  0  0  0  0  0  0  0  0  0
  152.1777  144.7925  160.5581 C   0  0  0  0  0  0  0  0  0  0  0  0
  152.2045  143.3425  161.0802 C   0  0  2  0  0  0  0  0  0  0  0  0
  152.8423  143.2890  162.4806 C   0  0  0  0  0  0  0  0  0  0  0  0
  152.9185  142.4137  160.0641 C   0  0  1  0  0  0  0  0  0  0  0  0
  152.9260  141.0352  160.5504 N   0  0  0  0  0  0  0  0  0  0  0  0
  153.5300  139.9921  159.9582 C   0  0  0  0  0  0  0  0  0  0  0  0
  154.1645  140.0988  158.9104 O   0  0  0  0  0  0  0  0  0  0  0  0
  153.4072  138.7983  160.5772 N   0  0  0  0  0  0  0  0  0  0  0  0
  153.9019  137.5016  160.2492 C   0  0  0  0  0  0  0  0  0  0  0  0
  153.4512  136.7449  159.2348 N   0  0  0  0  0  0  0  0  0  0  0  0
  154.1198  135.5312  159.1492 N   0  0  0  0  0  0  0  0  0  0  0  0
  155.0521  135.4183  160.0991 C   0  0  0  0  0  0  0  0  0  0  0  0
  155.2018  136.7837  161.1909 S   0  0  0  0  0  0  0  0  0  0  0  0
  150.1792  142.2603  159.1928 H   0  0  0  0  0  0  0  0  0  0  0  0
  150.9708  140.7568  158.7404 H   0  0  0  0  0  0  0  0  0  0  0  0
  150.5269  141.9164  157.5045 H   0  0  0  0  0  0  0  0  0  0  0  0
  152.9572  141.9675  157.9626 H   0  0  0  0  0  0  0  0  0  0  0  0
  153.2802  144.3217  158.0234 H   0  0  0  0  0  0  0  0  0  0  0  0
  151.7799  144.0333  157.1859 H   0  0  0  0  0  0  0  0  0  0  0  0
  151.5884  145.9201  158.8099 H   0  0  0  0  0  0  0  0  0  0  0  0
  150.4859  144.6324  159.2199 H   0  0  0  0  0  0  0  0  0  0  0  0
  153.1937  145.1878  160.5211 H   0  0  0  0  0  0  0  0  0  0  0  0
  151.6260  145.4283  161.2512 H   0  0  0  0  0  0  0  0  0  0  0  0
  151.1718  143.0082  161.1871 H   0  0  0  0  0  0  0  0  0  0  0  0
  153.8946  143.5725  162.4470 H   0  0  0  0  0  0  0  0  0  0  0  0
  152.7793  142.2915  162.9161 H   0  0  0  0  0  0  0  0  0  0  0  0
  152.3374  143.9703  163.1661 H   0  0  0  0  0  0  0  0  0  0  0  0
  153.9543  142.7528  159.9952 H   0  0  0  0  0  0  0  0  0  0  0  0
  152.4250  140.8585  161.4097 H   0  0  0  0  0  0  0  0  0  0  0  0
  152.8779  138.8322  161.4363 H   0  0  0  0  0  0  0  0  0  0  0  0
  155.6559  134.5249  160.1580 H   0  0  0  0  0  0  0  0  0  0  0  0
  1  2  1  0  0  0  0
  1 18  1  0  0  0  0
  1 19  1  0  0  0  0
  1 20  1  0  0  0  0
  2  8  1  0  0  0  0
  2  3  1  0  0  0  0
  2 21  1  0  0  0  0
  3  4  1  0  0  0  0
  3 22  1  0  0  0  0
  3 23  1  0  0  0  0
  4  5  1  0  0  0  0
  4 24  1  0  0  0  0
  4 25  1  0  0  0  0
  5  6  1  0  0  0  0
  5 26  1  0  0  0  0
  5 27  1  0  0  0  0
  6  7  1  0  0  0  0
  6  8  1  0  0  0  0
  6 28  1  0  0  0  0
  7 29  1  0  0  0  0
  7 30  1  0  0  0  0
  7 31  1  0  0  0  0
  8  9  1  0  0  0  0
  8 32  1  0  0  0  0
  9 10  1  0  0  0  0
  9 33  1  0  0  0  0
 10 11  2  0  0  0  0
 10 12  1  0  0  0  0
 12 13  1  0  0  0  0
 12 34  1  0  0  0  0
 13 17  1  0  0  0  0
 13 14  2  0  0  0  0
 14 15  1  0  0  0  0
 15 16  2  0  0  0  0
 16 17  1  0  0  0  0
 16 35  1  0  0  0  0
M  END
> <s_m_source_file>
AV-unprocessed.smi

> <i_m_source_file_index>
788

> <i_lp_mmshare_version>
43012

> <i_f3d_flags>
0

> <s_epik_input>
W0NIM11bQ0BASF0xW0NIMl1bQ0gyXVtDSDJdW0NAQEhdKFtDSDNdKVtDQEhdMVtOSF1DKD1PKVtOSF1jMm5uW2NIXXMy

> <s_epik_cmdline>
J2VwaWtfcHl0aG9uJywgJy1waCcsICc3LjAnLCAnLXRuJywgJzgnLCAnLW1hJywgJzIwMCcsICctbWV0YWxfYmluZGluZycsICctaW1hZScsICc8aW5maWxlLm1hZT4nLCAnLW9tYWUnLCAnPG91dGZpbGUubWFlPic=

> <r_lp_tautomer_probability>
1

> <r_epik_Ionization_Penalty>
0.000304078

> <r_epik_Ionization_Penalty_Charging>
0

> <r_epik_Ionization_Penalty_Neutral>
0.000304078

> <r_epik_State_Penalty>
-0

> <r_epik_Charging_Adjusted_Penalty>
0

> <i_epik_Tot_Q>
0

> <i_epik_Tot_abs_Q>
0

> <r_epik_Metal_State_Penalty>
0.164801

> <b_epik_Metal_Only>
0

> <s_lp_Force_Field>
OPLS_2005

> <r_lp_Energy>
15.5702

> <b_lp_Chiralities_Consistent>
1

> <s_lp_Variant>
AV-unprocessed.smi:788-4

> <Gold.Version>
5.8.1

> <Gold.Id.Protein>
6NUR|6NUR_protein|mol2

> <Gold.PLP.Fitness>
39.1327

> <Gold.PLP.PLP>
-34.9801

> <Gold.PLP.part.hbond>
-2.5107

> <Gold.PLP.part.metal>
0.0000

> <Gold.PLP.part.buried>
-3.7844

> <Gold.PLP.part.nonpolar>
-29.3862

> <Gold.PLP.part.repulsive>
0.1624

> <Gold.PLP.ligand.clash>
0.0000

> <Gold.PLP.ligand.torsion>
0.6838

> <Gold.PLP.Chemscore.Hbond>
1.8352

> <Gold.PLP.Chemscore.CHOScore>
0.0000

> <Gold.PLP.Chemscore.Metal>
0.0000

> <Gold.Chemscore.Hbonds>
donor molecule, donor type, donor heavy atom, donor atom, acceptor molecule, acceptor atom, score
      P1  H  6896  6907       L1    15  0.72
      P1  H  7997  8009       L1    11  0.96

> <Gold.PLP.Chemscore.Internal.Correction>
0.0145

> <Gold.Rescore>
     Score         DG    S(hbond)    S(metal)    S(lipo)     H(rot)  DE(clash)    DE(int)     intcor
     16.98     -17.72       1.14        0.00      94.02       1.00       0.08       0.66       ----

> <Gold.Chemscore.Fitness>
16.9766

> <Gold.Chemscore.DG>
-17.7160

> <Gold.Chemscore.ZeroCoef>
-5.4800

> <Gold.Chemscore.Hbond>
1.1363

> <Gold.Chemscore.Metal>
0.0000

> <Gold.Chemscore.Lipo>
94.0232

> <Gold.Chemscore.Internal_Hbond>
0.0000

> <Gold.Chemscore.DEClash>
0.0841

> <Gold.Chemscore.DEInternal>
0.6553

> <Gold.Chemscore.Rot>
1.0000

> <Gold.Chemscore.Internal.Correction>
   9.000000E+99

> <Gold.Chemscore.Hbonds>
donor molecule, donor type, donor heavy atom, donor atom, acceptor molecule, acceptor atom, score
      P1  H  6896  6907       L1    15  0.05
      P1  H  7997  8009       L1    11  0.92

> <Gold.Chemscore.Hbond.Weighted>
-3.7953

> <Gold.Chemscore.Metal.Weighted>
-0.0000

> <Gold.Chemscore.Lipo.Weighted>
-11.0007

> <Gold.Chemscore.Internal_Hbond.Weighted>
0.0000

> <Gold.Chemscore.DEClash.Weighted>
0.0841

> <Gold.Chemscore.DEInternal.Weighted>
0.6553

> <Gold.Chemscore.Rot.Weighted>
2.5600

> <Gold.Chemscore.Internal.Correction.Weighted>
   9.000000E+99

> <Gold.Protein.RotatedTorsions>
[ 6907 6896 6895 6894 ] final   85.26 input  -60.11 | X-H torsion
[ 7974 7965 7964 7962 ] final  170.82 input  175.53 | X-H torsion
[ 8008 7997 7996 7995 ] final  137.87 input   59.86 | X-H torsion
[ 10167 10162 10161 10158 ] final   68.90 input  -65.29 | X-H torsion
[ 10718 10713 10712 10709 ] final  141.91 input   66.30 | X-H torsion
[ 10763 10752 10751 10750 ] final  -12.49 input  -60.55 | X-H torsion
[ 11005 11000 10999 10996 ] final -134.82 input  -57.11 | X-H torsion

> <Gold.Protein.ActiveResidues>
 VAL166  LYS551  ARG553  GLY616  TRP617  ASP618  TYR619  PRO620  LYS621  CYS622 
 ASP623  PHE694  ASN695  SER759  ASP760  ASP761  ALA762  ILE779  LEU786  VAL792 
 PHE793  MET794  SER795  GLU796  ALA797  LYS798  CYS799  TRP800  GLU811  SER814 

> <Gold.Protein.RotatedAtoms>
  152.5371  134.2613  159.8936 H   0  0  0  0  0  0  0  0  0  0  0  0  # atno 6907 bound_to 6896
  151.2573  133.4313  159.2622 H   0  0  0  0  0  0  0  0  0  0  0  0  # atno 6908 bound_to 6896
  151.0485  134.9671  159.8255 H   0  0  0  0  0  0  0  0  0  0  0  0  # atno 6909 bound_to 6896
  144.7312  139.9258  143.6422 H   0  0  0  0  0  0  0  0  0  0  0  0  # atno 7974 bound_to 7965
  156.3000  140.2408  156.3981 H   0  0  0  0  0  0  0  0  0  0  0  0  # atno 8008 bound_to 7997
  154.8553  140.0422  157.1650 H   0  0  0  0  0  0  0  0  0  0  0  0  # atno 8009 bound_to 7997
  154.8955  140.2969  155.5350 H   0  0  0  0  0  0  0  0  0  0  0  0  # atno 8010 bound_to 7997
  140.0736  144.5131  150.7210 H   0  0  0  0  0  0  0  0  0  0  0  0  # atno 10167 bound_to 10162
  157.3866  131.0999  151.0687 H   0  0  0  0  0  0  0  0  0  0  0  0  # atno 10718 bound_to 10713
  153.4992  135.7017  153.5841 H   0  0  0  0  0  0  0  0  0  0  0  0  # atno 10763 bound_to 10752
  153.3980  135.3879  155.1968 H   0  0  0  0  0  0  0  0  0  0  0  0  # atno 10764 bound_to 10752
  154.8712  135.3874  154.4461 H   0  0  0  0  0  0  0  0  0  0  0  0  # atno 10765 bound_to 10752
  140.8955  134.1757  157.4497 H   0  0  0  0  0  0  0  0  0  0  0  0  # atno 11005 bound_to 11000
  146.0895  139.3884  143.0414 LP  0  0  0  0  0  0  0  0  0  0  0  0  # atno 17320 bound_to 7965
  145.7731  140.9888  143.1139 LP  0  0  0  0  0  0  0  0  0  0  0  0  # atno 17321 bound_to 7965
  140.7113  143.2507  151.4572 LP  0  0  0  0  0  0  0  0  0  0  0  0  # atno 17342 bound_to 10162
  139.5821  144.1686  152.1982 LP  0  0  0  0  0  0  0  0  0  0  0  0  # atno 17343 bound_to 10162
  157.1736  130.6278  149.5648 LP  0  0  0  0  0  0  0  0  0  0  0  0  # atno 17370 bound_to 10713
  155.9788  130.4777  150.6678 LP  0  0  0  0  0  0  0  0  0  0  0  0  # atno 17371 bound_to 10713
  139.8735  134.9876  156.5377 LP  0  0  0  0  0  0  0  0  0  0  0  0  # atno 17394 bound_to 11000
  140.8294  133.8291  155.8970 LP  0  0  0  0  0  0  0  0  0  0  0  0  # atno 17395 bound_to 11000

$$$$
