AV-unprocessed.smi:1999|AV-procd|sdf|8092|dock2
  -GOLD-   2272010313D 1   1.00000     0.00000
 Structure written by MMmdl.
 38 39  0  0  0  0  0  0  0  0  1 V2000
  141.2614  134.5277  153.2920 C   0  0  0  0  0  0  0  0  0  0  0  0
  142.5199  135.3211  153.3831 C   0  0  0  0  0  0  0  0  0  0  0  0
  143.7092  134.7676  153.6498 N   0  0  0  0  0  0  0  0  0  0  0  0
  144.7319  135.7052  153.6762 N   0  0  0  0  0  0  0  0  0  0  0  0
  144.2821  136.9426  153.4261 C   0  0  0  0  0  0  0  0  0  0  0  0
  145.1148  138.0918  153.3838 N   0  0  0  0  0  0  0  0  0  0  0  0
  146.2329  138.3372  154.0893 C   0  0  0  0  0  0  0  0  0  0  0  0
  146.7164  137.5903  154.9405 O   0  0  0  0  0  0  0  0  0  0  0  0
  146.7736  139.5153  153.7448 N   0  0  0  0  0  0  0  0  0  0  0  0
  148.0156  140.0670  154.2794 C   0  0  2  0  0  0  0  0  0  0  0  0
  148.2977  141.4378  153.6402 C   0  0  0  0  0  0  0  0  0  0  0  0
  149.1523  139.0576  154.0181 C   0  0  0  0  0  0  0  0  0  0  0  0
  150.4770  139.4525  154.4979 N   0  0  0  0  0  0  0  0  0  0  0  0
  150.4260  140.1545  155.7794 C   0  0  0  0  0  0  0  0  0  0  0  0
  151.8296  140.5285  156.2873 C   0  0  0  0  0  0  0  0  0  0  0  0
  152.6356  139.3586  156.3788 O   0  0  0  0  0  0  0  0  0  0  0  0
  152.7500  138.6746  155.1356 C   0  0  0  0  0  0  0  0  0  0  0  0
  151.3488  138.2899  154.6313 C   0  0  0  0  0  0  0  0  0  0  0  0
  142.5540  137.0633  153.1417 S   0  0  0  0  0  0  0  0  0  0  0  0
  141.4166  133.5152  153.6660 H   0  0  0  0  0  0  0  0  0  0  0  0
  140.9326  134.4707  152.2542 H   0  0  0  0  0  0  0  0  0  0  0  0
  140.4776  135.0012  153.8832 H   0  0  0  0  0  0  0  0  0  0  0  0
  144.8395  138.8008  152.7207 H   0  0  0  0  0  0  0  0  0  0  0  0
  146.3034  140.0641  153.0399 H   0  0  0  0  0  0  0  0  0  0  0  0
  147.8902  140.1982  155.3545 H   0  0  0  0  0  0  0  0  0  0  0  0
  149.2066  141.8823  154.0466 H   0  0  0  0  0  0  0  0  0  0  0  0
  147.4833  142.1381  153.8287 H   0  0  0  0  0  0  0  0  0  0  0  0
  148.4232  141.3550  152.5601 H   0  0  0  0  0  0  0  0  0  0  0  0
  148.8868  138.0945  154.4573 H   0  0  0  0  0  0  0  0  0  0  0  0
  149.2032  138.8860  152.9417 H   0  0  0  0  0  0  0  0  0  0  0  0
  149.8385  141.0674  155.6911 H   0  0  0  0  0  0  0  0  0  0  0  0
  149.9275  139.5311  156.5233 H   0  0  0  0  0  0  0  0  0  0  0  0
  152.3006  141.2514  155.6196 H   0  0  0  0  0  0  0  0  0  0  0  0
  151.7647  140.9948  157.2706 H   0  0  0  0  0  0  0  0  0  0  0  0
  153.2627  139.3071  154.4091 H   0  0  0  0  0  0  0  0  0  0  0  0
  153.3618  137.7830  155.2734 H   0  0  0  0  0  0  0  0  0  0  0  0
  150.9039  137.5710  155.3211 H   0  0  0  0  0  0  0  0  0  0  0  0
  151.4404  137.7833  153.6697 H   0  0  0  0  0  0  0  0  0  0  0  0
  1  2  1  0  0  0  0
  1 20  1  0  0  0  0
  1 21  1  0  0  0  0
  1 22  1  0  0  0  0
  2 19  1  0  0  0  0
  2  3  2  0  0  0  0
  3  4  1  0  0  0  0
  4  5  2  0  0  0  0
  5  6  1  0  0  0  0
  5 19  1  0  0  0  0
  6  7  1  0  0  0  0
  6 23  1  0  0  0  0
  7  8  2  0  0  0  0
  7  9  1  0  0  0  0
  9 10  1  0  0  0  0
  9 24  1  0  0  0  0
 10 11  1  0  0  0  0
 10 12  1  0  0  0  0
 10 25  1  0  0  0  0
 11 26  1  0  0  0  0
 11 27  1  0  0  0  0
 11 28  1  0  0  0  0
 12 13  1  0  0  0  0
 12 29  1  0  0  0  0
 12 30  1  0  0  0  0
 13 18  1  0  0  0  0
 13 14  1  0  0  0  0
 14 15  1  0  0  0  0
 14 31  1  0  0  0  0
 14 32  1  0  0  0  0
 15 16  1  0  0  0  0
 15 33  1  0  0  0  0
 15 34  1  0  0  0  0
 16 17  1  0  0  0  0
 17 18  1  0  0  0  0
 17 35  1  0  0  0  0
 17 36  1  0  0  0  0
 18 37  1  0  0  0  0
 18 38  1  0  0  0  0
M  END
> <s_m_source_file>
AV-unprocessed.smi

> <i_m_source_file_index>
1999

> <i_lp_mmshare_version>
43012

> <i_f3d_flags>
0

> <s_epik_input>
W0NIM11jMW5uYyhzMSlbTkhdQyg9TylbTkhdW0NASF0oW0NIM10pW0NIMl1OMltDSDJdW0NIMl1PW0NIMl1bQ0gyXTI=

> <s_epik_cmdline>
J2VwaWtfcHl0aG9uJywgJy1waCcsICc3LjAnLCAnLXRuJywgJzgnLCAnLW1hJywgJzIwMCcsICctbWV0YWxfYmluZGluZycsICctaW1hZScsICc8aW5maWxlLm1hZT4nLCAnLW9tYWUnLCAnPG91dGZpbGUubWFlPic=

> <r_lp_tautomer_probability>
1

> <r_epik_Ionization_Penalty>
0.221412

> <r_epik_Ionization_Penalty_Charging>
0

> <r_epik_Ionization_Penalty_Neutral>
0.221412

> <r_epik_State_Penalty>
0.209349

> <r_epik_Charging_Adjusted_Penalty>
0.209349

> <i_epik_Tot_Q>
0

> <i_epik_Tot_abs_Q>
0

> <r_epik_Metal_State_Penalty>
0.56886

> <b_epik_Metal_Only>
0

> <s_lp_Force_Field>
OPLS_2005

> <r_lp_Energy>
22.1143

> <b_lp_Chiralities_Consistent>
1

> <s_lp_Variant>
AV-unprocessed.smi:1999-1

> <Gold.Version>
5.8.1

> <Gold.Id.Protein>
6NUR|6NUR_protein|mol2

> <Gold.PLP.Fitness>
37.8750

> <Gold.PLP.PLP>
-29.6803

> <Gold.PLP.part.hbond>
-3.0000

> <Gold.PLP.part.metal>
0.0000

> <Gold.PLP.part.buried>
-3.5850

> <Gold.PLP.part.nonpolar>
-23.6689

> <Gold.PLP.part.repulsive>
0.3222

> <Gold.PLP.ligand.clash>
0.0000

> <Gold.PLP.ligand.torsion>
0.4188

> <Gold.PLP.Chemscore.Hbond>
3.0000

> <Gold.PLP.Chemscore.CHOScore>
0.0000

> <Gold.PLP.Chemscore.Metal>
0.0000

> <Gold.Chemscore.Hbonds>
donor molecule, donor type, donor heavy atom, donor atom, acceptor molecule, acceptor atom, score
      L1  H     6    23       P1 10175  0.86
      P1  H  7989  7998       L1    13  0.75
      P1  H  7997  8010       L1    16  1.00

> <Gold.PLP.Chemscore.Internal.Correction>
0.0323

> <Gold.Rescore>
     Score         DG    S(hbond)    S(metal)    S(lipo)     H(rot)  DE(clash)    DE(int)     intcor
     12.78     -13.57       1.37        0.00      64.74       1.58       0.10       0.68       ----

> <Gold.Chemscore.Fitness>
12.7828

> <Gold.Chemscore.DG>
-13.5667

> <Gold.Chemscore.ZeroCoef>
-5.4800

> <Gold.Chemscore.Hbond>
1.3671

> <Gold.Chemscore.Metal>
0.0000

> <Gold.Chemscore.Lipo>
64.7433

> <Gold.Chemscore.Internal_Hbond>
0.0000

> <Gold.Chemscore.DEClash>
0.1042

> <Gold.Chemscore.DEInternal>
0.6797

> <Gold.Chemscore.Rot>
1.5837

> <Gold.Chemscore.Internal.Correction>
   9.000000E+99

> <Gold.Chemscore.Hbonds>
donor molecule, donor type, donor heavy atom, donor atom, acceptor molecule, acceptor atom, score
      L1  H     6    23       P1 10175  0.80
      P1  H  7989  7998       L1    13  0.06
      P1  H  7997  8010       L1    16  0.17

> <Gold.Chemscore.Hbond.Weighted>
-4.5660

> <Gold.Chemscore.Metal.Weighted>
-0.0000

> <Gold.Chemscore.Lipo.Weighted>
-7.5750

> <Gold.Chemscore.Internal_Hbond.Weighted>
0.0000

> <Gold.Chemscore.DEClash.Weighted>
0.1042

> <Gold.Chemscore.DEInternal.Weighted>
0.6797

> <Gold.Chemscore.Rot.Weighted>
4.0542

> <Gold.Chemscore.Internal.Correction.Weighted>
   9.000000E+99

> <Gold.Protein.RotatedTorsions>
[ 6907 6896 6895 6894 ] final  -76.16 input  -60.11 | X-H torsion
[ 7974 7965 7964 7962 ] final  127.49 input  175.53 | X-H torsion
[ 8008 7997 7996 7995 ] final   56.41 input   59.86 | X-H torsion
[ 10167 10162 10161 10158 ] final -154.94 input  -65.29 | X-H torsion
[ 10718 10713 10712 10709 ] final -115.06 input   66.30 | X-H torsion
[ 10763 10752 10751 10750 ] final  -20.33 input  -60.55 | X-H torsion
[ 11005 11000 10999 10996 ] final  152.26 input  -57.11 | X-H torsion

> <Gold.Protein.ActiveResidues>
 VAL166  LYS551  ARG553  GLY616  TRP617  ASP618  TYR619  PRO620  LYS621  CYS622 
 ASP623  PHE694  ASN695  SER759  ASP760  ASP761  ALA762  ILE779  LEU786  VAL792 
 PHE793  MET794  SER795  GLU796  ALA797  LYS798  CYS799  TRP800  GLU811  SER814 

> <Gold.Protein.RotatedAtoms>
  150.7036  134.4614  159.5381 H   0  0  0  0  0  0  0  0  0  0  0  0  # atno 6907 bound_to 6896
  152.2287  134.8340  160.0485 H   0  0  0  0  0  0  0  0  0  0  0  0  # atno 6908 bound_to 6896
  151.9163  133.3539  159.3918 H   0  0  0  0  0  0  0  0  0  0  0  0  # atno 6909 bound_to 6896
  145.0500  139.3891  143.5058 H   0  0  0  0  0  0  0  0  0  0  0  0  # atno 7974 bound_to 7965
  155.5170  140.3478  155.4399 H   0  0  0  0  0  0  0  0  0  0  0  0  # atno 8008 bound_to 7997
  156.0810  140.1386  156.9739 H   0  0  0  0  0  0  0  0  0  0  0  0  # atno 8009 bound_to 7997
  154.4580  140.0946  156.6789 H   0  0  0  0  0  0  0  0  0  0  0  0  # atno 8010 bound_to 7997
  139.6972  143.9322  152.2412 H   0  0  0  0  0  0  0  0  0  0  0  0  # atno 10167 bound_to 10162
  156.0871  130.6060  150.8856 H   0  0  0  0  0  0  0  0  0  0  0  0  # atno 10718 bound_to 10713
  153.6187  135.6993  153.5319 H   0  0  0  0  0  0  0  0  0  0  0  0  # atno 10763 bound_to 10752
  153.2955  135.4144  155.1205 H   0  0  0  0  0  0  0  0  0  0  0  0  # atno 10764 bound_to 10752
  154.8548  135.3636  154.5727 H   0  0  0  0  0  0  0  0  0  0  0  0  # atno 10765 bound_to 10752
  140.1292  134.8813  157.2179 H   0  0  0  0  0  0  0  0  0  0  0  0  # atno 11005 bound_to 11000
  146.3517  140.0146  142.8664 LP  0  0  0  0  0  0  0  0  0  0  0  0  # atno 17320 bound_to 7965
  145.1539  140.9637  143.4417 LP  0  0  0  0  0  0  0  0  0  0  0  0  # atno 17321 bound_to 7965
  139.9155  144.6831  150.8517 LP  0  0  0  0  0  0  0  0  0  0  0  0  # atno 17342 bound_to 10162
  140.7700  143.3413  151.2203 LP  0  0  0  0  0  0  0  0  0  0  0  0  # atno 17343 bound_to 10162
  157.6008  131.0941  150.8963 LP  0  0  0  0  0  0  0  0  0  0  0  0  # atno 17370 bound_to 10713
  156.9120  130.5284  149.5280 LP  0  0  0  0  0  0  0  0  0  0  0  0  # atno 17371 bound_to 10713
  140.2865  134.3290  155.7327 LP  0  0  0  0  0  0  0  0  0  0  0  0  # atno 17394 bound_to 11000
  141.2167  133.7509  156.9440 LP  0  0  0  0  0  0  0  0  0  0  0  0  # atno 17395 bound_to 11000

$$$$
