AV-unprocessed.smi:1679|AV-procd|sdf|6729|dock6
  -GOLD-   22720 7473D 1   1.00000     0.00000
 Structure written by MMmdl.
 45 46  0  0  0  0  0  0  0  0  1 V2000
  151.2654  145.5333  160.3572 C   0  0  0  0  0  0  0  0  0  0  0  0
  151.6114  144.0655  160.6575 C   0  0  2  0  0  0  0  0  0  0  0  0
  152.7063  143.9769  161.7397 C   0  0  0  0  0  0  0  0  0  0  0  0
  153.0802  142.5210  162.0554 C   0  0  0  0  0  0  0  0  0  0  0  0
  153.5192  141.7787  160.7861 C   0  0  0  0  0  0  0  0  0  0  0  0
  152.4304  141.8474  159.7053 C   0  0  0  0  0  0  0  0  0  0  0  0
  152.0397  143.3055  159.3813 C   0  0  1  0  0  0  0  0  0  0  0  0
  150.9381  143.3031  158.4821 O   0  0  0  0  0  0  0  0  0  0  0  0
  151.3010  143.2680  157.1094 C   0  0  0  0  0  0  0  0  0  0  0  0
  150.9726  141.8821  156.5449 C   0  0  0  0  0  0  0  0  0  0  0  0
  149.7966  141.9455  155.6883 N   0  0  0  0  0  0  0  0  0  0  0  0
  149.5433  141.1005  154.6796 C   0  0  0  0  0  0  0  0  0  0  0  0
  150.2948  140.1727  154.3761 O   0  0  0  0  0  0  0  0  0  0  0  0
  148.2496  141.3648  153.8951 C   0  0  0  0  0  0  0  0  0  0  0  0
  147.2532  140.2922  154.0313 N   0  0  0  0  0  0  0  0  0  0  0  0
  147.4164  139.0977  153.3441 C   0  0  0  0  0  0  0  0  0  0  0  0
  146.5451  138.0647  153.4269 C   0  0  0  0  0  0  0  0  0  0  0  0
  145.3588  138.1647  154.2701 C   0  0  0  0  0  0  0  0  0  0  0  0
  144.5113  137.2857  154.4091 O   0  0  0  0  0  0  0  0  0  0  0  0
  145.2318  139.3800  154.9483 N   0  0  0  0  0  0  0  0  0  0  0  0
  146.1269  140.4481  154.8687 C   0  0  0  0  0  0  0  0  0  0  0  0
  145.9220  141.4757  155.5137 O   0  0  0  0  0  0  0  0  0  0  0  0
  144.4270  139.4941  155.5473 H   0  0  0  0  0  0  0  0  0  0  0  0
  152.1212  146.0654  159.9407 H   0  0  0  0  0  0  0  0  0  0  0  0
  150.9576  146.0567  161.2627 H   0  0  0  0  0  0  0  0  0  0  0  0
  150.4461  145.6106  159.6422 H   0  0  0  0  0  0  0  0  0  0  0  0
  150.7133  143.5874  161.0516 H   0  0  0  0  0  0  0  0  0  0  0  0
  153.5960  144.5154  161.4100 H   0  0  0  0  0  0  0  0  0  0  0  0
  152.3691  144.4704  162.6518 H   0  0  0  0  0  0  0  0  0  0  0  0
  153.8786  142.4940  162.7975 H   0  0  0  0  0  0  0  0  0  0  0  0
  152.2250  142.0112  162.5011 H   0  0  0  0  0  0  0  0  0  0  0  0
  154.4431  142.2158  160.4054 H   0  0  0  0  0  0  0  0  0  0  0  0
  153.7430  140.7382  161.0229 H   0  0  0  0  0  0  0  0  0  0  0  0
  152.7818  141.3358  158.8097 H   0  0  0  0  0  0  0  0  0  0  0  0
  151.5495  141.3008  160.0450 H   0  0  0  0  0  0  0  0  0  0  0  0
  152.8913  143.8256  158.9380 H   0  0  0  0  0  0  0  0  0  0  0  0
  150.7379  144.0287  156.5672 H   0  0  0  0  0  0  0  0  0  0  0  0
  152.3603  143.4864  156.9710 H   0  0  0  0  0  0  0  0  0  0  0  0
  151.8224  141.4926  155.9821 H   0  0  0  0  0  0  0  0  0  0  0  0
  150.7815  141.1876  157.3645 H   0  0  0  0  0  0  0  0  0  0  0  0
  149.1373  142.6886  155.8688 H   0  0  0  0  0  0  0  0  0  0  0  0
  147.8262  142.3206  154.2103 H   0  0  0  0  0  0  0  0  0  0  0  0
  148.5099  141.5003  152.8442 H   0  0  0  0  0  0  0  0  0  0  0  0
  148.2835  138.9777  152.7103 H   0  0  0  0  0  0  0  0  0  0  0  0
  146.7275  137.1593  152.8664 H   0  0  0  0  0  0  0  0  0  0  0  0
  1  2  1  0  0  0  0
  1 24  1  0  0  0  0
  1 25  1  0  0  0  0
  1 26  1  0  0  0  0
  2  7  1  0  0  0  0
  2  3  1  0  0  0  0
  2 27  1  0  0  0  0
  3  4  1  0  0  0  0
  3 28  1  0  0  0  0
  3 29  1  0  0  0  0
  4  5  1  0  0  0  0
  4 30  1  0  0  0  0
  4 31  1  0  0  0  0
  5  6  1  0  0  0  0
  5 32  1  0  0  0  0
  5 33  1  0  0  0  0
  6  7  1  0  0  0  0
  6 34  1  0  0  0  0
  6 35  1  0  0  0  0
  7  8  1  0  0  0  0
  7 36  1  0  0  0  0
  8  9  1  0  0  0  0
  9 10  1  0  0  0  0
  9 37  1  0  0  0  0
  9 38  1  0  0  0  0
 10 11  1  0  0  0  0
 10 39  1  0  0  0  0
 10 40  1  0  0  0  0
 11 12  1  0  0  0  0
 11 41  1  0  0  0  0
 12 13  2  0  0  0  0
 12 14  1  0  0  0  0
 14 15  1  0  0  0  0
 14 42  1  0  0  0  0
 14 43  1  0  0  0  0
 15 21  1  0  0  0  0
 15 16  1  0  0  0  0
 16 17  2  0  0  0  0
 16 44  1  0  0  0  0
 17 18  1  0  0  0  0
 17 45  1  0  0  0  0
 18 19  2  0  0  0  0
 18 20  1  0  0  0  0
 20 23  1  0  0  0  0
 20 21  1  0  0  0  0
 21 22  2  0  0  0  0
M  END
> <s_m_source_file>
AV-unprocessed.smi

> <i_m_source_file_index>
1679

> <i_lp_mmshare_version>
43012

> <i_f3d_flags>
0

> <s_epik_input>
W0NIM11bQ0BASF0xW0NIMl1bQ0gyXVtDSDJdW0NIMl1bQ0BIXTFPW0NIMl1bQ0gyXVtOSF1DKD1PKVtDSDJdbjJbY0hdW2NIXWMoPU8pW25IXWMyPU8=

> <s_epik_cmdline>
J2VwaWtfcHl0aG9uJywgJy1waCcsICc3LjAnLCAnLXRuJywgJzgnLCAnLW1hJywgJzIwMCcsICctbWV0YWxfYmluZGluZycsICctaW1hZScsICc8aW5maWxlLm1hZT4nLCAnLW9tYWUnLCAnPG91dGZpbGUubWFlPic=

> <r_lp_tautomer_probability>
0.999537

> <r_epik_Ionization_Penalty>
0.0033132

> <r_epik_Ionization_Penalty_Charging>
0.00331317

> <r_epik_Ionization_Penalty_Neutral>
2.78599e-08

> <r_epik_State_Penalty>
0.002342

> <r_epik_Charging_Adjusted_Penalty>
0.00565517

> <i_epik_Tot_Q>
0

> <i_epik_Tot_abs_Q>
0

> <r_epik_Metal_State_Penalty>
0.365595

> <b_epik_Metal_Only>
0

> <s_lp_Force_Field>
OPLS_2005

> <r_lp_Energy>
12.8009

> <b_lp_Chiralities_Consistent>
1

> <s_lp_Variant>
AV-unprocessed.smi:1679-1

> <Gold.Version>
5.8.1

> <Gold.Id.Protein>
6NUR|6NUR_protein|mol2

> <Gold.PLP.Fitness>
50.7569

> <Gold.PLP.PLP>
-44.3673

> <Gold.PLP.part.hbond>
-3.0000

> <Gold.PLP.part.metal>
0.0000

> <Gold.PLP.part.buried>
-1.0863

> <Gold.PLP.part.nonpolar>
-38.7470

> <Gold.PLP.part.repulsive>
0.5834

> <Gold.PLP.ligand.clash>
0.0000

> <Gold.PLP.ligand.torsion>
1.4512

> <Gold.PLP.Chemscore.Hbond>
1.9516

> <Gold.PLP.Chemscore.CHOScore>
1.1228

> <Gold.PLP.Chemscore.Metal>
0.0000

> <Gold.Chemscore.Hbonds>
donor molecule, donor type, donor heavy atom, donor atom, acceptor molecule, acceptor atom, score
      L1  H    11    41       P1  8028  0.80
      P1  H  7989  7998       L1    13  1.00
      L1  C    16    44       P1  7948  0.02
      L1  C    16    44       P1  7957  1.00

> <Gold.PLP.Chemscore.Internal.Correction>
0.0688

> <Gold.Rescore>
     Score         DG    S(hbond)    S(metal)    S(lipo)     H(rot)  DE(clash)    DE(int)     intcor
     15.87     -17.80       1.56        0.00     115.90       2.52       0.60       1.33       ----

> <Gold.Chemscore.Fitness>
15.8651

> <Gold.Chemscore.DG>
-17.7954

> <Gold.Chemscore.ZeroCoef>
-5.4800

> <Gold.Chemscore.Hbond>
1.5577

> <Gold.Chemscore.Metal>
0.0000

> <Gold.Chemscore.Lipo>
115.8969

> <Gold.Chemscore.Internal_Hbond>
0.0000

> <Gold.Chemscore.DEClash>
0.5965

> <Gold.Chemscore.DEInternal>
1.3339

> <Gold.Chemscore.Rot>
2.5185

> <Gold.Chemscore.Internal.Correction>
   9.000000E+99

> <Gold.Chemscore.Hbonds>
donor molecule, donor type, donor heavy atom, donor atom, acceptor molecule, acceptor atom, score
      L1  H    11    41       P1  8028  0.75
      P1  H  7989  7998       L1    13  0.54

> <Gold.Chemscore.Hbond.Weighted>
-5.2027

> <Gold.Chemscore.Metal.Weighted>
-0.0000

> <Gold.Chemscore.Lipo.Weighted>
-13.5599

> <Gold.Chemscore.Internal_Hbond.Weighted>
0.0000

> <Gold.Chemscore.DEClash.Weighted>
0.5965

> <Gold.Chemscore.DEInternal.Weighted>
1.3339

> <Gold.Chemscore.Rot.Weighted>
6.4472

> <Gold.Chemscore.Internal.Correction.Weighted>
   9.000000E+99

> <Gold.Protein.RotatedTorsions>
[ 6907 6896 6895 6894 ] final  -54.60 input  -60.11 | X-H torsion
[ 7974 7965 7964 7962 ] final -152.70 input  175.53 | X-H torsion
[ 8008 7997 7996 7995 ] final  -22.61 input   59.86 | X-H torsion
[ 10167 10162 10161 10158 ] final  174.21 input  -65.29 | X-H torsion
[ 10718 10713 10712 10709 ] final  -71.80 input   66.30 | X-H torsion
[ 10763 10752 10751 10750 ] final  -42.15 input  -60.55 | X-H torsion
[ 11005 11000 10999 10996 ] final  -34.94 input  -57.11 | X-H torsion

> <Gold.Protein.ActiveResidues>
 VAL166  LYS551  ARG553  GLY616  TRP617  ASP618  TYR619  PRO620  LYS621  CYS622 
 ASP623  PHE694  ASN695  SER759  ASP760  ASP761  ALA762  ILE779  LEU786  VAL792 
 PHE793  MET794  SER795  GLU796  ALA797  LYS798  CYS799  TRP800  GLU811  SER814 

> <Gold.Protein.RotatedAtoms>
  150.8323  134.7582  159.6863 H   0  0  0  0  0  0  0  0  0  0  0  0  # atno 6907 bound_to 6896
  152.4426  134.5557  159.9889 H   0  0  0  0  0  0  0  0  0  0  0  0  # atno 6908 bound_to 6896
  151.5715  133.3352  159.3026 H   0  0  0  0  0  0  0  0  0  0  0  0  # atno 6909 bound_to 6896
  144.7780  140.4627  143.5859 H   0  0  0  0  0  0  0  0  0  0  0  0  # atno 7974 bound_to 7965
  154.4634  140.2003  156.0183 H   0  0  0  0  0  0  0  0  0  0  0  0  # atno 8008 bound_to 7997
  156.0882  140.3262  155.7753 H   0  0  0  0  0  0  0  0  0  0  0  0  # atno 8009 bound_to 7997
  155.5000  140.0553  157.2931 H   0  0  0  0  0  0  0  0  0  0  0  0  # atno 8010 bound_to 7997
  139.5134  144.3173  152.0236 H   0  0  0  0  0  0  0  0  0  0  0  0  # atno 10167 bound_to 10162
  156.0347  130.4359  150.2498 H   0  0  0  0  0  0  0  0  0  0  0  0  # atno 10718 bound_to 10713
  153.9742  135.6724  153.4748 H   0  0  0  0  0  0  0  0  0  0  0  0  # atno 10763 bound_to 10752
  153.0778  135.4939  154.8438 H   0  0  0  0  0  0  0  0  0  0  0  0  # atno 10764 bound_to 10752
  154.7201  135.3115  154.9021 H   0  0  0  0  0  0  0  0  0  0  0  0  # atno 10765 bound_to 10752
  140.9756  133.7085  156.1597 H   0  0  0  0  0  0  0  0  0  0  0  0  # atno 11005 bound_to 11000
  145.6130  139.1515  143.3065 LP  0  0  0  0  0  0  0  0  0  0  0  0  # atno 17320 bound_to 7965
  146.1971  140.6245  142.9119 LP  0  0  0  0  0  0  0  0  0  0  0  0  # atno 17321 bound_to 7965
  140.2616  144.4061  150.6184 LP  0  0  0  0  0  0  0  0  0  0  0  0  # atno 17342 bound_to 10162
  140.6153  143.2172  151.6804 LP  0  0  0  0  0  0  0  0  0  0  0  0  # atno 17343 bound_to 10162
  157.0598  131.0087  151.3226 LP  0  0  0  0  0  0  0  0  0  0  0  0  # atno 17370 bound_to 10713
  157.5078  130.7920  149.7673 LP  0  0  0  0  0  0  0  0  0  0  0  0  # atno 17371 bound_to 10713
  140.7263  134.4303  157.5570 LP  0  0  0  0  0  0  0  0  0  0  0  0  # atno 17394 bound_to 11000
  139.8929  134.8743  156.2248 LP  0  0  0  0  0  0  0  0  0  0  0  0  # atno 17395 bound_to 11000

$$$$
