#       Name:                AV-unprocessed.smi:1
#       Creating user name   scv26
#       Creation time:       Thu Mar 26 15:12:19 2020


#       File generated by GOLD software.
#

@<TRIPOS>MOLECULE
AV-unprocessed.smi:1
    66    71     1
SMALL
NO_CHARGES


@<TRIPOS>ATOM
      1 ****        -4.6211   0.5734   2.6875 O.2            1 S1                 0.0000
      2 ****        -4.9356   0.4083   1.5069 C.2            1 S1                 0.0000
      3 ****        -4.1255   0.4330   0.4182 N.pl3          1 S1                -1.0000
      4 ****        -2.8038   0.6037   0.5763 C.ar           1 S1                 0.0000
      5 ****        -2.2475   1.8320   0.4211 N.ar           1 S1                 0.0000
      6 ****        -0.9310   2.0033   0.5852 C.ar           1 S1                 0.0000
      7 ****         0.0006   1.0985   0.9001 N.ar           1 S1                 0.0000
      8 ****        -0.5423  -0.1449   1.0470 C.ar           1 S1                 0.0000
      9 ****        -1.9230  -0.4664   0.8956 C.ar           1 S1                 0.0000
     10 ****        -2.1396  -1.8194   1.1069 N.2            1 S1                 0.0000
     11 ****        -0.9094  -2.2491   1.3767 C.2            1 S1                 0.0000
     12 ****         0.0842  -1.3381   1.3739 N.pl3          1 S1                 0.0000
     13 ****         1.5330  -1.5897   1.6445 C.3            1 S1                 0.0000
     14 ****         2.2851  -1.1852   0.5390 O.3            1 S1                 0.0000
     15 ****         3.1476  -0.1048   0.8855 C.3            1 S1                 0.0000
     16 ****         4.4239  -0.1255   0.0373 C.3            1 S1                 0.0000
     17 ****         4.1061   0.3148  -1.2724 O.3            1 S1                 0.0000
     18 ****         5.0645   0.3868  -2.2146 C.2            1 S1                 0.0000
     19 ****         6.2441   0.0919  -2.0119 O.2            1 S1                 0.0000
     20 ****         4.5472   0.8624  -3.5301 C.ar           1 S1                 0.0000
     21 ****         5.4420   1.0074  -4.6158 C.ar           1 S1                 0.0000
     22 ****         4.9817   1.4525  -5.8701 C.ar           1 S1                 0.0000
     23 ****         3.6209   1.7584  -6.0544 C.ar           1 S1                 0.0000
     24 ****         2.7206   1.6190  -4.9821 C.ar           1 S1                 0.0000
     25 ****         3.1789   1.1738  -3.7268 C.ar           1 S1                 0.0000
     26 ****         3.3765  -0.2789   2.3853 C.3            1 S1                 0.0000
     27 ****         4.3617  -1.2648   2.6477 O.3            1 S1                 0.0000
     28 ****         3.8203  -2.2297   3.8994 S.o2           1 S1                 0.0000
     29 ****         3.7999  -3.6235   3.4300 O.2            1 S1                 0.0000
     30 ****         4.5084  -1.8174   5.1322 O.2            1 S1                 0.0000
     31 ****         2.2451  -1.6757   3.9710 O.3            1 S1                 0.0000
     32 ****         2.0250  -0.8086   2.8729 C.3            1 S1                 0.0000
     33 ****        -6.3881   0.2129   1.1639 C.ar           1 S1                 0.0000
     34 ****        -7.3802   0.8960   1.9037 C.ar           1 S1                 0.0000
     35 ****        -8.7460   0.7056   1.6166 C.ar           1 S1                 0.0000
     36 ****        -9.1349  -0.1782   0.5927 C.ar           1 S1                 0.0000
     37 ****        -8.1567  -0.8741  -0.1419 C.ar           1 S1                 0.0000
     38 ****        -6.7906  -0.6839   0.1442 C.ar           1 S1                 0.0000
     39 ****        -0.5726   3.0125   0.4472 H              1 S1                 0.0000
     40 ****        -0.7205  -3.2899   1.5945 H              1 S1                 0.0000
     41 ****         1.6137  -2.6717   1.7578 H              1 S1                 0.0000
     42 ****         2.6211   0.8357   0.7254 H              1 S1                 0.0000
     43 ****         5.1656   0.5487   0.4676 H              1 S1                 0.0000
     44 ****         4.8579  -1.1261   0.0145 H              1 S1                 0.0000
     45 ****         6.4911   0.7780  -4.4981 H              1 S1                 0.0000
     46 ****         5.6745   1.5593  -6.6917 H              1 S1                 0.0000
     47 ****         3.2683   2.0995  -7.0165 H              1 S1                 0.0000
     48 ****         1.6754   1.8527  -5.1216 H              1 S1                 0.0000
     49 ****         2.4608   1.0768  -2.9257 H              1 S1                 0.0000
     50 ****         3.6625   0.6519   2.8761 H              1 S1                 0.0000
     51 ****         1.3443   0.0050   3.1253 H              1 S1                 0.0000
     52 ****        -7.0982   1.5760   2.6946 H              1 S1                 0.0000
     53 ****        -9.4952   1.2373   2.1844 H              1 S1                 0.0000
     54 ****       -10.1819  -0.3251   0.3734 H              1 S1                 0.0000
     55 ****        -8.4532  -1.5580  -0.9233 H              1 S1                 0.0000
     56 ****        -6.0559  -1.2363  -0.4239 H              1 S1                 0.0000
     57 ****        -3.6674   0.7503   2.9309 LP             1 S1                 0.0000
     58 ****        -5.3197   0.5303   3.4018 LP             1 S1                 0.0000
     59 ****        -4.5118   0.3244  -0.4978 LP             1 S1                 0.0000
     60 ****        -2.8248   2.6129   0.1828 LP             1 S1                 0.0000
     61 ****         0.9722   1.3061   1.0136 LP             1 S1                 0.0000
     62 ****        -2.9948  -2.3362   1.0670 LP             1 S1                 0.0000
     63 ****         1.6662  -0.8909  -0.1893 LP             1 S1                 0.0000
     64 ****         2.8362  -1.9552   0.2171 LP             1 S1                 0.0000
     65 ****         6.5330  -0.2211  -1.1072 LP             1 S1                 0.0000
     66 ****         6.9122   0.1656  -2.7524 LP             1 S1                 0.0000
@<TRIPOS>BOND
    1    1    2 2     
    2    2    3 1     
    3    2   33 1     
    4    3    4 1     
    5    4    9 ar    
    6    4    5 ar    
    7    5    6 ar    
    8    6    7 ar    
    9    6   39 1     
   10    7    8 ar    
   11    8   12 1     
   12    8    9 ar    
   13    9   10 1     
   14   10   11 2     
   15   11   12 1     
   16   11   40 1     
   17   12   13 1     
   18   13   32 1     
   19   13   14 1     
   20   13   41 1     
   21   14   15 1     
   22   15   16 1     
   23   15   26 1     
   24   15   42 1     
   25   16   17 1     
   26   16   43 1     
   27   16   44 1     
   28   17   18 1     
   29   18   19 2     
   30   18   20 1     
   31   20   25 ar    
   32   20   21 ar    
   33   21   22 ar    
   34   21   45 1     
   35   22   23 ar    
   36   22   46 1     
   37   23   24 ar    
   38   23   47 1     
   39   24   25 ar    
   40   24   48 1     
   41   25   49 1     
   42   26   32 1     
   43   26   27 1     
   44   26   50 1     
   45   27   28 1     
   46   28   29 2     
   47   28   30 2     
   48   28   31 1     
   49   31   32 1     
   50   32   51 1     
   51   33   38 ar    
   52   33   34 ar    
   53   34   35 ar    
   54   34   52 1     
   55   35   36 ar    
   56   35   53 1     
   57   36   37 ar    
   58   36   54 1     
   59   37   38 ar    
   60   37   55 1     
   61   38   56 1     
   62    1   57 1     
   63    1   58 1     
   64    3   59 1     
   65    5   60 1     
   66    7   61 1     
   67   10   62 1     
   68   14   63 1     
   69   14   64 1     
   70   19   65 1     
   71   19   66 1     
@<TRIPOS>SUBSTRUCTURE
      1 S1             1
@<TRIPOS>SET
LONE_PAIRS      STATIC     ATOMS    <user>   **** ""
12 57 58 59 60 61 62 63 64 65 66 29 30
ATOM$BLUE        STATIC     ATOMS    COLORGROUP SYSTEM
12 57 58 59 60 61 62 63 64 65 66 29 30
