#       Name:                AV-unprocessed.smi:1835
#       Creating user name   scv26
#       Creation time:       Fri Mar 27 09:17:11 2020


#       File generated by GOLD software.
#

@<TRIPOS>MOLECULE
AV-unprocessed.smi:1835
    48    49     1
SMALL
NO_CHARGES


@<TRIPOS>ATOM
      1 ****        -2.1832   1.4580  -0.7250 C.3            1 S1                 0.0000
      2 ****        -1.2553   0.2825  -1.1188 C.3            1 S1                 0.0000
      3 ****         0.2189   0.7733  -1.2072 C.3            1 S1                 0.0000
      4 ****         0.6883   1.4234   0.0136 N.am           1 S1                 0.0000
      5 ****         1.0209   0.7833   1.1450 C.2            1 S1                 0.0000
      6 ****         0.9357  -0.4386   1.2747 O.2            1 S1                 0.0000
      7 ****         1.5009   1.6657   2.3062 C.3            1 S1                 0.0000
      8 ****         2.3654   0.9488   3.2587 N.am           1 S1                 0.0000
      9 ****         1.7662   0.4824   4.4460 C.2            1 S1                 0.0000
     10 ****         2.4632  -0.1878   5.3772 C.2            1 S1                 0.0000
     11 ****         3.8666  -0.4286   5.1378 C.2            1 S1                 0.0000
     12 ****         4.4492   0.0107   4.0045 C.2            1 S1                 0.0000
     13 ****         3.6909   0.7433   2.9836 C.2            1 S1                 0.0000
     14 ****         4.2141   1.1467   1.9443 O.2            1 S1                 0.0000
     15 ****        -1.7234  -0.3836  -2.3811 N.4            1 S1                 1.0000
     16 ****        -0.7914  -1.4207  -2.9086 C.3            1 S1                 0.0000
     17 ****        -1.3337  -2.0749  -4.1906 C.3            1 S1                 0.0000
     18 ****        -2.6164  -2.6278  -3.9456 O.3            1 S1                 0.0000
     19 ****        -3.5449  -1.6210  -3.5774 C.3            1 S1                 0.0000
     20 ****        -3.0941  -0.9576  -2.2657 C.3            1 S1                 0.0000
     21 ****        -1.8212   1.9890   0.1549 H              1 S1                 0.0000
     22 ****        -3.1874   1.1285  -0.4632 H              1 S1                 0.0000
     23 ****        -2.2646   2.1848  -1.5339 H              1 S1                 0.0000
     24 ****        -1.3081  -0.4649  -0.3254 H              1 S1                 0.0000
     25 ****         0.9090  -0.0469  -1.4035 H              1 S1                 0.0000
     26 ****         0.3293   1.4796  -2.0306 H              1 S1                 0.0000
     27 ****         0.7817   2.4288  -0.0088 H              1 S1                 0.0000
     28 ****         2.0263   2.5370   1.9104 H              1 S1                 0.0000
     29 ****         0.6215   2.0676   2.8114 H              1 S1                 0.0000
     30 ****         0.7120   0.6969   4.5461 H              1 S1                 0.0000
     31 ****         1.9862  -0.5412   6.2796 H              1 S1                 0.0000
     32 ****         4.4516  -0.9650   5.8703 H              1 S1                 0.0000
     33 ****         5.4997  -0.1806   3.8417 H              1 S1                 0.0000
     34 ****         0.1734  -0.9862  -3.1635 H              1 S1                 0.0000
     35 ****        -0.6191  -2.1800  -2.1442 H              1 S1                 0.0000
     36 ****        -1.3837  -1.3515  -5.0062 H              1 S1                 0.0000
     37 ****        -0.6643  -2.8716  -4.5154 H              1 S1                 0.0000
     38 ****        -3.6430  -0.8836  -4.3759 H              1 S1                 0.0000
     39 ****        -4.5254  -2.0791  -3.4473 H              1 S1                 0.0000
     40 ****        -3.1171  -1.6877  -1.4550 H              1 S1                 0.0000
     41 ****        -3.8242  -0.1873  -2.0258 H              1 S1                 0.0000
     42 ****        -1.7706   0.3372  -3.0871 H              1 S1                 0.0000
     43 ****         0.6062  -1.0002   0.5157 LP             1 S1                 0.0000
     44 ****         1.1961  -0.8691   2.1390 LP             1 S1                 0.0000
     45 ****         3.6676   1.6420   1.2690 LP             1 S1                 0.0000
     46 ****         5.1854   0.9789   1.7757 LP             1 S1                 0.0000
     47 ****        -2.5480  -3.2957  -3.2045 LP             1 S1                 0.0000
     48 ****        -2.9399  -3.0826  -4.7754 LP             1 S1                 0.0000
@<TRIPOS>BOND
    1    1    2 1     
    2    1   21 1     
    3    1   22 1     
    4    1   23 1     
    5    2    3 1     
    6    2   15 1     
    7    2   24 1     
    8    3    4 1     
    9    3   25 1     
   10    3   26 1     
   11    4    5 am    
   12    4   27 1     
   13    5    6 2     
   14    5    7 1     
   15    7    8 1     
   16    7   28 1     
   17    7   29 1     
   18    8   13 am    
   19    8    9 1     
   20    9   10 2     
   21    9   30 1     
   22   10   11 1     
   23   10   31 1     
   24   11   12 2     
   25   11   32 1     
   26   12   13 1     
   27   12   33 1     
   28   13   14 2     
   29   15   20 1     
   30   15   16 1     
   31   15   42 1     
   32   16   17 1     
   33   16   34 1     
   34   16   35 1     
   35   17   18 1     
   36   17   36 1     
   37   17   37 1     
   38   18   19 1     
   39   19   20 1     
   40   19   38 1     
   41   19   39 1     
   42   20   40 1     
   43   20   41 1     
   44    6   43 1     
   45    6   44 1     
   46   14   45 1     
   47   14   46 1     
   48   18   47 1     
   49   18   48 1     
@<TRIPOS>SUBSTRUCTURE
      1 S1             1
@<TRIPOS>SET
LONE_PAIRS      STATIC     ATOMS    <user>   **** ""
6 43 44 45 46 47 48
DONOR_HYDROGENS      STATIC     ATOMS    <user>   **** ""
2 27 42
ATOM$BLUE        STATIC     ATOMS    COLORGROUP SYSTEM
6 43 44 45 46 47 48
ATOM$RED        STATIC     ATOMS    COLORGROUP SYSTEM
2 27 42
