#       Name:                AV-unprocessed.smi:3183
#       Creating user name   scv26
#       Creation time:       Fri Mar 27 17:59:44 2020


#       File generated by GOLD software.
#

@<TRIPOS>MOLECULE
AV-unprocessed.smi:3183
    44    45     1
SMALL
NO_CHARGES


@<TRIPOS>ATOM
      1 ****        -3.2340   4.0977  -0.8624 C.3            1 S1                 0.0000
      2 ****        -2.6369   2.6794  -0.8451 C.3            1 S1                 0.0000
      3 ****        -1.1343   2.7401  -1.1864 C.3            1 S1                 0.0000
      4 ****        -0.4857   1.3488  -1.2000 C.3            1 S1                 0.0000
      5 ****        -0.6908   0.6267   0.1452 C.3            1 S1                 0.0000
      6 ****        -0.1185  -0.7378   0.1252 N.4            1 S1                 1.0000
      7 ****         1.3559  -0.8075   0.2018 C.3            1 S1                 0.0000
      8 ****         1.8345  -2.2660   0.2542 C.3            1 S1                 0.0000
      9 ****         3.3229  -2.4245   0.3372 C.2            1 S1                 0.0000
     10 ****         4.3221  -1.4901   0.3774 C.2            1 S1                 0.0000
     11 ****         5.5165  -2.2577   0.4500 C.2            1 S1                 0.0000
     12 ****         5.2828  -3.5575   0.4557 N.2            1 S1                 0.0000
     13 ****         3.9394  -3.6640   0.3881 N.pl3          1 S1                 0.0000
     14 ****         3.3524  -4.9908   0.3733 C.3            1 S1                 0.0000
     15 ****        -2.1915   0.5534   0.4772 C.3            1 S1                 0.0000
     16 ****        -2.8585   1.9444   0.5031 C.3            1 S1                 0.0000
     17 ****        -4.3462   1.8052   0.8733 C.3            1 S1                 0.0000
     18 ****        -2.8382   4.7047  -0.0477 H              1 S1                 0.0000
     19 ****        -4.3199   4.0816  -0.7733 H              1 S1                 0.0000
     20 ****        -3.0021   4.6078  -1.7978 H              1 S1                 0.0000
     21 ****        -3.1323   2.1062  -1.6306 H              1 S1                 0.0000
     22 ****        -0.9930   3.2116  -2.1597 H              1 S1                 0.0000
     23 ****        -0.6179   3.3726  -0.4626 H              1 S1                 0.0000
     24 ****        -0.9120   0.7560  -2.0104 H              1 S1                 0.0000
     25 ****         0.5756   1.4585  -1.4221 H              1 S1                 0.0000
     26 ****        -0.1967   1.1930   0.9365 H              1 S1                 0.0000
     27 ****        -0.4829  -1.2312   0.9277 H              1 S1                 0.0000
     28 ****         1.7940  -0.3084  -0.6626 H              1 S1                 0.0000
     29 ****         1.6933  -0.2746   1.0919 H              1 S1                 0.0000
     30 ****         1.3775  -2.7593   1.1128 H              1 S1                 0.0000
     31 ****         1.4721  -2.7928  -0.6295 H              1 S1                 0.0000
     32 ****         4.2204  -0.4153   0.3574 H              1 S1                 0.0000
     33 ****         6.5381  -1.9109   0.4982 H              1 S1                 0.0000
     34 ****         2.2691  -4.9395   0.4772 H              1 S1                 0.0000
     35 ****         3.7528  -5.5804   1.1988 H              1 S1                 0.0000
     36 ****         3.5935  -5.4870  -0.5671 H              1 S1                 0.0000
     37 ****        -2.6978  -0.0784  -0.2545 H              1 S1                 0.0000
     38 ****        -2.3245   0.0671   1.4447 H              1 S1                 0.0000
     39 ****        -2.3791   2.5276   1.2910 H              1 S1                 0.0000
     40 ****        -4.9048   1.2920   0.0901 H              1 S1                 0.0000
     41 ****        -4.8145   2.7751   1.0388 H              1 S1                 0.0000
     42 ****        -4.4689   1.2360   1.7953 H              1 S1                 0.0000
     43 ****        -0.4329  -1.2110  -0.7099 H              1 S1                 0.0000
     44 ****         5.9529  -4.2985   0.5002 LP             1 S1                 0.0000
@<TRIPOS>BOND
    1    1    2 1     
    2    1   18 1     
    3    1   19 1     
    4    1   20 1     
    5    2   16 1     
    6    2    3 1     
    7    2   21 1     
    8    3    4 1     
    9    3   22 1     
   10    3   23 1     
   11    4    5 1     
   12    4   24 1     
   13    4   25 1     
   14    5    6 1     
   15    5   15 1     
   16    5   26 1     
   17    6    7 1     
   18    6   27 1     
   19    6   43 1     
   20    7    8 1     
   21    7   28 1     
   22    7   29 1     
   23    8    9 1     
   24    8   30 1     
   25    8   31 1     
   26    9   13 1     
   27    9   10 2     
   28   10   11 1     
   29   10   32 1     
   30   11   12 2     
   31   11   33 1     
   32   12   13 1     
   33   13   14 1     
   34   14   34 1     
   35   14   35 1     
   36   14   36 1     
   37   15   16 1     
   38   15   37 1     
   39   15   38 1     
   40   16   17 1     
   41   16   39 1     
   42   17   40 1     
   43   17   41 1     
   44   17   42 1     
   45   12   44 1     
@<TRIPOS>SUBSTRUCTURE
      1 S1             1
@<TRIPOS>SET
LONE_PAIRS      STATIC     ATOMS    <user>   **** ""
1 44
DONOR_HYDROGENS      STATIC     ATOMS    <user>   **** ""
2 27 43
ATOM$BLUE        STATIC     ATOMS    COLORGROUP SYSTEM
1 44
ATOM$RED        STATIC     ATOMS    COLORGROUP SYSTEM
2 27 43
