AV-unprocessed.smi:1413|AV-procd|sdf|5759|dock10
  -GOLD-   22720 5393D 1   1.00000     0.00000
 Structure written by MMmdl.
 53 55  0  0  0  0  0  0  0  0  1 V2000
  151.9169  144.2878  157.4031 C   0  0  0  0  0  0  0  0  0  0  0  0
  151.1235  143.5180  158.4741 C   0  0  1  0  0  0  0  0  0  0  0  0
  150.4290  142.2534  157.9311 C   0  0  0  0  0  0  0  0  0  0  0  0
  151.3924  141.1776  157.7169 N   0  0  0  0  0  0  0  0  0  0  0  0
  150.9233  140.0867  156.9551 C   0  0  0  0  0  0  0  0  0  0  0  0
  151.3064  139.9535  155.6003 C   0  0  0  0  0  0  0  0  0  0  0  0
  150.8272  138.8590  154.8564 C   0  0  0  0  0  0  0  0  0  0  0  0
  149.9712  137.9277  155.4752 C   0  0  0  0  0  0  0  0  0  0  0  0
  149.5190  136.8212  154.7072 N   0  0  0  0  0  0  0  0  0  0  0  0
  149.2593  135.5691  155.1199 C   0  0  0  0  0  0  0  0  0  0  0  0
  149.3353  135.1744  156.2832 O   0  0  0  0  0  0  0  0  0  0  0  0
  148.8832  134.7928  154.0934 N   0  0  0  0  0  0  0  0  0  0  0  0
  148.5005  133.3841  154.1765 C   0  0  1  0  0  0  0  0  0  0  0  0
  147.7643  132.9976  152.8856 C   0  0  0  0  0  0  0  0  0  0  0  0
  149.7411  132.4981  154.4125 C   0  0  1  0  0  0  0  0  0  0  0  0
  150.4373  132.6968  155.7592 C   0  0  0  0  0  0  0  0  0  0  0  0
  151.1817  131.3882  155.9634 C   0  0  0  0  0  0  0  0  0  0  0  0
  150.4716  130.4074  155.0254 C   0  0  0  0  0  0  0  0  0  0  0  0
  149.3755  131.1284  154.4778 O   0  0  0  0  0  0  0  0  0  0  0  0
  149.6547  138.1330  156.8388 C   0  0  0  0  0  0  0  0  0  0  0  0
  150.1153  139.1794  157.5564 N   0  0  0  0  0  0  0  0  0  0  0  0
  152.2075  140.8942  158.8946 C   0  0  0  0  0  0  0  0  0  0  0  0
  152.9011  142.1769  159.3867 C   0  0  2  0  0  0  0  0  0  0  0  0
  153.6610  141.9484  160.6975 C   0  0  0  0  0  0  0  0  0  0  0  0
  151.9248  143.1931  159.6126 O   0  0  0  0  0  0  0  0  0  0  0  0
  151.2557  144.6345  156.6088 H   0  0  0  0  0  0  0  0  0  0  0  0
  152.6867  143.6739  156.9361 H   0  0  0  0  0  0  0  0  0  0  0  0
  152.4016  145.1643  157.8333 H   0  0  0  0  0  0  0  0  0  0  0  0
  150.3461  144.1927  158.8337 H   0  0  0  0  0  0  0  0  0  0  0  0
  149.6890  141.9062  158.6532 H   0  0  0  0  0  0  0  0  0  0  0  0
  149.8829  142.5008  157.0214 H   0  0  0  0  0  0  0  0  0  0  0  0
  151.9702  140.6656  155.1330 H   0  0  0  0  0  0  0  0  0  0  0  0
  151.1153  138.7404  153.8221 H   0  0  0  0  0  0  0  0  0  0  0  0
  149.3245  137.0182  153.7366 H   0  0  0  0  0  0  0  0  0  0  0  0
  148.8518  135.2115  153.1755 H   0  0  0  0  0  0  0  0  0  0  0  0
  147.8067  133.2376  155.0064 H   0  0  0  0  0  0  0  0  0  0  0  0
  147.4293  131.9606  152.9178 H   0  0  0  0  0  0  0  0  0  0  0  0
  148.4068  133.1116  152.0117 H   0  0  0  0  0  0  0  0  0  0  0  0
  146.8824  133.6211  152.7354 H   0  0  0  0  0  0  0  0  0  0  0  0
  150.4617  132.6309  153.6027 H   0  0  0  0  0  0  0  0  0  0  0  0
  151.0952  133.5662  155.7746 H   0  0  0  0  0  0  0  0  0  0  0  0
  149.6958  132.8213  156.5499 H   0  0  0  0  0  0  0  0  0  0  0  0
  152.2310  131.4865  155.6830 H   0  0  0  0  0  0  0  0  0  0  0  0
  151.1402  131.0658  157.0042 H   0  0  0  0  0  0  0  0  0  0  0  0
  151.1382  130.0970  154.2197 H   0  0  0  0  0  0  0  0  0  0  0  0
  150.1242  129.5128  155.5425 H   0  0  0  0  0  0  0  0  0  0  0  0
  149.0383  137.4428  157.3931 H   0  0  0  0  0  0  0  0  0  0  0  0
  151.5715  140.4827  159.6799 H   0  0  0  0  0  0  0  0  0  0  0  0
  152.9624  140.1433  158.6581 H   0  0  0  0  0  0  0  0  0  0  0  0
  153.6166  142.5157  158.6373 H   0  0  0  0  0  0  0  0  0  0  0  0
  154.4284  141.1832  160.5778 H   0  0  0  0  0  0  0  0  0  0  0  0
  152.9886  141.6262  161.4931 H   0  0  0  0  0  0  0  0  0  0  0  0
  154.1531  142.8637  161.0273 H   0  0  0  0  0  0  0  0  0  0  0  0
  1  2  1  0  0  0  0
  1 26  1  0  0  0  0
  1 27  1  0  0  0  0
  1 28  1  0  0  0  0
  2 25  1  0  0  0  0
  2  3  1  0  0  0  0
  2 29  1  0  0  0  0
  3  4  1  0  0  0  0
  3 30  1  0  0  0  0
  3 31  1  0  0  0  0
  4  5  1  0  0  0  0
  4 22  1  0  0  0  0
  5 21  1  0  0  0  0
  5  6  2  0  0  0  0
  6  7  1  0  0  0  0
  6 32  1  0  0  0  0
  7  8  2  0  0  0  0
  7 33  1  0  0  0  0
  8  9  1  0  0  0  0
  8 20  1  0  0  0  0
  9 10  1  0  0  0  0
  9 34  1  0  0  0  0
 10 11  2  0  0  0  0
 10 12  1  0  0  0  0
 12 13  1  0  0  0  0
 12 35  1  0  0  0  0
 13 14  1  0  0  0  0
 13 15  1  0  0  0  0
 13 36  1  0  0  0  0
 14 37  1  0  0  0  0
 14 38  1  0  0  0  0
 14 39  1  0  0  0  0
 15 19  1  0  0  0  0
 15 16  1  0  0  0  0
 15 40  1  0  0  0  0
 16 17  1  0  0  0  0
 16 41  1  0  0  0  0
 16 42  1  0  0  0  0
 17 18  1  0  0  0  0
 17 43  1  0  0  0  0
 17 44  1  0  0  0  0
 18 19  1  0  0  0  0
 18 45  1  0  0  0  0
 18 46  1  0  0  0  0
 20 21  2  0  0  0  0
 20 47  1  0  0  0  0
 22 23  1  0  0  0  0
 22 48  1  0  0  0  0
 22 49  1  0  0  0  0
 23 24  1  0  0  0  0
 23 25  1  0  0  0  0
 23 50  1  0  0  0  0
 24 51  1  0  0  0  0
 24 52  1  0  0  0  0
 24 53  1  0  0  0  0
M  END
> <s_m_source_file>
AV-unprocessed.smi

> <i_m_source_file_index>
1413

> <i_lp_mmshare_version>
43012

> <i_f3d_flags>
0

> <s_epik_input>
W0NIM11bQ0BASF0xW0NIMl1OKFtDSDJdW0NASF0oTzEpW0NIM10pYzJbY0hdW2NIXWMoW2NIXW4yKVtOSF1DKD1PKVtOSF1bQ0BIXShbQ0gzXSlbQ0BASF0zW0NIMl1bQ0gyXVtDSDJdTzM=

> <s_epik_cmdline>
J2VwaWtfcHl0aG9uJywgJy1waCcsICc3LjAnLCAnLXRuJywgJzgnLCAnLW1hJywgJzIwMCcsICctbWV0YWxfYmluZGluZycsICctaW1hZScsICc8aW5maWxlLm1hZT4nLCAnLW9tYWUnLCAnPG91dGZpbGUubWFlPic=

> <r_lp_tautomer_probability>
1

> <r_epik_Ionization_Penalty>
0.00271172

> <r_epik_Ionization_Penalty_Charging>
0

> <r_epik_Ionization_Penalty_Neutral>
0.00271172

> <r_epik_State_Penalty>
0.00186503

> <r_epik_Charging_Adjusted_Penalty>
0.00186503

> <i_epik_Tot_Q>
0

> <i_epik_Tot_abs_Q>
0

> <r_epik_Metal_State_Penalty>
-0

> <b_epik_Metal_Only>
0

> <s_lp_Force_Field>
OPLS_2005

> <r_lp_Energy>
37.0854

> <b_lp_Chiralities_Consistent>
1

> <s_lp_Variant>
AV-unprocessed.smi:1413-12

> <Gold.Version>
5.8.1

> <Gold.Id.Protein>
6NUR|6NUR_protein|mol2

> <Gold.PLP.Fitness>
49.5887

> <Gold.PLP.PLP>
-44.7282

> <Gold.PLP.part.hbond>
-2.0000

> <Gold.PLP.part.metal>
0.0000

> <Gold.PLP.part.buried>
-6.2120

> <Gold.PLP.part.nonpolar>
-36.4433

> <Gold.PLP.part.repulsive>
0.0954

> <Gold.PLP.ligand.clash>
0.0000

> <Gold.PLP.ligand.torsion>
0.6584

> <Gold.PLP.Chemscore.Hbond>
1.9440

> <Gold.PLP.Chemscore.CHOScore>
0.0000

> <Gold.PLP.Chemscore.Metal>
0.0000

> <Gold.Chemscore.Hbonds>
donor molecule, donor type, donor heavy atom, donor atom, acceptor molecule, acceptor atom, score
      L1  H     9    34       P1  7948  0.89
      L1  H    12    35       P1  7948  1.00

> <Gold.PLP.Chemscore.Internal.Correction>
0.3453

> <Gold.Rescore>
     Score         DG    S(hbond)    S(metal)    S(lipo)     H(rot)  DE(clash)    DE(int)     intcor
     17.51     -20.45       1.64        0.00     110.67       1.35       0.04       2.91       ----

> <Gold.Chemscore.Fitness>
17.5070

> <Gold.Chemscore.DG>
-20.4517

> <Gold.Chemscore.ZeroCoef>
-5.4800

> <Gold.Chemscore.Hbond>
1.6384

> <Gold.Chemscore.Metal>
0.0000

> <Gold.Chemscore.Lipo>
110.6679

> <Gold.Chemscore.Internal_Hbond>
0.0000

> <Gold.Chemscore.DEClash>
0.0396

> <Gold.Chemscore.DEInternal>
2.9051

> <Gold.Chemscore.Rot>
1.3471

> <Gold.Chemscore.Internal.Correction>
   9.000000E+99

> <Gold.Chemscore.Hbonds>
donor molecule, donor type, donor heavy atom, donor atom, acceptor molecule, acceptor atom, score
      L1  H     9    34       P1  7948  0.79
      L1  H    12    35       P1  7948  0.50

> <Gold.Chemscore.Hbond.Weighted>
-5.4721

> <Gold.Chemscore.Metal.Weighted>
-0.0000

> <Gold.Chemscore.Lipo.Weighted>
-12.9481

> <Gold.Chemscore.Internal_Hbond.Weighted>
0.0000

> <Gold.Chemscore.DEClash.Weighted>
0.0396

> <Gold.Chemscore.DEInternal.Weighted>
2.9051

> <Gold.Chemscore.Rot.Weighted>
3.4485

> <Gold.Chemscore.Internal.Correction.Weighted>
   9.000000E+99

> <Gold.Protein.RotatedTorsions>
[ 6907 6896 6895 6894 ] final  122.15 input  -60.11 | X-H torsion
[ 7974 7965 7964 7962 ] final  -85.87 input  175.53 | X-H torsion
[ 8008 7997 7996 7995 ] final   -3.13 input   59.86 | X-H torsion
[ 10167 10162 10161 10158 ] final  -95.83 input  -65.29 | X-H torsion
[ 10718 10713 10712 10709 ] final   46.63 input   66.30 | X-H torsion
[ 10763 10752 10751 10750 ] final  150.30 input  -60.55 | X-H torsion
[ 11005 11000 10999 10996 ] final  111.55 input  -57.11 | X-H torsion

> <Gold.Protein.ActiveResidues>
 VAL166  LYS551  ARG553  GLY616  TRP617  ASP618  TYR619  PRO620  LYS621  CYS622 
 ASP623  PHE694  ASN695  SER759  ASP760  ASP761  ALA762  ILE779  LEU786  VAL792 
 PHE793  MET794  SER795  GLU796  ALA797  LYS798  CYS799  TRP800  GLU811  SER814 

> <Gold.Protein.RotatedAtoms>
  152.4265  133.7204  159.6529 H   0  0  0  0  0  0  0  0  0  0  0  0  # atno 6907 bound_to 6896
  150.8142  133.8356  159.3174 H   0  0  0  0  0  0  0  0  0  0  0  0  # atno 6908 bound_to 6896
  151.6057  135.1046  160.0122 H   0  0  0  0  0  0  0  0  0  0  0  0  # atno 6909 bound_to 6896
  145.4875  140.9554  143.1830 H   0  0  0  0  0  0  0  0  0  0  0  0  # atno 7974 bound_to 7965
  154.6282  140.2517  155.7466 H   0  0  0  0  0  0  0  0  0  0  0  0  # atno 8008 bound_to 7997
  156.2465  140.2912  156.0541 H   0  0  0  0  0  0  0  0  0  0  0  0  # atno 8009 bound_to 7997
  155.1787  140.0388  157.2868 H   0  0  0  0  0  0  0  0  0  0  0  0  # atno 8010 bound_to 7997
  140.3001  143.3167  152.0257 H   0  0  0  0  0  0  0  0  0  0  0  0  # atno 10167 bound_to 10162
  157.4501  130.8133  149.7779 H   0  0  0  0  0  0  0  0  0  0  0  0  # atno 10718 bound_to 10713
  154.0852  135.2856  155.3282 H   0  0  0  0  0  0  0  0  0  0  0  0  # atno 10763 bound_to 10752
  154.6657  135.5318  153.8077 H   0  0  0  0  0  0  0  0  0  0  0  0  # atno 10764 bound_to 10752
  153.0434  135.6545  154.1024 H   0  0  0  0  0  0  0  0  0  0  0  0  # atno 10765 bound_to 10752
  139.8906  134.9510  156.6449 H   0  0  0  0  0  0  0  0  0  0  0  0  # atno 11005 bound_to 11000
  144.7853  139.6440  143.7137 LP  0  0  0  0  0  0  0  0  0  0  0  0  # atno 17320 bound_to 7965
  146.2304  139.5802  142.9559 LP  0  0  0  0  0  0  0  0  0  0  0  0  # atno 17321 bound_to 7965
  139.4917  144.6462  151.6774 LP  0  0  0  0  0  0  0  0  0  0  0  0  # atno 17342 bound_to 10162
  140.5658  144.0192  150.6192 LP  0  0  0  0  0  0  0  0  0  0  0  0  # atno 17343 bound_to 10162
  155.9983  130.3895  150.2706 LP  0  0  0  0  0  0  0  0  0  0  0  0  # atno 17370 bound_to 10713
  157.0877  131.0161  151.3133 LP  0  0  0  0  0  0  0  0  0  0  0  0  # atno 17371 bound_to 10713
  140.7565  133.8853  155.8386 LP  0  0  0  0  0  0  0  0  0  0  0  0  # atno 17394 bound_to 11000
  140.9957  134.1218  157.4366 LP  0  0  0  0  0  0  0  0  0  0  0  0  # atno 17395 bound_to 11000

$$$$
