#       Name:                AV-unprocessed.smi:3048
#       Creating user name   scv26
#       Creation time:       Fri Mar 27 17:01:19 2020


#       File generated by GOLD software.
#

@<TRIPOS>MOLECULE
AV-unprocessed.smi:3048
    41    42     1
SMALL
NO_CHARGES


@<TRIPOS>ATOM
      1 ****        -3.8095   2.5380   2.7858 C.3            1 S1                 0.0000
      2 ****        -3.4109   1.3387   1.9751 C.2            1 S1                 0.0000
      3 ****        -3.3861   1.2104   0.5572 C.2            1 S1                 0.0000
      4 ****        -2.9780   0.0173   0.1564 N.2            1 S1                 0.0000
      5 ****        -2.7346  -0.6576   1.3000 N.pl3          1 S1                 0.0000
      6 ****        -2.2468  -2.0240   1.2422 C.3            1 S1                 0.0000
      7 ****        -0.7115  -2.0869   1.2619 C.3            1 S1                 0.0000
      8 ****        -0.1287  -1.4613   0.0580 N.4            1 S1                 1.0000
      9 ****         1.3429  -1.3578   0.0792 C.3            1 S1                 0.0000
     10 ****         1.8587  -0.6278  -1.1687 C.3            1 S1                 0.0000
     11 ****         3.3982  -0.6133  -1.2318 C.3            1 S1                 0.0000
     12 ****         3.8813   0.2040  -2.4355 C.3            1 S1                 0.0000
     13 ****         3.2409   1.5957  -2.4076 C.3            1 S1                 0.0000
     14 ****         1.7144   1.4787  -2.2749 C.3            1 S1                 0.0000
     15 ****         1.3856   0.7170  -1.1169 O.3            1 S1                 0.0000
     16 ****        -2.9870   0.1160   2.4129 C.2            1 S1                 0.0000
     17 ****        -4.1000   3.3774   2.1537 H              1 S1                 0.0000
     18 ****        -2.9937   2.8830   3.4212 H              1 S1                 0.0000
     19 ****        -4.6556   2.3192   3.4373 H              1 S1                 0.0000
     20 ****        -3.6489   1.9465  -0.1883 H              1 S1                 0.0000
     21 ****        -2.6507  -2.5647   2.0989 H              1 S1                 0.0000
     22 ****        -2.6438  -2.5110   0.3498 H              1 S1                 0.0000
     23 ****        -0.3337  -1.5864   2.1546 H              1 S1                 0.0000
     24 ****        -0.3834  -3.1255   1.3149 H              1 S1                 0.0000
     25 ****        -0.4106  -1.9903  -0.7547 H              1 S1                 0.0000
     26 ****         1.6616  -0.8306   0.9796 H              1 S1                 0.0000
     27 ****         1.7643  -2.3629   0.1266 H              1 S1                 0.0000
     28 ****         1.4630  -1.1192  -2.0598 H              1 S1                 0.0000
     29 ****         3.8006  -0.1815  -0.3143 H              1 S1                 0.0000
     30 ****         3.7852  -1.6308  -1.2941 H              1 S1                 0.0000
     31 ****         4.9686   0.2851  -2.4296 H              1 S1                 0.0000
     32 ****         3.6095  -0.3071  -3.3599 H              1 S1                 0.0000
     33 ****         3.6363   2.1652  -1.5654 H              1 S1                 0.0000
     34 ****         3.5010   2.1495  -3.3102 H              1 S1                 0.0000
     35 ****         1.2696   2.4696  -2.1825 H              1 S1                 0.0000
     36 ****         1.2804   1.0171  -3.1631 H              1 S1                 0.0000
     37 ****        -2.8414  -0.2616   3.4146 H              1 S1                 0.0000
     38 ****        -0.5067  -0.5273  -0.0221 H              1 S1                 0.0000
     39 ****        -2.8734  -0.3108  -0.7825 LP             1 S1                 0.0000
     40 ****         1.7890   1.1641  -0.3186 LP             1 S1                 0.0000
     41 ****         0.3903   0.6992  -1.0216 LP             1 S1                 0.0000
@<TRIPOS>BOND
    1    1    2 1     
    2    1   17 1     
    3    1   18 1     
    4    1   19 1     
    5    2   16 2     
    6    2    3 1     
    7    3    4 2     
    8    3   20 1     
    9    4    5 1     
   10    5    6 1     
   11    5   16 1     
   12    6    7 1     
   13    6   21 1     
   14    6   22 1     
   15    7    8 1     
   16    7   23 1     
   17    7   24 1     
   18    8    9 1     
   19    8   25 1     
   20    8   38 1     
   21    9   10 1     
   22    9   26 1     
   23    9   27 1     
   24   10   15 1     
   25   10   11 1     
   26   10   28 1     
   27   11   12 1     
   28   11   29 1     
   29   11   30 1     
   30   12   13 1     
   31   12   31 1     
   32   12   32 1     
   33   13   14 1     
   34   13   33 1     
   35   13   34 1     
   36   14   15 1     
   37   14   35 1     
   38   14   36 1     
   39   16   37 1     
   40    4   39 1     
   41   15   40 1     
   42   15   41 1     
@<TRIPOS>SUBSTRUCTURE
      1 S1             1
@<TRIPOS>SET
LONE_PAIRS      STATIC     ATOMS    <user>   **** ""
3 39 40 41
DONOR_HYDROGENS      STATIC     ATOMS    <user>   **** ""
2 25 38
ATOM$BLUE        STATIC     ATOMS    COLORGROUP SYSTEM
3 39 40 41
ATOM$RED        STATIC     ATOMS    COLORGROUP SYSTEM
2 25 38
