AV-unprocessed.smi:1947|AV-procd|sdf|7867|dock5
  -GOLD-   2272010 13D 1   1.00000     0.00000
 Structure written by MMmdl.
 39 40  0  0  0  0  0  0  0  0  1 V2000
  145.2533  135.7716  151.4377 C   0  0  0  0  0  0  0  0  0  0  0  0
  144.9719  134.3979  150.8073 C   0  0  2  0  0  0  0  0  0  0  0  0
  143.6447  133.7965  151.3102 C   0  0  0  0  0  0  0  0  0  0  0  0
  143.3597  132.4360  150.6539 C   0  0  0  0  0  0  0  0  0  0  0  0
  144.5212  131.4549  150.8744 C   0  0  0  0  0  0  0  0  0  0  0  0
  145.8533  132.0438  150.3794 C   0  0  0  0  0  0  0  0  0  0  0  0
  146.1443  133.4147  151.0189 C   0  0  2  0  0  0  0  0  0  0  0  0
  146.3408  133.2330  152.4154 O   0  0  0  0  0  0  0  0  0  0  0  0
  147.6326  132.7654  152.7687 C   0  0  0  0  0  0  0  0  0  0  0  0
  147.9832  133.2890  154.1704 C   0  0  0  0  0  0  0  0  0  0  0  0
  148.5019  134.6526  154.1262 N   0  0  0  0  0  0  0  0  0  0  0  0
  149.1904  135.2546  155.1058 C   0  0  0  0  0  0  0  0  0  0  0  0
  149.4041  134.7390  156.2028 O   0  0  0  0  0  0  0  0  0  0  0  0
  149.6115  136.4702  154.7219 N   0  0  0  0  0  0  0  0  0  0  0  0
  150.4479  137.3668  155.4317 C   0  0  0  0  0  0  0  0  0  0  0  0
  150.8209  137.0294  156.6718 N   0  0  0  0  0  0  0  0  0  0  0  0
  151.6285  137.9986  157.2542 N   0  0  0  0  0  0  0  0  0  0  0  0
  151.8313  139.0309  156.4299 C   0  0  0  0  0  0  0  0  0  0  0  0
  151.0554  138.9232  154.8596 S   0  0  0  0  0  0  0  0  0  0  0  0
  145.3436  135.7038  152.5221 H   0  0  0  0  0  0  0  0  0  0  0  0
  144.4510  136.4761  151.2170 H   0  0  0  0  0  0  0  0  0  0  0  0
  146.1807  136.1973  151.0538 H   0  0  0  0  0  0  0  0  0  0  0  0
  144.8711  134.5569  149.7326 H   0  0  0  0  0  0  0  0  0  0  0  0
  143.6775  133.6795  152.3943 H   0  0  0  0  0  0  0  0  0  0  0  0
  142.8224  134.4813  151.1004 H   0  0  0  0  0  0  0  0  0  0  0  0
  142.4374  132.0158  151.0560 H   0  0  0  0  0  0  0  0  0  0  0  0
  143.1959  132.5739  149.5844 H   0  0  0  0  0  0  0  0  0  0  0  0
  144.5985  131.2140  151.9354 H   0  0  0  0  0  0  0  0  0  0  0  0
  144.3171  130.5156  150.3602 H   0  0  0  0  0  0  0  0  0  0  0  0
  146.6681  131.3509  150.5907 H   0  0  0  0  0  0  0  0  0  0  0  0
  145.8172  132.1525  149.2949 H   0  0  0  0  0  0  0  0  0  0  0  0
  147.0354  133.8393  150.5520 H   0  0  0  0  0  0  0  0  0  0  0  0
  147.6528  131.6748  152.7568 H   0  0  0  0  0  0  0  0  0  0  0  0
  148.3681  133.1136  152.0421 H   0  0  0  0  0  0  0  0  0  0  0  0
  147.0902  133.2892  154.7958 H   0  0  0  0  0  0  0  0  0  0  0  0
  148.7050  132.6295  154.6546 H   0  0  0  0  0  0  0  0  0  0  0  0
  148.3722  135.1551  153.2604 H   0  0  0  0  0  0  0  0  0  0  0  0
  149.3348  136.7734  153.7997 H   0  0  0  0  0  0  0  0  0  0  0  0
  152.4412  139.8627  156.7500 H   0  0  0  0  0  0  0  0  0  0  0  0
  1  2  1  0  0  0  0
  1 20  1  0  0  0  0
  1 21  1  0  0  0  0
  1 22  1  0  0  0  0
  2  7  1  0  0  0  0
  2  3  1  0  0  0  0
  2 23  1  0  0  0  0
  3  4  1  0  0  0  0
  3 24  1  0  0  0  0
  3 25  1  0  0  0  0
  4  5  1  0  0  0  0
  4 26  1  0  0  0  0
  4 27  1  0  0  0  0
  5  6  1  0  0  0  0
  5 28  1  0  0  0  0
  5 29  1  0  0  0  0
  6  7  1  0  0  0  0
  6 30  1  0  0  0  0
  6 31  1  0  0  0  0
  7  8  1  0  0  0  0
  7 32  1  0  0  0  0
  8  9  1  0  0  0  0
  9 10  1  0  0  0  0
  9 33  1  0  0  0  0
  9 34  1  0  0  0  0
 10 11  1  0  0  0  0
 10 35  1  0  0  0  0
 10 36  1  0  0  0  0
 11 12  1  0  0  0  0
 11 37  1  0  0  0  0
 12 13  2  0  0  0  0
 12 14  1  0  0  0  0
 14 15  1  0  0  0  0
 14 38  1  0  0  0  0
 15 19  1  0  0  0  0
 15 16  2  0  0  0  0
 16 17  1  0  0  0  0
 17 18  2  0  0  0  0
 18 19  1  0  0  0  0
 18 39  1  0  0  0  0
M  END
> <s_m_source_file>
AV-unprocessed.smi

> <i_m_source_file_index>
1947

> <i_lp_mmshare_version>
43012

> <i_f3d_flags>
0

> <s_epik_input>
W0NIM11bQ0BASF0xW0NIMl1bQ0gyXVtDSDJdW0NIMl1bQ0BIXTFPW0NIMl1bQ0gyXVtOSF1DKD1PKVtOSF1jMm5uW2NIXXMy

> <s_epik_cmdline>
J2VwaWtfcHl0aG9uJywgJy1waCcsICc3LjAnLCAnLXRuJywgJzgnLCAnLW1hJywgJzIwMCcsICctbWV0YWxfYmluZGluZycsICctaW1hZScsICc8aW5maWxlLm1hZT4nLCAnLW9tYWUnLCAnPG91dGZpbGUubWFlPic=

> <r_lp_tautomer_probability>
1

> <r_epik_Ionization_Penalty>
0.00220897

> <r_epik_Ionization_Penalty_Charging>
0

> <r_epik_Ionization_Penalty_Neutral>
0.00220897

> <r_epik_State_Penalty>
-0

> <r_epik_Charging_Adjusted_Penalty>
0

> <i_epik_Tot_Q>
0

> <i_epik_Tot_abs_Q>
0

> <r_epik_Metal_State_Penalty>
0.345002

> <b_epik_Metal_Only>
0

> <s_lp_Force_Field>
OPLS_2005

> <r_lp_Energy>
8.93842

> <b_lp_Chiralities_Consistent>
1

> <s_lp_Variant>
AV-unprocessed.smi:1947-3

> <Gold.Version>
5.8.1

> <Gold.Id.Protein>
6NUR|6NUR_protein|mol2

> <Gold.PLP.Fitness>
40.5279

> <Gold.PLP.PLP>
-35.7508

> <Gold.PLP.part.hbond>
-2.6503

> <Gold.PLP.part.metal>
0.0000

> <Gold.PLP.part.buried>
-3.0371

> <Gold.PLP.part.nonpolar>
-30.3874

> <Gold.PLP.part.repulsive>
0.2167

> <Gold.PLP.ligand.clash>
0.0000

> <Gold.PLP.ligand.torsion>
0.6225

> <Gold.PLP.Chemscore.Hbond>
2.0000

> <Gold.PLP.Chemscore.CHOScore>
0.0000

> <Gold.PLP.Chemscore.Metal>
0.0000

> <Gold.Chemscore.Hbonds>
donor molecule, donor type, donor heavy atom, donor atom, acceptor molecule, acceptor atom, score
      L1  H    11    37       P1  7948  1.00
      L1  H    14    38       P1  7948  0.93

> <Gold.PLP.Chemscore.Internal.Correction>
0.0221

> <Gold.Rescore>
     Score         DG    S(hbond)    S(metal)    S(lipo)     H(rot)  DE(clash)    DE(int)     intcor
     13.36     -15.39       1.67        0.00      79.36       1.94       0.10       1.92       ----

> <Gold.Chemscore.Fitness>
13.3616

> <Gold.Chemscore.DG>
-15.3855

> <Gold.Chemscore.ZeroCoef>
-5.4800

> <Gold.Chemscore.Hbond>
1.6715

> <Gold.Chemscore.Metal>
0.0000

> <Gold.Chemscore.Lipo>
79.3606

> <Gold.Chemscore.Internal_Hbond>
0.0000

> <Gold.Chemscore.DEClash>
0.0998

> <Gold.Chemscore.DEInternal>
1.9241

> <Gold.Chemscore.Rot>
1.9385

> <Gold.Chemscore.Internal.Correction>
   9.000000E+99

> <Gold.Chemscore.Hbonds>
donor molecule, donor type, donor heavy atom, donor atom, acceptor molecule, acceptor atom, score
      L1  H    11    37       P1  7948  0.90
      L1  H    14    38       P1  7948  0.80

> <Gold.Chemscore.Hbond.Weighted>
-5.5828

> <Gold.Chemscore.Metal.Weighted>
-0.0000

> <Gold.Chemscore.Lipo.Weighted>
-9.2852

> <Gold.Chemscore.Internal_Hbond.Weighted>
0.0000

> <Gold.Chemscore.DEClash.Weighted>
0.0998

> <Gold.Chemscore.DEInternal.Weighted>
1.9241

> <Gold.Chemscore.Rot.Weighted>
4.9625

> <Gold.Chemscore.Internal.Correction.Weighted>
   9.000000E+99

> <Gold.Protein.RotatedTorsions>
[ 6907 6896 6895 6894 ] final  -21.46 input  -60.11 | X-H torsion
[ 7974 7965 7964 7962 ] final -109.30 input  175.53 | X-H torsion
[ 8008 7997 7996 7995 ] final -147.82 input   59.86 | X-H torsion
[ 10167 10162 10161 10158 ] final  -69.77 input  -65.29 | X-H torsion
[ 10718 10713 10712 10709 ] final -158.24 input   66.30 | X-H torsion
[ 10763 10752 10751 10750 ] final   88.02 input  -60.55 | X-H torsion
[ 11005 11000 10999 10996 ] final -146.77 input  -57.11 | X-H torsion

> <Gold.Protein.ActiveResidues>
 VAL166  LYS551  ARG553  GLY616  TRP617  ASP618  TYR619  PRO620  LYS621  CYS622 
 ASP623  PHE694  ASN695  SER759  ASP760  ASP761  ALA762  ILE779  LEU786  VAL792 
 PHE793  MET794  SER795  GLU796  ALA797  LYS798  CYS799  TRP800  GLU811  SER814 

> <Gold.Protein.RotatedAtoms>
  151.2329  135.0561  159.8994 H   0  0  0  0  0  0  0  0  0  0  0  0  # atno 6907 bound_to 6896
  152.5402  134.0517  159.8123 H   0  0  0  0  0  0  0  0  0  0  0  0  # atno 6908 bound_to 6896
  151.0699  133.5426  159.2659 H   0  0  0  0  0  0  0  0  0  0  0  0  # atno 6909 bound_to 6896
  145.1822  140.8976  143.3473 H   0  0  0  0  0  0  0  0  0  0  0  0  # atno 7974 bound_to 7965
  155.5817  140.0644  157.2781 H   0  0  0  0  0  0  0  0  0  0  0  0  # atno 8008 bound_to 7997
  154.4330  140.1851  156.1030 H   0  0  0  0  0  0  0  0  0  0  0  0  # atno 8009 bound_to 7997
  156.0300  140.3307  155.7133 H   0  0  0  0  0  0  0  0  0  0  0  0  # atno 8010 bound_to 7997
  140.5404  143.2315  151.7099 H   0  0  0  0  0  0  0  0  0  0  0  0  # atno 10167 bound_to 10162
  156.5514  130.8607  151.2781 H   0  0  0  0  0  0  0  0  0  0  0  0  # atno 10718 bound_to 10713
  153.1727  135.4522  154.9923 H   0  0  0  0  0  0  0  0  0  0  0  0  # atno 10763 bound_to 10752
  154.7977  135.3243  154.7630 H   0  0  0  0  0  0  0  0  0  0  0  0  # atno 10764 bound_to 10752
  153.8104  135.6955  153.4896 H   0  0  0  0  0  0  0  0  0  0  0  0  # atno 10765 bound_to 10752
  140.7786  134.3106  157.5053 H   0  0  0  0  0  0  0  0  0  0  0  0  # atno 11005 bound_to 11000
  145.0125  139.3497  143.6113 LP  0  0  0  0  0  0  0  0  0  0  0  0  # atno 17320 bound_to 7965
  146.3451  139.9393  142.8743 LP  0  0  0  0  0  0  0  0  0  0  0  0  # atno 17321 bound_to 7965
  139.4987  144.3977  152.0214 LP  0  0  0  0  0  0  0  0  0  0  0  0  # atno 17342 bound_to 10162
  140.3085  144.3565  150.6040 LP  0  0  0  0  0  0  0  0  0  0  0  0  # atno 17343 bound_to 10162
  157.7387  130.9817  150.2266 LP  0  0  0  0  0  0  0  0  0  0  0  0  # atno 17370 bound_to 10713
  156.2881  130.3742  149.7869 LP  0  0  0  0  0  0  0  0  0  0  0  0  # atno 17371 bound_to 10713
  139.8745  134.9304  156.3502 LP  0  0  0  0  0  0  0  0  0  0  0  0  # atno 17394 bound_to 11000
  140.9505  133.7454  156.0265 LP  0  0  0  0  0  0  0  0  0  0  0  0  # atno 17395 bound_to 11000

$$$$
