AV-unprocessed.smi:2336|AV-procd|sdf|9328|dock2
  -GOLD-   2272012543D 1   1.00000     0.00000
 Structure written by MMmdl.
 50 51  0  0  0  0  0  0  0  0  2 V2000
  152.8106  136.7155  154.9811 C   0  0  0  0  0  0  0  0  0  0  0  0
  152.1120  137.9954  155.4718 C   0  0  0  0  0  0  0  0  0  0  0  0
  152.1562  138.0919  157.0066 C   0  0  0  0  0  0  0  0  0  0  0  0
  150.6791  138.2414  154.9109 C   0  0  1  0  0  0  0  0  0  0  0  0
  149.5812  137.3116  155.4903 C   0  0  0  0  0  0  0  0  0  0  0  0
  149.2187  136.2573  154.5524 N   0  0  0  0  0  0  0  0  0  0  0  0
  148.8916  135.0094  154.9119 C   0  0  0  0  0  0  0  0  0  0  0  0
  148.8578  134.6361  156.0838 O   0  0  0  0  0  0  0  0  0  0  0  0
  148.6095  134.2545  153.8358 N   0  0  0  0  0  0  0  0  0  0  0  0
  148.2152  132.8889  153.7604 C   0  0  0  0  0  0  0  0  0  0  0  0
  148.6516  131.8700  154.6432 C   0  0  0  0  0  0  0  0  0  0  0  0
  148.1820  130.5561  154.4435 C   0  0  0  0  0  0  0  0  0  0  0  0
  147.3367  130.2100  153.4501 N   0  0  0  0  0  0  0  0  0  0  0  0
  146.9271  131.1809  152.6072 C   0  0  0  0  0  0  0  0  0  0  0  0
  147.3354  132.5251  152.7184 C   0  0  0  0  0  0  0  0  0  0  0  0
  146.8862  133.4497  151.8356 F   0  0  0  0  0  0  0  0  0  0  0  0
  150.3188  139.6716  154.9319 N   0  0  0  0  0  0  0  0  0  0  0  0
  150.2060  140.2712  156.2685 C   0  0  0  0  0  0  0  0  0  0  0  0
  150.0215  141.7960  156.1418 C   0  0  0  0  0  0  0  0  0  0  0  0
  148.8096  142.1271  155.3545 N   0  3  0  0  0  0  0  0  0  0  0  0
  147.5424  141.9521  156.1013 C   0  0  0  0  0  0  0  0  0  0  0  0
  148.8354  141.4299  154.0465 C   0  0  0  0  0  0  0  0  0  0  0  0
  149.0626  139.9132  154.2152 C   0  0  0  0  0  0  0  0  0  0  0  0
  152.3695  135.8208  155.4187 H   0  0  0  0  0  0  0  0  0  0  0  0
  153.8622  136.7209  155.2685 H   0  0  0  0  0  0  0  0  0  0  0  0
  152.7763  136.6225  153.8962 H   0  0  0  0  0  0  0  0  0  0  0  0
  152.7281  138.8214  155.1158 H   0  0  0  0  0  0  0  0  0  0  0  0
  151.6058  137.2765  157.4766 H   0  0  0  0  0  0  0  0  0  0  0  0
  151.7250  139.0304  157.3556 H   0  0  0  0  0  0  0  0  0  0  0  0
  153.1827  138.0480  157.3720 H   0  0  0  0  0  0  0  0  0  0  0  0
  150.7640  137.9664  153.8584 H   0  0  0  0  0  0  0  0  0  0  0  0
  149.9066  136.8476  156.4220 H   0  0  0  0  0  0  0  0  0  0  0  0
  148.6831  137.8868  155.7198 H   0  0  0  0  0  0  0  0  0  0  0  0
  149.2214  136.4922  153.5706 H   0  0  0  0  0  0  0  0  0  0  0  0
  148.6621  134.7268  152.9449 H   0  0  0  0  0  0  0  0  0  0  0  0
  149.3321  132.0551  155.4585 H   0  0  0  0  0  0  0  0  0  0  0  0
  148.4977  129.7595  155.1007 H   0  0  0  0  0  0  0  0  0  0  0  0
  146.2536  130.8778  151.8191 H   0  0  0  0  0  0  0  0  0  0  0  0
  149.3685  139.8401  156.8172 H   0  0  0  0  0  0  0  0  0  0  0  0
  151.0961  140.0713  156.8599 H   0  0  0  0  0  0  0  0  0  0  0  0
  149.9630  142.2577  157.1281 H   0  0  0  0  0  0  0  0  0  0  0  0
  150.8914  142.2322  155.6486 H   0  0  0  0  0  0  0  0  0  0  0  0
  147.3656  140.9102  156.3674 H   0  0  0  0  0  0  0  0  0  0  0  0
  146.6977  142.2963  155.5042 H   0  0  0  0  0  0  0  0  0  0  0  0
  147.5565  142.5388  157.0203 H   0  0  0  0  0  0  0  0  0  0  0  0
  147.9096  141.6203  153.5024 H   0  0  0  0  0  0  0  0  0  0  0  0
  149.6390  141.8537  153.4425 H   0  0  0  0  0  0  0  0  0  0  0  0
  149.1102  139.4603  153.2241 H   0  0  0  0  0  0  0  0  0  0  0  0
  148.2254  139.4469  154.7355 H   0  0  0  0  0  0  0  0  0  0  0  0
  148.8640  143.1151  155.1512 H   0  0  0  0  0  0  0  0  0  0  0  0
  1  2  1  0  0  0  0
  1 24  1  0  0  0  0
  1 25  1  0  0  0  0
  1 26  1  0  0  0  0
  2  3  1  0  0  0  0
  2  4  1  0  0  0  0
  2 27  1  0  0  0  0
  3 28  1  0  0  0  0
  3 29  1  0  0  0  0
  3 30  1  0  0  0  0
  4  5  1  0  0  0  0
  4 17  1  0  0  0  0
  4 31  1  0  0  0  0
  5  6  1  0  0  0  0
  5 32  1  0  0  0  0
  5 33  1  0  0  0  0
  6  7  1  0  0  0  0
  6 34  1  0  0  0  0
  7  8  2  0  0  0  0
  7  9  1  0  0  0  0
  9 10  1  0  0  0  0
  9 35  1  0  0  0  0
 10 15  1  0  0  0  0
 10 11  2  0  0  0  0
 11 12  1  0  0  0  0
 11 36  1  0  0  0  0
 12 13  2  0  0  0  0
 12 37  1  0  0  0  0
 13 14  1  0  0  0  0
 14 15  2  0  0  0  0
 14 38  1  0  0  0  0
 15 16  1  0  0  0  0
 17 23  1  0  0  0  0
 17 18  1  0  0  0  0
 18 19  1  0  0  0  0
 18 39  1  0  0  0  0
 18 40  1  0  0  0  0
 19 20  1  0  0  0  0
 19 41  1  0  0  0  0
 19 42  1  0  0  0  0
 20 21  1  0  0  0  0
 20 22  1  0  0  0  0
 20 50  1  0  0  0  0
 21 43  1  0  0  0  0
 21 44  1  0  0  0  0
 21 45  1  0  0  0  0
 22 23  1  0  0  0  0
 22 46  1  0  0  0  0
 22 47  1  0  0  0  0
 23 48  1  0  0  0  0
 23 49  1  0  0  0  0
M  CHG  1  20   1
M  END
> <s_m_source_file>
AV-unprocessed.smi

> <i_m_source_file_index>
2336

> <i_lp_mmshare_version>
43012

> <i_f3d_flags>
0

> <s_epik_input>
W0NIMl0xW0NIMl1OKFtDSDNdKVtDSDJdW0NIMl1OMVtDQEhdKFtDSF0oW0NIM10pW0NIM10pW0NIMl1bTkhdQyg9TylbTkhdYzJbY0hdW2NIXW5bY0hdYzJG

> <s_epik_cmdline>
J2VwaWtfcHl0aG9uJywgJy1waCcsICc3LjAnLCAnLXRuJywgJzgnLCAnLW1hJywgJzIwMCcsICctbWV0YWxfYmluZGluZycsICctaW1hZScsICc8aW5maWxlLm1hZT4nLCAnLW9tYWUnLCAnPG91dGZpbGUubWFlPic=

> <r_epik_Ionization_Penalty>
0.0313013

> <r_epik_Ionization_Penalty_Charging>
0.0272987

> <r_epik_Ionization_Penalty_Neutral>
0.00400259

> <r_epik_State_Penalty>
0.0776825

> <r_epik_Charging_Adjusted_Penalty>
0.104981

> <i_epik_Tot_Q>
1

> <i_epik_Tot_abs_Q>
1

> <r_epik_Metal_State_Penalty>
0.0776139

> <b_epik_Metal_Only>
0

> <s_lp_Force_Field>
OPLS_2005

> <r_lp_Energy>
31.1795

> <b_lp_Chiralities_Consistent>
1

> <s_lp_Variant>
AV-unprocessed.smi:2336-2

> <Gold.Version>
5.8.1

> <Gold.Id.Protein>
6NUR|6NUR_protein|mol2

> <Gold.PLP.Fitness>
46.5633

> <Gold.PLP.PLP>
-33.9166

> <Gold.PLP.part.hbond>
-4.0000

> <Gold.PLP.part.metal>
0.0000

> <Gold.PLP.part.buried>
5.5159

> <Gold.PLP.part.nonpolar>
-35.5176

> <Gold.PLP.part.repulsive>
0.3517

> <Gold.PLP.ligand.clash>
0.0000

> <Gold.PLP.ligand.torsion>
1.3572

> <Gold.PLP.Chemscore.Hbond>
5.0000

> <Gold.PLP.Chemscore.CHOScore>
0.0000

> <Gold.PLP.Chemscore.Metal>
0.0000

> <Gold.Chemscore.Hbonds>
donor molecule, donor type, donor heavy atom, donor atom, acceptor molecule, acceptor atom, score
      L1  H     6    34       P1  7948  1.00
      L1  H     9    35       P1  7948  0.95
      L1  H    20    50       P1  8028  2.00
      P1  H  7989  7998       L1    17  0.28

> <Gold.PLP.Chemscore.Internal.Correction>
0.3611

> <Gold.Rescore>
     Score         DG    S(hbond)    S(metal)    S(lipo)     H(rot)  DE(clash)    DE(int)     intcor
     17.09     -20.36       2.72        0.00      86.24       1.67       1.76       1.51       ----

> <Gold.Chemscore.Fitness>
17.0867

> <Gold.Chemscore.DG>
-20.3597

> <Gold.Chemscore.ZeroCoef>
-5.4800

> <Gold.Chemscore.Hbond>
2.7169

> <Gold.Chemscore.Metal>
0.0000

> <Gold.Chemscore.Lipo>
86.2425

> <Gold.Chemscore.Internal_Hbond>
0.0000

> <Gold.Chemscore.DEClash>
1.7615

> <Gold.Chemscore.DEInternal>
1.5116

> <Gold.Chemscore.Rot>
1.6739

> <Gold.Chemscore.Internal.Correction>
   9.000000E+99

> <Gold.Chemscore.Hbonds>
donor molecule, donor type, donor heavy atom, donor atom, acceptor molecule, acceptor atom, score
      L1  H     6    34       P1  7948  0.95
      L1  H     9    35       P1  7948  0.21
      L1  H    20    50       P1  8028  0.96
      P1  H  7989  7998       L1    17  0.02

> <Gold.Chemscore.Hbond.Weighted>
-9.0745

> <Gold.Chemscore.Metal.Weighted>
-0.0000

> <Gold.Chemscore.Lipo.Weighted>
-10.0904

> <Gold.Chemscore.Internal_Hbond.Weighted>
0.0000

> <Gold.Chemscore.DEClash.Weighted>
1.7615

> <Gold.Chemscore.DEInternal.Weighted>
1.5116

> <Gold.Chemscore.Rot.Weighted>
4.2851

> <Gold.Chemscore.Internal.Correction.Weighted>
   9.000000E+99

> <Gold.Protein.RotatedTorsions>
[ 6907 6896 6895 6894 ] final -160.48 input  -60.11 | X-H torsion
[ 7974 7965 7964 7962 ] final  174.93 input  175.53 | X-H torsion
[ 8008 7997 7996 7995 ] final  166.08 input   59.86 | X-H torsion
[ 10167 10162 10161 10158 ] final -103.49 input  -65.29 | X-H torsion
[ 10718 10713 10712 10709 ] final  145.92 input   66.30 | X-H torsion
[ 10763 10752 10751 10750 ] final  -60.10 input  -60.55 | X-H torsion
[ 11005 11000 10999 10996 ] final    5.72 input  -57.11 | X-H torsion

> <Gold.Protein.ActiveResidues>
 VAL166  LYS551  ARG553  GLY616  TRP617  ASP618  TYR619  PRO620  LYS621  CYS622 
 ASP623  PHE694  ASN695  SER759  ASP760  ASP761  ALA762  ILE779  LEU786  VAL792 
 PHE793  MET794  SER795  GLU796  ALA797  LYS798  CYS799  TRP800  GLU811  SER814 

> <Gold.Protein.RotatedAtoms>
  151.3497  133.3930  159.2678 H   0  0  0  0  0  0  0  0  0  0  0  0  # atno 6907 bound_to 6896
  150.9811  134.9167  159.7855 H   0  0  0  0  0  0  0  0  0  0  0  0  # atno 6908 bound_to 6896
  152.5217  134.3461  159.9287 H   0  0  0  0  0  0  0  0  0  0  0  0  # atno 6909 bound_to 6896
  144.7211  139.9871  143.6439 H   0  0  0  0  0  0  0  0  0  0  0  0  # atno 7974 bound_to 7965
  156.1748  140.1653  156.8382 H   0  0  0  0  0  0  0  0  0  0  0  0  # atno 8008 bound_to 7997
  154.5295  140.0760  156.8353 H   0  0  0  0  0  0  0  0  0  0  0  0  # atno 8009 bound_to 7997
  155.3436  140.3386  155.4241 H   0  0  0  0  0  0  0  0  0  0  0  0  # atno 8010 bound_to 7997
  140.2195  143.3686  152.0982 H   0  0  0  0  0  0  0  0  0  0  0  0  # atno 10167 bound_to 10162
  157.3395  131.0933  151.1094 H   0  0  0  0  0  0  0  0  0  0  0  0  # atno 10718 bound_to 10713
  154.2640  135.6303  153.5285 H   0  0  0  0  0  0  0  0  0  0  0  0  # atno 10763 bound_to 10752
  152.9891  135.5594  154.5673 H   0  0  0  0  0  0  0  0  0  0  0  0  # atno 10764 bound_to 10752
  154.5229  135.2883  155.1222 H   0  0  0  0  0  0  0  0  0  0  0  0  # atno 10765 bound_to 10752
  140.5675  134.0134  155.7995 H   0  0  0  0  0  0  0  0  0  0  0  0  # atno 11005 bound_to 11000
  146.0442  139.3449  143.0679 LP  0  0  0  0  0  0  0  0  0  0  0  0  # atno 17320 bound_to 7965
  145.8297  140.9637  143.0855 LP  0  0  0  0  0  0  0  0  0  0  0  0  # atno 17321 bound_to 7965
  139.5149  144.6955  151.5641 LP  0  0  0  0  0  0  0  0  0  0  0  0  # atno 17342 bound_to 10162
  140.6265  143.9158  150.6569 LP  0  0  0  0  0  0  0  0  0  0  0  0  # atno 17343 bound_to 10162
  157.2312  130.6526  149.5850 LP  0  0  0  0  0  0  0  0  0  0  0  0  # atno 17370 bound_to 10713
  155.9706  130.4598  150.6050 LP  0  0  0  0  0  0  0  0  0  0  0  0  # atno 17371 bound_to 10713
  141.1076  133.9668  157.2968 LP  0  0  0  0  0  0  0  0  0  0  0  0  # atno 17394 bound_to 11000
  139.9378  135.0194  156.8611 LP  0  0  0  0  0  0  0  0  0  0  0  0  # atno 17395 bound_to 11000

$$$$
