#       Name:                AV-unprocessed.smi:124
#       Creating user name   scv26
#       Creation time:       Thu Mar 26 18:28:18 2020


#       File generated by GOLD software.
#

@<TRIPOS>MOLECULE
AV-unprocessed.smi:124
    60    64     1
SMALL
NO_CHARGES


@<TRIPOS>ATOM
      1 ****        -1.1696   0.0268   0.8143 O.2            1 S1                 0.0000
      2 ****        -0.6658  -0.8838   0.1547 C.2            1 S1                 0.0000
      3 ****         0.8287  -0.8165  -0.2096 C.3            1 S1                 0.0000
      4 ****         1.3323   0.5513  -0.2583 N.am           1 S1                 0.0000
      5 ****         1.1572   1.2700  -1.4676 C.2            1 S1                 0.0000
      6 ****         0.5962   0.7748  -2.4470 O.2            1 S1                 0.0000
      7 ****         1.6839   2.6302  -1.4467 C.2            1 S1                 0.0000
      8 ****         1.5950   3.3940  -2.5489 F              1 S1                 0.0000
      9 ****         2.2642   3.1366  -0.3374 C.2            1 S1                 0.0000
     10 ****         2.3961   2.4204   0.8408 N.am           1 S1                 0.0000
     11 ****         3.0422   3.0307   2.0649 C.3            1 S1                 0.0000
     12 ****         4.5374   2.6952   2.0987 C.3            1 S1                 0.0000
     13 ****         5.1445   3.9132   1.4366 C.3            1 S1                 0.0000
     14 ****         4.2157   5.0210   1.9201 C.3            1 S1                 0.0000
     15 ****         2.9240   4.4233   1.9995 O.3            1 S1                 0.0000
     16 ****         1.9351   1.0873   0.9060 C.2            1 S1                 0.0000
     17 ****         2.0544   0.4284   1.9417 O.2            1 S1                 0.0000
     18 ****        -1.3946  -2.0500  -0.3451 C.2            1 S1                 0.0000
     19 ****        -2.7541  -2.0633  -0.5871 C.2            1 S1                 0.0000
     20 ****        -3.7735  -1.0198  -0.5110 C.ar           1 S1                 0.0000
     21 ****        -4.9626  -1.2348   0.2202 C.ar           1 S1                 0.0000
     22 ****        -5.9518  -0.2345   0.2902 C.ar           1 S1                 0.0000
     23 ****        -5.7627   0.9911  -0.3756 C.ar           1 S1                 0.0000
     24 ****        -4.5845   1.2132  -1.1129 C.ar           1 S1                 0.0000
     25 ****        -3.5975   0.2110  -1.1818 C.ar           1 S1                 0.0000
     26 ****        -3.1262  -3.3292  -1.0036 N.pl3          1 S1                 0.0000
     27 ****        -2.0395  -4.1733  -1.0474 C.ar           1 S1                 0.0000
     28 ****        -1.9189  -5.5289  -1.4041 C.ar           1 S1                 0.0000
     29 ****        -0.6606  -6.1519  -1.3414 C.ar           1 S1                 0.0000
     30 ****         0.4607  -5.4145  -0.9194 C.ar           1 S1                 0.0000
     31 ****         0.3283  -4.0568  -0.5651 C.ar           1 S1                 0.0000
     32 ****        -0.9230  -3.3907  -0.6256 C.ar           1 S1                 0.0000
     33 ****        -4.0765  -3.5699  -1.2466 H              1 S1                 0.0000
     34 ****         1.4262  -1.3785   0.5082 H              1 S1                 0.0000
     35 ****         1.0288  -1.2705  -1.1816 H              1 S1                 0.0000
     36 ****         2.6398   4.1477  -0.3872 H              1 S1                 0.0000
     37 ****         2.4839   2.6561   2.9242 H              1 S1                 0.0000
     38 ****         4.8547   2.6270   3.1401 H              1 S1                 0.0000
     39 ****         4.7663   1.7543   1.5968 H              1 S1                 0.0000
     40 ****         6.1857   4.0783   1.7143 H              1 S1                 0.0000
     41 ****         5.0901   3.8190   0.3514 H              1 S1                 0.0000
     42 ****         4.5084   5.3534   2.9170 H              1 S1                 0.0000
     43 ****         4.2155   5.8878   1.2591 H              1 S1                 0.0000
     44 ****        -5.1171  -2.1706   0.7373 H              1 S1                 0.0000
     45 ****        -6.8555  -0.4079   0.8557 H              1 S1                 0.0000
     46 ****        -6.5206   1.7588  -0.3220 H              1 S1                 0.0000
     47 ****        -4.4373   2.1518  -1.6266 H              1 S1                 0.0000
     48 ****        -2.6984   0.3912  -1.7533 H              1 S1                 0.0000
     49 ****        -2.7869  -6.0881  -1.7210 H              1 S1                 0.0000
     50 ****        -0.5559  -7.1924  -1.6119 H              1 S1                 0.0000
     51 ****         1.4283  -5.8915  -0.8658 H              1 S1                 0.0000
     52 ****         1.2088  -3.5248  -0.2417 H              1 S1                 0.0000
     53 ****        -0.6087   0.8007   1.1082 LP             1 S1                 0.0000
     54 ****        -2.1394  -0.0081   1.0558 LP             1 S1                 0.0000
     55 ****         0.2482  -0.1617  -2.4034 LP             1 S1                 0.0000
     56 ****         0.4891   1.3095  -3.2852 LP             1 S1                 0.0000
     57 ****         2.4561   4.7544   2.8189 LP             1 S1                 0.0000
     58 ****         2.3938   4.6726   1.1892 LP             1 S1                 0.0000
     59 ****         1.7206  -0.5137   1.9763 LP             1 S1                 0.0000
     60 ****         2.4849   0.8361   2.7470 LP             1 S1                 0.0000
@<TRIPOS>BOND
    1    1    2 2     
    2    2    3 1     
    3    2   18 1     
    4    3    4 1     
    5    3   34 1     
    6    3   35 1     
    7    4   16 am    
    8    4    5 am    
    9    5    6 2     
   10    5    7 1     
   11    7    8 1     
   12    7    9 2     
   13    9   10 1     
   14    9   36 1     
   15   10   11 1     
   16   10   16 am    
   17   11   15 1     
   18   11   12 1     
   19   11   37 1     
   20   12   13 1     
   21   12   38 1     
   22   12   39 1     
   23   13   14 1     
   24   13   40 1     
   25   13   41 1     
   26   14   15 1     
   27   14   42 1     
   28   14   43 1     
   29   16   17 2     
   30   18   32 1     
   31   18   19 2     
   32   19   20 1     
   33   19   26 1     
   34   20   25 ar    
   35   20   21 ar    
   36   21   22 ar    
   37   21   44 1     
   38   22   23 ar    
   39   22   45 1     
   40   23   24 ar    
   41   23   46 1     
   42   24   25 ar    
   43   24   47 1     
   44   25   48 1     
   45   26   33 1     
   46   26   27 1     
   47   27   32 ar    
   48   27   28 ar    
   49   28   29 ar    
   50   28   49 1     
   51   29   30 ar    
   52   29   50 1     
   53   30   31 ar    
   54   30   51 1     
   55   31   32 ar    
   56   31   52 1     
   57    1   53 1     
   58    1   54 1     
   59    6   55 1     
   60    6   56 1     
   61   15   57 1     
   62   15   58 1     
   63   17   59 1     
   64   17   60 1     
@<TRIPOS>SUBSTRUCTURE
      1 S1             1
@<TRIPOS>SET
LONE_PAIRS      STATIC     ATOMS    <user>   **** ""
8 53 54 55 56 57 58 59 60
DONOR_HYDROGENS      STATIC     ATOMS    <user>   **** ""
1 33
ATOM$BLUE        STATIC     ATOMS    COLORGROUP SYSTEM
8 53 54 55 56 57 58 59 60
ATOM$RED        STATIC     ATOMS    COLORGROUP SYSTEM
1 33
