AV-unprocessed.smi:2552|AV-procd|sdf|10015|dock4
  -GOLD-   2272014 63D 1   1.00000     0.00000
 Structure written by MMmdl.
 34 36  0  0  0  0  0  0  0  0  1 V2000
  149.1226  141.5180  154.9244 C   0  0  0  0  0  0  0  0  0  0  0  0
  150.2258  140.6946  155.4138 N   0  0  0  0  0  0  0  0  0  0  0  0
  150.7529  139.8005  154.4742 N   0  0  0  0  0  0  0  0  0  0  0  0
  151.7347  139.0086  154.7745 C   0  0  0  0  0  0  0  0  0  0  0  0
  152.2825  139.0694  156.1260 C   0  0  0  0  0  0  0  0  0  0  0  0
  153.3167  138.3915  156.8281 C   0  0  0  0  0  0  0  0  0  0  0  0
  153.4281  138.8167  158.0852 N   0  0  0  0  0  0  0  0  0  0  0  0
  152.4756  139.7731  158.2375 N   0  0  0  0  0  0  0  0  0  0  0  0
  152.3135  140.4365  159.5221 C   0  0  0  0  0  0  0  0  0  0  0  0
  153.4172  141.4804  159.7876 C   0  0  2  0  0  0  0  0  0  0  0  0
  154.1175  141.0953  160.9537 O   0  0  0  0  0  0  0  0  0  0  0  0
  152.8636  142.8976  159.8857 C   0  0  0  0  0  0  0  0  0  0  0  0
  152.6590  143.6654  158.7176 C   0  0  0  0  0  0  0  0  0  0  0  0
  152.1661  144.9813  158.8072 C   0  0  0  0  0  0  0  0  0  0  0  0
  151.8759  145.5403  160.0660 C   0  0  0  0  0  0  0  0  0  0  0  0
  152.0818  144.7831  161.2348 C   0  0  0  0  0  0  0  0  0  0  0  0
  152.5762  143.4670  161.1477 C   0  0  0  0  0  0  0  0  0  0  0  0
  152.7810  142.7585  162.2844 F   0  0  0  0  0  0  0  0  0  0  0  0
  151.7884  139.9281  157.0513 C   0  0  0  0  0  0  0  0  0  0  0  0
  150.6682  140.8317  156.6999 C   0  0  0  0  0  0  0  0  0  0  0  0
  150.1957  141.6268  157.5125 O   0  0  0  0  0  0  0  0  0  0  0  0
  149.3765  142.5772  154.9864 H   0  0  0  0  0  0  0  0  0  0  0  0
  148.2230  141.3465  155.5175 H   0  0  0  0  0  0  0  0  0  0  0  0
  148.8785  141.2976  153.8838 H   0  0  0  0  0  0  0  0  0  0  0  0
  152.1438  138.3133  154.0415 H   0  0  0  0  0  0  0  0  0  0  0  0
  153.9799  137.6156  156.4753 H   0  0  0  0  0  0  0  0  0  0  0  0
  151.3285  140.9052  159.5584 H   0  0  0  0  0  0  0  0  0  0  0  0
  152.3173  139.6723  160.2999 H   0  0  0  0  0  0  0  0  0  0  0  0
  154.1455  141.4428  158.9778 H   0  0  0  0  0  0  0  0  0  0  0  0
  153.4871  140.8901  161.6271 H   0  0  0  0  0  0  0  0  0  0  0  0
  152.8853  143.2487  157.7470 H   0  0  0  0  0  0  0  0  0  0  0  0
  152.0132  145.5627  157.9099 H   0  0  0  0  0  0  0  0  0  0  0  0
  151.4986  146.5498  160.1352 H   0  0  0  0  0  0  0  0  0  0  0  0
  151.8635  145.2136  162.2008 H   0  0  0  0  0  0  0  0  0  0  0  0
  1  2  1  0  0  0  0
  1 22  1  0  0  0  0
  1 23  1  0  0  0  0
  1 24  1  0  0  0  0
  2 20  1  0  0  0  0
  2  3  1  0  0  0  0
  3  4  2  0  0  0  0
  4  5  1  0  0  0  0
  4 25  1  0  0  0  0
  5 19  2  0  0  0  0
  5  6  1  0  0  0  0
  6  7  2  0  0  0  0
  6 26  1  0  0  0  0
  7  8  1  0  0  0  0
  8  9  1  0  0  0  0
  8 19  1  0  0  0  0
  9 10  1  0  0  0  0
  9 27  1  0  0  0  0
  9 28  1  0  0  0  0
 10 11  1  0  0  0  0
 10 12  1  0  0  0  0
 10 29  1  0  0  0  0
 11 30  1  0  0  0  0
 12 17  1  0  0  0  0
 12 13  2  0  0  0  0
 13 14  1  0  0  0  0
 13 31  1  0  0  0  0
 14 15  2  0  0  0  0
 14 32  1  0  0  0  0
 15 16  1  0  0  0  0
 15 33  1  0  0  0  0
 16 17  2  0  0  0  0
 16 34  1  0  0  0  0
 17 18  1  0  0  0  0
 19 20  1  0  0  0  0
 20 21  2  0  0  0  0
M  END
> <s_m_source_file>
AV-unprocessed.smi

> <i_m_source_file_index>
2552

> <i_lp_mmshare_version>
43012

> <i_f3d_flags>
0

> <s_epik_input>
W2NIXTFubihbQ0gzXSljKD1PKWMoYzEyKW4obltjSF0yKVtDSDJdW0NASF0oW09IXSljM1tjSF1bY0hdW2NIXVtjSF1jM0Y=

> <s_epik_cmdline>
J2VwaWtfcHl0aG9uJywgJy1waCcsICc3LjAnLCAnLXRuJywgJzgnLCAnLW1hJywgJzIwMCcsICctbWV0YWxfYmluZGluZycsICctaW1hZScsICc8aW5maWxlLm1hZT4nLCAnLW9tYWUnLCAnPG91dGZpbGUubWFlPic=

> <r_lp_tautomer_probability>
1

> <r_epik_Ionization_Penalty>
6.28011e-06

> <r_epik_Ionization_Penalty_Charging>
1.65421e-10

> <r_epik_Ionization_Penalty_Neutral>
6.27995e-06

> <r_epik_State_Penalty>
-0

> <r_epik_Charging_Adjusted_Penalty>
1.65421e-10

> <i_epik_Tot_Q>
0

> <i_epik_Tot_abs_Q>
0

> <r_epik_Metal_State_Penalty>
-0

> <b_epik_Metal_Only>
0

> <s_lp_Force_Field>
OPLS_2005

> <r_lp_Energy>
28.555

> <b_lp_Chiralities_Consistent>
1

> <s_lp_Variant>
AV-unprocessed.smi:2552-1

> <Gold.Version>
5.8.1

> <Gold.Id.Protein>
6NUR|6NUR_protein|mol2

> <Gold.PLP.Fitness>
52.4309

> <Gold.PLP.PLP>
-53.1594

> <Gold.PLP.part.hbond>
-2.0000

> <Gold.PLP.part.metal>
0.0000

> <Gold.PLP.part.buried>
-2.6541

> <Gold.PLP.part.nonpolar>
-48.6315

> <Gold.PLP.part.repulsive>
0.1892

> <Gold.PLP.ligand.clash>
0.0000

> <Gold.PLP.ligand.torsion>
1.6469

> <Gold.PLP.Chemscore.Hbond>
0.8500

> <Gold.PLP.Chemscore.CHOScore>
0.0000

> <Gold.PLP.Chemscore.Metal>
0.0000

> <Gold.Chemscore.Hbonds>
donor molecule, donor type, donor heavy atom, donor atom, acceptor molecule, acceptor atom, score
      P1  H  7989  7998       L1     3  0.85

> <Gold.PLP.Chemscore.Internal.Correction>
0.0154

> <Gold.Rescore>
     Score         DG    S(hbond)    S(metal)    S(lipo)     H(rot)  DE(clash)    DE(int)     intcor
     11.85     -15.36       0.00        0.00     128.53       2.02       0.14       3.38       ----

> <Gold.Chemscore.Fitness>
11.8529

> <Gold.Chemscore.DG>
-15.3648

> <Gold.Chemscore.ZeroCoef>
-5.4800

> <Gold.Chemscore.Hbond>
0.0041

> <Gold.Chemscore.Metal>
0.0000

> <Gold.Chemscore.Lipo>
128.5257

> <Gold.Chemscore.Internal_Hbond>
0.0000

> <Gold.Chemscore.DEClash>
0.1369

> <Gold.Chemscore.DEInternal>
3.3751

> <Gold.Chemscore.Rot>
2.0181

> <Gold.Chemscore.Internal.Correction>
   9.000000E+99

> <Gold.Chemscore.Hbonds>
donor molecule, donor type, donor heavy atom, donor atom, acceptor molecule, acceptor atom, score
      P1  H  7989  7998       L1     3  0.04

> <Gold.Chemscore.Hbond.Weighted>
-0.0137

> <Gold.Chemscore.Metal.Weighted>
-0.0000

> <Gold.Chemscore.Lipo.Weighted>
-15.0375

> <Gold.Chemscore.Internal_Hbond.Weighted>
0.0000

> <Gold.Chemscore.DEClash.Weighted>
0.1369

> <Gold.Chemscore.DEInternal.Weighted>
3.3751

> <Gold.Chemscore.Rot.Weighted>
5.1663

> <Gold.Chemscore.Internal.Correction.Weighted>
   9.000000E+99

> <Gold.Protein.RotatedTorsions>
[ 6907 6896 6895 6894 ] final   -4.56 input  -60.11 | X-H torsion
[ 7974 7965 7964 7962 ] final -105.61 input  175.53 | X-H torsion
[ 8008 7997 7996 7995 ] final  -89.18 input   59.86 | X-H torsion
[ 10167 10162 10161 10158 ] final  -17.59 input  -65.29 | X-H torsion
[ 10718 10713 10712 10709 ] final -168.28 input   66.30 | X-H torsion
[ 10763 10752 10751 10750 ] final   15.71 input  -60.55 | X-H torsion
[ 11005 11000 10999 10996 ] final  -66.86 input  -57.11 | X-H torsion

> <Gold.Protein.ActiveResidues>
 VAL166  LYS551  ARG553  GLY616  TRP617  ASP618  TYR619  PRO620  LYS621  CYS622 
 ASP623  PHE694  ASN695  SER759  ASP760  ASP761  ALA762  ILE779  LEU786  VAL792 
 PHE793  MET794  SER795  GLU796  ALA797  LYS798  CYS799  TRP800  GLU811  SER814 

> <Gold.Protein.RotatedAtoms>
  151.4956  135.1059  159.9814 H   0  0  0  0  0  0  0  0  0  0  0  0  # atno 6907 bound_to 6896
  152.4723  133.8053  159.6985 H   0  0  0  0  0  0  0  0  0  0  0  0  # atno 6908 bound_to 6896
  150.8739  133.7404  159.2978 H   0  0  0  0  0  0  0  0  0  0  0  0  # atno 6909 bound_to 6896
  145.2283  140.9161  143.3219 H   0  0  0  0  0  0  0  0  0  0  0  0  # atno 7974 bound_to 7965
  154.6836  140.0545  157.0291 H   0  0  0  0  0  0  0  0  0  0  0  0  # atno 8008 bound_to 7997
  155.0917  140.3220  155.4553 H   0  0  0  0  0  0  0  0  0  0  0  0  # atno 8009 bound_to 7997
  156.2703  140.2047  156.6044 H   0  0  0  0  0  0  0  0  0  0  0  0  # atno 8010 bound_to 7997
  140.7249  143.5000  150.9881 H   0  0  0  0  0  0  0  0  0  0  0  0  # atno 10167 bound_to 10162
  156.6946  130.9172  151.3073 H   0  0  0  0  0  0  0  0  0  0  0  0  # atno 10718 bound_to 10713
  153.1499  135.6776  153.8898 H   0  0  0  0  0  0  0  0  0  0  0  0  # atno 10763 bound_to 10752
  153.8328  135.3115  155.3421 H   0  0  0  0  0  0  0  0  0  0  0  0  # atno 10764 bound_to 10752
  154.7854  135.4865  154.0020 H   0  0  0  0  0  0  0  0  0  0  0  0  # atno 10765 bound_to 10752
  141.1493  133.6707  156.6204 H   0  0  0  0  0  0  0  0  0  0  0  0  # atno 11005 bound_to 11000
  144.9701  139.3889  143.6313 LP  0  0  0  0  0  0  0  0  0  0  0  0  # atno 17320 bound_to 7965
  146.3359  139.8794  142.8827 LP  0  0  0  0  0  0  0  0  0  0  0  0  # atno 17321 bound_to 7965
  139.8709  143.7194  152.3166 LP  0  0  0  0  0  0  0  0  0  0  0  0  # atno 17342 bound_to 10162
  139.7442  144.7551  151.0605 LP  0  0  0  0  0  0  0  0  0  0  0  0  # atno 17343 bound_to 10162
  157.6996  130.9319  150.0746 LP  0  0  0  0  0  0  0  0  0  0  0  0  # atno 17370 bound_to 10713
  156.1773  130.3648  149.9083 LP  0  0  0  0  0  0  0  0  0  0  0  0  # atno 17371 bound_to 10713
  140.3545  134.7740  157.4490 LP  0  0  0  0  0  0  0  0  0  0  0  0  # atno 17394 bound_to 11000
  140.0834  134.5700  155.8517 LP  0  0  0  0  0  0  0  0  0  0  0  0  # atno 17395 bound_to 11000

$$$$
