AV-unprocessed.smi:20|AV-procd|sdf|115|dock5
  -GOLD-   2262015283D 1   1.00000     0.00000
 Structure written by MMmdl.
 57 61  0  0  0  0  0  0  0  0  1 V2000
  150.4967  140.6254  154.6750 O   0  0  0  0  0  0  0  0  0  0  0  0
  150.2559  141.2715  155.6921 C   0  0  0  0  0  0  0  0  0  0  0  0
  151.2407  142.2339  156.3343 C   0  0  0  0  0  0  0  0  0  0  0  0
  150.6355  142.4804  157.7364 C   0  0  2  0  0  0  0  0  0  0  0  0
  150.8228  143.9324  158.2329 C   0  0  0  0  0  0  0  0  0  0  0  0
  152.2953  144.2286  158.5598 C   0  0  0  0  0  0  0  0  0  0  0  0
  152.8486  143.2135  159.5703 C   0  0  0  0  0  0  0  0  0  0  0  0
  152.6268  141.8484  159.1023 N   0  0  0  0  0  0  0  0  0  0  0  0
  153.3799  140.8447  159.6194 C   0  0  0  0  0  0  0  0  0  0  0  0
  153.6639  139.7982  158.8011 N   0  0  0  0  0  0  0  0  0  0  0  0
  154.4031  138.7756  159.2389 C   0  0  0  0  0  0  0  0  0  0  0  0
  154.9454  138.5952  160.4435 N   0  0  0  0  0  0  0  0  0  0  0  0
  154.6581  139.6360  161.2757 C   0  0  0  0  0  0  0  0  0  0  0  0
  153.8959  140.7952  160.9493 C   0  0  0  0  0  0  0  0  0  0  0  0
  153.8218  141.6295  162.0603 N   0  0  0  0  0  0  0  0  0  0  0  0
  154.5001  141.0048  162.9829 C   0  0  0  0  0  0  0  0  0  0  0  0
  155.0172  139.7875  162.6037 N   0  0  0  0  0  0  0  0  0  0  0  0
  155.8046  138.8859  163.4260 C   0  0  0  0  0  0  0  0  0  0  0  0
  155.0240  138.2008  164.5833 C   0  0  1  0  0  0  0  0  0  0  0  0
  154.2562  136.9799  164.0204 C   0  0  0  0  0  0  0  0  0  0  0  0
  153.3980  136.4169  164.9915 O   0  0  0  0  0  0  0  0  0  0  0  0
  155.9320  137.7999  165.7857 C   0  0  2  0  0  0  0  0  0  0  0  0
  156.7070  138.9451  166.4218 C   0  0  0  0  0  0  0  0  0  0  0  0
  157.7962  138.2137  167.1913 C   0  0  0  0  0  0  0  0  0  0  0  0
  158.1662  137.1436  166.3381 O   0  0  0  0  0  0  0  0  0  0  0  0
  157.0871  136.8354  165.4606 C   0  0  0  0  0  0  0  0  0  0  0  0
  151.2418  141.5029  158.7765 C   0  0  0  0  0  0  0  0  0  0  0  0
  149.1414  142.1415  157.5256 C   0  0  0  0  0  0  0  0  0  0  0  0
  149.1212  141.2430  156.3873 N   0  0  0  0  0  0  0  0  0  0  0  0
  152.2474  141.8157  156.3660 H   0  0  0  0  0  0  0  0  0  0  0  0
  151.2698  143.1472  155.7390 H   0  0  0  0  0  0  0  0  0  0  0  0
  150.4572  144.6417  157.4895 H   0  0  0  0  0  0  0  0  0  0  0  0
  150.2202  144.0910  159.1285 H   0  0  0  0  0  0  0  0  0  0  0  0
  152.8898  144.1958  157.6461 H   0  0  0  0  0  0  0  0  0  0  0  0
  152.3948  145.2392  158.9566 H   0  0  0  0  0  0  0  0  0  0  0  0
  153.9141  143.3941  159.7171 H   0  0  0  0  0  0  0  0  0  0  0  0
  152.3567  143.3468  160.5345 H   0  0  0  0  0  0  0  0  0  0  0  0
  154.5840  137.9886  158.5218 H   0  0  0  0  0  0  0  0  0  0  0  0
  154.6275  141.4104  163.9758 H   0  0  0  0  0  0  0  0  0  0  0  0
  156.2263  138.1380  162.7540 H   0  0  0  0  0  0  0  0  0  0  0  0
  156.6519  139.4407  163.8312 H   0  0  0  0  0  0  0  0  0  0  0  0
  154.2750  138.8999  164.9577 H   0  0  0  0  0  0  0  0  0  0  0  0
  153.6738  137.2593  163.1417 H   0  0  0  0  0  0  0  0  0  0  0  0
  154.9356  136.1854  163.7155 H   0  0  0  0  0  0  0  0  0  0  0  0
  152.5033  136.5775  164.7324 H   0  0  0  0  0  0  0  0  0  0  0  0
  155.3131  137.3492  166.5633 H   0  0  0  0  0  0  0  0  0  0  0  0
  157.1544  139.5794  165.6550 H   0  0  0  0  0  0  0  0  0  0  0  0
  156.0964  139.5702  167.0738 H   0  0  0  0  0  0  0  0  0  0  0  0
  158.6476  138.8511  167.4301 H   0  0  0  0  0  0  0  0  0  0  0  0
  157.4000  137.8061  168.1224 H   0  0  0  0  0  0  0  0  0  0  0  0
  156.7987  135.7927  165.5864 H   0  0  0  0  0  0  0  0  0  0  0  0
  157.4406  136.9682  164.4376 H   0  0  0  0  0  0  0  0  0  0  0  0
  150.6648  141.5419  159.7015 H   0  0  0  0  0  0  0  0  0  0  0  0
  151.1613  140.4786  158.4109 H   0  0  0  0  0  0  0  0  0  0  0  0
  148.6815  141.6822  158.4014 H   0  0  0  0  0  0  0  0  0  0  0  0
  148.5605  143.0293  157.2714 H   0  0  0  0  0  0  0  0  0  0  0  0
  148.3206  140.6751  156.1501 H   0  0  0  0  0  0  0  0  0  0  0  0
  1  2  2  0  0  0  0
  2 29  1  0  0  0  0
  2  3  1  0  0  0  0
  3  4  1  0  0  0  0
  3 30  1  0  0  0  0
  3 31  1  0  0  0  0
  4 27  1  0  0  0  0
  4  5  1  0  0  0  0
  4 28  1  0  0  0  0
  5  6  1  0  0  0  0
  5 32  1  0  0  0  0
  5 33  1  0  0  0  0
  6  7  1  0  0  0  0
  6 34  1  0  0  0  0
  6 35  1  0  0  0  0
  7  8  1  0  0  0  0
  7 36  1  0  0  0  0
  7 37  1  0  0  0  0
  8  9  1  0  0  0  0
  8 27  1  0  0  0  0
  9 14  1  0  0  0  0
  9 10  2  0  0  0  0
 10 11  1  0  0  0  0
 11 12  2  0  0  0  0
 11 38  1  0  0  0  0
 12 13  1  0  0  0  0
 13 17  1  0  0  0  0
 13 14  2  0  0  0  0
 14 15  1  0  0  0  0
 15 16  2  0  0  0  0
 16 17  1  0  0  0  0
 16 39  1  0  0  0  0
 17 18  1  0  0  0  0
 18 19  1  0  0  0  0
 18 40  1  0  0  0  0
 18 41  1  0  0  0  0
 19 20  1  0  0  0  0
 19 22  1  0  0  0  0
 19 42  1  0  0  0  0
 20 21  1  0  0  0  0
 20 43  1  0  0  0  0
 20 44  1  0  0  0  0
 21 45  1  0  0  0  0
 22 26  1  0  0  0  0
 22 23  1  0  0  0  0
 22 46  1  0  0  0  0
 23 24  1  0  0  0  0
 23 47  1  0  0  0  0
 23 48  1  0  0  0  0
 24 25  1  0  0  0  0
 24 49  1  0  0  0  0
 24 50  1  0  0  0  0
 25 26  1  0  0  0  0
 26 51  1  0  0  0  0
 26 52  1  0  0  0  0
 27 53  1  0  0  0  0
 27 54  1  0  0  0  0
 28 29  1  0  0  0  0
 28 55  1  0  0  0  0
 28 56  1  0  0  0  0
 29 57  1  0  0  0  0
M  END
> <s_m_source_file>
AV-unprocessed.smi

> <i_m_source_file_index>
20

> <i_lp_mmshare_version>
43012

> <i_f3d_flags>
0

> <s_epik_input>
W0NIMl0xW05IXUMoPU8pW0NIMl1bQ0BAXTEyW0NIMl1bQ0gyXVtDSDJdTihbQ0gyXTIpYyhuW2NIXW4zKWMoYzM0KW5bY0hdbjRbQ0gyXVtDQEhdKFtDSDJdW09IXSlbQ0BASF01W0NIMl1bQ0gyXU9bQ0gyXTU=

> <s_epik_cmdline>
J2VwaWtfcHl0aG9uJywgJy1waCcsICc3LjAnLCAnLXRuJywgJzgnLCAnLW1hJywgJzIwMCcsICctbWV0YWxfYmluZGluZycsICctaW1hZScsICc8aW5maWxlLm1hZT4nLCAnLW9tYWUnLCAnPG91dGZpbGUubWFlPic=

> <r_lp_tautomer_probability>
1

> <r_epik_Ionization_Penalty>
0.0019697

> <r_epik_Ionization_Penalty_Charging>
0

> <r_epik_Ionization_Penalty_Neutral>
0.0019697

> <r_epik_State_Penalty>
0.00113613

> <r_epik_Charging_Adjusted_Penalty>
0.00113613

> <i_epik_Tot_Q>
0

> <i_epik_Tot_abs_Q>
0

> <r_epik_Metal_State_Penalty>
-0

> <b_epik_Metal_Only>
0

> <s_lp_Force_Field>
OPLS_2005

> <r_lp_Energy>
60.5509

> <b_lp_Chiralities_Consistent>
1

> <s_lp_Variant>
AV-unprocessed.smi:20-3

> <Gold.Version>
5.8.1

> <Gold.Id.Protein>
6NUR|6NUR_protein|mol2

> <Gold.PLP.Fitness>
54.1970

> <Gold.PLP.PLP>
-50.7280

> <Gold.PLP.part.hbond>
-4.4563

> <Gold.PLP.part.metal>
0.0000

> <Gold.PLP.part.buried>
-6.3013

> <Gold.PLP.part.nonpolar>
-41.2673

> <Gold.PLP.part.repulsive>
0.1188

> <Gold.PLP.ligand.clash>
0.0000

> <Gold.PLP.ligand.torsion>
1.1964

> <Gold.PLP.Chemscore.Hbond>
1.8500

> <Gold.PLP.Chemscore.CHOScore>
0.0000

> <Gold.PLP.Chemscore.Metal>
0.0000

> <Gold.Chemscore.Hbonds>
donor molecule, donor type, donor heavy atom, donor atom, acceptor molecule, acceptor atom, score
      P1  H  7989  7998       L1     1  0.93
      P1  H  7997  8009       L1    10  0.80

> <Gold.PLP.Chemscore.Internal.Correction>
0.3119

> <Gold.Rescore>
     Score         DG    S(hbond)    S(metal)    S(lipo)     H(rot)  DE(clash)    DE(int)     intcor
     12.44     -13.81       0.99        0.00      96.00       2.43       0.11       1.25       ----

> <Gold.Chemscore.Fitness>
12.4387

> <Gold.Chemscore.DG>
-13.8069

> <Gold.Chemscore.ZeroCoef>
-5.4800

> <Gold.Chemscore.Hbond>
0.9933

> <Gold.Chemscore.Metal>
0.0000

> <Gold.Chemscore.Lipo>
96.0031

> <Gold.Chemscore.Internal_Hbond>
0.0000

> <Gold.Chemscore.DEClash>
0.1148

> <Gold.Chemscore.DEInternal>
1.2533

> <Gold.Chemscore.Rot>
2.4309

> <Gold.Chemscore.Internal.Correction>
   9.000000E+99

> <Gold.Chemscore.Hbonds>
donor molecule, donor type, donor heavy atom, donor atom, acceptor molecule, acceptor atom, score
      P1  H  7989  7998       L1     1  0.91
      P1  H  7997  8009       L1    10  0.11

> <Gold.Chemscore.Hbond.Weighted>
-3.3176

> <Gold.Chemscore.Metal.Weighted>
-0.0000

> <Gold.Chemscore.Lipo.Weighted>
-11.2324

> <Gold.Chemscore.Internal_Hbond.Weighted>
0.0000

> <Gold.Chemscore.DEClash.Weighted>
0.1148

> <Gold.Chemscore.DEInternal.Weighted>
1.2533

> <Gold.Chemscore.Rot.Weighted>
6.2231

> <Gold.Chemscore.Internal.Correction.Weighted>
   9.000000E+99

> <Gold.Protein.RotatedTorsions>
[ 6907 6896 6895 6894 ] final   -5.70 input  -60.11 | X-H torsion
[ 7974 7965 7964 7962 ] final -104.25 input  175.53 | X-H torsion
[ 8008 7997 7996 7995 ] final  152.48 input   59.86 | X-H torsion
[ 10167 10162 10161 10158 ] final  173.66 input  -65.29 | X-H torsion
[ 10718 10713 10712 10709 ] final  -18.94 input   66.30 | X-H torsion
[ 10763 10752 10751 10750 ] final  -33.78 input  -60.55 | X-H torsion
[ 11005 11000 10999 10996 ] final  -61.23 input  -57.11 | X-H torsion

> <Gold.Protein.ActiveResidues>
 VAL166  LYS551  ARG553  GLY616  TRP617  ASP618  TYR619  PRO620  LYS621  CYS622 
 ASP623  PHE694  ASN695  SER759  ASP760  ASP761  ALA762  ILE779  LEU786  VAL792 
 PHE793  MET794  SER795  GLU796  ALA797  LYS798  CYS799  TRP800  GLU811  SER814 

> <Gold.Protein.RotatedAtoms>
  151.4774  135.1050  159.9767 H   0  0  0  0  0  0  0  0  0  0  0  0  # atno 6907 bound_to 6896
  152.4793  133.8210  159.7064 H   0  0  0  0  0  0  0  0  0  0  0  0  # atno 6908 bound_to 6896
  150.8852  133.7256  159.2947 H   0  0  0  0  0  0  0  0  0  0  0  0  # atno 6909 bound_to 6896
  145.2455  140.9220  143.3125 H   0  0  0  0  0  0  0  0  0  0  0  0  # atno 7974 bound_to 7965
  156.2627  140.2019  156.6340 H   0  0  0  0  0  0  0  0  0  0  0  0  # atno 8008 bound_to 7997
  154.6661  140.0555  157.0139 H   0  0  0  0  0  0  0  0  0  0  0  0  # atno 8009 bound_to 7997
  155.1205  140.3224  155.4501 H   0  0  0  0  0  0  0  0  0  0  0  0  # atno 8010 bound_to 7997
  139.5116  144.3235  152.0180 H   0  0  0  0  0  0  0  0  0  0  0  0  # atno 10167 bound_to 10162
  156.5525  130.4705  149.6445 H   0  0  0  0  0  0  0  0  0  0  0  0  # atno 10718 bound_to 10713
  153.8358  135.6862  153.4809 H   0  0  0  0  0  0  0  0  0  0  0  0  # atno 10763 bound_to 10752
  153.1483  135.4628  154.9597 H   0  0  0  0  0  0  0  0  0  0  0  0  # atno 10764 bound_to 10752
  154.7867  135.3287  154.7817 H   0  0  0  0  0  0  0  0  0  0  0  0  # atno 10765 bound_to 10752
  141.1317  133.6628  156.5344 H   0  0  0  0  0  0  0  0  0  0  0  0  # atno 11005 bound_to 11000
  144.9550  139.4041  143.6384 LP  0  0  0  0  0  0  0  0  0  0  0  0  # atno 17320 bound_to 7965
  146.3317  139.8576  142.8862 LP  0  0  0  0  0  0  0  0  0  0  0  0  # atno 17321 bound_to 7965
  140.2676  144.3999  150.6162 LP  0  0  0  0  0  0  0  0  0  0  0  0  # atno 17342 bound_to 10162
  140.6112  143.2169  151.6883 LP  0  0  0  0  0  0  0  0  0  0  0  0  # atno 17343 bound_to 10162
  156.2871  130.7103  151.1943 LP  0  0  0  0  0  0  0  0  0  0  0  0  # atno 17370 bound_to 10713
  157.7384  131.0540  150.5293 LP  0  0  0  0  0  0  0  0  0  0  0  0  # atno 17371 bound_to 10713
  140.4190  134.7204  157.4879 LP  0  0  0  0  0  0  0  0  0  0  0  0  # atno 17394 bound_to 11000
  140.0373  134.6318  155.9026 LP  0  0  0  0  0  0  0  0  0  0  0  0  # atno 17395 bound_to 11000

$$$$
