AV-unprocessed.smi:1361|AV-procd|sdf|5555|dock1
  -GOLD-   22720 5143D 1   1.00000     0.00000
 Structure written by MMmdl.
 46 47  0  0  0  0  0  0  0  0  1 V2000
  146.9693  139.3548  151.2848 C   0  0  0  0  0  0  0  0  0  0  0  0
  147.0959  139.9897  152.6536 C   0  0  0  0  0  0  0  0  0  0  0  0
  146.2989  139.7414  153.6402 N   0  0  0  0  0  0  0  0  0  0  0  0
  146.5202  140.3868  154.8648 C   0  0  0  0  0  0  0  0  0  0  0  0
  145.5418  140.0387  155.9735 C   0  0  0  0  0  0  0  0  0  0  0  0
  147.5517  141.2656  155.0348 C   0  0  0  0  0  0  0  0  0  0  0  0
  147.8234  141.9795  156.3575 C   0  0  0  0  0  0  0  0  0  0  0  0
  149.2079  141.7343  156.9594 C   0  0  0  0  0  0  0  0  0  0  0  0
  149.5343  140.5997  157.3073 O   0  0  0  0  0  0  0  0  0  0  0  0
  150.0106  142.8043  157.0705 N   0  0  0  0  0  0  0  0  0  0  0  0
  151.3704  142.8000  157.6054 C   0  0  0  0  0  0  0  0  0  0  0  0
  151.4233  141.9357  158.8852 C   0  0  0  0  0  0  0  0  0  0  0  0
  152.7344  142.0480  159.6852 C   0  0  0  0  0  0  0  0  0  0  0  0
  152.5835  142.6959  161.0743 C   0  0  0  0  0  0  0  0  0  0  0  0
  151.7057  143.9613  161.1709 C   0  0  0  0  0  0  0  0  0  0  0  0
  152.0461  145.1052  160.1996 C   0  0  0  0  0  0  0  0  0  0  0  0
  151.2573  145.1023  158.8719 C   0  0  0  0  0  0  0  0  0  0  0  0
  151.8756  144.2558  157.7429 C   0  0  0  0  0  0  0  0  0  0  0  0
  148.4522  141.5459  153.8993 C   0  0  0  0  0  0  0  0  0  0  0  0
  149.4043  142.3235  153.9383 O   0  0  0  0  0  0  0  0  0  0  0  0
  148.1646  140.8778  152.7597 N   0  0  0  0  0  0  0  0  0  0  0  0
  148.7525  141.0354  151.9543 H   0  0  0  0  0  0  0  0  0  0  0  0
  146.0011  139.5982  150.8468 H   0  0  0  0  0  0  0  0  0  0  0  0
  147.0464  138.2704  151.3658 H   0  0  0  0  0  0  0  0  0  0  0  0
  147.7489  139.7021  150.6054 H   0  0  0  0  0  0  0  0  0  0  0  0
  146.0648  139.6195  156.8329 H   0  0  0  0  0  0  0  0  0  0  0  0
  144.8113  139.3013  155.6388 H   0  0  0  0  0  0  0  0  0  0  0  0
  144.9947  140.9247  156.2949 H   0  0  0  0  0  0  0  0  0  0  0  0
  147.6756  143.0502  156.2135 H   0  0  0  0  0  0  0  0  0  0  0  0
  147.0781  141.7013  157.1034 H   0  0  0  0  0  0  0  0  0  0  0  0
  149.6537  143.6943  156.7544 H   0  0  0  0  0  0  0  0  0  0  0  0
  152.0223  142.3297  156.8666 H   0  0  0  0  0  0  0  0  0  0  0  0
  150.5636  142.1465  159.5196 H   0  0  0  0  0  0  0  0  0  0  0  0
  151.2915  140.8929  158.5927 H   0  0  0  0  0  0  0  0  0  0  0  0
  153.1431  141.0469  159.8275 H   0  0  0  0  0  0  0  0  0  0  0  0
  153.4997  142.5714  159.1144 H   0  0  0  0  0  0  0  0  0  0  0  0
  152.1711  141.9531  161.7582 H   0  0  0  0  0  0  0  0  0  0  0  0
  153.5790  142.9226  161.4572 H   0  0  0  0  0  0  0  0  0  0  0  0
  150.6481  143.7096  161.0935 H   0  0  0  0  0  0  0  0  0  0  0  0
  151.8197  144.3426  162.1863 H   0  0  0  0  0  0  0  0  0  0  0  0
  151.7929  146.0355  160.7099 H   0  0  0  0  0  0  0  0  0  0  0  0
  153.1208  145.1613  160.0241 H   0  0  0  0  0  0  0  0  0  0  0  0
  150.2102  144.8443  159.0337 H   0  0  0  0  0  0  0  0  0  0  0  0
  151.2429  146.1336  158.5170 H   0  0  0  0  0  0  0  0  0  0  0  0
  152.9621  144.2799  157.8200 H   0  0  0  0  0  0  0  0  0  0  0  0
  151.6693  144.7595  156.7971 H   0  0  0  0  0  0  0  0  0  0  0  0
  1  2  1  0  0  0  0
  1 23  1  0  0  0  0
  1 24  1  0  0  0  0
  1 25  1  0  0  0  0
  2 21  1  0  0  0  0
  2  3  2  0  0  0  0
  3  4  1  0  0  0  0
  4  5  1  0  0  0  0
  4  6  2  0  0  0  0
  5 26  1  0  0  0  0
  5 27  1  0  0  0  0
  5 28  1  0  0  0  0
  6  7  1  0  0  0  0
  6 19  1  0  0  0  0
  7  8  1  0  0  0  0
  7 29  1  0  0  0  0
  7 30  1  0  0  0  0
  8  9  2  0  0  0  0
  8 10  1  0  0  0  0
 10 11  1  0  0  0  0
 10 31  1  0  0  0  0
 11 18  1  0  0  0  0
 11 12  1  0  0  0  0
 11 32  1  0  0  0  0
 12 13  1  0  0  0  0
 12 33  1  0  0  0  0
 12 34  1  0  0  0  0
 13 14  1  0  0  0  0
 13 35  1  0  0  0  0
 13 36  1  0  0  0  0
 14 15  1  0  0  0  0
 14 37  1  0  0  0  0
 14 38  1  0  0  0  0
 15 16  1  0  0  0  0
 15 39  1  0  0  0  0
 15 40  1  0  0  0  0
 16 17  1  0  0  0  0
 16 41  1  0  0  0  0
 16 42  1  0  0  0  0
 17 18  1  0  0  0  0
 17 43  1  0  0  0  0
 17 44  1  0  0  0  0
 18 45  1  0  0  0  0
 18 46  1  0  0  0  0
 19 20  2  0  0  0  0
 19 21  1  0  0  0  0
 21 22  1  0  0  0  0
M  END
> <s_m_source_file>
AV-unprocessed.smi

> <i_m_source_file_index>
1361

> <i_lp_mmshare_version>
43012

> <i_f3d_flags>
0

> <s_epik_input>
W0NIM11jMW5jKFtDSDNdKWMoYyg9TylbbkhdMSlbQ0gyXUMoPU8pW05IXVtDSF0yW0NIMl1bQ0gyXVtDSDJdW0NIMl1bQ0gyXVtDSDJdW0NIMl0y

> <s_epik_cmdline>
J2VwaWtfcHl0aG9uJywgJy1waCcsICc3LjAnLCAnLXRuJywgJzgnLCAnLW1hJywgJzIwMCcsICctbWV0YWxfYmluZGluZycsICctaW1hZScsICc8aW5maWxlLm1hZT4nLCAnLW9tYWUnLCAnPG91dGZpbGUubWFlPic=

> <r_lp_tautomer_probability>
0.839158

> <r_epik_Ionization_Penalty>
0.000386947

> <r_epik_Ionization_Penalty_Charging>
0.000354181

> <r_epik_Ionization_Penalty_Neutral>
3.27662e-05

> <r_epik_State_Penalty>
0.0469431

> <r_epik_Charging_Adjusted_Penalty>
0.0472973

> <i_epik_Tot_Q>
0

> <i_epik_Tot_abs_Q>
0

> <r_epik_Metal_State_Penalty>
0.222645

> <b_epik_Metal_Only>
0

> <s_lp_Force_Field>
OPLS_2005

> <r_lp_Energy>
23.3957

> <b_lp_Chiralities_Consistent>
1

> <s_lp_Variant>
AV-unprocessed.smi:1361-1

> <Gold.Version>
5.8.1

> <Gold.Id.Protein>
6NUR|6NUR_protein|mol2

> <Gold.PLP.Fitness>
52.5375

> <Gold.PLP.PLP>
-45.5024

> <Gold.PLP.part.hbond>
-3.7499

> <Gold.PLP.part.metal>
0.0000

> <Gold.PLP.part.buried>
-4.5999

> <Gold.PLP.part.nonpolar>
-37.8742

> <Gold.PLP.part.repulsive>
0.4879

> <Gold.PLP.ligand.clash>
0.0000

> <Gold.PLP.ligand.torsion>
0.1519

> <Gold.PLP.Chemscore.Hbond>
2.4320

> <Gold.PLP.Chemscore.CHOScore>
0.0000

> <Gold.PLP.Chemscore.Metal>
0.0000

> <Gold.Chemscore.Hbonds>
donor molecule, donor type, donor heavy atom, donor atom, acceptor molecule, acceptor atom, score
      L1  H    10    31       P1  8028  1.00
      L1  H    21    22       P1  7957  0.59
      P1  H  8011  8017       L1    20  0.21

> <Gold.PLP.Chemscore.Internal.Correction>
0.0430

> <Gold.Rescore>
     Score         DG    S(hbond)    S(metal)    S(lipo)     H(rot)  DE(clash)    DE(int)     intcor
     20.76     -22.51       2.48        0.00     107.04       1.47       0.11       1.64       ----

> <Gold.Chemscore.Fitness>
20.7630

> <Gold.Chemscore.DG>
-22.5129

> <Gold.Chemscore.ZeroCoef>
-5.4800

> <Gold.Chemscore.Hbond>
2.4761

> <Gold.Chemscore.Metal>
0.0000

> <Gold.Chemscore.Lipo>
107.0384

> <Gold.Chemscore.Internal_Hbond>
0.0000

> <Gold.Chemscore.DEClash>
0.1111

> <Gold.Chemscore.DEInternal>
1.6388

> <Gold.Chemscore.Rot>
1.4690

> <Gold.Chemscore.Internal.Correction>
   9.000000E+99

> <Gold.Chemscore.Hbonds>
donor molecule, donor type, donor heavy atom, donor atom, acceptor molecule, acceptor atom, score
      L1  H    10    31       P1  8028  0.97
      L1  H    21    22       P1  7957  0.56
      P1  H  8011  8017       L1    20  0.08

> <Gold.Chemscore.Hbond.Weighted>
-8.2700

> <Gold.Chemscore.Metal.Weighted>
-0.0000

> <Gold.Chemscore.Lipo.Weighted>
-12.5235

> <Gold.Chemscore.Internal_Hbond.Weighted>
0.0000

> <Gold.Chemscore.DEClash.Weighted>
0.1111

> <Gold.Chemscore.DEInternal.Weighted>
1.6388

> <Gold.Chemscore.Rot.Weighted>
3.7607

> <Gold.Chemscore.Internal.Correction.Weighted>
   9.000000E+99

> <Gold.Protein.RotatedTorsions>
[ 6907 6896 6895 6894 ] final   -0.61 input  -60.11 | X-H torsion
[ 7974 7965 7964 7962 ] final   43.15 input  175.53 | X-H torsion
[ 8008 7997 7996 7995 ] final   85.94 input   59.86 | X-H torsion
[ 10167 10162 10161 10158 ] final -121.44 input  -65.29 | X-H torsion
[ 10718 10713 10712 10709 ] final -141.47 input   66.30 | X-H torsion
[ 10763 10752 10751 10750 ] final   -3.78 input  -60.55 | X-H torsion
[ 11005 11000 10999 10996 ] final -152.88 input  -57.11 | X-H torsion

> <Gold.Protein.ActiveResidues>
 VAL166  LYS551  ARG553  GLY616  TRP617  ASP618  TYR619  PRO620  LYS621  CYS622 
 ASP623  PHE694  ASN695  SER759  ASP760  ASP761  ALA762  ILE779  LEU786  VAL792 
 PHE793  MET794  SER795  GLU796  ALA797  LYS798  CYS799  TRP800  GLU811  SER814 

> <Gold.Protein.RotatedAtoms>
  151.5595  135.1066  159.9968 H   0  0  0  0  0  0  0  0  0  0  0  0  # atno 6907 bound_to 6896
  152.4453  133.7521  159.6710 H   0  0  0  0  0  0  0  0  0  0  0  0  # atno 6908 bound_to 6896
  150.8367  133.7933  159.3100 H   0  0  0  0  0  0  0  0  0  0  0  0  # atno 6909 bound_to 6896
  146.0680  139.5219  142.9616 H   0  0  0  0  0  0  0  0  0  0  0  0  # atno 7974 bound_to 7965
  155.9565  140.3397  155.6453 H   0  0  0  0  0  0  0  0  0  0  0  0  # atno 8008 bound_to 7997
  155.6853  140.0742  157.2487 H   0  0  0  0  0  0  0  0  0  0  0  0  # atno 8009 bound_to 7997
  154.4133  140.1667  156.2015 H   0  0  0  0  0  0  0  0  0  0  0  0  # atno 8010 bound_to 7997
  140.0250  143.5306  152.2203 H   0  0  0  0  0  0  0  0  0  0  0  0  # atno 10167 bound_to 10162
  156.3344  130.7603  151.1728 H   0  0  0  0  0  0  0  0  0  0  0  0  # atno 10718 bound_to 10713
  153.3760  135.6996  153.6601 H   0  0  0  0  0  0  0  0  0  0  0  0  # atno 10763 bound_to 10752
  153.5232  135.3607  155.2642 H   0  0  0  0  0  0  0  0  0  0  0  0  # atno 10764 bound_to 10752
  154.8687  135.4163  154.3048 H   0  0  0  0  0  0  0  0  0  0  0  0  # atno 10765 bound_to 10752
  140.7141  134.3799  157.5193 H   0  0  0  0  0  0  0  0  0  0  0  0  # atno 11005 bound_to 11000
  145.6442  141.0277  143.1795 LP  0  0  0  0  0  0  0  0  0  0  0  0  # atno 17320 bound_to 7965
  144.7214  139.8017  143.7380 LP  0  0  0  0  0  0  0  0  0  0  0  0  # atno 17321 bound_to 7965
  139.6114  144.7609  151.2943 LP  0  0  0  0  0  0  0  0  0  0  0  0  # atno 17342 bound_to 10162
  140.7326  143.6817  150.7995 LP  0  0  0  0  0  0  0  0  0  0  0  0  # atno 17343 bound_to 10162
  157.7436  131.0472  150.4933 LP  0  0  0  0  0  0  0  0  0  0  0  0  # atno 17370 bound_to 10713
  156.5103  130.4138  149.6304 LP  0  0  0  0  0  0  0  0  0  0  0  0  # atno 17371 bound_to 10713
  139.8864  134.8910  156.2587 LP  0  0  0  0  0  0  0  0  0  0  0  0  # atno 17394 bound_to 11000
  141.0059  133.7124  156.1034 LP  0  0  0  0  0  0  0  0  0  0  0  0  # atno 17395 bound_to 11000

$$$$
