AV-unprocessed.smi:1864|AV-procd|sdf|7552|dock10
  -GOLD-   22720 9273D 1   1.00000     0.00000
 Structure written by MMmdl.
 34 35  0  0  0  0  0  0  0  0  1 V2000
  145.3897  135.4103  150.7847 C   0  0  0  0  0  0  0  0  0  0  0  0
  145.7047  136.7345  151.3915 C   0  0  0  0  0  0  0  0  0  0  0  0
  145.4983  136.9627  152.6825 N   0  0  0  0  0  0  0  0  0  0  0  0
  145.9200  138.2900  152.8474 O   0  0  0  0  0  0  0  0  0  0  0  0
  146.3153  138.7074  151.6207 C   0  0  0  0  0  0  0  0  0  0  0  0
  146.8726  140.0835  151.4718 C   0  0  0  0  0  0  0  0  0  0  0  0
  146.8836  140.8565  152.8000 C   0  0  0  0  0  0  0  0  0  0  0  0
  148.0969  140.5960  153.5662 N   0  0  0  0  0  0  0  0  0  0  0  0
  148.8224  141.5290  154.2093 C   0  0  0  0  0  0  0  0  0  0  0  0
  148.5270  142.7244  154.2071 O   0  0  0  0  0  0  0  0  0  0  0  0
  150.0218  141.0353  154.9380 C   0  0  0  0  0  0  0  0  0  0  0  0
  150.7621  140.1074  154.4167 N   0  0  0  0  0  0  0  0  0  0  0  0
  151.8897  139.6271  155.0514 N   0  0  0  0  0  0  0  0  0  0  0  0
  152.7529  138.7911  154.2194 C   0  0  0  0  0  0  0  0  0  0  0  0
  152.1991  139.8558  156.3522 C   0  0  0  0  0  0  0  0  0  0  0  0
  153.2149  139.4274  156.8996 O   0  0  0  0  0  0  0  0  0  0  0  0
  151.1861  140.6712  157.1611 C   0  0  0  0  0  0  0  0  0  0  0  0
  150.3834  141.6466  156.2772 C   0  0  0  0  0  0  0  0  0  0  0  0
  146.2198  137.7732  150.6777 N   0  0  0  0  0  0  0  0  0  0  0  0
  144.3300  135.1832  150.9030 H   0  0  0  0  0  0  0  0  0  0  0  0
  145.9704  134.6251  151.2693 H   0  0  0  0  0  0  0  0  0  0  0  0
  145.6263  135.4070  149.7203 H   0  0  0  0  0  0  0  0  0  0  0  0
  147.8849  140.0077  151.0727 H   0  0  0  0  0  0  0  0  0  0  0  0
  146.2814  140.6156  150.7255 H   0  0  0  0  0  0  0  0  0  0  0  0
  146.7769  141.9277  152.6205 H   0  0  0  0  0  0  0  0  0  0  0  0
  146.0300  140.5575  153.4094 H   0  0  0  0  0  0  0  0  0  0  0  0
  148.4084  139.6366  153.6184 H   0  0  0  0  0  0  0  0  0  0  0  0
  153.7569  139.2142  154.1603 H   0  0  0  0  0  0  0  0  0  0  0  0
  152.3744  138.6988  153.1998 H   0  0  0  0  0  0  0  0  0  0  0  0
  152.8291  137.7848  154.6341 H   0  0  0  0  0  0  0  0  0  0  0  0
  150.5064  139.9655  157.6402 H   0  0  0  0  0  0  0  0  0  0  0  0
  151.6923  141.2128  157.9610 H   0  0  0  0  0  0  0  0  0  0  0  0
  150.9587  142.5582  156.1118 H   0  0  0  0  0  0  0  0  0  0  0  0
  149.4852  141.9441  156.8200 H   0  0  0  0  0  0  0  0  0  0  0  0
  1  2  1  0  0  0  0
  1 20  1  0  0  0  0
  1 21  1  0  0  0  0
  1 22  1  0  0  0  0
  2 19  1  0  0  0  0
  2  3  2  0  0  0  0
  3  4  1  0  0  0  0
  4  5  1  0  0  0  0
  5  6  1  0  0  0  0
  5 19  2  0  0  0  0
  6  7  1  0  0  0  0
  6 23  1  0  0  0  0
  6 24  1  0  0  0  0
  7  8  1  0  0  0  0
  7 25  1  0  0  0  0
  7 26  1  0  0  0  0
  8  9  1  0  0  0  0
  8 27  1  0  0  0  0
  9 10  2  0  0  0  0
  9 11  1  0  0  0  0
 11 18  1  0  0  0  0
 11 12  2  0  0  0  0
 12 13  1  0  0  0  0
 13 14  1  0  0  0  0
 13 15  1  0  0  0  0
 14 28  1  0  0  0  0
 14 29  1  0  0  0  0
 14 30  1  0  0  0  0
 15 16  2  0  0  0  0
 15 17  1  0  0  0  0
 17 18  1  0  0  0  0
 17 31  1  0  0  0  0
 17 32  1  0  0  0  0
 18 33  1  0  0  0  0
 18 34  1  0  0  0  0
M  END
> <s_m_source_file>
AV-unprocessed.smi

> <i_m_source_file_index>
1864

> <i_lp_mmshare_version>
43012

> <i_f3d_flags>
0

> <s_epik_input>
W0NIM11jMW5vYyhuMSlbQ0gyXVtDSDJdW05IXUMoPU8pQzI9Tk4oW0NIM10pQyg9TylbQ0gyXVtDSDJdMg==

> <s_epik_cmdline>
J2VwaWtfcHl0aG9uJywgJy1waCcsICc3LjAnLCAnLXRuJywgJzgnLCAnLW1hJywgJzIwMCcsICctbWV0YWxfYmluZGluZycsICctaW1hZScsICc8aW5maWxlLm1hZT4nLCAnLW9tYWUnLCAnPG91dGZpbGUubWFlPic=

> <r_lp_tautomer_probability>
1

> <r_epik_Ionization_Penalty>
0.00011851

> <r_epik_Ionization_Penalty_Charging>
0

> <r_epik_Ionization_Penalty_Neutral>
0.00011851

> <r_epik_State_Penalty>
-0

> <r_epik_Charging_Adjusted_Penalty>
0

> <i_epik_Tot_Q>
0

> <i_epik_Tot_abs_Q>
0

> <r_epik_Metal_State_Penalty>
0.091363

> <b_epik_Metal_Only>
0

> <s_epik_Chemistry_Notes>
This compound has an imine and may undergo hydrolysis.

> <s_lp_Force_Field>
OPLS_2005

> <r_lp_Energy>
12.468

> <b_lp_Chiralities_Consistent>
1

> <s_lp_Variant>
AV-unprocessed.smi:1864-1

> <Gold.Version>
5.8.1

> <Gold.Id.Protein>
6NUR|6NUR_protein|mol2

> <Gold.PLP.Fitness>
39.6870

> <Gold.PLP.PLP>
-30.4912

> <Gold.PLP.part.hbond>
-5.6133

> <Gold.PLP.part.metal>
0.0000

> <Gold.PLP.part.buried>
2.9812

> <Gold.PLP.part.nonpolar>
-33.3094

> <Gold.PLP.part.repulsive>
7.5535

> <Gold.PLP.ligand.clash>
0.0000

> <Gold.PLP.ligand.torsion>
0.8609

> <Gold.PLP.Chemscore.Hbond>
3.6347

> <Gold.PLP.Chemscore.CHOScore>
0.0000

> <Gold.PLP.Chemscore.Metal>
0.0000

> <Gold.Chemscore.Hbonds>
donor molecule, donor type, donor heavy atom, donor atom, acceptor molecule, acceptor atom, score
      P1  H  7954  7966       L1    19  0.82
      P1  H  7989  7998       L1    12  0.39
      P1  H  7997  8008       L1    16  0.62
      P1  H  8022  8030       L1    10  0.78

> <Gold.PLP.Chemscore.Internal.Correction>
0.0135

> <Gold.Rescore>
     Score         DG    S(hbond)    S(metal)    S(lipo)     H(rot)  DE(clash)    DE(int)     intcor
      9.28     -15.87       2.58        0.00      54.52       1.80       5.74       0.84       ----

> <Gold.Chemscore.Fitness>
9.2832

> <Gold.Chemscore.DG>
-15.8662

> <Gold.Chemscore.ZeroCoef>
-5.4800

> <Gold.Chemscore.Hbond>
2.5821

> <Gold.Chemscore.Metal>
0.0000

> <Gold.Chemscore.Lipo>
54.5188

> <Gold.Chemscore.Internal_Hbond>
0.0000

> <Gold.Chemscore.DEClash>
5.7447

> <Gold.Chemscore.DEInternal>
0.8383

> <Gold.Chemscore.Rot>
1.8034

> <Gold.Chemscore.Internal.Correction>
   9.000000E+99

> <Gold.Chemscore.Hbonds>
donor molecule, donor type, donor heavy atom, donor atom, acceptor molecule, acceptor atom, score
      P1  H  7954  7966       L1    19  0.20
      P1  H  7989  7998       L1    12  0.01
      P1  H  7997  8008       L1    16  0.52
      P1  H  8022  8030       L1    10  0.76

> <Gold.Chemscore.Hbond.Weighted>
-8.6243

> <Gold.Chemscore.Metal.Weighted>
-0.0000

> <Gold.Chemscore.Lipo.Weighted>
-6.3787

> <Gold.Chemscore.Internal_Hbond.Weighted>
0.0000

> <Gold.Chemscore.DEClash.Weighted>
5.7447

> <Gold.Chemscore.DEInternal.Weighted>
0.8383

> <Gold.Chemscore.Rot.Weighted>
4.6167

> <Gold.Chemscore.Internal.Correction.Weighted>
   9.000000E+99

> <Gold.Protein.RotatedTorsions>
[ 6907 6896 6895 6894 ] final  178.20 input  -60.11 | X-H torsion
[ 7974 7965 7964 7962 ] final   84.86 input  175.53 | X-H torsion
[ 8008 7997 7996 7995 ] final  -51.27 input   59.86 | X-H torsion
[ 10167 10162 10161 10158 ] final  159.98 input  -65.29 | X-H torsion
[ 10718 10713 10712 10709 ] final  -26.39 input   66.30 | X-H torsion
[ 10763 10752 10751 10750 ] final -149.35 input  -60.55 | X-H torsion
[ 11005 11000 10999 10996 ] final   35.15 input  -57.11 | X-H torsion

> <Gold.Protein.ActiveResidues>
 VAL166  LYS551  ARG553  GLY616  TRP617  ASP618  TYR619  PRO620  LYS621  CYS622 
 ASP623  PHE694  ASN695  SER759  ASP760  ASP761  ALA762  ILE779  LEU786  VAL792 
 PHE793  MET794  SER795  GLU796  ALA797  LYS798  CYS799  TRP800  GLU811  SER814 

> <Gold.Protein.RotatedAtoms>
  151.6916  133.3311  159.3243 H   0  0  0  0  0  0  0  0  0  0  0  0  # atno 6907 bound_to 6896
  150.7776  134.6693  159.6392 H   0  0  0  0  0  0  0  0  0  0  0  0  # atno 6908 bound_to 6896
  152.3823  134.6574  160.0190 H   0  0  0  0  0  0  0  0  0  0  0  0  # atno 6909 bound_to 6896
  145.5932  139.2341  143.2287 H   0  0  0  0  0  0  0  0  0  0  0  0  # atno 7974 bound_to 7965
  154.4079  140.1252  156.4801 H   0  0  0  0  0  0  0  0  0  0  0  0  # atno 8008 bound_to 7997
  155.7093  140.3494  155.4947 H   0  0  0  0  0  0  0  0  0  0  0  0  # atno 8009 bound_to 7997
  155.9315  140.1070  157.1119 H   0  0  0  0  0  0  0  0  0  0  0  0  # atno 8010 bound_to 7997
  139.4836  144.4678  151.8617 H   0  0  0  0  0  0  0  0  0  0  0  0  # atno 10167 bound_to 10162
  156.4518  130.4485  149.6985 H   0  0  0  0  0  0  0  0  0  0  0  0  # atno 10718 bound_to 10713
  154.8182  135.3311  154.7116 H   0  0  0  0  0  0  0  0  0  0  0  0  # atno 10763 bound_to 10752
  153.7753  135.6922  153.4903 H   0  0  0  0  0  0  0  0  0  0  0  0  # atno 10764 bound_to 10752
  153.2017  135.4514  155.0222 H   0  0  0  0  0  0  0  0  0  0  0  0  # atno 10765 bound_to 10752
  140.2456  134.3364  155.7909 H   0  0  0  0  0  0  0  0  0  0  0  0  # atno 11005 bound_to 11000
  146.1631  140.6758  142.9268 LP  0  0  0  0  0  0  0  0  0  0  0  0  # atno 17320 bound_to 7965
  144.7342  140.4760  143.6916 LP  0  0  0  0  0  0  0  0  0  0  0  0  # atno 17321 bound_to 7965
  140.4145  144.2325  150.5888 LP  0  0  0  0  0  0  0  0  0  0  0  0  # atno 17342 bound_to 10162
  140.4934  143.2340  151.8785 LP  0  0  0  0  0  0  0  0  0  0  0  0  # atno 17343 bound_to 10162
  156.3808  130.7578  151.2570 LP  0  0  0  0  0  0  0  0  0  0  0  0  # atno 17370 bound_to 10713
  157.7502  131.0296  150.4100 LP  0  0  0  0  0  0  0  0  0  0  0  0  # atno 17371 bound_to 10713
  141.2206  133.7323  156.8954 LP  0  0  0  0  0  0  0  0  0  0  0  0  # atno 17394 bound_to 11000
  140.1610  134.9166  157.2714 LP  0  0  0  0  0  0  0  0  0  0  0  0  # atno 17395 bound_to 11000

$$$$
