AV-unprocessed.smi:544|AV-procd|sdf|2877|dock5
  -GOLD-   2262023373D 1   1.00000     0.00000
 Structure written by MMmdl.
 49 51  0  0  0  0  0  0  0  0  1 V2000
  148.9854  132.3640  153.4839 C   0  0  0  0  0  0  0  0  0  0  0  0
  148.7256  133.7523  154.0722 C   0  0  0  0  0  0  0  0  0  0  0  0
  149.1180  133.7474  155.4329 O   0  0  0  0  0  0  0  0  0  0  0  0
  148.5280  134.7925  156.1855 C   0  0  0  0  0  0  0  0  0  0  0  0
  148.9797  134.6946  157.6506 C   0  0  0  0  0  0  0  0  0  0  0  0
  149.4607  135.9700  158.1748 N   0  0  0  0  0  0  0  0  0  0  0  0
  149.0371  136.6437  159.2754 C   0  0  0  0  0  0  0  0  0  0  0  0
  148.0182  136.1427  160.0779 N   0  0  0  0  0  0  0  0  0  0  0  0
  146.8015  136.8732  160.4193 C   0  0  0  0  0  0  0  0  0  0  0  0
  146.5152  136.8119  161.9286 C   0  0  0  0  0  0  0  0  0  0  0  0
  146.4050  135.3534  162.3949 C   0  0  0  0  0  0  0  0  0  0  0  0
  147.6470  134.5563  161.9569 C   0  0  1  0  0  0  0  0  0  0  0  0
  147.5271  133.0731  162.3316 C   0  0  0  0  0  0  0  0  0  0  0  0
  147.8858  134.7355  160.4436 C   0  0  0  0  0  0  0  0  0  0  0  0
  149.6557  137.8055  159.4995 N   0  0  0  0  0  0  0  0  0  0  0  0
  150.5605  137.8773  158.4498 C   0  0  0  0  0  0  0  0  0  0  0  0
  150.4534  136.7913  157.6420 C   0  0  0  0  0  0  0  0  0  0  0  0
  151.2775  136.6166  156.4402 C   0  0  0  0  0  0  0  0  0  0  0  0
  151.1912  135.6425  155.6956 O   0  0  0  0  0  0  0  0  0  0  0  0
  152.1375  137.6433  156.2330 N   0  0  0  0  0  0  0  0  0  0  0  0
  152.2947  138.7644  157.0015 C   0  0  0  0  0  0  0  0  0  0  0  0
  153.1129  139.6236  156.6739 O   0  0  0  0  0  0  0  0  0  0  0  0
  151.5147  138.8829  158.1240 N   0  0  0  0  0  0  0  0  0  0  0  0
  151.6385  140.0586  158.9876 C   0  0  0  0  0  0  0  0  0  0  0  0
  152.7257  137.5760  155.4153 H   0  0  0  0  0  0  0  0  0  0  0  0
  148.6964  132.3254  152.4337 H   0  0  0  0  0  0  0  0  0  0  0  0
  148.4175  131.6010  154.0169 H   0  0  0  0  0  0  0  0  0  0  0  0
  150.0419  132.1032  153.5507 H   0  0  0  0  0  0  0  0  0  0  0  0
  149.2904  134.5039  153.5191 H   0  0  0  0  0  0  0  0  0  0  0  0
  147.6672  134.0016  153.9864 H   0  0  0  0  0  0  0  0  0  0  0  0
  148.8145  135.7560  155.7627 H   0  0  0  0  0  0  0  0  0  0  0  0
  147.4406  134.7247  156.1317 H   0  0  0  0  0  0  0  0  0  0  0  0
  148.1600  134.3442  158.2774 H   0  0  0  0  0  0  0  0  0  0  0  0
  149.7634  133.9441  157.7445 H   0  0  0  0  0  0  0  0  0  0  0  0
  146.8934  137.9094  160.0947 H   0  0  0  0  0  0  0  0  0  0  0  0
  145.9649  136.4508  159.8613 H   0  0  0  0  0  0  0  0  0  0  0  0
  147.3126  137.3150  162.4766 H   0  0  0  0  0  0  0  0  0  0  0  0
  145.5949  137.3499  162.1570 H   0  0  0  0  0  0  0  0  0  0  0  0
  146.2886  135.3144  163.4784 H   0  0  0  0  0  0  0  0  0  0  0  0
  145.5076  134.9038  161.9671 H   0  0  0  0  0  0  0  0  0  0  0  0
  148.5115  134.9602  162.4856 H   0  0  0  0  0  0  0  0  0  0  0  0
  146.6792  132.6053  161.8303 H   0  0  0  0  0  0  0  0  0  0  0  0
  147.3901  132.9491  163.4062 H   0  0  0  0  0  0  0  0  0  0  0  0
  148.4252  132.5239  162.0479 H   0  0  0  0  0  0  0  0  0  0  0  0
  147.0673  134.2946  159.8734 H   0  0  0  0  0  0  0  0  0  0  0  0
  148.7919  134.2053  160.1472 H   0  0  0  0  0  0  0  0  0  0  0  0
  152.6845  140.2932  159.1900 H   0  0  0  0  0  0  0  0  0  0  0  0
  151.1551  139.9142  159.9536 H   0  0  0  0  0  0  0  0  0  0  0  0
  151.1800  140.9258  158.5116 H   0  0  0  0  0  0  0  0  0  0  0  0
  1  2  1  0  0  0  0
  1 26  1  0  0  0  0
  1 27  1  0  0  0  0
  1 28  1  0  0  0  0
  2  3  1  0  0  0  0
  2 29  1  0  0  0  0
  2 30  1  0  0  0  0
  3  4  1  0  0  0  0
  4  5  1  0  0  0  0
  4 31  1  0  0  0  0
  4 32  1  0  0  0  0
  5  6  1  0  0  0  0
  5 33  1  0  0  0  0
  5 34  1  0  0  0  0
  6 17  1  0  0  0  0
  6  7  1  0  0  0  0
  7  8  1  0  0  0  0
  7 15  2  0  0  0  0
  8 14  1  0  0  0  0
  8  9  1  0  0  0  0
  9 10  1  0  0  0  0
  9 35  1  0  0  0  0
  9 36  1  0  0  0  0
 10 11  1  0  0  0  0
 10 37  1  0  0  0  0
 10 38  1  0  0  0  0
 11 12  1  0  0  0  0
 11 39  1  0  0  0  0
 11 40  1  0  0  0  0
 12 13  1  0  0  0  0
 12 14  1  0  0  0  0
 12 41  1  0  0  0  0
 13 42  1  0  0  0  0
 13 43  1  0  0  0  0
 13 44  1  0  0  0  0
 14 45  1  0  0  0  0
 14 46  1  0  0  0  0
 15 16  1  0  0  0  0
 16 23  1  0  0  0  0
 16 17  2  0  0  0  0
 17 18  1  0  0  0  0
 18 19  2  0  0  0  0
 18 20  1  0  0  0  0
 20 25  1  0  0  0  0
 20 21  1  0  0  0  0
 21 22  2  0  0  0  0
 21 23  1  0  0  0  0
 23 24  1  0  0  0  0
 24 47  1  0  0  0  0
 24 48  1  0  0  0  0
 24 49  1  0  0  0  0
M  END
> <s_m_source_file>
AV-unprocessed.smi

> <i_m_source_file_index>
544

> <i_lp_mmshare_version>
43012

> <i_f3d_flags>
0

> <s_epik_input>
W0NIM11uMWMoPU8pW25IXWMoPU8pYyhjMTIpbihbQ0gyXVtDSDJdT1tDSDJdW0NIM10pYyhuMilOM1tDSDJdW0NIMl1bQ0gyXVtDQEBIXShbQ0gzXSlbQ0gyXTM=

> <s_epik_cmdline>
J2VwaWtfcHl0aG9uJywgJy1waCcsICc3LjAnLCAnLXRuJywgJzgnLCAnLW1hJywgJzIwMCcsICctbWV0YWxfYmluZGluZycsICctaW1hZScsICc8aW5maWxlLm1hZT4nLCAnLW9tYWUnLCAnPG91dGZpbGUubWFlPic=

> <r_lp_tautomer_probability>
1

> <r_epik_Ionization_Penalty>
0.000382477

> <r_epik_Ionization_Penalty_Charging>
0.000119472

> <r_epik_Ionization_Penalty_Neutral>
0.000263005

> <r_epik_State_Penalty>
-0

> <r_epik_Charging_Adjusted_Penalty>
0.000119472

> <i_epik_Tot_Q>
0

> <i_epik_Tot_abs_Q>
0

> <r_epik_Metal_State_Penalty>
0.0919313

> <b_epik_Metal_Only>
0

> <s_lp_Force_Field>
OPLS_2005

> <r_lp_Energy>
37.8306

> <b_lp_Chiralities_Consistent>
1

> <s_lp_Variant>
AV-unprocessed.smi:544-1

> <Gold.Version>
5.8.1

> <Gold.Id.Protein>
6NUR|6NUR_protein|mol2

> <Gold.PLP.Fitness>
37.2074

> <Gold.PLP.PLP>
-32.8019

> <Gold.PLP.part.hbond>
-2.8987

> <Gold.PLP.part.metal>
0.0000

> <Gold.PLP.part.buried>
-5.2668

> <Gold.PLP.part.nonpolar>
-25.5003

> <Gold.PLP.part.repulsive>
0.2268

> <Gold.PLP.ligand.clash>
0.0039

> <Gold.PLP.ligand.torsion>
1.2787

> <Gold.PLP.Chemscore.Hbond>
2.0000

> <Gold.PLP.Chemscore.CHOScore>
0.0000

> <Gold.PLP.Chemscore.Metal>
0.0000

> <Gold.Chemscore.Hbonds>
donor molecule, donor type, donor heavy atom, donor atom, acceptor molecule, acceptor atom, score
      P1  H  7997  8009       L1    22  0.52
      P1  H 10752 10764       L1    19  1.00

> <Gold.PLP.Chemscore.Internal.Correction>
0.9668

> <Gold.Rescore>
     Score         DG    S(hbond)    S(metal)    S(lipo)     H(rot)  DE(clash)    DE(int)     intcor
     13.47     -15.62       2.04        0.00      63.11       1.58       0.03       2.12       ----

> <Gold.Chemscore.Fitness>
13.4713

> <Gold.Chemscore.DG>
-15.6217

> <Gold.Chemscore.ZeroCoef>
-5.4800

> <Gold.Chemscore.Hbond>
2.0373

> <Gold.Chemscore.Metal>
0.0000

> <Gold.Chemscore.Lipo>
63.1053

> <Gold.Chemscore.Internal_Hbond>
0.0000

> <Gold.Chemscore.DEClash>
0.0327

> <Gold.Chemscore.DEInternal>
2.1177

> <Gold.Chemscore.Rot>
1.5806

> <Gold.Chemscore.Internal.Correction>
   9.000000E+99

> <Gold.Chemscore.Hbonds>
donor molecule, donor type, donor heavy atom, donor atom, acceptor molecule, acceptor atom, score
      P1  H  7997  8009       L1    22  0.52
      P1  H 10752 10764       L1    19  0.43

> <Gold.Chemscore.Hbond.Weighted>
-6.8046

> <Gold.Chemscore.Metal.Weighted>
-0.0000

> <Gold.Chemscore.Lipo.Weighted>
-7.3833

> <Gold.Chemscore.Internal_Hbond.Weighted>
0.0000

> <Gold.Chemscore.DEClash.Weighted>
0.0327

> <Gold.Chemscore.DEInternal.Weighted>
2.1177

> <Gold.Chemscore.Rot.Weighted>
4.0463

> <Gold.Chemscore.Internal.Correction.Weighted>
   9.000000E+99

> <Gold.Protein.RotatedTorsions>
[ 6907 6896 6895 6894 ] final  155.00 input  -60.11 | X-H torsion
[ 7974 7965 7964 7962 ] final -104.88 input  175.53 | X-H torsion
[ 8008 7997 7996 7995 ] final  179.54 input   59.86 | X-H torsion
[ 10167 10162 10161 10158 ] final  -77.60 input  -65.29 | X-H torsion
[ 10718 10713 10712 10709 ] final   32.86 input   66.30 | X-H torsion
[ 10763 10752 10751 10750 ] final  -42.60 input  -60.55 | X-H torsion
[ 11005 11000 10999 10996 ] final   87.92 input  -57.11 | X-H torsion

> <Gold.Protein.ActiveResidues>
 VAL166  LYS551  ARG553  GLY616  TRP617  ASP618  TYR619  PRO620  LYS621  CYS622 
 ASP623  PHE694  ASN695  SER759  ASP760  ASP761  ALA762  ILE779  LEU786  VAL792 
 PHE793  MET794  SER795  GLU796  ALA797  LYS798  CYS799  TRP800  GLU811  SER814 

> <Gold.Protein.RotatedAtoms>
  152.0504  133.4016  159.4374 H   0  0  0  0  0  0  0  0  0  0  0  0  # atno 6907 bound_to 6896
  150.6870  134.3314  159.4838 H   0  0  0  0  0  0  0  0  0  0  0  0  # atno 6908 bound_to 6896
  152.1124  134.9265  160.0617 H   0  0  0  0  0  0  0  0  0  0  0  0  # atno 6909 bound_to 6896
  145.2375  140.9193  143.3169 H   0  0  0  0  0  0  0  0  0  0  0  0  # atno 7974 bound_to 7965
  156.0422  140.1306  157.0143 H   0  0  0  0  0  0  0  0  0  0  0  0  # atno 8008 bound_to 7997
  154.4396  140.1028  156.6324 H   0  0  0  0  0  0  0  0  0  0  0  0  # atno 8009 bound_to 7997
  155.5650  140.3465  155.4503 H   0  0  0  0  0  0  0  0  0  0  0  0  # atno 8010 bound_to 7997
  140.4756  143.2415  151.8138 H   0  0  0  0  0  0  0  0  0  0  0  0  # atno 10167 bound_to 10162
  157.2906  130.7301  149.6608 H   0  0  0  0  0  0  0  0  0  0  0  0  # atno 10718 bound_to 10713
  153.9817  135.6716  153.4750 H   0  0  0  0  0  0  0  0  0  0  0  0  # atno 10763 bound_to 10752
  153.0745  135.4956  154.8373 H   0  0  0  0  0  0  0  0  0  0  0  0  # atno 10764 bound_to 10752
  154.7161  135.3107  154.9083 H   0  0  0  0  0  0  0  0  0  0  0  0  # atno 10765 bound_to 10752
  139.8908  134.8454  156.2928 H   0  0  0  0  0  0  0  0  0  0  0  0  # atno 11005 bound_to 11000
  144.9620  139.3970  143.6351 LP  0  0  0  0  0  0  0  0  0  0  0  0  # atno 17320 bound_to 7965
  146.3337  139.8677  142.8845 LP  0  0  0  0  0  0  0  0  0  0  0  0  # atno 17321 bound_to 7965
  139.4825  144.4837  151.9274 LP  0  0  0  0  0  0  0  0  0  0  0  0  # atno 17342 bound_to 10162
  140.3923  144.2600  150.5899 LP  0  0  0  0  0  0  0  0  0  0  0  0  # atno 17343 bound_to 10162
  155.9667  130.4310  150.4901 LP  0  0  0  0  0  0  0  0  0  0  0  0  # atno 17370 bound_to 10713
  157.2862  131.0617  151.2164 LP  0  0  0  0  0  0  0  0  0  0  0  0  # atno 17371 bound_to 10713
  140.9965  133.7177  156.0894 LP  0  0  0  0  0  0  0  0  0  0  0  0  # atno 17394 bound_to 11000
  140.7555  134.3997  157.5534 LP  0  0  0  0  0  0  0  0  0  0  0  0  # atno 17395 bound_to 11000

$$$$
