#       Name:                AV-unprocessed.smi:2336
#       Creating user name   scv26
#       Creation time:       Fri Mar 27 12:55:09 2020


#       File generated by GOLD software.
#

@<TRIPOS>MOLECULE
AV-unprocessed.smi:2336
    54    55     1
SMALL
NO_CHARGES


@<TRIPOS>ATOM
      1 ****        -3.8694  -0.3275  -2.3791 C.3            1 S1                 0.0000
      2 ****        -3.4458   0.5266  -1.1671 C.3            1 S1                 0.0000
      3 ****        -4.1461   1.8961  -1.2593 C.3            1 S1                 0.0000
      4 ****        -1.8974   0.6426  -1.0434 C.3            1 S1                 0.0000
      5 ****        -1.4599   1.5105   0.1730 C.3            1 S1                 0.0000
      6 ****        -0.0154   1.7130   0.2524 N.am           1 S1                 0.0000
      7 ****         0.7577   1.4469   1.3155 C.2            1 S1                 0.0000
      8 ****         0.3228   1.0077   2.3794 O.2            1 S1                 0.0000
      9 ****         2.0465   1.7256   1.0573 N.am           1 S1                 0.0000
     10 ****         3.1855   1.5297   1.8862 C.ar           1 S1                 0.0000
     11 ****         3.2266   0.6376   2.9853 C.ar           1 S1                 0.0000
     12 ****         4.4270   0.5220   3.7153 C.ar           1 S1                 0.0000
     13 ****         5.5482   1.2123   3.4185 N.ar           1 S1                 0.0000
     14 ****         5.5094   2.0514   2.3620 C.ar           1 S1                 0.0000
     15 ****         4.3617   2.2400   1.5659 C.ar           1 S1                 0.0000
     16 ****         4.3917   3.0929   0.5134 F              1 S1                 0.0000
     17 ****        -1.2800  -0.7216  -1.0737 N.4            1 S1                 1.0000
     18 ****        -1.3060  -1.4848   0.2002 C.3            1 S1                 0.0000
     19 ****        -0.8763  -2.9456  -0.0450 C.3            1 S1                 0.0000
     20 ****         0.4445  -3.0345  -0.6711 N.3            1 S1                 0.0000
     21 ****         1.5323  -2.6629   0.2277 C.3            1 S1                 0.0000
     22 ****         0.4531  -2.2824  -1.9273 C.3            1 S1                 0.0000
     23 ****         0.0524  -0.8068  -1.7239 C.3            1 S1                 0.0000
     24 ****        -3.4808   0.0852  -3.3106 H              1 S1                 0.0000
     25 ****        -4.9555  -0.3727  -2.4668 H              1 S1                 0.0000
     26 ****        -3.5206  -1.3570  -2.2978 H              1 S1                 0.0000
     27 ****        -3.8299   0.0345  -0.2730 H              1 S1                 0.0000
     28 ****        -3.7437   2.4948  -2.0771 H              1 S1                 0.0000
     29 ****        -4.0479   2.4701  -0.3387 H              1 S1                 0.0000
     30 ****        -5.2160   1.7781  -1.4343 H              1 S1                 0.0000
     31 ****        -1.5629   1.1612  -1.9434 H              1 S1                 0.0000
     32 ****        -1.8821   2.5107   0.0921 H              1 S1                 0.0000
     33 ****        -1.8625   1.0948   1.0980 H              1 S1                 0.0000
     34 ****         0.4325   2.0894  -0.5706 H              1 S1                 0.0000
     35 ****         2.2367   2.1691   0.1703 H              1 S1                 0.0000
     36 ****         2.3784   0.0371   3.2749 H              1 S1                 0.0000
     37 ****         4.4898  -0.1503   4.5581 H              1 S1                 0.0000
     38 ****         6.4214   2.5867   2.1425 H              1 S1                 0.0000
     39 ****        -0.6619  -1.0259   0.9466 H              1 S1                 0.0000
     40 ****        -2.3138  -1.4767   0.6143 H              1 S1                 0.0000
     41 ****        -0.8758  -3.5041   0.8919 H              1 S1                 0.0000
     42 ****        -1.6023  -3.4349  -0.6958 H              1 S1                 0.0000
     43 ****         2.4940  -2.8072  -0.2657 H              1 S1                 0.0000
     44 ****         1.5195  -3.2949   1.1163 H              1 S1                 0.0000
     45 ****         1.4744  -1.6249   0.5534 H              1 S1                 0.0000
     46 ****         1.4396  -2.3490  -2.3877 H              1 S1                 0.0000
     47 ****        -0.2426  -2.7568  -2.6208 H              1 S1                 0.0000
     48 ****         0.0152  -0.3159  -2.6968 H              1 S1                 0.0000
     49 ****         0.8134  -0.2885  -1.1446 H              1 S1                 0.0000
     50 ****        -1.8815  -1.2419  -1.6963 H              1 S1                 0.0000
     51 ****        -0.6557   0.8305   2.4845 LP             1 S1                 0.0000
     52 ****         0.9479   0.8280   3.1390 LP             1 S1                 0.0000
     53 ****         6.3800   1.1056   3.9632 LP             1 S1                 0.0000
     54 ****         0.6191  -3.9954  -0.8862 LP             1 S1                 0.0000
@<TRIPOS>BOND
    1    1    2 1     
    2    1   24 1     
    3    1   25 1     
    4    1   26 1     
    5    2    3 1     
    6    2    4 1     
    7    2   27 1     
    8    3   28 1     
    9    3   29 1     
   10    3   30 1     
   11    4    5 1     
   12    4   17 1     
   13    4   31 1     
   14    5    6 1     
   15    5   32 1     
   16    5   33 1     
   17    6    7 am    
   18    6   34 1     
   19    7    8 2     
   20    7    9 am    
   21    9   10 1     
   22    9   35 1     
   23   10   15 ar    
   24   10   11 ar    
   25   11   12 ar    
   26   11   36 1     
   27   12   13 ar    
   28   12   37 1     
   29   13   14 ar    
   30   14   15 ar    
   31   14   38 1     
   32   15   16 1     
   33   17   23 1     
   34   17   18 1     
   35   17   50 1     
   36   18   19 1     
   37   18   39 1     
   38   18   40 1     
   39   19   20 1     
   40   19   41 1     
   41   19   42 1     
   42   20   21 1     
   43   20   22 1     
   44   21   43 1     
   45   21   44 1     
   46   21   45 1     
   47   22   23 1     
   48   22   46 1     
   49   22   47 1     
   50   23   48 1     
   51   23   49 1     
   52    8   51 1     
   53    8   52 1     
   54   13   53 1     
   55   20   54 1     
@<TRIPOS>SUBSTRUCTURE
      1 S1             1
@<TRIPOS>SET
LONE_PAIRS      STATIC     ATOMS    <user>   **** ""
4 51 52 53 54
DONOR_HYDROGENS      STATIC     ATOMS    <user>   **** ""
3 34 35 50
ATOM$BLUE        STATIC     ATOMS    COLORGROUP SYSTEM
4 51 52 53 54
ATOM$RED        STATIC     ATOMS    COLORGROUP SYSTEM
3 34 35 50
