AV-unprocessed.smi:197|AV-procd|sdf|1550|dock6
  -GOLD-   2262019413D 1   1.00000     0.00000
 Structure written by MMmdl.
 54 57  0  0  0  0  0  0  0  0  1 V2000
  152.9963  138.7627  154.8015 C   0  0  0  0  0  0  0  0  0  0  0  0
  151.6879  138.6632  155.3441 O   0  0  0  0  0  0  0  0  0  0  0  0
  150.8755  137.6599  154.7463 C   0  0  0  0  0  0  0  0  0  0  0  0
  149.3733  137.9183  154.9663 C   0  0  0  0  0  0  0  0  0  0  0  0
  148.8236  139.1369  154.1773 C   0  0  2  0  0  0  0  0  0  0  0  0
  149.6044  140.4243  154.5302 C   0  0  0  0  0  0  0  0  0  0  0  0
  149.0791  141.5372  153.8153 O   0  0  0  0  0  0  0  0  0  0  0  0
  147.7193  141.7854  154.1462 C   0  0  0  0  0  0  0  0  0  0  0  0
  146.8793  140.5624  153.7554 C   0  0  0  0  0  0  0  0  0  0  0  0
  147.3918  139.3662  154.4137 N   0  0  0  0  0  0  0  0  0  0  0  0
  146.5794  138.3093  154.1866 C   0  0  0  0  0  0  0  0  0  0  0  0
  146.0376  137.7047  155.2720 N   0  0  0  0  0  0  0  0  0  0  0  0
  145.2638  136.6260  155.1179 C   0  0  0  0  0  0  0  0  0  0  0  0
  144.9176  136.0002  153.9908 N   0  0  0  0  0  0  0  0  0  0  0  0
  145.4527  136.6146  152.8967 C   0  0  0  0  0  0  0  0  0  0  0  0
  146.2773  137.7740  152.9018 C   0  0  0  0  0  0  0  0  0  0  0  0
  146.6167  138.1194  151.5992 N   0  0  0  0  0  0  0  0  0  0  0  0
  146.0413  137.2061  150.8671 C   0  0  0  0  0  0  0  0  0  0  0  0
  145.3356  136.2527  151.5659 N   0  0  0  0  0  0  0  0  0  0  0  0
  144.6205  135.1145  151.0098 C   0  0  0  0  0  0  0  0  0  0  0  0
  144.9235  133.7815  151.7445 C   0  0  2  0  0  0  0  0  0  0  0  0
  144.2401  133.7992  152.9868 O   0  0  0  0  0  0  0  0  0  0  0  0
  146.4073  133.5675  152.0349 C   0  0  0  0  0  0  0  0  0  0  0  0
  146.5413  132.0528  152.0419 C   0  0  0  0  0  0  0  0  0  0  0  0
  145.6942  131.6689  150.9738 O   0  0  0  0  0  0  0  0  0  0  0  0
  144.5199  132.4760  151.0018 C   0  0  2  0  0  0  0  0  0  0  0  0
  144.0237  132.6263  149.5553 C   0  0  0  0  0  0  0  0  0  0  0  0
  153.5577  139.5193  155.3495 H   0  0  0  0  0  0  0  0  0  0  0  0
  152.9857  139.0613  153.7539 H   0  0  0  0  0  0  0  0  0  0  0  0
  153.5341  137.8180  154.8898 H   0  0  0  0  0  0  0  0  0  0  0  0
  151.0965  137.5828  153.6808 H   0  0  0  0  0  0  0  0  0  0  0  0
  151.1545  136.6998  155.1786 H   0  0  0  0  0  0  0  0  0  0  0  0
  148.8410  137.0043  154.7086 H   0  0  0  0  0  0  0  0  0  0  0  0
  149.1828  138.0624  156.0303 H   0  0  0  0  0  0  0  0  0  0  0  0
  148.9594  138.9536  153.1117 H   0  0  0  0  0  0  0  0  0  0  0  0
  149.5673  140.6238  155.6025 H   0  0  0  0  0  0  0  0  0  0  0  0
  150.6557  140.3240  154.2629 H   0  0  0  0  0  0  0  0  0  0  0  0
  147.6220  142.0037  155.2110 H   0  0  0  0  0  0  0  0  0  0  0  0
  147.3757  142.6671  153.6050 H   0  0  0  0  0  0  0  0  0  0  0  0
  145.8375  140.7261  154.0352 H   0  0  0  0  0  0  0  0  0  0  0  0
  146.9054  140.4277  152.6730 H   0  0  0  0  0  0  0  0  0  0  0  0
  144.8719  136.1984  156.0288 H   0  0  0  0  0  0  0  0  0  0  0  0
  146.1265  137.1973  149.7902 H   0  0  0  0  0  0  0  0  0  0  0  0
  143.5525  135.3338  151.0427 H   0  0  0  0  0  0  0  0  0  0  0  0
  144.8897  135.0412  149.9559 H   0  0  0  0  0  0  0  0  0  0  0  0
  143.9657  132.9182  153.1908 H   0  0  0  0  0  0  0  0  0  0  0  0
  147.0109  133.9670  151.2190 H   0  0  0  0  0  0  0  0  0  0  0  0
  146.7491  134.0337  152.9600 H   0  0  0  0  0  0  0  0  0  0  0  0
  147.5665  131.7175  151.8843 H   0  0  0  0  0  0  0  0  0  0  0  0
  146.1755  131.6275  152.9777 H   0  0  0  0  0  0  0  0  0  0  0  0
  143.7616  131.9341  151.5702 H   0  0  0  0  0  0  0  0  0  0  0  0
  143.1090  133.2174  149.5071 H   0  0  0  0  0  0  0  0  0  0  0  0
  143.8025  131.6503  149.1228 H   0  0  0  0  0  0  0  0  0  0  0  0
  144.7727  133.1008  148.9211 H   0  0  0  0  0  0  0  0  0  0  0  0
  1  2  1  0  0  0  0
  1 28  1  0  0  0  0
  1 29  1  0  0  0  0
  1 30  1  0  0  0  0
  2  3  1  0  0  0  0
  3  4  1  0  0  0  0
  3 31  1  0  0  0  0
  3 32  1  0  0  0  0
  4  5  1  0  0  0  0
  4 33  1  0  0  0  0
  4 34  1  0  0  0  0
  5 10  1  0  0  0  0
  5  6  1  0  0  0  0
  5 35  1  0  0  0  0
  6  7  1  0  0  0  0
  6 36  1  0  0  0  0
  6 37  1  0  0  0  0
  7  8  1  0  0  0  0
  8  9  1  0  0  0  0
  8 38  1  0  0  0  0
  8 39  1  0  0  0  0
  9 10  1  0  0  0  0
  9 40  1  0  0  0  0
  9 41  1  0  0  0  0
 10 11  1  0  0  0  0
 11 16  1  0  0  0  0
 11 12  2  0  0  0  0
 12 13  1  0  0  0  0
 13 14  2  0  0  0  0
 13 42  1  0  0  0  0
 14 15  1  0  0  0  0
 15 19  1  0  0  0  0
 15 16  2  0  0  0  0
 16 17  1  0  0  0  0
 17 18  2  0  0  0  0
 18 19  1  0  0  0  0
 18 43  1  0  0  0  0
 19 20  1  0  0  0  0
 20 21  1  0  0  0  0
 20 44  1  0  0  0  0
 20 45  1  0  0  0  0
 21 26  1  0  0  0  0
 21 22  1  0  0  0  0
 21 23  1  0  0  0  0
 22 46  1  0  0  0  0
 23 24  1  0  0  0  0
 23 47  1  0  0  0  0
 23 48  1  0  0  0  0
 24 25  1  0  0  0  0
 24 49  1  0  0  0  0
 24 50  1  0  0  0  0
 25 26  1  0  0  0  0
 26 27  1  0  0  0  0
 26 51  1  0  0  0  0
 27 52  1  0  0  0  0
 27 53  1  0  0  0  0
 27 54  1  0  0  0  0
M  END
> <s_m_source_file>
AV-unprocessed.smi

> <i_m_source_file_index>
197

> <i_lp_mmshare_version>
43012

> <i_f3d_flags>
0

> <s_epik_input>
W0NIM11PW0NIMl1bQ0gyXVtDQEBIXTFbQ0gyXU9bQ0gyXVtDSDJdTjFjKG5bY0hdbjIpYyhjMjMpbltjSF1uM1tDSDJdW0NAQF00KFtPSF0pW0NIMl1bQ0gyXU9bQ0BIXTRbQ0gzXQ==

> <s_epik_cmdline>
J2VwaWtfcHl0aG9uJywgJy1waCcsICc3LjAnLCAnLXRuJywgJzgnLCAnLW1hJywgJzIwMCcsICctbWV0YWxfYmluZGluZycsICctaW1hZScsICc8aW5maWxlLm1hZT4nLCAnLW9tYWUnLCAnPG91dGZpbGUubWFlPic=

> <r_lp_tautomer_probability>
1

> <r_epik_Ionization_Penalty>
0.000106218

> <r_epik_Ionization_Penalty_Charging>
0

> <r_epik_Ionization_Penalty_Neutral>
0.000106218

> <r_epik_State_Penalty>
-0

> <r_epik_Charging_Adjusted_Penalty>
0

> <i_epik_Tot_Q>
0

> <i_epik_Tot_abs_Q>
0

> <r_epik_Metal_State_Penalty>
-0

> <b_epik_Metal_Only>
0

> <s_lp_Force_Field>
OPLS_2005

> <r_lp_Energy>
42.452

> <b_lp_Chiralities_Consistent>
1

> <s_lp_Variant>
AV-unprocessed.smi:197-7

> <Gold.Version>
5.8.1

> <Gold.Id.Protein>
6NUR|6NUR_protein|mol2

> <Gold.PLP.Fitness>
44.7170

> <Gold.PLP.PLP>
-41.2942

> <Gold.PLP.part.hbond>
-2.7283

> <Gold.PLP.part.metal>
0.0000

> <Gold.PLP.part.buried>
-5.2725

> <Gold.PLP.part.nonpolar>
-36.9788

> <Gold.PLP.part.repulsive>
1.7609

> <Gold.PLP.ligand.clash>
0.0000

> <Gold.PLP.ligand.torsion>
0.5556

> <Gold.PLP.Chemscore.Hbond>
1.2541

> <Gold.PLP.Chemscore.CHOScore>
0.1753

> <Gold.PLP.Chemscore.Metal>
0.0000

> <Gold.Chemscore.Hbonds>
donor molecule, donor type, donor heavy atom, donor atom, acceptor molecule, acceptor atom, score
      L1  H    22    46       P1 10957  0.17
      P1  H  8011  8017       L1     7  0.72
      L1  C    18    43       P1 10171  0.10

> <Gold.PLP.Chemscore.Internal.Correction>
0.2455

> <Gold.Rescore>
     Score         DG    S(hbond)    S(metal)    S(lipo)     H(rot)  DE(clash)    DE(int)     intcor
     10.54     -13.67       1.57        0.00      87.25       2.84       1.65       1.48       ----

> <Gold.Chemscore.Fitness>
10.5437

> <Gold.Chemscore.DG>
-13.6737

> <Gold.Chemscore.ZeroCoef>
-5.4800

> <Gold.Chemscore.Hbond>
1.5702

> <Gold.Chemscore.Metal>
0.0000

> <Gold.Chemscore.Lipo>
87.2538

> <Gold.Chemscore.Internal_Hbond>
0.0000

> <Gold.Chemscore.DEClash>
1.6534

> <Gold.Chemscore.DEInternal>
1.4766

> <Gold.Chemscore.Rot>
2.8358

> <Gold.Chemscore.Internal.Correction>
   9.000000E+99

> <Gold.Chemscore.Hbonds>
donor molecule, donor type, donor heavy atom, donor atom, acceptor molecule, acceptor atom, score
      L1  H    22    46       P1 10957  0.10
      P1  H  8011  8017       L1     7  0.69

> <Gold.Chemscore.Hbond.Weighted>
-5.2446

> <Gold.Chemscore.Metal.Weighted>
-0.0000

> <Gold.Chemscore.Lipo.Weighted>
-10.2087

> <Gold.Chemscore.Internal_Hbond.Weighted>
0.0000

> <Gold.Chemscore.DEClash.Weighted>
1.6534

> <Gold.Chemscore.DEInternal.Weighted>
1.4766

> <Gold.Chemscore.Rot.Weighted>
7.2596

> <Gold.Chemscore.Internal.Correction.Weighted>
   9.000000E+99

> <Gold.Protein.RotatedTorsions>
[ 6907 6896 6895 6894 ] final  107.71 input  -60.11 | X-H torsion
[ 7974 7965 7964 7962 ] final   43.27 input  175.53 | X-H torsion
[ 8008 7997 7996 7995 ] final  174.15 input   59.86 | X-H torsion
[ 10167 10162 10161 10158 ] final   -3.73 input  -65.29 | X-H torsion
[ 10718 10713 10712 10709 ] final   79.61 input   66.30 | X-H torsion
[ 10763 10752 10751 10750 ] final  125.87 input  -60.55 | X-H torsion
[ 11005 11000 10999 10996 ] final -152.45 input  -57.11 | X-H torsion

> <Gold.Protein.ActiveResidues>
 VAL166  LYS551  ARG553  GLY616  TRP617  ASP618  TYR619  PRO620  LYS621  CYS622 
 ASP623  PHE694  ASN695  SER759  ASP760  ASP761  ALA762  ILE779  LEU786  VAL792 
 PHE793  MET794  SER795  GLU796  ALA797  LYS798  CYS799  TRP800  GLU811  SER814 

> <Gold.Protein.RotatedAtoms>
  152.5143  133.9195  159.7527 H   0  0  0  0  0  0  0  0  0  0  0  0  # atno 6907 bound_to 6896
  150.9570  133.6478  159.2768 H   0  0  0  0  0  0  0  0  0  0  0  0  # atno 6908 bound_to 6896
  151.3737  135.0932  159.9526 H   0  0  0  0  0  0  0  0  0  0  0  0  # atno 6909 bound_to 6896
  146.0669  139.5205  142.9622 H   0  0  0  0  0  0  0  0  0  0  0  0  # atno 7974 bound_to 7965
  156.1003  140.1442  156.9476 H   0  0  0  0  0  0  0  0  0  0  0  0  # atno 8008 bound_to 7997
  154.4698  140.0913  156.7161 H   0  0  0  0  0  0  0  0  0  0  0  0  # atno 8009 bound_to 7997
  155.4771  140.3443  155.4336 H   0  0  0  0  0  0  0  0  0  0  0  0  # atno 8010 bound_to 7997
  140.6901  143.6505  150.8354 H   0  0  0  0  0  0  0  0  0  0  0  0  # atno 10167 bound_to 10162
  157.6782  130.9922  150.1958 H   0  0  0  0  0  0  0  0  0  0  0  0  # atno 10718 bound_to 10713
  153.6842  135.3309  155.3186 H   0  0  0  0  0  0  0  0  0  0  0  0  # atno 10763 bound_to 10752
  154.8457  135.4416  154.1575 H   0  0  0  0  0  0  0  0  0  0  0  0  # atno 10764 bound_to 10752
  153.2599  135.6990  153.7666 H   0  0  0  0  0  0  0  0  0  0  0  0  # atno 10765 bound_to 10752
  140.7187  134.3751  157.5187 H   0  0  0  0  0  0  0  0  0  0  0  0  # atno 11005 bound_to 11000
  145.6461  141.0274  143.1786 LP  0  0  0  0  0  0  0  0  0  0  0  0  # atno 17320 bound_to 7965
  144.7208  139.8037  143.7382 LP  0  0  0  0  0  0  0  0  0  0  0  0  # atno 17321 bound_to 7965
  140.0217  143.5535  152.2797 LP  0  0  0  0  0  0  0  0  0  0  0  0  # atno 17342 bound_to 10162
  139.6296  144.7642  151.2565 LP  0  0  0  0  0  0  0  0  0  0  0  0  # atno 17343 bound_to 10162
  156.2659  130.3716  149.8081 LP  0  0  0  0  0  0  0  0  0  0  0  0  # atno 17370 bound_to 10713
  156.5813  130.8467  151.3383 LP  0  0  0  0  0  0  0  0  0  0  0  0  # atno 17371 bound_to 10713
  139.8853  134.8940  156.2649 LP  0  0  0  0  0  0  0  0  0  0  0  0  # atno 17394 bound_to 11000
  141.0022  133.7145  156.0978 LP  0  0  0  0  0  0  0  0  0  0  0  0  # atno 17395 bound_to 11000

$$$$
