AV-unprocessed.smi:3269|AV-procd|sdf|12511|dock2
  -GOLD-   2272018423D 1   1.00000     0.00000
 Structure written by MMmdl.
 39 40  0  0  0  0  0  0  0  0  1 V2000
  153.1387  136.9420  158.4101 C   0  0  0  0  0  0  0  0  0  0  0  0
  152.4292  137.6139  157.2693 C   0  0  0  0  0  0  0  0  0  0  0  0
  152.5557  137.1251  156.0468 N   0  0  0  0  0  0  0  0  0  0  0  0
  151.8023  137.9325  155.2739 N   0  0  0  0  0  0  0  0  0  0  0  0
  151.7069  137.6697  153.8511 C   0  0  0  0  0  0  0  0  0  0  0  0
  151.2032  138.9371  156.0085 C   0  0  0  0  0  0  0  0  0  0  0  0
  150.3105  139.9575  155.3785 C   0  0  0  0  0  0  0  0  0  0  0  0
  151.5866  138.7632  157.3124 C   0  0  0  0  0  0  0  0  0  0  0  0
  151.2078  139.5729  158.5270 C   0  0  0  0  0  0  0  0  0  0  0  0
  152.4062  140.4158  158.9610 C   0  0  0  0  0  0  0  0  0  0  0  0
  153.5333  140.1456  158.5463 O   0  0  0  0  0  0  0  0  0  0  0  0
  152.1517  141.4115  159.8231 N   0  0  0  0  0  0  0  0  0  0  0  0
  153.1613  142.2311  160.4798 C   0  0  0  0  0  0  0  0  0  0  0  0
  153.0080  143.7077  160.0804 C   0  0  1  0  0  0  0  0  0  0  0  0
  152.9694  143.9477  158.5729 C   0  0  0  0  0  0  0  0  0  0  0  0
  152.1805  145.2422  158.4378 C   0  0  0  0  0  0  0  0  0  0  0  0
  151.5466  145.4432  159.8178 C   0  0  0  0  0  0  0  0  0  0  0  0
  151.7501  144.2141  160.4985 O   0  0  0  0  0  0  0  0  0  0  0  0
  152.4500  136.7382  159.2302 H   0  0  0  0  0  0  0  0  0  0  0  0
  153.9380  137.5739  158.7970 H   0  0  0  0  0  0  0  0  0  0  0  0
  153.5825  135.9922  158.1089 H   0  0  0  0  0  0  0  0  0  0  0  0
  152.0721  138.5323  153.2932 H   0  0  0  0  0  0  0  0  0  0  0  0
  150.6667  137.4845  153.5823 H   0  0  0  0  0  0  0  0  0  0  0  0
  152.3021  136.7967  153.5791 H   0  0  0  0  0  0  0  0  0  0  0  0
  150.0474  140.7445  156.0846 H   0  0  0  0  0  0  0  0  0  0  0  0
  149.3856  139.4975  155.0306 H   0  0  0  0  0  0  0  0  0  0  0  0
  150.7979  140.4283  154.5247 H   0  0  0  0  0  0  0  0  0  0  0  0
  150.3693  140.2382  158.3189 H   0  0  0  0  0  0  0  0  0  0  0  0
  150.8865  138.9331  159.3499 H   0  0  0  0  0  0  0  0  0  0  0  0
  151.1938  141.5595  160.1057 H   0  0  0  0  0  0  0  0  0  0  0  0
  153.0909  142.1196  161.5630 H   0  0  0  0  0  0  0  0  0  0  0  0
  154.1462  141.8624  160.1917 H   0  0  0  0  0  0  0  0  0  0  0  0
  153.8005  144.3120  160.5269 H   0  0  0  0  0  0  0  0  0  0  0  0
  153.9655  144.0092  158.1333 H   0  0  0  0  0  0  0  0  0  0  0  0
  152.4314  143.1397  158.0749 H   0  0  0  0  0  0  0  0  0  0  0  0
  152.8269  146.0833  158.1849 H   0  0  0  0  0  0  0  0  0  0  0  0
  151.4239  145.1535  157.6576 H   0  0  0  0  0  0  0  0  0  0  0  0
  152.0549  146.2409  160.3618 H   0  0  0  0  0  0  0  0  0  0  0  0
  150.4866  145.6916  159.7616 H   0  0  0  0  0  0  0  0  0  0  0  0
  1  2  1  0  0  0  0
  1 19  1  0  0  0  0
  1 20  1  0  0  0  0
  1 21  1  0  0  0  0
  2  8  1  0  0  0  0
  2  3  2  0  0  0  0
  3  4  1  0  0  0  0
  4  5  1  0  0  0  0
  4  6  1  0  0  0  0
  5 22  1  0  0  0  0
  5 23  1  0  0  0  0
  5 24  1  0  0  0  0
  6  7  1  0  0  0  0
  6  8  2  0  0  0  0
  7 25  1  0  0  0  0
  7 26  1  0  0  0  0
  7 27  1  0  0  0  0
  8  9  1  0  0  0  0
  9 10  1  0  0  0  0
  9 28  1  0  0  0  0
  9 29  1  0  0  0  0
 10 11  2  0  0  0  0
 10 12  1  0  0  0  0
 12 13  1  0  0  0  0
 12 30  1  0  0  0  0
 13 14  1  0  0  0  0
 13 31  1  0  0  0  0
 13 32  1  0  0  0  0
 14 18  1  0  0  0  0
 14 15  1  0  0  0  0
 14 33  1  0  0  0  0
 15 16  1  0  0  0  0
 15 34  1  0  0  0  0
 15 35  1  0  0  0  0
 16 17  1  0  0  0  0
 16 36  1  0  0  0  0
 16 37  1  0  0  0  0
 17 18  1  0  0  0  0
 17 38  1  0  0  0  0
 17 39  1  0  0  0  0
M  END
> <s_m_source_file>
AV-unprocessed.smi

> <i_m_source_file_index>
3269

> <i_lp_mmshare_version>
43012

> <i_f3d_flags>
0

> <s_epik_input>
W0NIM11jMW5uKFtDSDNdKWMoW0NIM10pYzFbQ0gyXUMoPU8pW05IXVtDSDJdW0NAQEhdMltDSDJdW0NIMl1bQ0gyXU8y

> <s_epik_cmdline>
J2VwaWtfcHl0aG9uJywgJy1waCcsICc3LjAnLCAnLXRuJywgJzgnLCAnLW1hJywgJzIwMCcsICctbWV0YWxfYmluZGluZycsICctaW1hZScsICc8aW5maWxlLm1hZT4nLCAnLW9tYWUnLCAnPG91dGZpbGUubWFlPic=

> <r_lp_tautomer_probability>
1

> <r_epik_Ionization_Penalty>
0.00306713

> <r_epik_Ionization_Penalty_Charging>
0

> <r_epik_Ionization_Penalty_Neutral>
0.00306713

> <r_epik_State_Penalty>
0.00215672

> <r_epik_Charging_Adjusted_Penalty>
0.00215672

> <i_epik_Tot_Q>
0

> <i_epik_Tot_abs_Q>
0

> <r_epik_Metal_State_Penalty>
-0

> <b_epik_Metal_Only>
0

> <s_lp_Force_Field>
OPLS_2005

> <r_lp_Energy>
10.8306

> <b_lp_Chiralities_Consistent>
1

> <s_lp_Variant>
AV-unprocessed.smi:3269-2

> <Gold.Version>
5.8.1

> <Gold.Id.Protein>
6NUR|6NUR_protein|mol2

> <Gold.PLP.Fitness>
39.1303

> <Gold.PLP.PLP>
-34.4044

> <Gold.PLP.part.hbond>
-2.0000

> <Gold.PLP.part.metal>
0.0000

> <Gold.PLP.part.buried>
-3.9421

> <Gold.PLP.part.nonpolar>
-29.1313

> <Gold.PLP.part.repulsive>
0.2872

> <Gold.PLP.ligand.clash>
0.0000

> <Gold.PLP.ligand.torsion>
0.3757

> <Gold.PLP.Chemscore.Hbond>
1.8160

> <Gold.PLP.Chemscore.CHOScore>
0.0000

> <Gold.PLP.Chemscore.Metal>
0.0000

> <Gold.Chemscore.Hbonds>
donor molecule, donor type, donor heavy atom, donor atom, acceptor molecule, acceptor atom, score
      P1  H  7997  8009       L1    11  0.98
      P1  H 10752 10765       L1     3  0.82

> <Gold.PLP.Chemscore.Internal.Correction>
0.0292

> <Gold.Rescore>
     Score         DG    S(hbond)    S(metal)    S(lipo)     H(rot)  DE(clash)    DE(int)     intcor
     18.55     -19.24       1.84        0.00      97.85       1.50       0.20       0.49       ----

> <Gold.Chemscore.Fitness>
18.5506

> <Gold.Chemscore.DG>
-19.2416

> <Gold.Chemscore.ZeroCoef>
-5.4800

> <Gold.Chemscore.Hbond>
1.8412

> <Gold.Chemscore.Metal>
0.0000

> <Gold.Chemscore.Lipo>
97.8545

> <Gold.Chemscore.Internal_Hbond>
0.0000

> <Gold.Chemscore.DEClash>
0.2009

> <Gold.Chemscore.DEInternal>
0.4901

> <Gold.Chemscore.Rot>
1.4989

> <Gold.Chemscore.Internal.Correction>
   9.000000E+99

> <Gold.Chemscore.Hbonds>
donor molecule, donor type, donor heavy atom, donor atom, acceptor molecule, acceptor atom, score
      P1  H  7997  8009       L1    11  0.93
      P1  H 10752 10765       L1     3  0.65

> <Gold.Chemscore.Hbond.Weighted>
-6.1497

> <Gold.Chemscore.Metal.Weighted>
-0.0000

> <Gold.Chemscore.Lipo.Weighted>
-11.4490

> <Gold.Chemscore.Internal_Hbond.Weighted>
0.0000

> <Gold.Chemscore.DEClash.Weighted>
0.2009

> <Gold.Chemscore.DEInternal.Weighted>
0.4901

> <Gold.Chemscore.Rot.Weighted>
3.8371

> <Gold.Chemscore.Internal.Correction.Weighted>
   9.000000E+99

> <Gold.Protein.RotatedTorsions>
[ 6907 6896 6895 6894 ] final  165.14 input  -60.11 | X-H torsion
[ 7974 7965 7964 7962 ] final    7.18 input  175.53 | X-H torsion
[ 8008 7997 7996 7995 ] final  146.84 input   59.86 | X-H torsion
[ 10167 10162 10161 10158 ] final -177.96 input  -65.29 | X-H torsion
[ 10718 10713 10712 10709 ] final   83.12 input   66.30 | X-H torsion
[ 10763 10752 10751 10750 ] final -149.41 input  -60.55 | X-H torsion
[ 11005 11000 10999 10996 ] final  161.33 input  -57.11 | X-H torsion

> <Gold.Protein.ActiveResidues>
 VAL166  LYS551  ARG553  GLY616  TRP617  ASP618  TYR619  PRO620  LYS621  CYS622 
 ASP623  PHE694  ASN695  SER759  ASP760  ASP761  ALA762  ILE779  LEU786  VAL792 
 PHE793  MET794  SER795  GLU796  ALA797  LYS798  CYS799  TRP800  GLU811  SER814 

> <Gold.Protein.RotatedAtoms>
  151.8990  133.3533  159.3823 H   0  0  0  0  0  0  0  0  0  0  0  0  # atno 6907 bound_to 6896
  150.7085  134.4848  159.5496 H   0  0  0  0  0  0  0  0  0  0  0  0  # atno 6908 bound_to 6896
  152.2432  134.8207  160.0508 H   0  0  0  0  0  0  0  0  0  0  0  0  # atno 6909 bound_to 6896
  146.2429  140.0122  142.8405 H   0  0  0  0  0  0  0  0  0  0  0  0  # atno 7974 bound_to 7965
  156.2843  140.2171  156.5442 H   0  0  0  0  0  0  0  0  0  0  0  0  # atno 8008 bound_to 7997
  154.7345  140.0493  157.0778 H   0  0  0  0  0  0  0  0  0  0  0  0  # atno 8009 bound_to 7997
  155.0311  140.3135  155.4761 H   0  0  0  0  0  0  0  0  0  0  0  0  # atno 8010 bound_to 7997
  139.5455  144.2247  152.0979 H   0  0  0  0  0  0  0  0  0  0  0  0  # atno 10167 bound_to 10162
  157.6872  131.0077  150.2475 H   0  0  0  0  0  0  0  0  0  0  0  0  # atno 10718 bound_to 10713
  154.8179  135.3310  154.7124 H   0  0  0  0  0  0  0  0  0  0  0  0  # atno 10763 bound_to 10752
  153.7762  135.6922  153.4901 H   0  0  0  0  0  0  0  0  0  0  0  0  # atno 10764 bound_to 10752
  153.2011  135.4516  155.0215 H   0  0  0  0  0  0  0  0  0  0  0  0  # atno 10765 bound_to 10752
  140.2148  134.8241  157.3158 H   0  0  0  0  0  0  0  0  0  0  0  0  # atno 11005 bound_to 11000
  145.1318  140.9522  143.4540 LP  0  0  0  0  0  0  0  0  0  0  0  0  # atno 17320 bound_to 7965
  145.0381  139.3284  143.5991 LP  0  0  0  0  0  0  0  0  0  0  0  0  # atno 17321 bound_to 7965
  140.1733  144.4915  150.6568 LP  0  0  0  0  0  0  0  0  0  0  0  0  # atno 17342 bound_to 10162
  140.6701  143.2283  151.5645 LP  0  0  0  0  0  0  0  0  0  0  0  0  # atno 17343 bound_to 10162
  156.3078  130.3767  149.7690 LP  0  0  0  0  0  0  0  0  0  0  0  0  # atno 17370 bound_to 10713
  156.5299  130.8253  151.3233 LP  0  0  0  0  0  0  0  0  0  0  0  0  # atno 17371 bound_to 10713
  140.1913  134.4369  155.7714 LP  0  0  0  0  0  0  0  0  0  0  0  0  # atno 17394 bound_to 11000
  141.2225  133.7028  156.8031 LP  0  0  0  0  0  0  0  0  0  0  0  0  # atno 17395 bound_to 11000

$$$$
