AV-unprocessed.smi:3184|AV-procd|sdf|12161|dock1
  -GOLD-   2272017593D 1   1.00000     0.00000
 Structure written by MMmdl.
 35 36  0  0  0  0  0  0  0  0  2 V2000
  151.2258  138.8685  155.7486 C   0  0  0  0  0  0  0  0  0  0  0  0
  150.1781  139.9896  155.7474 C   0  0  2  0  0  0  0  0  0  0  0  0
  149.8132  140.4117  154.3080 C   0  0  0  0  0  0  0  0  0  0  0  0
  148.4548  140.9543  154.1989 N   0  0  0  0  0  0  0  0  0  0  0  0
  147.9278  142.0147  154.8905 C   0  0  0  0  0  0  0  0  0  0  0  0
  146.6376  142.1649  154.4518 C   0  0  0  0  0  0  0  0  0  0  0  0
  146.4303  141.1882  153.5150 N   0  3  0  0  0  0  0  0  0  0  0  0
  147.5348  140.4496  153.3663 C   0  0  0  0  0  0  0  0  0  0  0  0
  150.6995  141.1218  156.5117 N   0  0  0  0  0  0  0  0  0  0  0  0
  151.1661  141.0766  157.7723 C   0  0  0  0  0  0  0  0  0  0  0  0
  151.1998  140.0403  158.4370 O   0  0  0  0  0  0  0  0  0  0  0  0
  151.5825  142.2696  158.2491 N   0  0  0  0  0  0  0  0  0  0  0  0
  151.4273  143.5738  157.5976 C   0  0  0  0  0  0  0  0  0  0  0  0
  151.8283  144.6121  158.6458 C   0  0  0  0  0  0  0  0  0  0  0  0
  152.7676  143.8590  159.5767 C   0  0  0  0  0  0  0  0  0  0  0  0
  152.2576  142.4186  159.5371 C   0  0  0  0  0  0  0  0  0  0  0  0
  150.8603  137.9896  155.2167 H   0  0  0  0  0  0  0  0  0  0  0  0
  151.4682  138.5578  156.7656 H   0  0  0  0  0  0  0  0  0  0  0  0
  152.1513  139.1872  155.2677 H   0  0  0  0  0  0  0  0  0  0  0  0
  149.2857  139.5954  156.2371 H   0  0  0  0  0  0  0  0  0  0  0  0
  150.5190  141.1511  153.9255 H   0  0  0  0  0  0  0  0  0  0  0  0
  149.8650  139.5520  153.6387 H   0  0  0  0  0  0  0  0  0  0  0  0
  148.4980  142.5729  155.6189 H   0  0  0  0  0  0  0  0  0  0  0  0
  145.8725  142.8758  154.7277 H   0  0  0  0  0  0  0  0  0  0  0  0
  147.6617  139.6185  152.6957 H   0  0  0  0  0  0  0  0  0  0  0  0
  150.7155  142.0152  156.0412 H   0  0  0  0  0  0  0  0  0  0  0  0
  152.0954  143.6233  156.7365 H   0  0  0  0  0  0  0  0  0  0  0  0
  150.4076  143.7459  157.2496 H   0  0  0  0  0  0  0  0  0  0  0  0
  152.2869  145.4995  158.2089 H   0  0  0  0  0  0  0  0  0  0  0  0
  150.9450  144.9315  159.2005 H   0  0  0  0  0  0  0  0  0  0  0  0
  153.7829  143.8979  159.1800 H   0  0  0  0  0  0  0  0  0  0  0  0
  152.7868  144.2735  160.5851 H   0  0  0  0  0  0  0  0  0  0  0  0
  151.5365  142.2455  160.3375 H   0  0  0  0  0  0  0  0  0  0  0  0
  153.0751  141.7060  159.6573 H   0  0  0  0  0  0  0  0  0  0  0  0
  145.5674  141.0450  153.0054 H   0  0  0  0  0  0  0  0  0  0  0  0
  1  2  1  0  0  0  0
  1 17  1  0  0  0  0
  1 18  1  0  0  0  0
  1 19  1  0  0  0  0
  2  3  1  0  0  0  0
  2  9  1  0  0  0  0
  2 20  1  0  0  0  0
  3  4  1  0  0  0  0
  3 21  1  0  0  0  0
  3 22  1  0  0  0  0
  4  8  1  0  0  0  0
  4  5  1  0  0  0  0
  5  6  2  0  0  0  0
  5 23  1  0  0  0  0
  6  7  1  0  0  0  0
  6 24  1  0  0  0  0
  7  8  2  0  0  0  0
  7 35  1  0  0  0  0
  8 25  1  0  0  0  0
  9 10  1  0  0  0  0
  9 26  1  0  0  0  0
 10 11  2  0  0  0  0
 10 12  1  0  0  0  0
 12 16  1  0  0  0  0
 12 13  1  0  0  0  0
 13 14  1  0  0  0  0
 13 27  1  0  0  0  0
 13 28  1  0  0  0  0
 14 15  1  0  0  0  0
 14 29  1  0  0  0  0
 14 30  1  0  0  0  0
 15 16  1  0  0  0  0
 15 31  1  0  0  0  0
 15 32  1  0  0  0  0
 16 33  1  0  0  0  0
 16 34  1  0  0  0  0
M  CHG  1   7   1
M  END
> <s_m_source_file>
AV-unprocessed.smi

> <i_m_source_file_index>
3184

> <i_lp_mmshare_version>
43012

> <i_f3d_flags>
0

> <s_epik_input>
W2NIXTFuW2NIXVtjSF1uMVtDSDJdW0NAQEhdKFtDSDNdKVtOSF1DKD1PKU4yW0NIMl1bQ0gyXVtDSDJdW0NIMl0y

> <s_epik_cmdline>
J2VwaWtfcHl0aG9uJywgJy1waCcsICc3LjAnLCAnLXRuJywgJzgnLCAnLW1hJywgJzIwMCcsICctbWV0YWxfYmluZGluZycsICctaW1hZScsICc8aW5maWxlLm1hZT4nLCAnLW9tYWUnLCAnPG91dGZpbGUubWFlPic=

> <r_lp_tautomer_probability>
1

> <r_epik_Ionization_Penalty>
0.25331

> <r_epik_Ionization_Penalty_Charging>
0

> <r_epik_Ionization_Penalty_Neutral>
0.25331

> <r_epik_State_Penalty>
0.244676

> <r_epik_Charging_Adjusted_Penalty>
0.244676

> <i_epik_Tot_Q>
1

> <i_epik_Tot_abs_Q>
1

> <r_epik_Metal_State_Penalty>
0.535078

> <b_epik_Metal_Only>
0

> <s_lp_Force_Field>
OPLS_2005

> <r_lp_Energy>
36.6247

> <b_lp_Chiralities_Consistent>
1

> <s_lp_Variant>
AV-unprocessed.smi:3184-1

> <Gold.Version>
5.8.1

> <Gold.Id.Protein>
6NUR|6NUR_protein|mol2

> <Gold.PLP.Fitness>
43.9838

> <Gold.PLP.PLP>
-34.0205

> <Gold.PLP.part.hbond>
-1.0000

> <Gold.PLP.part.metal>
0.0000

> <Gold.PLP.part.buried>
1.2964

> <Gold.PLP.part.nonpolar>
-35.3165

> <Gold.PLP.part.repulsive>
0.1113

> <Gold.PLP.ligand.clash>
0.0000

> <Gold.PLP.ligand.torsion>
0.3758

> <Gold.PLP.Chemscore.Hbond>
2.0000

> <Gold.PLP.Chemscore.CHOScore>
1.5592

> <Gold.PLP.Chemscore.Metal>
0.0000

> <Gold.Chemscore.Hbonds>
donor molecule, donor type, donor heavy atom, donor atom, acceptor molecule, acceptor atom, score
      L1  H     7    35       P1 10175  2.00
      L1  C     5    23       P1  8028  0.94
      L1  C     8    25       P1  7957  0.61

> <Gold.PLP.Chemscore.Internal.Correction>
0.0372

> <Gold.Rescore>
     Score         DG    S(hbond)    S(metal)    S(lipo)     H(rot)  DE(clash)    DE(int)     intcor
     12.52     -13.98       0.98        0.00      80.84       1.65       0.09       1.37       ----

> <Gold.Chemscore.Fitness>
12.5193

> <Gold.Chemscore.DG>
-13.9778

> <Gold.Chemscore.ZeroCoef>
-5.4800

> <Gold.Chemscore.Hbond>
0.9779

> <Gold.Chemscore.Metal>
0.0000

> <Gold.Chemscore.Lipo>
80.8450

> <Gold.Chemscore.Internal_Hbond>
0.0000

> <Gold.Chemscore.DEClash>
0.0900

> <Gold.Chemscore.DEInternal>
1.3686

> <Gold.Chemscore.Rot>
1.6513

> <Gold.Chemscore.Internal.Correction>
   9.000000E+99

> <Gold.Chemscore.Hbonds>
donor molecule, donor type, donor heavy atom, donor atom, acceptor molecule, acceptor atom, score
      L1  H     7    35       P1 10175  0.24

> <Gold.Chemscore.Hbond.Weighted>
-3.2662

> <Gold.Chemscore.Metal.Weighted>
-0.0000

> <Gold.Chemscore.Lipo.Weighted>
-9.4589

> <Gold.Chemscore.Internal_Hbond.Weighted>
0.0000

> <Gold.Chemscore.DEClash.Weighted>
0.0900

> <Gold.Chemscore.DEInternal.Weighted>
1.3686

> <Gold.Chemscore.Rot.Weighted>
4.2273

> <Gold.Chemscore.Internal.Correction.Weighted>
   9.000000E+99

> <Gold.Protein.RotatedTorsions>
[ 6907 6896 6895 6894 ] final -123.00 input  -60.11 | X-H torsion
[ 7974 7965 7964 7962 ] final  -89.55 input  175.53 | X-H torsion
[ 8008 7997 7996 7995 ] final  110.76 input   59.86 | X-H torsion
[ 10167 10162 10161 10158 ] final  -62.61 input  -65.29 | X-H torsion
[ 10718 10713 10712 10709 ] final   -3.01 input   66.30 | X-H torsion
[ 10763 10752 10751 10750 ] final -179.69 input  -60.55 | X-H torsion
[ 11005 11000 10999 10996 ] final  170.55 input  -57.11 | X-H torsion

> <Gold.Protein.ActiveResidues>
 VAL166  LYS551  ARG553  GLY616  TRP617  ASP618  TYR619  PRO620  LYS621  CYS622 
 ASP623  PHE694  ASN695  SER759  ASP760  ASP761  ALA762  ILE779  LEU786  VAL792 
 PHE793  MET794  SER795  GLU796  ALA797  LYS798  CYS799  TRP800  GLU811  SER814 

> <Gold.Protein.RotatedAtoms>
  150.8629  133.7616  159.2986 H   0  0  0  0  0  0  0  0  0  0  0  0  # atno 6907 bound_to 6896
  151.5253  135.1066  159.9898 H   0  0  0  0  0  0  0  0  0  0  0  0  # atno 6908 bound_to 6896
  152.4640  133.7838  159.6921 H   0  0  0  0  0  0  0  0  0  0  0  0  # atno 6909 bound_to 6896
  145.4383  140.9558  143.2089 H   0  0  0  0  0  0  0  0  0  0  0  0  # atno 7974 bound_to 7965
  156.2076  140.3032  155.9660 H   0  0  0  0  0  0  0  0  0  0  0  0  # atno 8008 bound_to 7997
  155.2804  140.0437  157.3032 H   0  0  0  0  0  0  0  0  0  0  0  0  # atno 8009 bound_to 7997
  154.5654  140.2332  155.8280 H   0  0  0  0  0  0  0  0  0  0  0  0  # atno 8010 bound_to 7997
  140.5927  143.2345  151.6104 H   0  0  0  0  0  0  0  0  0  0  0  0  # atno 10167 bound_to 10162
  156.7824  130.5335  149.5749 H   0  0  0  0  0  0  0  0  0  0  0  0  # atno 10718 bound_to 10713
  154.5319  135.2800  155.1173 H   0  0  0  0  0  0  0  0  0  0  0  0  # atno 10763 bound_to 10752
  154.2689  135.6307  153.5306 H   0  0  0  0  0  0  0  0  0  0  0  0  # atno 10764 bound_to 10752
  152.9959  135.5623  154.5835 H   0  0  0  0  0  0  0  0  0  0  0  0  # atno 10765 bound_to 10752
  140.3096  134.7528  157.3980 H   0  0  0  0  0  0  0  0  0  0  0  0  # atno 11005 bound_to 11000
  144.8138  139.5914  143.7018 LP  0  0  0  0  0  0  0  0  0  0  0  0  # atno 17320 bound_to 7965
  146.2570  139.6324  142.9388 LP  0  0  0  0  0  0  0  0  0  0  0  0  # atno 17321 bound_to 7965
  139.5238  144.3123  152.0982 LP  0  0  0  0  0  0  0  0  0  0  0  0  # atno 17342 bound_to 10162
  140.2290  144.4388  150.6308 LP  0  0  0  0  0  0  0  0  0  0  0  0  # atno 17343 bound_to 10162
  156.1210  130.6109  151.0193 LP  0  0  0  0  0  0  0  0  0  0  0  0  # atno 17370 bound_to 10713
  157.6640  131.0875  150.7772 LP  0  0  0  0  0  0  0  0  0  0  0  0  # atno 17371 bound_to 10713
  140.1037  134.5438  155.8329 LP  0  0  0  0  0  0  0  0  0  0  0  0  # atno 17394 bound_to 11000
  141.2111  133.6702  156.6558 LP  0  0  0  0  0  0  0  0  0  0  0  0  # atno 17395 bound_to 11000

$$$$
