AV-unprocessed.smi:1725|AV-procd|sdf|6953|dock8
  -GOLD-   22720 8163D 1   1.00000     0.00000
 Structure written by MMmdl.
 36 37  0  0  0  0  0  0  0  0  1 V2000
  151.3911  138.0980  153.8312 C   0  0  0  0  0  0  0  0  0  0  0  0
  150.8841  138.2863  155.2686 C   0  0  2  0  0  0  0  0  0  0  0  0
  149.4971  138.6041  155.1952 O   0  0  0  0  0  0  0  0  0  0  0  0
  149.1794  139.7650  154.4379 C   0  0  0  0  0  0  0  0  0  0  0  0
  147.6815  139.8140  154.2293 C   0  0  0  0  0  0  0  0  0  0  0  0
  147.0698  139.2830  152.9529 C   0  0  0  0  0  0  0  0  0  0  0  0
  147.0715  140.7658  153.2254 C   0  0  0  0  0  0  0  0  0  0  0  0
  151.6495  139.4082  155.9889 C   0  0  0  0  0  0  0  0  0  0  0  0
  152.4824  140.0661  155.3659 O   0  0  0  0  0  0  0  0  0  0  0  0
  151.3114  139.6031  157.2792 N   0  0  0  0  0  0  0  0  0  0  0  0
  151.8207  140.5230  158.2119 C   0  0  0  0  0  0  0  0  0  0  0  0
  151.5677  141.8581  158.2103 C   0  0  0  0  0  0  0  0  0  0  0  0
  152.1405  142.7534  159.2000 C   0  0  0  0  0  0  0  0  0  0  0  0
  151.8226  144.2399  159.1819 C   0  0  0  0  0  0  0  0  0  0  0  0
  152.1866  144.8395  160.3163 F   0  0  0  0  0  0  0  0  0  0  0  0
  152.4593  144.8311  158.1718 F   0  0  0  0  0  0  0  0  0  0  0  0
  150.5147  144.4278  159.0092 F   0  0  0  0  0  0  0  0  0  0  0  0
  152.9493  142.1956  160.1201 C   0  0  0  0  0  0  0  0  0  0  0  0
  153.2233  140.8262  160.1228 N   0  0  0  0  0  0  0  0  0  0  0  0
  152.7142  139.9468  159.2309 C   0  0  0  0  0  0  0  0  0  0  0  0
  153.0044  138.7532  159.3014 O   0  0  0  0  0  0  0  0  0  0  0  0
  153.8433  140.4839  160.8429 H   0  0  0  0  0  0  0  0  0  0  0  0
  152.4563  137.8654  153.8135 H   0  0  0  0  0  0  0  0  0  0  0  0
  151.2325  138.9928  153.2281 H   0  0  0  0  0  0  0  0  0  0  0  0
  150.8676  137.2761  153.3424 H   0  0  0  0  0  0  0  0  0  0  0  0
  151.0127  137.3424  155.8024 H   0  0  0  0  0  0  0  0  0  0  0  0
  149.5089  140.6634  154.9622 H   0  0  0  0  0  0  0  0  0  0  0  0
  149.6647  139.7497  153.4618 H   0  0  0  0  0  0  0  0  0  0  0  0
  147.1064  139.6418  155.1372 H   0  0  0  0  0  0  0  0  0  0  0  0
  147.7437  138.9143  152.1822 H   0  0  0  0  0  0  0  0  0  0  0  0
  146.1201  138.7579  153.0317 H   0  0  0  0  0  0  0  0  0  0  0  0
  146.1237  141.2312  153.4888 H   0  0  0  0  0  0  0  0  0  0  0  0
  147.7466  141.3840  152.6369 H   0  0  0  0  0  0  0  0  0  0  0  0
  150.5631  139.0237  157.6323 H   0  0  0  0  0  0  0  0  0  0  0  0
  150.9415  142.3110  157.4595 H   0  0  0  0  0  0  0  0  0  0  0  0
  153.4412  142.7399  160.9127 H   0  0  0  0  0  0  0  0  0  0  0  0
  1  2  1  0  0  0  0
  1 23  1  0  0  0  0
  1 24  1  0  0  0  0
  1 25  1  0  0  0  0
  2  3  1  0  0  0  0
  2  8  1  0  0  0  0
  2 26  1  0  0  0  0
  3  4  1  0  0  0  0
  4  5  1  0  0  0  0
  4 27  1  0  0  0  0
  4 28  1  0  0  0  0
  5  7  1  0  0  0  0
  5  6  1  0  0  0  0
  5 29  1  0  0  0  0
  6  7  1  0  0  0  0
  6 30  1  0  0  0  0
  6 31  1  0  0  0  0
  7 32  1  0  0  0  0
  7 33  1  0  0  0  0
  8  9  2  0  0  0  0
  8 10  1  0  0  0  0
 10 11  1  0  0  0  0
 10 34  1  0  0  0  0
 11 20  1  0  0  0  0
 11 12  2  0  0  0  0
 12 13  1  0  0  0  0
 12 35  1  0  0  0  0
 13 14  1  0  0  0  0
 13 18  2  0  0  0  0
 14 15  1  0  0  0  0
 14 16  1  0  0  0  0
 14 17  1  0  0  0  0
 18 19  1  0  0  0  0
 18 36  1  0  0  0  0
 19 22  1  0  0  0  0
 19 20  1  0  0  0  0
 20 21  2  0  0  0  0
M  END
> <s_m_source_file>
AV-unprocessed.smi

> <i_m_source_file_index>
1725

> <i_lp_mmshare_version>
43012

> <i_f3d_flags>
0

> <s_epik_input>
W0NIMl0xW0NIMl1bQ0hdMVtDSDJdT1tDQEBIXShbQ0gzXSlDKD1PKVtOSF1jMltjSF1jKEMoRikoRilGKVtjSF1bbkhdYzI9Tw==

> <s_epik_cmdline>
J2VwaWtfcHl0aG9uJywgJy1waCcsICc3LjAnLCAnLXRuJywgJzgnLCAnLW1hJywgJzIwMCcsICctbWV0YWxfYmluZGluZycsICctaW1hZScsICc8aW5maWxlLm1hZT4nLCAnLW9tYWUnLCAnPG91dGZpbGUubWFlPic=

> <r_lp_tautomer_probability>
0.999

> <r_epik_Ionization_Penalty>
0.00763408

> <r_epik_Ionization_Penalty_Charging>
0.00763398

> <r_epik_Ionization_Penalty_Neutral>
9.25705e-08

> <r_epik_State_Penalty>
0.00571302

> <r_epik_Charging_Adjusted_Penalty>
0.013347

> <i_epik_Tot_Q>
0

> <i_epik_Tot_abs_Q>
0

> <r_epik_Metal_State_Penalty>
0.392814

> <b_epik_Metal_Only>
0

> <s_lp_Force_Field>
OPLS_2005

> <r_lp_Energy>
28.2776

> <b_lp_Chiralities_Consistent>
1

> <s_lp_Variant>
AV-unprocessed.smi:1725-1

> <Gold.Version>
5.8.1

> <Gold.Id.Protein>
6NUR|6NUR_protein|mol2

> <Gold.PLP.Fitness>
46.0392

> <Gold.PLP.PLP>
-44.4059

> <Gold.PLP.part.hbond>
-2.0000

> <Gold.PLP.part.metal>
0.0000

> <Gold.PLP.part.buried>
-4.2712

> <Gold.PLP.part.nonpolar>
-37.1909

> <Gold.PLP.part.repulsive>
0.2358

> <Gold.PLP.ligand.clash>
0.0000

> <Gold.PLP.ligand.torsion>
1.5458

> <Gold.PLP.Chemscore.Hbond>
1.3752

> <Gold.PLP.Chemscore.CHOScore>
0.0000

> <Gold.PLP.Chemscore.Metal>
0.0000

> <Gold.Chemscore.Hbonds>
donor molecule, donor type, donor heavy atom, donor atom, acceptor molecule, acceptor atom, score
      P1  H  7989  7998       L1     9  0.38
      P1  H  7997  8008       L1     9  1.00

> <Gold.PLP.Chemscore.Internal.Correction>
0.5993

> <Gold.Rescore>
     Score         DG    S(hbond)    S(metal)    S(lipo)     H(rot)  DE(clash)    DE(int)     intcor
     13.68     -15.18       1.19        0.00      88.06       1.79       0.14       1.36       ----

> <Gold.Chemscore.Fitness>
13.6795

> <Gold.Chemscore.DG>
-15.1816

> <Gold.Chemscore.ZeroCoef>
-5.4800

> <Gold.Chemscore.Hbond>
1.1947

> <Gold.Chemscore.Metal>
0.0000

> <Gold.Chemscore.Lipo>
88.0636

> <Gold.Chemscore.Internal_Hbond>
0.0000

> <Gold.Chemscore.DEClash>
0.1450

> <Gold.Chemscore.DEInternal>
1.3571

> <Gold.Chemscore.Rot>
1.7938

> <Gold.Chemscore.Internal.Correction>
   9.000000E+99

> <Gold.Chemscore.Hbonds>
donor molecule, donor type, donor heavy atom, donor atom, acceptor molecule, acceptor atom, score
      P1  H  7989  7998       L1     9  0.32
      P1  H  7997  8008       L1     9  0.92

> <Gold.Chemscore.Hbond.Weighted>
-3.9903

> <Gold.Chemscore.Metal.Weighted>
-0.0000

> <Gold.Chemscore.Lipo.Weighted>
-10.3034

> <Gold.Chemscore.Internal_Hbond.Weighted>
0.0000

> <Gold.Chemscore.DEClash.Weighted>
0.1450

> <Gold.Chemscore.DEInternal.Weighted>
1.3571

> <Gold.Chemscore.Rot.Weighted>
4.5922

> <Gold.Chemscore.Internal.Correction.Weighted>
   9.000000E+99

> <Gold.Protein.RotatedTorsions>
[ 6907 6896 6895 6894 ] final   76.17 input  -60.11 | X-H torsion
[ 7974 7965 7964 7962 ] final   49.51 input  175.53 | X-H torsion
[ 8008 7997 7996 7995 ] final  -19.45 input   59.86 | X-H torsion
[ 10167 10162 10161 10158 ] final -140.36 input  -65.29 | X-H torsion
[ 10718 10713 10712 10709 ] final  175.62 input   66.30 | X-H torsion
[ 10763 10752 10751 10750 ] final  139.63 input  -60.55 | X-H torsion
[ 11005 11000 10999 10996 ] final   14.35 input  -57.11 | X-H torsion

> <Gold.Protein.ActiveResidues>
 VAL166  LYS551  ARG553  GLY616  TRP617  ASP618  TYR619  PRO620  LYS621  CYS622 
 ASP623  PHE694  ASN695  SER759  ASP760  ASP761  ALA762  ILE779  LEU786  VAL792 
 PHE793  MET794  SER795  GLU796  ALA797  LYS798  CYS799  TRP800  GLU811  SER814 

> <Gold.Protein.RotatedAtoms>
  152.5061  134.4009  159.9415 H   0  0  0  0  0  0  0  0  0  0  0  0  # atno 6907 bound_to 6896
  151.3973  133.3763  159.2736 H   0  0  0  0  0  0  0  0  0  0  0  0  # atno 6908 bound_to 6896
  150.9388  134.8819  159.7658 H   0  0  0  0  0  0  0  0  0  0  0  0  # atno 6909 bound_to 6896
  146.0102  139.4535  142.9961 H   0  0  0  0  0  0  0  0  0  0  0  0  # atno 7974 bound_to 7965
  154.4836  140.2088  155.9707 H   0  0  0  0  0  0  0  0  0  0  0  0  # atno 8008 bound_to 7997
  156.1202  140.3214  155.8166 H   0  0  0  0  0  0  0  0  0  0  0  0  # atno 8009 bound_to 7997
  155.4481  140.0515  157.2994 H   0  0  0  0  0  0  0  0  0  0  0  0  # atno 8010 bound_to 7997
  139.8289  143.7473  152.2666 H   0  0  0  0  0  0  0  0  0  0  0  0  # atno 10167 bound_to 10162
  156.9321  130.9974  151.2985 H   0  0  0  0  0  0  0  0  0  0  0  0  # atno 10718 bound_to 10713
  153.9093  135.3013  155.3448 H   0  0  0  0  0  0  0  0  0  0  0  0  # atno 10763 bound_to 10752
  154.7631  135.4924  153.9506 H   0  0  0  0  0  0  0  0  0  0  0  0  # atno 10764 bound_to 10752
  153.1202  135.6780  153.9451 H   0  0  0  0  0  0  0  0  0  0  0  0  # atno 10765 bound_to 10752
  140.4705  134.1035  155.7732 H   0  0  0  0  0  0  0  0  0  0  0  0  # atno 11005 bound_to 11000
  145.7354  141.0027  143.1329 LP  0  0  0  0  0  0  0  0  0  0  0  0  # atno 17320 bound_to 7965
  144.6950  139.9034  143.7460 LP  0  0  0  0  0  0  0  0  0  0  0  0  # atno 17321 bound_to 7965
  139.7675  144.7487  151.0273 LP  0  0  0  0  0  0  0  0  0  0  0  0  # atno 17342 bound_to 10162
  140.7808  143.4682  151.0183 LP  0  0  0  0  0  0  0  0  0  0  0  0  # atno 17343 bound_to 10162
  157.5840  130.8396  149.8563 LP  0  0  0  0  0  0  0  0  0  0  0  0  # atno 17370 bound_to 10713
  156.0442  130.3732  150.1358 LP  0  0  0  0  0  0  0  0  0  0  0  0  # atno 17371 bound_to 10713
  141.1579  133.8848  157.1928 LP  0  0  0  0  0  0  0  0  0  0  0  0  # atno 17394 bound_to 11000
  139.9888  135.0072  156.9926 LP  0  0  0  0  0  0  0  0  0  0  0  0  # atno 17395 bound_to 11000

$$$$
