#       Name:                AV-unprocessed.smi:2562
#       Creating user name   scv26
#       Creation time:       Fri Mar 27 14:09:07 2020


#       File generated by GOLD software.
#

@<TRIPOS>MOLECULE
AV-unprocessed.smi:2562
    35    36     1
SMALL
NO_CHARGES


@<TRIPOS>ATOM
      1 ****        -2.4300   4.3006   1.0831 C.3            1 S1                 0.0000
      2 ****        -1.8916   2.8655   1.0930 C.3            1 S1                 0.0000
      3 ****        -0.3579   2.8122   1.1408 C.3            1 S1                 0.0000
      4 ****         0.1711   1.4151   1.1387 C.2            1 S1                 0.0000
      5 ****         0.4935   0.7725   2.2628 N.pl3          1 S1                 0.0000
      6 ****         0.9272  -0.4689   1.9592 N.2            1 S1                 0.0000
      7 ****         0.8419  -0.4771   0.6291 C.2            1 S1                 0.0000
      8 ****         1.2002  -1.7025  -0.1539 C.3            1 S1                 0.0000
      9 ****        -0.0160  -2.6192  -0.3901 C.3            1 S1                 0.0000
     10 ****         0.3608  -3.7509  -1.2361 N.3            1 S1                 0.0000
     11 ****         0.9588  -3.2963  -2.4909 C.3            1 S1                 0.0000
     12 ****         2.1437  -2.3539  -2.2112 C.3            1 S1                 0.0000
     13 ****         1.7083  -1.2602  -1.4107 O.3            1 S1                 0.0000
     14 ****         0.3517   0.6662   0.0565 N.2            1 S1                 0.0000
     15 ****         0.4330   1.1201   3.2092 H              1 S1                 0.0000
     16 ****        -3.5198   4.3068   1.0535 H              1 S1                 0.0000
     17 ****        -2.0711   4.8497   0.2122 H              1 S1                 0.0000
     18 ****        -2.1181   4.8443   1.9750 H              1 S1                 0.0000
     19 ****        -2.3029   2.3336   1.9517 H              1 S1                 0.0000
     20 ****        -2.2491   2.3427   0.2051 H              1 S1                 0.0000
     21 ****         0.0606   3.3406   0.2832 H              1 S1                 0.0000
     22 ****         0.0074   3.3269   2.0305 H              1 S1                 0.0000
     23 ****         1.9825  -2.2442   0.3822 H              1 S1                 0.0000
     24 ****        -0.4083  -2.9773   0.5620 H              1 S1                 0.0000
     25 ****        -0.8173  -2.0531  -0.8667 H              1 S1                 0.0000
     26 ****        -0.4597  -4.3142  -1.4352 H              1 S1                 0.0000
     27 ****         1.2913  -4.1520  -3.0789 H              1 S1                 0.0000
     28 ****         0.2113  -2.7752  -3.0901 H              1 S1                 0.0000
     29 ****         2.9572  -2.8850  -1.7144 H              1 S1                 0.0000
     30 ****         2.5426  -1.9658  -3.1486 H              1 S1                 0.0000
     31 ****         1.2337  -1.1956   2.5739 LP             1 S1                 0.0000
     32 ****         1.0390  -4.2977  -0.7452 LP             1 S1                 0.0000
     33 ****         2.4814  -0.6464  -1.2509 LP             1 S1                 0.0000
     34 ****         0.9869  -0.7679  -1.8978 LP             1 S1                 0.0000
     35 ****         0.1784   0.8777  -0.9054 LP             1 S1                 0.0000
@<TRIPOS>BOND
    1    1    2 1     
    2    1   16 1     
    3    1   17 1     
    4    1   18 1     
    5    2    3 1     
    6    2   19 1     
    7    2   20 1     
    8    3   21 1     
    9    3   22 1     
   10    3    4 1     
   11    4   14 2     
   12    4    5 1     
   13    5    6 1     
   14    5   15 1     
   15    6    7 2     
   16    7   14 1     
   17    7    8 1     
   18    8   13 1     
   19    8    9 1     
   20    8   23 1     
   21    9   10 1     
   22    9   24 1     
   23    9   25 1     
   24   10   11 1     
   25   10   26 1     
   26   11   12 1     
   27   11   27 1     
   28   11   28 1     
   29   12   13 1     
   30   12   29 1     
   31   12   30 1     
   32    6   31 1     
   33   10   32 1     
   34   13   33 1     
   35   13   34 1     
   36   14   35 1     
@<TRIPOS>SUBSTRUCTURE
      1 S1             1
@<TRIPOS>SET
LONE_PAIRS      STATIC     ATOMS    <user>   **** ""
5 31 32 33 34 35
DONOR_HYDROGENS      STATIC     ATOMS    <user>   **** ""
2 15 26
ATOM$BLUE        STATIC     ATOMS    COLORGROUP SYSTEM
5 31 32 33 34 35
ATOM$RED        STATIC     ATOMS    COLORGROUP SYSTEM
2 15 26
