AV-unprocessed.smi:1584|AV-procd|sdf|6367|dock7
  -GOLD-   22720 6593D 1   1.00000     0.00000
 Structure written by MMmdl.
 39 40  0  0  0  0  0  0  0  0  1 V2000
  149.9984  133.6684  156.9486 C   0  0  0  0  0  0  0  0  0  0  0  0
  149.0925  133.8466  155.7192 C   0  0  2  0  0  0  0  0  0  0  0  0
  149.5480  133.0134  154.5009 C   0  0  0  0  0  0  0  0  0  0  0  0
  148.4348  132.4412  153.7651 N   0  0  0  0  0  0  0  0  0  0  0  0
  147.5528  133.0799  152.9194 C   0  0  0  0  0  0  0  0  0  0  0  0
  146.6776  132.1386  152.4586 C   0  0  0  0  0  0  0  0  0  0  0  0
  147.1130  130.9374  153.0850 C   0  0  0  0  0  0  0  0  0  0  0  0
  148.1661  131.1211  153.8650 N   0  0  0  0  0  0  0  0  0  0  0  0
  149.0365  135.2630  155.3687 N   0  0  0  0  0  0  0  0  0  0  0  0
  150.0993  136.0685  155.2141 C   0  0  0  0  0  0  0  0  0  0  0  0
  151.2605  135.6828  155.3522 O   0  0  0  0  0  0  0  0  0  0  0  0
  149.8026  137.5307  154.8371 C   0  0  1  0  0  0  0  0  0  0  0  0
  149.1002  138.3060  155.9607 C   0  0  0  0  0  0  0  0  0  0  0  0
  150.0585  138.6461  157.1101 C   0  0  0  0  0  0  0  0  0  0  0  0
  151.3248  139.2310  156.6524 N   0  0  0  0  0  0  0  0  0  0  0  0
  152.0606  139.9846  157.6696 C   0  0  0  0  0  0  0  0  0  0  0  0
  151.8453  139.0662  155.4121 C   0  0  0  0  0  0  0  0  0  0  0  0
  152.9317  139.5460  155.0873 O   0  0  0  0  0  0  0  0  0  0  0  0
  151.0654  138.2743  154.3449 C   0  0  0  0  0  0  0  0  0  0  0  0
  149.9943  132.6372  157.3022 H   0  0  0  0  0  0  0  0  0  0  0  0
  149.6635  134.2940  157.7769 H   0  0  0  0  0  0  0  0  0  0  0  0
  151.0304  133.9386  156.7227 H   0  0  0  0  0  0  0  0  0  0  0  0
  148.0900  133.5229  156.0061 H   0  0  0  0  0  0  0  0  0  0  0  0
  150.1200  133.6326  153.8089 H   0  0  0  0  0  0  0  0  0  0  0  0
  150.2140  132.2094  154.8191 H   0  0  0  0  0  0  0  0  0  0  0  0
  147.6207  134.1394  152.7204 H   0  0  0  0  0  0  0  0  0  0  0  0
  145.8527  132.2854  151.7773 H   0  0  0  0  0  0  0  0  0  0  0  0
  146.6980  129.9442  152.9960 H   0  0  0  0  0  0  0  0  0  0  0  0
  148.1183  135.6608  155.2333 H   0  0  0  0  0  0  0  0  0  0  0  0
  149.1090  137.4974  153.9950 H   0  0  0  0  0  0  0  0  0  0  0  0
  148.6932  139.2312  155.5504 H   0  0  0  0  0  0  0  0  0  0  0  0
  148.2459  137.7447  156.3416 H   0  0  0  0  0  0  0  0  0  0  0  0
  149.5548  139.3331  157.7916 H   0  0  0  0  0  0  0  0  0  0  0  0
  150.2852  137.7510  157.6905 H   0  0  0  0  0  0  0  0  0  0  0  0
  153.0761  139.6008  157.7799 H   0  0  0  0  0  0  0  0  0  0  0  0
  151.5868  139.9258  158.6502 H   0  0  0  0  0  0  0  0  0  0  0  0
  152.1213  141.0379  157.3929 H   0  0  0  0  0  0  0  0  0  0  0  0
  151.7518  137.5874  153.8467 H   0  0  0  0  0  0  0  0  0  0  0  0
  150.7676  138.9929  153.5805 H   0  0  0  0  0  0  0  0  0  0  0  0
  1  2  1  0  0  0  0
  1 20  1  0  0  0  0
  1 21  1  0  0  0  0
  1 22  1  0  0  0  0
  2  3  1  0  0  0  0
  2  9  1  0  0  0  0
  2 23  1  0  0  0  0
  3  4  1  0  0  0  0
  3 24  1  0  0  0  0
  3 25  1  0  0  0  0
  4  8  1  0  0  0  0
  4  5  1  0  0  0  0
  5  6  2  0  0  0  0
  5 26  1  0  0  0  0
  6  7  1  0  0  0  0
  6 27  1  0  0  0  0
  7  8  2  0  0  0  0
  7 28  1  0  0  0  0
  9 10  1  0  0  0  0
  9 29  1  0  0  0  0
 10 11  2  0  0  0  0
 10 12  1  0  0  0  0
 12 19  1  0  0  0  0
 12 13  1  0  0  0  0
 12 30  1  0  0  0  0
 13 14  1  0  0  0  0
 13 31  1  0  0  0  0
 13 32  1  0  0  0  0
 14 15  1  0  0  0  0
 14 33  1  0  0  0  0
 14 34  1  0  0  0  0
 15 16  1  0  0  0  0
 15 17  1  0  0  0  0
 16 35  1  0  0  0  0
 16 36  1  0  0  0  0
 16 37  1  0  0  0  0
 17 18  2  0  0  0  0
 17 19  1  0  0  0  0
 19 38  1  0  0  0  0
 19 39  1  0  0  0  0
M  END
> <s_m_source_file>
AV-unprocessed.smi

> <i_m_source_file_index>
1584

> <i_lp_mmshare_version>
43012

> <i_f3d_flags>
0

> <s_epik_input>
bjFbY0hdW2NIXVtjSF1uMVtDSDJdW0NAQEhdKFtDSDNdKVtOSF1DKD1PKVtDQEBIXTJbQ0gyXVtDSDJdTihbQ0gzXSlDKD1PKVtDSDJdMg==

> <s_epik_cmdline>
J2VwaWtfcHl0aG9uJywgJy1waCcsICc3LjAnLCAnLXRuJywgJzgnLCAnLW1hJywgJzIwMCcsICctbWV0YWxfYmluZGluZycsICctaW1hZScsICc8aW5maWxlLm1hZT4nLCAnLW9tYWUnLCAnPG91dGZpbGUubWFlPic=

> <r_lp_tautomer_probability>
1

> <r_epik_Ionization_Penalty>
0.000299422

> <r_epik_Ionization_Penalty_Charging>
0

> <r_epik_Ionization_Penalty_Neutral>
0.000299422

> <r_epik_State_Penalty>
-0

> <r_epik_Charging_Adjusted_Penalty>
0

> <i_epik_Tot_Q>
0

> <i_epik_Tot_abs_Q>
0

> <r_epik_Metal_State_Penalty>
-0

> <b_epik_Metal_Only>
0

> <s_lp_Force_Field>
OPLS_2005

> <r_lp_Energy>
12.5002

> <b_lp_Chiralities_Consistent>
1

> <s_lp_Variant>
AV-unprocessed.smi:1584-3

> <Gold.Version>
5.8.1

> <Gold.Id.Protein>
6NUR|6NUR_protein|mol2

> <Gold.PLP.Fitness>
36.5275

> <Gold.PLP.PLP>
-29.5425

> <Gold.PLP.part.hbond>
-3.0000

> <Gold.PLP.part.metal>
0.0000

> <Gold.PLP.part.buried>
-3.7997

> <Gold.PLP.part.nonpolar>
-23.9557

> <Gold.PLP.part.repulsive>
0.2172

> <Gold.PLP.ligand.clash>
0.0000

> <Gold.PLP.ligand.torsion>
1.0491

> <Gold.PLP.Chemscore.Hbond>
2.0061

> <Gold.PLP.Chemscore.CHOScore>
1.0000

> <Gold.PLP.Chemscore.Metal>
0.0000

> <Gold.Chemscore.Hbonds>
donor molecule, donor type, donor heavy atom, donor atom, acceptor molecule, acceptor atom, score
      P1  H  7989  7998       L1    18  0.01
      P1  H  7997  8009       L1    18  1.00
      P1  H 10752 10764       L1    11  1.00
      L1  C     5    26       P1  7948  0.87

> <Gold.PLP.Chemscore.Internal.Correction>
0.0650

> <Gold.Rescore>
     Score         DG    S(hbond)    S(metal)    S(lipo)     H(rot)  DE(clash)    DE(int)     intcor
     12.17     -14.48       2.00        0.00      56.48       1.67       0.09       2.22       ----

> <Gold.Chemscore.Fitness>
12.1738

> <Gold.Chemscore.DG>
-14.4801

> <Gold.Chemscore.ZeroCoef>
-5.4800

> <Gold.Chemscore.Hbond>
1.9986

> <Gold.Chemscore.Metal>
0.0000

> <Gold.Chemscore.Lipo>
56.4849

> <Gold.Chemscore.Internal_Hbond>
0.0000

> <Gold.Chemscore.DEClash>
0.0868

> <Gold.Chemscore.DEInternal>
2.2196

> <Gold.Chemscore.Rot>
1.6734

> <Gold.Chemscore.Internal.Correction>
   9.000000E+99

> <Gold.Chemscore.Hbonds>
donor molecule, donor type, donor heavy atom, donor atom, acceptor molecule, acceptor atom, score
      P1  H  7997  8009       L1    18  1.00
      P1  H 10752 10764       L1    11  0.99

> <Gold.Chemscore.Hbond.Weighted>
-6.6754

> <Gold.Chemscore.Metal.Weighted>
-0.0000

> <Gold.Chemscore.Lipo.Weighted>
-6.6087

> <Gold.Chemscore.Internal_Hbond.Weighted>
0.0000

> <Gold.Chemscore.DEClash.Weighted>
0.0868

> <Gold.Chemscore.DEInternal.Weighted>
2.2196

> <Gold.Chemscore.Rot.Weighted>
4.2840

> <Gold.Chemscore.Internal.Correction.Weighted>
   9.000000E+99

> <Gold.Protein.RotatedTorsions>
[ 6907 6896 6895 6894 ] final   67.34 input  -60.11 | X-H torsion
[ 7974 7965 7964 7962 ] final  100.48 input  175.53 | X-H torsion
[ 8008 7997 7996 7995 ] final -123.90 input   59.86 | X-H torsion
[ 10167 10162 10161 10158 ] final -123.42 input  -65.29 | X-H torsion
[ 10718 10713 10712 10709 ] final   29.02 input   66.30 | X-H torsion
[ 10763 10752 10751 10750 ] final  -38.37 input  -60.55 | X-H torsion
[ 11005 11000 10999 10996 ] final   26.32 input  -57.11 | X-H torsion

> <Gold.Protein.ActiveResidues>
 VAL166  LYS551  ARG553  GLY616  TRP617  ASP618  TYR619  PRO620  LYS621  CYS622 
 ASP623  PHE694  ASN695  SER759  ASP760  ASP761  ALA762  ILE779  LEU786  VAL792 
 PHE793  MET794  SER795  GLU796  ALA797  LYS798  CYS799  TRP800  GLU811  SER814 

> <Gold.Protein.RotatedAtoms>
  152.4545  134.5322  159.9814 H   0  0  0  0  0  0  0  0  0  0  0  0  # atno 6907 bound_to 6896
  151.5386  133.3431  159.2939 H   0  0  0  0  0  0  0  0  0  0  0  0  # atno 6908 bound_to 6896
  150.8484  134.7832  159.7052 H   0  0  0  0  0  0  0  0  0  0  0  0  # atno 6909 bound_to 6896
  145.3851  139.2373  143.3382 H   0  0  0  0  0  0  0  0  0  0  0  0  # atno 7974 bound_to 7965
  155.1880  140.0412  157.2895 H   0  0  0  0  0  0  0  0  0  0  0  0  # atno 8008 bound_to 7997
  154.6158  140.2488  155.7583 H   0  0  0  0  0  0  0  0  0  0  0  0  # atno 8009 bound_to 7997
  156.2405  140.2905  156.0442 H   0  0  0  0  0  0  0  0  0  0  0  0  # atno 8010 bound_to 7997
  140.0037  143.5514  152.2292 H   0  0  0  0  0  0  0  0  0  0  0  0  # atno 10167 bound_to 10162
  157.2412  130.7070  149.6359 H   0  0  0  0  0  0  0  0  0  0  0  0  # atno 10718 bound_to 10713
  153.9118  135.6791  153.4751 H   0  0  0  0  0  0  0  0  0  0  0  0  # atno 10763 bound_to 10752
  153.1075  135.4799  154.8974 H   0  0  0  0  0  0  0  0  0  0  0  0  # atno 10764 bound_to 10752
  154.7523  135.3188  154.8490 H   0  0  0  0  0  0  0  0  0  0  0  0  # atno 10765 bound_to 10752
  140.3383  134.2361  155.7693 H   0  0  0  0  0  0  0  0  0  0  0  0  # atno 11005 bound_to 11000
  146.2824  140.4524  142.8771 LP  0  0  0  0  0  0  0  0  0  0  0  0  # atno 17320 bound_to 7965
  144.8480  140.6958  143.6186 LP  0  0  0  0  0  0  0  0  0  0  0  0  # atno 17321 bound_to 7965
  139.6253  144.7636  151.2651 LP  0  0  0  0  0  0  0  0  0  0  0  0  # atno 17342 bound_to 10162
  140.7409  143.6574  150.8194 LP  0  0  0  0  0  0  0  0  0  0  0  0  # atno 17343 bound_to 10162
  155.9670  130.4457  150.5514 LP  0  0  0  0  0  0  0  0  0  0  0  0  # atno 17370 bound_to 10713
  157.3377  131.0711  151.1812 LP  0  0  0  0  0  0  0  0  0  0  0  0  # atno 17371 bound_to 10713
  141.2045  133.7884  157.0282 LP  0  0  0  0  0  0  0  0  0  0  0  0  # atno 17394 bound_to 11000
  140.0803  134.9652  157.1613 LP  0  0  0  0  0  0  0  0  0  0  0  0  # atno 17395 bound_to 11000

$$$$
