AV-unprocessed.smi:2387|AV-procd|sdf|9470|dock6
  -GOLD-   2272013103D 1   1.00000     0.00000
 Structure written by MMmdl.
 48 50  0  0  0  0  0  0  0  0  2 V2000
  142.7806  132.6288  148.7727 C   0  0  0  0  0  0  0  0  0  0  0  0
  143.9551  132.9407  149.6760 C   0  0  0  0  0  0  0  0  0  0  0  0
  144.6774  131.9342  150.3504 C   0  0  0  0  0  0  0  0  0  0  0  0
  145.7602  132.2971  151.1781 C   0  0  0  0  0  0  0  0  0  0  0  0
  146.0975  133.6668  151.3255 C   0  0  0  0  0  0  0  0  0  0  0  0
  147.1764  134.1367  152.1231 N   0  0  0  0  0  0  0  0  0  0  0  0
  147.6785  133.5954  153.2465 C   0  0  0  0  0  0  0  0  0  0  0  0
  147.2574  132.5742  153.7889 O   0  0  0  0  0  0  0  0  0  0  0  0
  148.7050  134.3234  153.7209 N   0  0  0  0  0  0  0  0  0  0  0  0
  149.4918  134.0776  154.9435 C   0  0  0  0  0  0  0  0  0  0  0  0
  150.5445  135.1878  155.2162 C   0  0  0  0  0  0  0  0  0  0  0  0
  151.3450  135.0615  156.1438 O   0  0  0  0  0  0  0  0  0  0  0  0
  150.5311  136.2761  154.4274 N   0  0  0  0  0  0  0  0  0  0  0  0
  151.4365  137.4112  154.5431 C   0  0  0  0  0  0  0  0  0  0  0  0
  150.8110  138.6754  155.1011 C   0  0  0  0  0  0  0  0  0  0  0  0
  150.2894  139.7573  154.1854 C   0  0  0  0  0  0  0  0  0  0  0  0
  151.5372  139.9959  155.0014 C   0  0  0  0  0  0  0  0  0  0  0  0
  148.5145  133.9923  156.1506 C   0  0  0  0  0  0  0  0  0  0  0  0
  148.5824  132.5646  156.7015 C   0  0  0  0  0  0  0  0  0  0  0  0
  149.9518  132.0517  156.2811 C   0  0  0  0  0  0  0  0  0  0  0  0
  150.1531  132.6695  154.8991 C   0  0  0  0  0  0  0  0  0  0  0  0
  145.3455  134.6234  150.6103 C   0  0  0  0  0  0  0  0  0  0  0  0
  144.3153  134.2338  149.8279 N   0  3  0  0  0  0  0  0  0  0  0  0
  142.5982  131.5549  148.7217 H   0  0  0  0  0  0  0  0  0  0  0  0
  142.9715  132.9898  147.7617 H   0  0  0  0  0  0  0  0  0  0  0  0
  141.8762  133.1098  149.1462 H   0  0  0  0  0  0  0  0  0  0  0  0
  144.4107  130.8937  150.2347 H   0  0  0  0  0  0  0  0  0  0  0  0
  146.3166  131.5158  151.6727 H   0  0  0  0  0  0  0  0  0  0  0  0
  147.5712  135.0226  151.8432 H   0  0  0  0  0  0  0  0  0  0  0  0
  148.9672  135.1441  153.1949 H   0  0  0  0  0  0  0  0  0  0  0  0
  149.8415  136.3165  153.6917 H   0  0  0  0  0  0  0  0  0  0  0  0
  152.2870  137.1365  155.1689 H   0  0  0  0  0  0  0  0  0  0  0  0
  151.8429  137.6195  153.5531 H   0  0  0  0  0  0  0  0  0  0  0  0
  150.2552  138.5196  156.0237 H   0  0  0  0  0  0  0  0  0  0  0  0
  150.4092  139.6164  153.1131 H   0  0  0  0  0  0  0  0  0  0  0  0
  149.3828  140.2768  154.4885 H   0  0  0  0  0  0  0  0  0  0  0  0
  151.4625  140.6753  155.8481 H   0  0  0  0  0  0  0  0  0  0  0  0
  152.4871  140.0148  154.4709 H   0  0  0  0  0  0  0  0  0  0  0  0
  148.7947  134.6859  156.9460 H   0  0  0  0  0  0  0  0  0  0  0  0
  147.4883  134.2481  155.8817 H   0  0  0  0  0  0  0  0  0  0  0  0
  148.4325  132.5235  157.7806 H   0  0  0  0  0  0  0  0  0  0  0  0
  147.8072  131.9551  156.2354 H   0  0  0  0  0  0  0  0  0  0  0  0
  150.7143  132.4182  156.9695 H   0  0  0  0  0  0  0  0  0  0  0  0
  150.0076  130.9630  156.2671 H   0  0  0  0  0  0  0  0  0  0  0  0
  149.6529  132.0330  154.1674 H   0  0  0  0  0  0  0  0  0  0  0  0
  151.2070  132.6908  154.6173 H   0  0  0  0  0  0  0  0  0  0  0  0
  145.5299  135.6875  150.6448 H   0  0  0  0  0  0  0  0  0  0  0  0
  143.7850  134.9486  149.3287 H   0  0  0  0  0  0  0  0  0  0  0  0
  1  2  1  0  0  0  0
  1 24  1  0  0  0  0
  1 25  1  0  0  0  0
  1 26  1  0  0  0  0
  2 23  1  0  0  0  0
  2  3  2  0  0  0  0
  3  4  1  0  0  0  0
  3 27  1  0  0  0  0
  4  5  2  0  0  0  0
  4 28  1  0  0  0  0
  5  6  1  0  0  0  0
  5 22  1  0  0  0  0
  6  7  1  0  0  0  0
  6 29  1  0  0  0  0
  7  8  2  0  0  0  0
  7  9  1  0  0  0  0
  9 10  1  0  0  0  0
  9 30  1  0  0  0  0
 10 21  1  0  0  0  0
 10 11  1  0  0  0  0
 10 18  1  0  0  0  0
 11 12  2  0  0  0  0
 11 13  1  0  0  0  0
 13 14  1  0  0  0  0
 13 31  1  0  0  0  0
 14 15  1  0  0  0  0
 14 32  1  0  0  0  0
 14 33  1  0  0  0  0
 15 17  1  0  0  0  0
 15 16  1  0  0  0  0
 15 34  1  0  0  0  0
 16 17  1  0  0  0  0
 16 35  1  0  0  0  0
 16 36  1  0  0  0  0
 17 37  1  0  0  0  0
 17 38  1  0  0  0  0
 18 19  1  0  0  0  0
 18 39  1  0  0  0  0
 18 40  1  0  0  0  0
 19 20  1  0  0  0  0
 19 41  1  0  0  0  0
 19 42  1  0  0  0  0
 20 21  1  0  0  0  0
 20 43  1  0  0  0  0
 20 44  1  0  0  0  0
 21 45  1  0  0  0  0
 21 46  1  0  0  0  0
 22 23  2  0  0  0  0
 22 47  1  0  0  0  0
 23 48  1  0  0  0  0
M  CHG  1  23   1
M  END
> <s_m_source_file>
AV-unprocessed.smi

> <i_m_source_file_index>
2387

> <i_lp_mmshare_version>
43012

> <i_f3d_flags>
0

> <s_epik_input>
W0NIM11jMVtjSF1bY0hdYyhbY0hdbjEpW05IXUMoPU8pW05IXUMyKFtDSDJdW0NIMl1bQ0gyXVtDSDJdMilDKD1PKVtOSF1bQ0gyXVtDSF0zW0NIMl1bQ0gyXTM=

> <s_epik_cmdline>
J2VwaWtfcHl0aG9uJywgJy1waCcsICc3LjAnLCAnLXRuJywgJzgnLCAnLW1hJywgJzIwMCcsICctbWV0YWxfYmluZGluZycsICctaW1hZScsICc8aW5maWxlLm1hZT4nLCAnLW9tYWUnLCAnPG91dGZpbGUubWFlPic=

> <r_epik_Ionization_Penalty>
2.1018

> <r_epik_Ionization_Penalty_Charging>
2.10178

> <r_epik_Ionization_Penalty_Neutral>
2.02976e-05

> <r_epik_State_Penalty>
2.23801

> <r_epik_Charging_Adjusted_Penalty>
4.33979

> <i_epik_Tot_Q>
1

> <i_epik_Tot_abs_Q>
1

> <r_epik_Metal_State_Penalty>
2.25493

> <b_epik_Metal_Only>
0

> <s_lp_Force_Field>
OPLS_2005

> <r_lp_Energy>
37.3987

> <b_lp_Chiralities_Consistent>
1

> <s_lp_Variant>
AV-unprocessed.smi:2387-2

> <Gold.Version>
5.8.1

> <Gold.Id.Protein>
6NUR|6NUR_protein|mol2

> <Gold.PLP.Fitness>
47.3103

> <Gold.PLP.PLP>
-36.6391

> <Gold.PLP.part.hbond>
-5.8671

> <Gold.PLP.part.metal>
0.0000

> <Gold.PLP.part.buried>
4.3593

> <Gold.PLP.part.nonpolar>
-34.6321

> <Gold.PLP.part.repulsive>
0.2749

> <Gold.PLP.ligand.clash>
0.0000

> <Gold.PLP.ligand.torsion>
0.7497

> <Gold.PLP.Chemscore.Hbond>
3.8482

> <Gold.PLP.Chemscore.CHOScore>
0.0000

> <Gold.PLP.Chemscore.Metal>
0.0000

> <Gold.Chemscore.Hbonds>
donor molecule, donor type, donor heavy atom, donor atom, acceptor molecule, acceptor atom, score
      L1  H     6    29       P1  7948  1.00
      L1  H     9    30       P1  7948  1.00
      L1  H    13    31       P1  7948  1.00
      P1  H 10752 10764       L1    12  0.71

> <Gold.PLP.Chemscore.Internal.Correction>
0.6261

> <Gold.Rescore>
     Score         DG    S(hbond)    S(metal)    S(lipo)     H(rot)  DE(clash)    DE(int)     intcor
     16.52     -21.03       2.16        0.00     106.78       1.63       1.71       2.80       ----

> <Gold.Chemscore.Fitness>
16.5236

> <Gold.Chemscore.DG>
-21.0269

> <Gold.Chemscore.ZeroCoef>
-5.4800

> <Gold.Chemscore.Hbond>
2.1624

> <Gold.Chemscore.Metal>
0.0000

> <Gold.Chemscore.Lipo>
106.7843

> <Gold.Chemscore.Internal_Hbond>
0.0000

> <Gold.Chemscore.DEClash>
1.7080

> <Gold.Chemscore.DEInternal>
2.7953

> <Gold.Chemscore.Rot>
1.6286

> <Gold.Chemscore.Internal.Correction>
   9.000000E+99

> <Gold.Chemscore.Hbonds>
donor molecule, donor type, donor heavy atom, donor atom, acceptor molecule, acceptor atom, score
      L1  H     6    29       P1  7948  0.78
      L1  H     9    30       P1  7948  0.34
      L1  H    13    31       P1  7948  0.25
      P1  H 10752 10764       L1    12  0.15

> <Gold.Chemscore.Hbond.Weighted>
-7.2223

> <Gold.Chemscore.Metal.Weighted>
-0.0000

> <Gold.Chemscore.Lipo.Weighted>
-12.4938

> <Gold.Chemscore.Internal_Hbond.Weighted>
0.0000

> <Gold.Chemscore.DEClash.Weighted>
1.7080

> <Gold.Chemscore.DEInternal.Weighted>
2.7953

> <Gold.Chemscore.Rot.Weighted>
4.1692

> <Gold.Chemscore.Internal.Correction.Weighted>
   9.000000E+99

> <Gold.Protein.RotatedTorsions>
[ 6907 6896 6895 6894 ] final  160.24 input  -60.11 | X-H torsion
[ 7974 7965 7964 7962 ] final -161.73 input  175.53 | X-H torsion
[ 8008 7997 7996 7995 ] final   -8.28 input   59.86 | X-H torsion
[ 10167 10162 10161 10158 ] final -149.94 input  -65.29 | X-H torsion
[ 10718 10713 10712 10709 ] final  -52.74 input   66.30 | X-H torsion
[ 10763 10752 10751 10750 ] final  -27.22 input  -60.55 | X-H torsion
[ 11005 11000 10999 10996 ] final  117.12 input  -57.11 | X-H torsion

> <Gold.Protein.ActiveResidues>
 VAL166  LYS551  ARG553  GLY616  TRP617  ASP618  TYR619  PRO620  LYS621  CYS622 
 ASP623  PHE694  ASN695  SER759  ASP760  ASP761  ALA762  ILE779  LEU786  VAL792 
 PHE793  MET794  SER795  GLU796  ALA797  LYS798  CYS799  TRP800  GLU811  SER814 

> <Gold.Protein.RotatedAtoms>
  151.9736  133.3734  159.4080 H   0  0  0  0  0  0  0  0  0  0  0  0  # atno 6907 bound_to 6896
  150.6945  134.4114  159.5172 H   0  0  0  0  0  0  0  0  0  0  0  0  # atno 6908 bound_to 6896
  152.1822  134.8744  160.0576 H   0  0  0  0  0  0  0  0  0  0  0  0  # atno 6909 bound_to 6896
  144.7381  140.3355  143.6145 H   0  0  0  0  0  0  0  0  0  0  0  0  # atno 7974 bound_to 7965
  154.5756  140.2385  155.8127 H   0  0  0  0  0  0  0  0  0  0  0  0  # atno 8008 bound_to 7997
  156.2141  140.3017  155.9755 H   0  0  0  0  0  0  0  0  0  0  0  0  # atno 8009 bound_to 7997
  155.2632  140.0415  157.2990 H   0  0  0  0  0  0  0  0  0  0  0  0  # atno 8010 bound_to 7997
  139.7398  143.8680  152.2559 H   0  0  0  0  0  0  0  0  0  0  0  0  # atno 10167 bound_to 10162
  156.1595  130.4150  149.9815 H   0  0  0  0  0  0  0  0  0  0  0  0  # atno 10718 bound_to 10713
  153.7286  135.6940  153.4995 H   0  0  0  0  0  0  0  0  0  0  0  0  # atno 10763 bound_to 10752
  153.2152  135.4389  155.0425 H   0  0  0  0  0  0  0  0  0  0  0  0  # atno 10764 bound_to 10752
  154.8260  135.3447  154.6817 H   0  0  0  0  0  0  0  0  0  0  0  0  # atno 10765 bound_to 10752
  139.9064  134.9606  156.7303 H   0  0  0  0  0  0  0  0  0  0  0  0  # atno 11005 bound_to 11000
  145.7428  139.1769  143.2366 LP  0  0  0  0  0  0  0  0  0  0  0  0  # atno 17320 bound_to 7965
  146.1121  140.7415  142.9498 LP  0  0  0  0  0  0  0  0  0  0  0  0  # atno 17321 bound_to 7965
  139.8627  144.7109  150.9080 LP  0  0  0  0  0  0  0  0  0  0  0  0  # atno 17342 bound_to 10162
  140.7784  143.3804  151.1488 LP  0  0  0  0  0  0  0  0  0  0  0  0  # atno 17343 bound_to 10162
  156.7648  130.9164  151.3642 LP  0  0  0  0  0  0  0  0  0  0  0  0  # atno 17370 bound_to 10713
  157.6722  130.9061  150.0066 LP  0  0  0  0  0  0  0  0  0  0  0  0  # atno 17371 bound_to 10713
  140.6930  133.9373  155.7978 LP  0  0  0  0  0  0  0  0  0  0  0  0  # atno 17394 bound_to 11000
  141.0427  134.0598  157.3882 LP  0  0  0  0  0  0  0  0  0  0  0  0  # atno 17395 bound_to 11000

$$$$
