AV-unprocessed.smi:2012|AV-procd|sdf|8155|dock5
  -GOLD-   2272010393D 1   1.00000     0.00000
 Structure written by MMmdl.
 50 51  0  0  0  0  0  0  0  0  1 V2000
  142.6011  137.4865  152.6114 C   0  0  0  0  0  0  0  0  0  0  0  0
  144.0656  137.0732  152.5235 C   0  0  0  0  0  0  0  0  0  0  0  0
  144.3652  135.8843  152.4173 O   0  0  0  0  0  0  0  0  0  0  0  0
  144.9680  138.0670  152.5726 N   0  0  0  0  0  0  0  0  0  0  0  0
  146.4228  137.8968  152.5495 C   0  0  2  0  0  0  0  0  0  0  0  0
  146.9528  138.1767  153.9678 C   0  0  0  0  0  0  0  0  0  0  0  0
  146.3154  138.8889  154.7453 O   0  0  0  0  0  0  0  0  0  0  0  0
  148.1168  137.5934  154.2928 N   0  0  0  0  0  0  0  0  0  0  0  0
  148.7398  137.6487  155.6123 C   0  0  0  0  0  0  0  0  0  0  0  0
  150.0559  138.4183  155.6698 C   0  0  0  0  0  0  0  0  0  0  0  0
  151.1392  138.0021  154.8718 C   0  0  0  0  0  0  0  0  0  0  0  0
  152.3392  138.7355  154.9309 C   0  0  0  0  0  0  0  0  0  0  0  0
  152.5066  139.8206  155.7154 N   0  0  0  0  0  0  0  0  0  0  0  0
  151.4770  140.2276  156.4982 C   0  0  0  0  0  0  0  0  0  0  0  0
  151.6576  141.3726  157.3045 N   0  0  0  0  0  0  0  0  0  0  0  0
  151.7495  141.1966  158.7524 C   0  0  0  0  0  0  0  0  0  0  0  0
  152.2883  142.4781  159.4117 C   0  0  0  0  0  0  0  0  0  0  0  0
  151.4826  143.5906  159.0366 O   0  0  0  0  0  0  0  0  0  0  0  0
  151.4977  143.8061  157.6290 C   0  0  0  0  0  0  0  0  0  0  0  0
  150.9253  142.5736  156.9092 C   0  0  0  0  0  0  0  0  0  0  0  0
  150.2383  139.5449  156.5036 C   0  0  0  0  0  0  0  0  0  0  0  0
  147.0369  138.9062  151.5353 C   0  0  0  0  0  0  0  0  0  0  0  0
  146.9342  140.3587  152.0404 C   0  0  0  0  0  0  0  0  0  0  0  0
  146.3975  138.8133  150.1341 C   0  0  0  0  0  0  0  0  0  0  0  0
  142.3767  137.8735  153.6055 H   0  0  0  0  0  0  0  0  0  0  0  0
  141.9460  136.6358  152.4205 H   0  0  0  0  0  0  0  0  0  0  0  0
  142.3762  138.2614  151.8780 H   0  0  0  0  0  0  0  0  0  0  0  0
  144.6255  139.0124  152.6644 H   0  0  0  0  0  0  0  0  0  0  0  0
  146.6749  136.8782  152.2465 H   0  0  0  0  0  0  0  0  0  0  0  0
  148.5749  137.0257  153.5947 H   0  0  0  0  0  0  0  0  0  0  0  0
  148.0371  138.1243  156.2965 H   0  0  0  0  0  0  0  0  0  0  0  0
  148.8967  136.6354  155.9859 H   0  0  0  0  0  0  0  0  0  0  0  0
  151.0527  137.1442  154.2215 H   0  0  0  0  0  0  0  0  0  0  0  0
  153.1867  138.4454  154.3276 H   0  0  0  0  0  0  0  0  0  0  0  0
  150.7623  140.9561  159.1494 H   0  0  0  0  0  0  0  0  0  0  0  0
  152.4114  140.3639  158.9935 H   0  0  0  0  0  0  0  0  0  0  0  0
  152.2714  142.3770  160.4969 H   0  0  0  0  0  0  0  0  0  0  0  0
  153.3261  142.6554  159.1246 H   0  0  0  0  0  0  0  0  0  0  0  0
  150.8985  144.6869  157.3984 H   0  0  0  0  0  0  0  0  0  0  0  0
  152.5142  144.0157  157.2911 H   0  0  0  0  0  0  0  0  0  0  0  0
  150.9632  142.7452  155.8353 H   0  0  0  0  0  0  0  0  0  0  0  0
  149.8742  142.4447  157.1705 H   0  0  0  0  0  0  0  0  0  0  0  0
  149.4285  139.8984  157.1211 H   0  0  0  0  0  0  0  0  0  0  0  0
  148.0994  138.6834  151.4213 H   0  0  0  0  0  0  0  0  0  0  0  0
  145.8956  140.6450  152.2086 H   0  0  0  0  0  0  0  0  0  0  0  0
  147.3562  141.0567  151.3168 H   0  0  0  0  0  0  0  0  0  0  0  0
  147.4755  140.5057  152.9751 H   0  0  0  0  0  0  0  0  0  0  0  0
  145.3212  138.9831  150.1802 H   0  0  0  0  0  0  0  0  0  0  0  0
  146.5619  137.8410  149.6694 H   0  0  0  0  0  0  0  0  0  0  0  0
  146.8209  139.5588  149.4603 H   0  0  0  0  0  0  0  0  0  0  0  0
  1  2  1  0  0  0  0
  1 25  1  0  0  0  0
  1 26  1  0  0  0  0
  1 27  1  0  0  0  0
  2  3  2  0  0  0  0
  2  4  1  0  0  0  0
  4  5  1  0  0  0  0
  4 28  1  0  0  0  0
  5  6  1  0  0  0  0
  5 22  1  0  0  0  0
  5 29  1  0  0  0  0
  6  7  2  0  0  0  0
  6  8  1  0  0  0  0
  8  9  1  0  0  0  0
  8 30  1  0  0  0  0
  9 10  1  0  0  0  0
  9 31  1  0  0  0  0
  9 32  1  0  0  0  0
 10 21  1  0  0  0  0
 10 11  2  0  0  0  0
 11 12  1  0  0  0  0
 11 33  1  0  0  0  0
 12 13  2  0  0  0  0
 12 34  1  0  0  0  0
 13 14  1  0  0  0  0
 14 15  1  0  0  0  0
 14 21  2  0  0  0  0
 15 20  1  0  0  0  0
 15 16  1  0  0  0  0
 16 17  1  0  0  0  0
 16 35  1  0  0  0  0
 16 36  1  0  0  0  0
 17 18  1  0  0  0  0
 17 37  1  0  0  0  0
 17 38  1  0  0  0  0
 18 19  1  0  0  0  0
 19 20  1  0  0  0  0
 19 39  1  0  0  0  0
 19 40  1  0  0  0  0
 20 41  1  0  0  0  0
 20 42  1  0  0  0  0
 21 43  1  0  0  0  0
 22 23  1  0  0  0  0
 22 24  1  0  0  0  0
 22 44  1  0  0  0  0
 23 45  1  0  0  0  0
 23 46  1  0  0  0  0
 23 47  1  0  0  0  0
 24 48  1  0  0  0  0
 24 49  1  0  0  0  0
 24 50  1  0  0  0  0
M  END
> <s_m_source_file>
AV-unprocessed.smi

> <i_m_source_file_index>
2012

> <i_lp_mmshare_version>
43012

> <i_f3d_flags>
0

> <s_epik_input>
W0NIM11DKD1PKVtOSF1bQ0BASF0oW0NIXShbQ0gzXSlbQ0gzXSlDKD1PKVtOSF1bQ0gyXWMxW2NIXVtjSF1uYyhbY0hdMSlOMltDSDJdW0NIMl1PW0NIMl1bQ0gyXTI=

> <s_epik_cmdline>
J2VwaWtfcHl0aG9uJywgJy1waCcsICc3LjAnLCAnLXRuJywgJzgnLCAnLW1hJywgJzIwMCcsICctbWV0YWxfYmluZGluZycsICctaW1hZScsICc8aW5maWxlLm1hZT4nLCAnLW9tYWUnLCAnPG91dGZpbGUubWFlPic=

> <r_lp_tautomer_probability>
1

> <r_epik_Ionization_Penalty>
0.00518786

> <r_epik_Ionization_Penalty_Charging>
0

> <r_epik_Ionization_Penalty_Neutral>
0.00518786

> <r_epik_State_Penalty>
0.00378052

> <r_epik_Charging_Adjusted_Penalty>
0.00378052

> <i_epik_Tot_Q>
0

> <i_epik_Tot_abs_Q>
0

> <r_epik_Metal_State_Penalty>
-0

> <b_epik_Metal_Only>
0

> <s_lp_Force_Field>
OPLS_2005

> <r_lp_Energy>
14.5368

> <b_lp_Chiralities_Consistent>
1

> <s_lp_Variant>
AV-unprocessed.smi:2012-1

> <Gold.Version>
5.8.1

> <Gold.Id.Protein>
6NUR|6NUR_protein|mol2

> <Gold.PLP.Fitness>
40.5717

> <Gold.PLP.PLP>
-33.4448

> <Gold.PLP.part.hbond>
-3.0208

> <Gold.PLP.part.metal>
0.0000

> <Gold.PLP.part.buried>
6.8524

> <Gold.PLP.part.nonpolar>
-36.7423

> <Gold.PLP.part.repulsive>
0.1609

> <Gold.PLP.ligand.clash>
0.0000

> <Gold.PLP.ligand.torsion>
1.1768

> <Gold.PLP.Chemscore.Hbond>
2.9920

> <Gold.PLP.Chemscore.CHOScore>
0.0000

> <Gold.PLP.Chemscore.Metal>
0.0000

> <Gold.Chemscore.Hbonds>
donor molecule, donor type, donor heavy atom, donor atom, acceptor molecule, acceptor atom, score
      L1  H     4    28       P1 10175  1.00
      L1  H     8    30       P1  7948  1.00
      P1  H  7997  8009       L1    13  1.00

> <Gold.PLP.Chemscore.Internal.Correction>
0.5044

> <Gold.Rescore>
     Score         DG    S(hbond)    S(metal)    S(lipo)     H(rot)  DE(clash)    DE(int)     intcor
     18.27     -21.65       2.84        0.00     104.82       2.18       2.23       1.15       ----

> <Gold.Chemscore.Fitness>
18.2667

> <Gold.Chemscore.DG>
-21.6463

> <Gold.Chemscore.ZeroCoef>
-5.4800

> <Gold.Chemscore.Hbond>
2.8401

> <Gold.Chemscore.Metal>
0.0000

> <Gold.Chemscore.Lipo>
104.8242

> <Gold.Chemscore.Internal_Hbond>
0.0000

> <Gold.Chemscore.DEClash>
2.2327

> <Gold.Chemscore.DEInternal>
1.1469

> <Gold.Chemscore.Rot>
2.1813

> <Gold.Chemscore.Internal.Correction>
   9.000000E+99

> <Gold.Chemscore.Hbonds>
donor molecule, donor type, donor heavy atom, donor atom, acceptor molecule, acceptor atom, score
      L1  H     4    28       P1 10175  1.00
      L1  H     8    30       P1  7948  0.99
      P1  H  7997  8009       L1    13  0.87

> <Gold.Chemscore.Hbond.Weighted>
-9.4861

> <Gold.Chemscore.Metal.Weighted>
-0.0000

> <Gold.Chemscore.Lipo.Weighted>
-12.2644

> <Gold.Chemscore.Internal_Hbond.Weighted>
0.0000

> <Gold.Chemscore.DEClash.Weighted>
2.2327

> <Gold.Chemscore.DEInternal.Weighted>
1.1469

> <Gold.Chemscore.Rot.Weighted>
5.5842

> <Gold.Chemscore.Internal.Correction.Weighted>
   9.000000E+99

> <Gold.Protein.RotatedTorsions>
[ 6907 6896 6895 6894 ] final   35.09 input  -60.11 | X-H torsion
[ 7974 7965 7964 7962 ] final  -48.76 input  175.53 | X-H torsion
[ 8008 7997 7996 7995 ] final -164.60 input   59.86 | X-H torsion
[ 10167 10162 10161 10158 ] final   22.20 input  -65.29 | X-H torsion
[ 10718 10713 10712 10709 ] final -141.68 input   66.30 | X-H torsion
[ 10763 10752 10751 10750 ] final  -69.14 input  -60.55 | X-H torsion
[ 11005 11000 10999 10996 ] final   42.34 input  -57.11 | X-H torsion

> <Gold.Protein.ActiveResidues>
 VAL166  LYS551  ARG553  GLY616  TRP617  ASP618  TYR619  PRO620  LYS621  CYS622 
 ASP623  PHE694  ASN695  SER759  ASP760  ASP761  ALA762  ILE779  LEU786  VAL792 
 PHE793  MET794  SER795  GLU796  ALA797  LYS798  CYS799  TRP800  GLU811  SER814 

> <Gold.Protein.RotatedAtoms>
  152.1114  134.9271  160.0566 H   0  0  0  0  0  0  0  0  0  0  0  0  # atno 6907 bound_to 6896
  152.0447  133.3988  159.4360 H   0  0  0  0  0  0  0  0  0  0  0  0  # atno 6908 bound_to 6896
  150.6844  134.3296  159.4865 H   0  0  0  0  0  0  0  0  0  0  0  0  # atno 6909 bound_to 6896
  145.9477  140.7602  142.9520 H   0  0  0  0  0  0  0  0  0  0  0  0  # atno 7974 bound_to 7965
  155.8379  140.0944  157.1752 H   0  0  0  0  0  0  0  0  0  0  0  0  # atno 8008 bound_to 7997
  154.3981  140.1406  156.3754 H   0  0  0  0  0  0  0  0  0  0  0  0  # atno 8009 bound_to 7997
  155.8095  140.3450  155.5452 H   0  0  0  0  0  0  0  0  0  0  0  0  # atno 8010 bound_to 7997
  140.5367  143.9748  150.6495 H   0  0  0  0  0  0  0  0  0  0  0  0  # atno 10167 bound_to 10162
  156.3369  130.7616  151.1745 H   0  0  0  0  0  0  0  0  0  0  0  0  # atno 10718 bound_to 10713
  154.3991  135.6035  153.5886 H   0  0  0  0  0  0  0  0  0  0  0  0  # atno 10763 bound_to 10752
  152.9788  135.5902  154.4206 H   0  0  0  0  0  0  0  0  0  0  0  0  # atno 10764 bound_to 10752
  154.4002  135.2843  155.2079 H   0  0  0  0  0  0  0  0  0  0  0  0  # atno 10765 bound_to 10752
  140.1748  134.4177  155.8235 H   0  0  0  0  0  0  0  0  0  0  0  0  # atno 11005 bound_to 11000
  144.6790  140.2384  143.7347 LP  0  0  0  0  0  0  0  0  0  0  0  0  # atno 17320 bound_to 7965
  145.8214  139.2045  143.1936 LP  0  0  0  0  0  0  0  0  0  0  0  0  # atno 17321 bound_to 7965
  140.3138  143.3181  152.0853 LP  0  0  0  0  0  0  0  0  0  0  0  0  # atno 17342 bound_to 10162
  139.4973  144.6619  151.6445 LP  0  0  0  0  0  0  0  0  0  0  0  0  # atno 17343 bound_to 10162
  157.7440  131.0465  150.4899 LP  0  0  0  0  0  0  0  0  0  0  0  0  # atno 17370 bound_to 10713
  156.5073  130.4131  149.6320 LP  0  0  0  0  0  0  0  0  0  0  0  0  # atno 17371 bound_to 10713
  141.2220  133.6973  156.7827 LP  0  0  0  0  0  0  0  0  0  0  0  0  # atno 17394 bound_to 11000
  140.2335  134.8668  157.3501 LP  0  0  0  0  0  0  0  0  0  0  0  0  # atno 17395 bound_to 11000

$$$$
