AV-unprocessed.smi:1027|AV-procd|sdf|4469|dock9
  -GOLD-   22720 2443D 1   1.00000     0.00000
 Structure written by MMmdl.
 35 36  0  0  0  0  0  0  0  0  1 V2000
  149.7261  141.4538  155.7283 C   0  0  0  0  0  0  0  0  0  0  0  0
  148.9728  140.3817  154.9201 C   0  0  0  0  0  0  0  0  0  0  0  0
  149.9440  139.2413  154.5575 C   0  0  0  0  0  0  0  0  0  0  0  0
  148.2608  140.9747  153.6739 C   0  0  2  0  0  0  0  0  0  0  0  0
  147.1072  141.9293  154.0276 C   0  0  0  0  0  0  0  0  0  0  0  0
  147.7170  139.9089  152.8309 N   0  0  0  0  0  0  0  0  0  0  0  0
  146.8349  138.9722  153.2118 C   0  0  0  0  0  0  0  0  0  0  0  0
  146.3510  138.9091  154.3422 O   0  0  0  0  0  0  0  0  0  0  0  0
  146.5594  138.1286  152.2016 N   0  0  0  0  0  0  0  0  0  0  0  0
  145.6831  137.0116  152.2022 C   0  0  0  0  0  0  0  0  0  0  0  0
  144.9116  136.6707  153.2436 N   0  0  0  0  0  0  0  0  0  0  0  0
  144.1561  135.5371  152.9790 N   0  0  0  0  0  0  0  0  0  0  0  0
  144.3774  135.0544  151.7505 C   0  0  0  0  0  0  0  0  0  0  0  0
  143.6865  133.8351  151.2381 C   0  0  0  0  0  0  0  0  0  0  0  0
  144.4332  132.5294  151.0882 C   0  0  0  0  0  0  0  0  0  0  0  0
  143.9802  133.2791  149.8617 C   0  0  0  0  0  0  0  0  0  0  0  0
  145.5400  135.9703  150.7968 S   0  0  0  0  0  0  0  0  0  0  0  0
  150.4626  141.9696  155.1116 H   0  0  0  0  0  0  0  0  0  0  0  0
  150.2546  141.0098  156.5723 H   0  0  0  0  0  0  0  0  0  0  0  0
  149.0495  142.2015  156.1410 H   0  0  0  0  0  0  0  0  0  0  0  0
  148.2102  139.9574  155.5749 H   0  0  0  0  0  0  0  0  0  0  0  0
  150.7060  139.5806  153.8549 H   0  0  0  0  0  0  0  0  0  0  0  0
  149.4274  138.3947  154.1058 H   0  0  0  0  0  0  0  0  0  0  0  0
  150.4545  138.8628  155.4434 H   0  0  0  0  0  0  0  0  0  0  0  0
  148.9944  141.5517  153.1077 H   0  0  0  0  0  0  0  0  0  0  0  0
  147.4633  142.8217  154.5415 H   0  0  0  0  0  0  0  0  0  0  0  0
  146.3706  141.4434  154.6684 H   0  0  0  0  0  0  0  0  0  0  0  0
  146.5915  142.2690  153.1285 H   0  0  0  0  0  0  0  0  0  0  0  0
  148.0514  139.8783  151.8790 H   0  0  0  0  0  0  0  0  0  0  0  0
  147.0435  138.2979  151.3322 H   0  0  0  0  0  0  0  0  0  0  0  0
  142.6589  133.7967  151.5940 H   0  0  0  0  0  0  0  0  0  0  0  0
  145.4985  132.5276  151.3106 H   0  0  0  0  0  0  0  0  0  0  0  0
  143.9012  131.6159  151.3459 H   0  0  0  0  0  0  0  0  0  0  0  0
  143.1453  132.8656  149.2999 H   0  0  0  0  0  0  0  0  0  0  0  0
  144.7496  133.7627  149.2631 H   0  0  0  0  0  0  0  0  0  0  0  0
  1  2  1  0  0  0  0
  1 18  1  0  0  0  0
  1 19  1  0  0  0  0
  1 20  1  0  0  0  0
  2  3  1  0  0  0  0
  2  4  1  0  0  0  0
  2 21  1  0  0  0  0
  3 22  1  0  0  0  0
  3 23  1  0  0  0  0
  3 24  1  0  0  0  0
  4  5  1  0  0  0  0
  4  6  1  0  0  0  0
  4 25  1  0  0  0  0
  5 26  1  0  0  0  0
  5 27  1  0  0  0  0
  5 28  1  0  0  0  0
  6  7  1  0  0  0  0
  6 29  1  0  0  0  0
  7  8  2  0  0  0  0
  7  9  1  0  0  0  0
  9 10  1  0  0  0  0
  9 30  1  0  0  0  0
 10 17  1  0  0  0  0
 10 11  2  0  0  0  0
 11 12  1  0  0  0  0
 12 13  2  0  0  0  0
 13 14  1  0  0  0  0
 13 17  1  0  0  0  0
 14 16  1  0  0  0  0
 14 15  1  0  0  0  0
 14 31  1  0  0  0  0
 15 16  1  0  0  0  0
 15 32  1  0  0  0  0
 15 33  1  0  0  0  0
 16 34  1  0  0  0  0
 16 35  1  0  0  0  0
M  END
> <s_m_source_file>
AV-unprocessed.smi

> <i_m_source_file_index>
1027

> <i_lp_mmshare_version>
43012

> <i_f3d_flags>
0

> <s_epik_input>
W0NIM11bQ0hdKFtDSDNdKVtDQEhdKFtDSDNdKVtOSF1DKD1PKVtOSF1jMW5uYyhzMSlbQ0hdMltDSDJdW0NIMl0y

> <s_epik_cmdline>
J2VwaWtfcHl0aG9uJywgJy1waCcsICc3LjAnLCAnLXRuJywgJzgnLCAnLW1hJywgJzIwMCcsICctbWV0YWxfYmluZGluZycsICctaW1hZScsICc8aW5maWxlLm1hZT4nLCAnLW9tYWUnLCAnPG91dGZpbGUubWFlPic=

> <r_lp_tautomer_probability>
1

> <r_epik_Ionization_Penalty>
0.000943246

> <r_epik_Ionization_Penalty_Charging>
0

> <r_epik_Ionization_Penalty_Neutral>
0.000943246

> <r_epik_State_Penalty>
-0

> <r_epik_Charging_Adjusted_Penalty>
0

> <i_epik_Tot_Q>
0

> <i_epik_Tot_abs_Q>
0

> <r_epik_Metal_State_Penalty>
0.281646

> <b_epik_Metal_Only>
0

> <s_lp_Force_Field>
OPLS_2005

> <r_lp_Energy>
3.85842

> <b_lp_Chiralities_Consistent>
1

> <s_lp_Variant>
AV-unprocessed.smi:1027-1

> <Gold.Version>
5.8.1

> <Gold.Id.Protein>
6NUR|6NUR_protein|mol2

> <Gold.PLP.Fitness>
34.0817

> <Gold.PLP.PLP>
-32.5982

> <Gold.PLP.part.hbond>
-1.8166

> <Gold.PLP.part.metal>
0.0000

> <Gold.PLP.part.buried>
-4.6476

> <Gold.PLP.part.nonpolar>
-28.0110

> <Gold.PLP.part.repulsive>
0.4547

> <Gold.PLP.ligand.clash>
0.0000

> <Gold.PLP.ligand.torsion>
0.2699

> <Gold.PLP.Chemscore.Hbond>
0.6240

> <Gold.PLP.Chemscore.CHOScore>
0.0000

> <Gold.PLP.Chemscore.Metal>
0.0000

> <Gold.Chemscore.Hbonds>
donor molecule, donor type, donor heavy atom, donor atom, acceptor molecule, acceptor atom, score
      L1  H     6    29       P1  7957  0.70

> <Gold.PLP.Chemscore.Internal.Correction>
0.1514

> <Gold.Rescore>
     Score         DG    S(hbond)    S(metal)    S(lipo)     H(rot)  DE(clash)    DE(int)     intcor
     10.80     -12.83       0.74        0.00      72.10       1.39       0.09       1.94       ----

> <Gold.Chemscore.Fitness>
10.8022

> <Gold.Chemscore.DG>
-12.8255

> <Gold.Chemscore.ZeroCoef>
-5.4800

> <Gold.Chemscore.Hbond>
0.7382

> <Gold.Chemscore.Metal>
0.0000

> <Gold.Chemscore.Lipo>
72.1002

> <Gold.Chemscore.Internal_Hbond>
0.0000

> <Gold.Chemscore.DEClash>
0.0857

> <Gold.Chemscore.DEInternal>
1.9376

> <Gold.Chemscore.Rot>
1.3890

> <Gold.Chemscore.Internal.Correction>
   9.000000E+99

> <Gold.Chemscore.Hbonds>
donor molecule, donor type, donor heavy atom, donor atom, acceptor molecule, acceptor atom, score
      L1  H     6    29       P1  7957  0.70

> <Gold.Chemscore.Hbond.Weighted>
-2.4656

> <Gold.Chemscore.Metal.Weighted>
-0.0000

> <Gold.Chemscore.Lipo.Weighted>
-8.4357

> <Gold.Chemscore.Internal_Hbond.Weighted>
0.0000

> <Gold.Chemscore.DEClash.Weighted>
0.0857

> <Gold.Chemscore.DEInternal.Weighted>
1.9376

> <Gold.Chemscore.Rot.Weighted>
3.5559

> <Gold.Chemscore.Internal.Correction.Weighted>
   9.000000E+99

> <Gold.Protein.RotatedTorsions>
[ 6907 6896 6895 6894 ] final -101.53 input  -60.11 | X-H torsion
[ 7974 7965 7964 7962 ] final  -93.55 input  175.53 | X-H torsion
[ 8008 7997 7996 7995 ] final   93.08 input   59.86 | X-H torsion
[ 10167 10162 10161 10158 ] final   -5.92 input  -65.29 | X-H torsion
[ 10718 10713 10712 10709 ] final -140.31 input   66.30 | X-H torsion
[ 10763 10752 10751 10750 ] final  125.46 input  -60.55 | X-H torsion
[ 11005 11000 10999 10996 ] final    3.01 input  -57.11 | X-H torsion

> <Gold.Protein.ActiveResidues>
 VAL166  LYS551  ARG553  GLY616  TRP617  ASP618  TYR619  PRO620  LYS621  CYS622 
 ASP623  PHE694  ASN695  SER759  ASP760  ASP761  ALA762  ILE779  LEU786  VAL792 
 PHE793  MET794  SER795  GLU796  ALA797  LYS798  CYS799  TRP800  GLU811  SER814 

> <Gold.Protein.RotatedAtoms>
  150.7158  134.0720  159.3867 H   0  0  0  0  0  0  0  0  0  0  0  0  # atno 6907 bound_to 6896
  151.8702  135.0490  160.0488 H   0  0  0  0  0  0  0  0  0  0  0  0  # atno 6908 bound_to 6896
  152.2649  133.5294  159.5440 H   0  0  0  0  0  0  0  0  0  0  0  0  # atno 6909 bound_to 6896
  145.3851  140.9522  143.2372 H   0  0  0  0  0  0  0  0  0  0  0  0  # atno 7974 bound_to 7965
  156.0427  140.3317  155.7262 H   0  0  0  0  0  0  0  0  0  0  0  0  # atno 8008 bound_to 7997
  155.5719  140.0629  157.2822 H   0  0  0  0  0  0  0  0  0  0  0  0  # atno 8009 bound_to 7997
  154.4400  140.1859  156.0877 H   0  0  0  0  0  0  0  0  0  0  0  0  # atno 8010 bound_to 7997
  140.6979  143.6254  150.8573 H   0  0  0  0  0  0  0  0  0  0  0  0  # atno 10167 bound_to 10162
  156.3209  130.7533  151.1631 H   0  0  0  0  0  0  0  0  0  0  0  0  # atno 10718 bound_to 10713
  153.6776  135.3320  155.3170 H   0  0  0  0  0  0  0  0  0  0  0  0  # atno 10763 bound_to 10752
  154.8474  135.4401  154.1640 H   0  0  0  0  0  0  0  0  0  0  0  0  # atno 10764 bound_to 10752
  153.2647  135.6994  153.7618 H   0  0  0  0  0  0  0  0  0  0  0  0  # atno 10765 bound_to 10752
  140.5979  133.9863  155.8118 H   0  0  0  0  0  0  0  0  0  0  0  0  # atno 11005 bound_to 11000
  144.8480  139.5367  143.6869 LP  0  0  0  0  0  0  0  0  0  0  0  0  # atno 17320 bound_to 7965
  146.2824  139.6912  142.9220 LP  0  0  0  0  0  0  0  0  0  0  0  0  # atno 17321 bound_to 7965
  139.9973  143.5782  152.2888 LP  0  0  0  0  0  0  0  0  0  0  0  0  # atno 17342 bound_to 10162
  139.6459  144.7658  151.2245 LP  0  0  0  0  0  0  0  0  0  0  0  0  # atno 17343 bound_to 10162
  157.7411  131.0508  150.5118 LP  0  0  0  0  0  0  0  0  0  0  0  0  # atno 17370 bound_to 10713
  156.5270  130.4175  149.6221 LP  0  0  0  0  0  0  0  0  0  0  0  0  # atno 17371 bound_to 10713
  141.0892  133.9943  157.3265 LP  0  0  0  0  0  0  0  0  0  0  0  0  # atno 17394 bound_to 11000
  139.9245  135.0201  156.8185 LP  0  0  0  0  0  0  0  0  0  0  0  0  # atno 17395 bound_to 11000

$$$$
