AV-unprocessed.smi:1669|AV-procd|sdf|6691|dock1
  -GOLD-   22720 7423D 1   1.00000     0.00000
 Structure written by MMmdl.
 49 51  0  0  0  0  0  0  0  0  3 V2000
  148.9063  136.5694  155.5262 C   0  0  0  0  0  0  0  0  0  0  0  0
  150.3703  136.3507  155.4479 N   0  3  1  0  0  0  0  0  0  0  0  0
  150.7322  135.5913  154.2223 C   0  0  0  0  0  0  0  0  0  0  0  0
  150.5360  134.0921  154.3767 C   0  0  0  0  0  0  0  0  0  0  0  0
  151.0763  133.4145  155.4914 C   0  0  0  0  0  0  0  0  0  0  0  0
  150.8835  132.0273  155.6380 C   0  0  0  0  0  0  0  0  0  0  0  0
  150.1544  131.3112  154.6689 C   0  0  0  0  0  0  0  0  0  0  0  0
  149.6183  131.9828  153.5531 C   0  0  0  0  0  0  0  0  0  0  0  0
  149.8089  133.3706  153.4067 C   0  0  0  0  0  0  0  0  0  0  0  0
  151.1601  137.6030  155.6117 C   0  0  0  0  0  0  0  0  0  0  0  0
  151.1073  138.2036  157.0349 C   0  0  1  0  0  0  0  0  0  0  0  0
  151.4128  137.1990  157.9811 O   0  0  0  0  0  0  0  0  0  0  0  0
  152.1157  139.3513  157.2570 C   0  0  0  0  0  0  0  0  0  0  0  0
  151.5380  140.6913  157.0588 N   0  0  0  0  0  0  0  0  0  0  0  0
  150.7876  141.1770  156.0274 C   0  0  0  0  0  0  0  0  0  0  0  0
  150.3583  140.4383  154.8029 C   0  0  0  0  0  0  0  0  0  0  0  0
  149.8438  141.2992  153.8118 O   0  0  0  0  0  0  0  0  0  0  0  0
  150.4805  142.4707  156.3248 N   0  3  0  0  0  0  0  0  0  0  0  0
  151.0344  142.8176  157.5574 C   0  0  0  0  0  0  0  0  0  0  0  0
  150.9916  144.0120  158.2699 C   0  0  0  0  0  0  0  0  0  0  0  0
  151.6660  144.0352  159.5081 C   0  0  0  0  0  0  0  0  0  0  0  0
  152.3463  142.9003  159.9944 C   0  0  0  0  0  0  0  0  0  0  0  0
  152.3810  141.6942  159.2641 C   0  0  0  0  0  0  0  0  0  0  0  0
  151.7130  141.6785  158.0386 C   0  0  0  0  0  0  0  0  0  0  0  0
  148.5725  137.2611  154.7517 H   0  0  0  0  0  0  0  0  0  0  0  0
  148.6103  136.9687  156.4953 H   0  0  0  0  0  0  0  0  0  0  0  0
  148.3674  135.6302  155.3964 H   0  0  0  0  0  0  0  0  0  0  0  0
  150.1105  135.9203  153.3883 H   0  0  0  0  0  0  0  0  0  0  0  0
  151.7646  135.8091  153.9435 H   0  0  0  0  0  0  0  0  0  0  0  0
  151.6345  133.9569  156.2408 H   0  0  0  0  0  0  0  0  0  0  0  0
  151.2951  131.5116  156.4932 H   0  0  0  0  0  0  0  0  0  0  0  0
  150.0073  130.2469  154.7807 H   0  0  0  0  0  0  0  0  0  0  0  0
  149.0603  131.4327  152.8096 H   0  0  0  0  0  0  0  0  0  0  0  0
  149.3927  133.8793  152.5491 H   0  0  0  0  0  0  0  0  0  0  0  0
  152.2069  137.4112  155.3814 H   0  0  0  0  0  0  0  0  0  0  0  0
  150.8108  138.3288  154.8763 H   0  0  0  0  0  0  0  0  0  0  0  0
  150.1090  138.5827  157.2488 H   0  0  0  0  0  0  0  0  0  0  0  0
  151.0001  137.4134  158.8036 H   0  0  0  0  0  0  0  0  0  0  0  0
  152.5029  139.3133  158.2761 H   0  0  0  0  0  0  0  0  0  0  0  0
  152.9840  139.2401  156.6072 H   0  0  0  0  0  0  0  0  0  0  0  0
  151.2073  139.8915  154.3919 H   0  0  0  0  0  0  0  0  0  0  0  0
  149.5999  139.7014  155.0665 H   0  0  0  0  0  0  0  0  0  0  0  0
  150.0694  140.9523  152.9619 H   0  0  0  0  0  0  0  0  0  0  0  0
  150.4681  144.8821  157.9011 H   0  0  0  0  0  0  0  0  0  0  0  0
  151.6596  144.9409  160.0976 H   0  0  0  0  0  0  0  0  0  0  0  0
  152.8499  142.9550  160.9492 H   0  0  0  0  0  0  0  0  0  0  0  0
  152.9055  140.8341  159.6524 H   0  0  0  0  0  0  0  0  0  0  0  0
  150.6149  135.7527  156.2244 H   0  0  0  0  0  0  0  0  0  0  0  0
  149.9222  143.0688  155.7290 H   0  0  0  0  0  0  0  0  0  0  0  0
  1  2  1  0  0  0  0
  1 25  1  0  0  0  0
  1 26  1  0  0  0  0
  1 27  1  0  0  0  0
  2  3  1  0  0  0  0
  2 10  1  0  0  0  0
  2 48  1  0  0  0  0
  3  4  1  0  0  0  0
  3 28  1  0  0  0  0
  3 29  1  0  0  0  0
  4  9  1  0  0  0  0
  4  5  2  0  0  0  0
  5  6  1  0  0  0  0
  5 30  1  0  0  0  0
  6  7  2  0  0  0  0
  6 31  1  0  0  0  0
  7  8  1  0  0  0  0
  7 32  1  0  0  0  0
  8  9  2  0  0  0  0
  8 33  1  0  0  0  0
  9 34  1  0  0  0  0
 10 11  1  0  0  0  0
 10 35  1  0  0  0  0
 10 36  1  0  0  0  0
 11 12  1  0  0  0  0
 11 13  1  0  0  0  0
 11 37  1  0  0  0  0
 12 38  1  0  0  0  0
 13 14  1  0  0  0  0
 13 39  1  0  0  0  0
 13 40  1  0  0  0  0
 14 24  1  0  0  0  0
 14 15  1  0  0  0  0
 15 16  1  0  0  0  0
 15 18  2  0  0  0  0
 16 17  1  0  0  0  0
 16 41  1  0  0  0  0
 16 42  1  0  0  0  0
 17 43  1  0  0  0  0
 18 19  1  0  0  0  0
 18 49  1  0  0  0  0
 19 24  2  0  0  0  0
 19 20  1  0  0  0  0
 20 21  2  0  0  0  0
 20 44  1  0  0  0  0
 21 22  1  0  0  0  0
 21 45  1  0  0  0  0
 22 23  2  0  0  0  0
 22 46  1  0  0  0  0
 23 24  1  0  0  0  0
 23 47  1  0  0  0  0
M  CHG  1   2   1
M  CHG  1  18   1
M  END
> <s_m_source_file>
AV-unprocessed.smi

> <i_m_source_file_index>
1669

> <i_lp_mmshare_version>
43012

> <i_f3d_flags>
0

> <s_epik_input>
W2NIXTFbY0hdW2NIXVtjSF1bY0hdYzFbQ0gyXU4oW0NIM10pW0NIMl1bQ0BIXShbT0hdKVtDSDJdbihjKG4yKVtDSDJdW09IXSljKGMyMylbY0hdW2NIXVtjSF1bY0hdMw==

> <s_epik_cmdline>
J2VwaWtfcHl0aG9uJywgJy1waCcsICc3LjAnLCAnLXRuJywgJzgnLCAnLW1hJywgJzIwMCcsICctbWV0YWxfYmluZGluZycsICctaW1hZScsICc8aW5maWxlLm1hZT4nLCAnLW9tYWUnLCAnPG91dGZpbGUubWFlPic=

> <r_epik_Ionization_Penalty>
1.57484

> <r_epik_Ionization_Penalty_Charging>
1.57398

> <r_epik_Ionization_Penalty_Neutral>
0.000858917

> <r_epik_State_Penalty>
1.64997

> <r_epik_Charging_Adjusted_Penalty>
3.22395

> <i_epik_Tot_Q>
2

> <i_epik_Tot_abs_Q>
2

> <r_epik_Metal_State_Penalty>
5.70481

> <b_epik_Metal_Only>
0

> <s_lp_Force_Field>
OPLS_2005

> <r_lp_Energy>
25.6323

> <b_lp_Chiralities_Consistent>
1

> <s_lp_Variant>
AV-unprocessed.smi:1669-9

> <Gold.Version>
5.8.1

> <Gold.Id.Protein>
6NUR|6NUR_protein|mol2

> <Gold.PLP.Fitness>
52.9431

> <Gold.PLP.PLP>
-46.8121

> <Gold.PLP.part.hbond>
-4.0000

> <Gold.PLP.part.metal>
0.0000

> <Gold.PLP.part.buried>
-4.0531

> <Gold.PLP.part.nonpolar>
-38.3940

> <Gold.PLP.part.repulsive>
0.1547

> <Gold.PLP.ligand.clash>
0.0000

> <Gold.PLP.ligand.torsion>
1.2529

> <Gold.PLP.Chemscore.Hbond>
2.7030

> <Gold.PLP.Chemscore.CHOScore>
0.0000

> <Gold.PLP.Chemscore.Metal>
0.0000

> <Gold.Chemscore.Hbonds>
donor molecule, donor type, donor heavy atom, donor atom, acceptor molecule, acceptor atom, score
      L1  H    17    43       P1  7957  0.93
      L1  H    18    49       P1  8028  1.79

> <Gold.PLP.Chemscore.Internal.Correction>
0.5278

> <Gold.Rescore>
     Score         DG    S(hbond)    S(metal)    S(lipo)     H(rot)  DE(clash)    DE(int)     intcor
     15.60     -17.27       1.78        0.00     121.50       3.27       0.55       1.12       ----

> <Gold.Chemscore.Fitness>
15.5981

> <Gold.Chemscore.DG>
-17.2683

> <Gold.Chemscore.ZeroCoef>
-5.4800

> <Gold.Chemscore.Hbond>
1.7810

> <Gold.Chemscore.Metal>
0.0000

> <Gold.Chemscore.Lipo>
121.5017

> <Gold.Chemscore.Internal_Hbond>
0.0000

> <Gold.Chemscore.DEClash>
0.5546

> <Gold.Chemscore.DEInternal>
1.1156

> <Gold.Chemscore.Rot>
3.2718

> <Gold.Chemscore.Internal.Correction>
   9.000000E+99

> <Gold.Chemscore.Hbonds>
donor molecule, donor type, donor heavy atom, donor atom, acceptor molecule, acceptor atom, score
      L1  H    17    43       P1  7957  0.86
      L1  H    18    49       P1  8028  0.87

> <Gold.Chemscore.Hbond.Weighted>
-5.9485

> <Gold.Chemscore.Metal.Weighted>
-0.0000

> <Gold.Chemscore.Lipo.Weighted>
-14.2157

> <Gold.Chemscore.Internal_Hbond.Weighted>
0.0000

> <Gold.Chemscore.DEClash.Weighted>
0.5546

> <Gold.Chemscore.DEInternal.Weighted>
1.1156

> <Gold.Chemscore.Rot.Weighted>
8.3759

> <Gold.Chemscore.Internal.Correction.Weighted>
   9.000000E+99

> <Gold.Protein.RotatedTorsions>
[ 6907 6896 6895 6894 ] final  -50.96 input  -60.11 | X-H torsion
[ 7974 7965 7964 7962 ] final    9.18 input  175.53 | X-H torsion
[ 8008 7997 7996 7995 ] final   32.39 input   59.86 | X-H torsion
[ 10167 10162 10161 10158 ] final  135.44 input  -65.29 | X-H torsion
[ 10718 10713 10712 10709 ] final -120.81 input   66.30 | X-H torsion
[ 10763 10752 10751 10750 ] final -177.09 input  -60.55 | X-H torsion
[ 11005 11000 10999 10996 ] final  -51.64 input  -57.11 | X-H torsion

> <Gold.Protein.ActiveResidues>
 VAL166  LYS551  ARG553  GLY616  TRP617  ASP618  TYR619  PRO620  LYS621  CYS622 
 ASP623  PHE694  ASN695  SER759  ASP760  ASP761  ALA762  ILE779  LEU786  VAL792 
 PHE793  MET794  SER795  GLU796  ALA797  LYS798  CYS799  TRP800  GLU811  SER814 

> <Gold.Protein.RotatedAtoms>
  150.8657  134.8020  159.7116 H   0  0  0  0  0  0  0  0  0  0  0  0  # atno 6907 bound_to 6896
  152.4679  134.5027  159.9739 H   0  0  0  0  0  0  0  0  0  0  0  0  # atno 6908 bound_to 6896
  151.5124  133.3444  159.2923 H   0  0  0  0  0  0  0  0  0  0  0  0  # atno 6909 bound_to 6896
  146.2407  139.9822  142.8435 H   0  0  0  0  0  0  0  0  0  0  0  0  # atno 7974 bound_to 7965
  155.1218  140.3249  155.4495 H   0  0  0  0  0  0  0  0  0  0  0  0  # atno 8008 bound_to 7997
  156.2660  140.2026  156.6288 H   0  0  0  0  0  0  0  0  0  0  0  0  # atno 8009 bound_to 7997
  154.6678  140.0540  157.0119 H   0  0  0  0  0  0  0  0  0  0  0  0  # atno 8010 bound_to 7997
  139.5217  144.6517  151.5283 H   0  0  0  0  0  0  0  0  0  0  0  0  # atno 10167 bound_to 10162
  156.1287  130.6379  150.9586 H   0  0  0  0  0  0  0  0  0  0  0  0  # atno 10718 bound_to 10713
  154.5644  135.2823  155.0888 H   0  0  0  0  0  0  0  0  0  0  0  0  # atno 10763 bound_to 10752
  154.2284  135.6378  153.5171 H   0  0  0  0  0  0  0  0  0  0  0  0  # atno 10764 bound_to 10752
  153.0038  135.5531  154.6248 H   0  0  0  0  0  0  0  0  0  0  0  0  # atno 10765 bound_to 10752
  141.0882  133.6638  156.3906 H   0  0  0  0  0  0  0  0  0  0  0  0  # atno 11005 bound_to 11000
  145.1581  140.9658  143.4393 LP  0  0  0  0  0  0  0  0  0  0  0  0  # atno 17320 bound_to 7965
  145.0142  139.3483  143.6105 LP  0  0  0  0  0  0  0  0  0  0  0  0  # atno 17321 bound_to 7965
  140.6324  143.9049  150.6617 LP  0  0  0  0  0  0  0  0  0  0  0  0  # atno 17342 bound_to 10162
  140.2358  143.3701  152.1528 LP  0  0  0  0  0  0  0  0  0  0  0  0  # atno 17343 bound_to 10162
  157.6467  131.0903  150.8139 LP  0  0  0  0  0  0  0  0  0  0  0  0  # atno 17370 bound_to 10713
  156.8226  130.4989  149.5341 LP  0  0  0  0  0  0  0  0  0  0  0  0  # atno 17371 bound_to 10713
  140.5315  134.6208  157.5351 LP  0  0  0  0  0  0  0  0  0  0  0  0  # atno 17394 bound_to 11000
  139.9703  134.7304  156.0055 LP  0  0  0  0  0  0  0  0  0  0  0  0  # atno 17395 bound_to 11000

$$$$
