AV-unprocessed.smi:2272|AV-procd|sdf|9162|dock2
  -GOLD-   2272012373D 1   1.00000     0.00000
 Structure written by MMmdl.
 41 42  0  0  0  0  0  0  0  0  1 V2000
  150.0047  134.4243  156.9779 C   0  0  0  0  0  0  0  0  0  0  0  0
  149.8448  135.7319  156.2227 C   0  0  0  0  0  0  0  0  0  0  0  0
  151.0071  136.2336  155.6310 N   0  0  0  0  0  0  0  0  0  0  0  0
  150.9620  137.3341  154.9545 C   0  0  0  0  0  0  0  0  0  0  0  0
  149.7658  138.0523  154.7877 N   0  0  0  0  0  0  0  0  0  0  0  0
  149.8566  139.2771  153.9722 C   0  0  0  0  0  0  0  0  0  0  0  0
  149.4706  140.5471  154.7643 C   0  0  2  0  0  0  0  0  0  0  0  0
  149.3504  141.6500  153.8911 O   0  0  0  0  0  0  0  0  0  0  0  0
  150.4159  140.9199  155.9193 C   0  0  0  0  0  0  0  0  0  0  0  0
  149.9144  142.0490  156.6218 O   0  0  0  0  0  0  0  0  0  0  0  0
  150.9197  142.9615  157.0425 C   0  0  0  0  0  0  0  0  0  0  0  0
  151.6886  142.4840  158.2637 C   0  0  0  0  0  0  0  0  0  0  0  0
  151.5568  141.1502  158.7052 C   0  0  0  0  0  0  0  0  0  0  0  0
  152.2700  140.7020  159.8338 C   0  0  0  0  0  0  0  0  0  0  0  0
  153.1132  141.5877  160.5311 C   0  0  0  0  0  0  0  0  0  0  0  0
  153.2434  142.9213  160.0983 C   0  0  0  0  0  0  0  0  0  0  0  0
  152.5335  143.3703  158.9677 C   0  0  0  0  0  0  0  0  0  0  0  0
  152.6706  144.6550  158.5604 F   0  0  0  0  0  0  0  0  0  0  0  0
  148.5922  137.6457  155.3536 C   0  0  0  0  0  0  0  0  0  0  0  0
  147.5528  138.2938  155.2284 O   0  0  0  0  0  0  0  0  0  0  0  0
  148.6573  136.3878  156.1155 C   0  0  0  0  0  0  0  0  0  0  0  0
  147.3596  135.8845  156.7347 C   0  0  0  0  0  0  0  0  0  0  0  0
  149.3392  133.6626  156.5707 H   0  0  0  0  0  0  0  0  0  0  0  0
  149.7719  134.5630  158.0341 H   0  0  0  0  0  0  0  0  0  0  0  0
  151.0259  134.0472  156.9078 H   0  0  0  0  0  0  0  0  0  0  0  0
  151.8394  137.7685  154.4715 H   0  0  0  0  0  0  0  0  0  0  0  0
  150.8485  139.3987  153.5339 H   0  0  0  0  0  0  0  0  0  0  0  0
  149.1935  139.1757  153.1105 H   0  0  0  0  0  0  0  0  0  0  0  0
  148.4744  140.4076  155.1852 H   0  0  0  0  0  0  0  0  0  0  0  0
  149.4196  142.4423  154.4021 H   0  0  0  0  0  0  0  0  0  0  0  0
  150.5398  140.0708  156.5935 H   0  0  0  0  0  0  0  0  0  0  0  0
  151.4011  141.1502  155.5134 H   0  0  0  0  0  0  0  0  0  0  0  0
  151.6217  143.0852  156.2177 H   0  0  0  0  0  0  0  0  0  0  0  0
  150.4961  143.9511  157.2217 H   0  0  0  0  0  0  0  0  0  0  0  0
  150.9116  140.4653  158.1746 H   0  0  0  0  0  0  0  0  0  0  0  0
  152.1700  139.6786  160.1645 H   0  0  0  0  0  0  0  0  0  0  0  0
  153.6613  141.2450  161.3963 H   0  0  0  0  0  0  0  0  0  0  0  0
  153.8920  143.6006  160.6316 H   0  0  0  0  0  0  0  0  0  0  0  0
  146.6526  135.6175  155.9500 H   0  0  0  0  0  0  0  0  0  0  0  0
  146.9055  136.6608  157.3516 H   0  0  0  0  0  0  0  0  0  0  0  0
  147.4969  135.0086  157.3665 H   0  0  0  0  0  0  0  0  0  0  0  0
  1  2  1  0  0  0  0
  1 23  1  0  0  0  0
  1 24  1  0  0  0  0
  1 25  1  0  0  0  0
  2 21  2  0  0  0  0
  2  3  1  0  0  0  0
  3  4  2  0  0  0  0
  4  5  1  0  0  0  0
  4 26  1  0  0  0  0
  5  6  1  0  0  0  0
  5 19  1  0  0  0  0
  6  7  1  0  0  0  0
  6 27  1  0  0  0  0
  6 28  1  0  0  0  0
  7  8  1  0  0  0  0
  7  9  1  0  0  0  0
  7 29  1  0  0  0  0
  8 30  1  0  0  0  0
  9 10  1  0  0  0  0
  9 31  1  0  0  0  0
  9 32  1  0  0  0  0
 10 11  1  0  0  0  0
 11 12  1  0  0  0  0
 11 33  1  0  0  0  0
 11 34  1  0  0  0  0
 12 17  1  0  0  0  0
 12 13  2  0  0  0  0
 13 14  1  0  0  0  0
 13 35  1  0  0  0  0
 14 15  2  0  0  0  0
 14 36  1  0  0  0  0
 15 16  1  0  0  0  0
 15 37  1  0  0  0  0
 16 17  2  0  0  0  0
 16 38  1  0  0  0  0
 17 18  1  0  0  0  0
 19 20  2  0  0  0  0
 19 21  1  0  0  0  0
 21 22  1  0  0  0  0
 22 39  1  0  0  0  0
 22 40  1  0  0  0  0
 22 41  1  0  0  0  0
M  END
> <s_m_source_file>
AV-unprocessed.smi

> <i_m_source_file_index>
2272

> <i_lp_mmshare_version>
43012

> <i_f3d_flags>
0

> <s_epik_input>
W0NIM11jMW5bY0hdbihjKD1PKWMxW0NIM10pW0NIMl1bQ0BIXShbT0hdKVtDSDJdT1tDSDJdYzJbY0hdW2NIXVtjSF1bY0hdYzJG

> <s_epik_cmdline>
J2VwaWtfcHl0aG9uJywgJy1waCcsICc3LjAnLCAnLXRuJywgJzgnLCAnLW1hJywgJzIwMCcsICctbWV0YWxfYmluZGluZycsICctaW1hZScsICc8aW5maWxlLm1hZT4nLCAnLW9tYWUnLCAnPG91dGZpbGUubWFlPic=

> <r_lp_tautomer_probability>
1

> <r_epik_Ionization_Penalty>
5.35985e-05

> <r_epik_Ionization_Penalty_Charging>
1.17753e-07

> <r_epik_Ionization_Penalty_Neutral>
5.34808e-05

> <r_epik_State_Penalty>
-0

> <r_epik_Charging_Adjusted_Penalty>
1.17753e-07

> <i_epik_Tot_Q>
0

> <i_epik_Tot_abs_Q>
0

> <r_epik_Metal_State_Penalty>
-0

> <b_epik_Metal_Only>
0

> <s_lp_Force_Field>
OPLS_2005

> <r_lp_Energy>
20.6286

> <b_lp_Chiralities_Consistent>
1

> <s_lp_Variant>
AV-unprocessed.smi:2272-1

> <Gold.Version>
5.8.1

> <Gold.Id.Protein>
6NUR|6NUR_protein|mol2

> <Gold.PLP.Fitness>
47.0202

> <Gold.PLP.PLP>
-42.8989

> <Gold.PLP.part.hbond>
-3.3440

> <Gold.PLP.part.metal>
0.0000

> <Gold.PLP.part.buried>
0.0848

> <Gold.PLP.part.nonpolar>
-40.0832

> <Gold.PLP.part.repulsive>
0.3022

> <Gold.PLP.ligand.clash>
0.0000

> <Gold.PLP.ligand.torsion>
0.5094

> <Gold.PLP.Chemscore.Hbond>
1.6400

> <Gold.PLP.Chemscore.CHOScore>
0.0000

> <Gold.PLP.Chemscore.Metal>
0.0000

> <Gold.Chemscore.Hbonds>
donor molecule, donor type, donor heavy atom, donor atom, acceptor molecule, acceptor atom, score
      P1  H  8011  8017       L1     8  0.48
      P1  H 10752 10763       L1     3  0.34

> <Gold.PLP.Chemscore.Internal.Correction>
0.2202

> <Gold.Rescore>
     Score         DG    S(hbond)    S(metal)    S(lipo)     H(rot)  DE(clash)    DE(int)     intcor
     14.06     -16.08       1.63        0.00     102.82       2.69       0.63       1.40       ----

> <Gold.Chemscore.Fitness>
14.0575

> <Gold.Chemscore.DG>
-16.0820

> <Gold.Chemscore.ZeroCoef>
-5.4800

> <Gold.Chemscore.Hbond>
1.6310

> <Gold.Chemscore.Metal>
0.0000

> <Gold.Chemscore.Lipo>
102.8201

> <Gold.Chemscore.Internal_Hbond>
0.0000

> <Gold.Chemscore.DEClash>
0.6275

> <Gold.Chemscore.DEInternal>
1.3970

> <Gold.Chemscore.Rot>
2.6857

> <Gold.Chemscore.Internal.Correction>
   9.000000E+99

> <Gold.Chemscore.Hbonds>
donor molecule, donor type, donor heavy atom, donor atom, acceptor molecule, acceptor atom, score
      P1  H  8011  8017       L1     8  0.06
      P1  H 10752 10763       L1     3  0.07

> <Gold.Chemscore.Hbond.Weighted>
-5.4475

> <Gold.Chemscore.Metal.Weighted>
-0.0000

> <Gold.Chemscore.Lipo.Weighted>
-12.0299

> <Gold.Chemscore.Internal_Hbond.Weighted>
0.0000

> <Gold.Chemscore.DEClash.Weighted>
0.6275

> <Gold.Chemscore.DEInternal.Weighted>
1.3970

> <Gold.Chemscore.Rot.Weighted>
6.8755

> <Gold.Chemscore.Internal.Correction.Weighted>
   9.000000E+99

> <Gold.Protein.RotatedTorsions>
[ 6907 6896 6895 6894 ] final  152.95 input  -60.11 | X-H torsion
[ 7974 7965 7964 7962 ] final  -24.61 input  175.53 | X-H torsion
[ 8008 7997 7996 7995 ] final -171.30 input   59.86 | X-H torsion
[ 10167 10162 10161 10158 ] final  -41.38 input  -65.29 | X-H torsion
[ 10718 10713 10712 10709 ] final    1.88 input   66.30 | X-H torsion
[ 10763 10752 10751 10750 ] final   81.89 input  -60.55 | X-H torsion
[ 11005 11000 10999 10996 ] final  -21.64 input  -57.11 | X-H torsion

> <Gold.Protein.ActiveResidues>
 VAL166  LYS551  ARG553  GLY616  TRP617  ASP618  TYR619  PRO620  LYS621  CYS622 
 ASP623  PHE694  ASN695  SER759  ASP760  ASP761  ALA762  ILE779  LEU786  VAL792 
 PHE793  MET794  SER795  GLU796  ALA797  LYS798  CYS799  TRP800  GLU811  SER814 

> <Gold.Protein.RotatedAtoms>
  152.0795  133.4146  159.4494 H   0  0  0  0  0  0  0  0  0  0  0  0  # atno 6907 bound_to 6896
  150.6862  134.2998  159.4711 H   0  0  0  0  0  0  0  0  0  0  0  0  # atno 6908 bound_to 6896
  152.0838  134.9452  160.0623 H   0  0  0  0  0  0  0  0  0  0  0  0  # atno 6909 bound_to 6896
  146.1544  140.4775  142.8598 H   0  0  0  0  0  0  0  0  0  0  0  0  # atno 7974 bound_to 7965
  155.9297  140.1089  157.1142 H   0  0  0  0  0  0  0  0  0  0  0  0  # atno 8008 bound_to 7997
  154.4068  140.1240  156.4852 H   0  0  0  0  0  0  0  0  0  0  0  0  # atno 8009 bound_to 7997
  155.7095  140.3471  155.4970 H   0  0  0  0  0  0  0  0  0  0  0  0  # atno 8010 bound_to 7997
  140.7004  143.3098  151.3058 H   0  0  0  0  0  0  0  0  0  0  0  0  # atno 10167 bound_to 10162
  156.8547  130.5566  149.5667 H   0  0  0  0  0  0  0  0  0  0  0  0  # atno 10718 bound_to 10713
  153.1156  135.4748  154.9109 H   0  0  0  0  0  0  0  0  0  0  0  0  # atno 10763 bound_to 10752
  154.7524  135.3109  154.8534 H   0  0  0  0  0  0  0  0  0  0  0  0  # atno 10764 bound_to 10752
  153.9112  135.6865  153.4804 H   0  0  0  0  0  0  0  0  0  0  0  0  # atno 10765 bound_to 10752
  140.8580  133.7808  156.0042 H   0  0  0  0  0  0  0  0  0  0  0  0  # atno 11005 bound_to 11000
  144.7944  140.6094  143.6520 LP  0  0  0  0  0  0  0  0  0  0  0  0  # atno 17320 bound_to 7965
  145.4745  139.1500  143.3796 LP  0  0  0  0  0  0  0  0  0  0  0  0  # atno 17321 bound_to 7965
  139.6516  144.0351  152.2630 LP  0  0  0  0  0  0  0  0  0  0  0  0  # atno 17342 bound_to 10162
  139.9889  144.6375  150.7832 LP  0  0  0  0  0  0  0  0  0  0  0  0  # atno 17343 bound_to 10162
  156.0809  130.5819  150.9560 LP  0  0  0  0  0  0  0  0  0  0  0  0  # atno 17370 bound_to 10713
  157.6283  131.0923  150.8490 LP  0  0  0  0  0  0  0  0  0  0  0  0  # atno 17371 bound_to 10713
  140.8715  134.2721  157.5188 LP  0  0  0  0  0  0  0  0  0  0  0  0  # atno 17394 bound_to 11000
  139.8706  134.9569  156.4253 LP  0  0  0  0  0  0  0  0  0  0  0  0  # atno 17395 bound_to 11000

$$$$
