AV-unprocessed.smi:1864|AV-procd|sdf|7553|dock1
  -GOLD-   22720 9273D 1   1.00000     0.00000
 Structure written by MMmdl.
 33 34  0  0  0  0  0  0  0  0  2 V2000
  146.1451  137.5639  162.2786 C   0  0  0  0  0  0  0  0  0  0  0  0
  146.8687  137.0278  161.0907 C   0  0  0  0  0  0  0  0  0  0  0  0
  146.8264  135.7386  160.7787 N   0  0  0  0  0  0  0  0  0  0  0  0
  147.6252  135.6580  159.6289 O   0  0  0  0  0  0  0  0  0  0  0  0
  148.0514  136.9225  159.3809 C   0  0  0  0  0  0  0  0  0  0  0  0
  148.9566  137.1708  158.2121 C   0  0  0  0  0  0  0  0  0  0  0  0
  149.2708  138.6597  157.9699 C   0  0  0  0  0  0  0  0  0  0  0  0
  150.3808  138.7865  157.0246 N   0  5  0  0  0  0  0  0  0  0  0  0
  150.9362  139.9705  156.6249 C   0  0  0  0  0  0  0  0  0  0  0  0
  151.1058  140.3383  155.4557 O   0  0  0  0  0  0  0  0  0  0  0  0
  151.4023  140.9345  157.6671 C   0  0  0  0  0  0  0  0  0  0  0  0
  151.6493  142.1646  157.3394 N   0  0  0  0  0  0  0  0  0  0  0  0
  152.0559  143.1091  158.2593 N   0  0  0  0  0  0  0  0  0  0  0  0
  152.0081  144.4785  157.7484 C   0  0  0  0  0  0  0  0  0  0  0  0
  152.4881  142.8226  159.5139 C   0  0  0  0  0  0  0  0  0  0  0  0
  152.8312  143.6705  160.3378 O   0  0  0  0  0  0  0  0  0  0  0  0
  152.5706  141.3392  159.8837 C   0  0  0  0  0  0  0  0  0  0  0  0
  151.5476  140.4856  159.1102 C   0  0  0  0  0  0  0  0  0  0  0  0
  147.6087  137.8169  160.2656 N   0  0  0  0  0  0  0  0  0  0  0  0
  145.6301  136.7666  162.8157 H   0  0  0  0  0  0  0  0  0  0  0  0
  145.4066  138.3029  161.9670 H   0  0  0  0  0  0  0  0  0  0  0  0
  146.8474  138.0416  162.9620 H   0  0  0  0  0  0  0  0  0  0  0  0
  149.8817  136.6161  158.3736 H   0  0  0  0  0  0  0  0  0  0  0  0
  148.4913  136.7413  157.3239 H   0  0  0  0  0  0  0  0  0  0  0  0
  148.3702  139.1548  157.6038 H   0  0  0  0  0  0  0  0  0  0  0  0
  149.5065  139.1338  158.9234 H   0  0  0  0  0  0  0  0  0  0  0  0
  152.3497  145.2294  158.4619 H   0  0  0  0  0  0  0  0  0  0  0  0
  150.9864  144.7360  157.4668 H   0  0  0  0  0  0  0  0  0  0  0  0
  152.6322  144.5669  156.8584 H   0  0  0  0  0  0  0  0  0  0  0  0
  153.5811  141.0000  159.6522 H   0  0  0  0  0  0  0  0  0  0  0  0
  152.4336  141.2114  160.9581 H   0  0  0  0  0  0  0  0  0  0  0  0
  150.5745  140.5336  159.6000 H   0  0  0  0  0  0  0  0  0  0  0  0
  151.8689  139.4450  159.1640 H   0  0  0  0  0  0  0  0  0  0  0  0
  1  2  1  0  0  0  0
  1 20  1  0  0  0  0
  1 21  1  0  0  0  0
  1 22  1  0  0  0  0
  2 19  1  0  0  0  0
  2  3  2  0  0  0  0
  3  4  1  0  0  0  0
  4  5  1  0  0  0  0
  5  6  1  0  0  0  0
  5 19  2  0  0  0  0
  6  7  1  0  0  0  0
  6 23  1  0  0  0  0
  6 24  1  0  0  0  0
  7  8  1  0  0  0  0
  7 25  1  0  0  0  0
  7 26  1  0  0  0  0
  8  9  1  0  0  0  0
  9 10  2  0  0  0  0
  9 11  1  0  0  0  0
 11 18  1  0  0  0  0
 11 12  2  0  0  0  0
 12 13  1  0  0  0  0
 13 14  1  0  0  0  0
 13 15  1  0  0  0  0
 14 27  1  0  0  0  0
 14 28  1  0  0  0  0
 14 29  1  0  0  0  0
 15 16  2  0  0  0  0
 15 17  1  0  0  0  0
 17 18  1  0  0  0  0
 17 30  1  0  0  0  0
 17 31  1  0  0  0  0
 18 32  1  0  0  0  0
 18 33  1  0  0  0  0
M  CHG  1   8  -1
M  END
> <s_m_source_file>
AV-unprocessed.smi

> <i_m_source_file_index>
1864

> <i_lp_mmshare_version>
43012

> <i_f3d_flags>
0

> <s_epik_input>
W0NIM11jMW5vYyhuMSlbQ0gyXVtDSDJdW05IXUMoPU8pQzI9Tk4oW0NIM10pQyg9TylbQ0gyXVtDSDJdMg==

> <s_epik_cmdline>
J2VwaWtfcHl0aG9uJywgJy1waCcsICc3LjAnLCAnLXRuJywgJzgnLCAnLW1hJywgJzIwMCcsICctbWV0YWxfYmluZGluZycsICctaW1hZScsICc8aW5maWxlLm1hZT4nLCAnLW9tYWUnLCAnPG91dGZpbGUubWFlPic=

> <r_lp_tautomer_probability>
1

> <r_epik_Ionization_Penalty>
5.04632

> <r_epik_Ionization_Penalty_Charging>
5.04632

> <r_epik_Ionization_Penalty_Neutral>
3.43742e-09

> <r_epik_State_Penalty>
5.0462

> <r_epik_Charging_Adjusted_Penalty>
10.0925

> <i_epik_Tot_Q>
-1

> <i_epik_Tot_abs_Q>
1

> <r_epik_Metal_State_Penalty>
1.15274

> <b_epik_Metal_Only>
1

> <s_epik_Chemistry_Notes>
This compound has an imine and may undergo hydrolysis.

> <s_lp_Force_Field>
OPLS_2005

> <r_lp_Energy>
22.1734

> <b_lp_Chiralities_Consistent>
1

> <s_lp_Variant>
AV-unprocessed.smi:1864-2

> <Gold.Version>
5.8.1

> <Gold.Id.Protein>
6NUR|6NUR_protein|mol2

> <Gold.PLP.Fitness>
39.7964

> <Gold.PLP.PLP>
-34.9272

> <Gold.PLP.part.hbond>
-3.9443

> <Gold.PLP.part.metal>
0.0000

> <Gold.PLP.part.buried>
-4.2184

> <Gold.PLP.part.nonpolar>
-26.8789

> <Gold.PLP.part.repulsive>
0.0965

> <Gold.PLP.ligand.clash>
0.0000

> <Gold.PLP.ligand.torsion>
0.6470

> <Gold.PLP.Chemscore.Hbond>
2.0136

> <Gold.PLP.Chemscore.CHOScore>
0.0000

> <Gold.PLP.Chemscore.Metal>
0.0000

> <Gold.Chemscore.Hbonds>
donor molecule, donor type, donor heavy atom, donor atom, acceptor molecule, acceptor atom, score
      P1  H  6931  6943       L1    19  0.15
      P1  H  6934  6947       L1    19  0.42
      P1  H  7989  7998       L1    10  0.84

> <Gold.PLP.Chemscore.Internal.Correction>
0.1223

> <Gold.Rescore>
     Score         DG    S(hbond)    S(metal)    S(lipo)     H(rot)  DE(clash)    DE(int)     intcor
      9.13     -10.13       1.04        0.00      48.83       1.77       0.02       0.97       ----

> <Gold.Chemscore.Fitness>
9.1286

> <Gold.Chemscore.DG>
-10.1275

> <Gold.Chemscore.ZeroCoef>
-5.4800

> <Gold.Chemscore.Hbond>
1.0401

> <Gold.Chemscore.Metal>
0.0000

> <Gold.Chemscore.Lipo>
48.8275

> <Gold.Chemscore.Internal_Hbond>
0.0000

> <Gold.Chemscore.DEClash>
0.0240

> <Gold.Chemscore.DEInternal>
0.9748

> <Gold.Chemscore.Rot>
1.7731

> <Gold.Chemscore.Internal.Correction>
   9.000000E+99

> <Gold.Chemscore.Hbonds>
donor molecule, donor type, donor heavy atom, donor atom, acceptor molecule, acceptor atom, score
      P1  H  6931  6943       L1    19  0.01
      P1  H  6934  6947       L1    19  0.04
      P1  H  7989  7998       L1    10  0.79

> <Gold.Chemscore.Hbond.Weighted>
-3.4739

> <Gold.Chemscore.Metal.Weighted>
-0.0000

> <Gold.Chemscore.Lipo.Weighted>
-5.7128

> <Gold.Chemscore.Internal_Hbond.Weighted>
0.0000

> <Gold.Chemscore.DEClash.Weighted>
0.0240

> <Gold.Chemscore.DEInternal.Weighted>
0.9748

> <Gold.Chemscore.Rot.Weighted>
4.5393

> <Gold.Chemscore.Internal.Correction.Weighted>
   9.000000E+99

> <Gold.Protein.RotatedTorsions>
[ 6907 6896 6895 6894 ] final  -59.96 input  -60.11 | X-H torsion
[ 7974 7965 7964 7962 ] final  -18.77 input  175.53 | X-H torsion
[ 8008 7997 7996 7995 ] final   44.60 input   59.86 | X-H torsion
[ 10167 10162 10161 10158 ] final -130.19 input  -65.29 | X-H torsion
[ 10718 10713 10712 10709 ] final    8.47 input   66.30 | X-H torsion
[ 10763 10752 10751 10750 ] final  -46.92 input  -60.55 | X-H torsion
[ 11005 11000 10999 10996 ] final   17.87 input  -57.11 | X-H torsion

> <Gold.Protein.ActiveResidues>
 VAL166  LYS551  ARG553  GLY616  TRP617  ASP618  TYR619  PRO620  LYS621  CYS622 
 ASP623  PHE694  ASN695  SER759  ASP760  ASP761  ALA762  ILE779  LEU786  VAL792 
 PHE793  MET794  SER795  GLU796  ALA797  LYS798  CYS799  TRP800  GLU811  SER814 

> <Gold.Protein.RotatedAtoms>
  150.7891  134.6900  159.6491 H   0  0  0  0  0  0  0  0  0  0  0  0  # atno 6907 bound_to 6896
  152.3993  134.6309  160.0085 H   0  0  0  0  0  0  0  0  0  0  0  0  # atno 6908 bound_to 6896
  151.6585  133.3281  159.3204 H   0  0  0  0  0  0  0  0  0  0  0  0  # atno 6909 bound_to 6896
  146.1875  140.3968  142.8470 H   0  0  0  0  0  0  0  0  0  0  0  0  # atno 7974 bound_to 7965
  155.3219  140.3397  155.4241 H   0  0  0  0  0  0  0  0  0  0  0  0  # atno 8008 bound_to 7997
  156.1904  140.1696  156.8139 H   0  0  0  0  0  0  0  0  0  0  0  0  # atno 8009 bound_to 7997
  154.5436  140.0720  156.8534 H   0  0  0  0  0  0  0  0  0  0  0  0  # atno 8010 bound_to 7997
  139.9319  143.6263  152.2527 H   0  0  0  0  0  0  0  0  0  0  0  0  # atno 10167 bound_to 10162
  156.9522  130.5901  149.5657 H   0  0  0  0  0  0  0  0  0  0  0  0  # atno 10718 bound_to 10713
  154.0529  135.6628  153.4802 H   0  0  0  0  0  0  0  0  0  0  0  0  # atno 10763 bound_to 10752
  153.0456  135.5116  154.7733 H   0  0  0  0  0  0  0  0  0  0  0  0  # atno 10764 bound_to 10752
  154.6745  135.3035  154.9663 H   0  0  0  0  0  0  0  0  0  0  0  0  # atno 10765 bound_to 10752
  140.4311  134.1418  155.7681 H   0  0  0  0  0  0  0  0  0  0  0  0  # atno 11005 bound_to 11000
  144.8425  140.6878  143.6220 LP  0  0  0  0  0  0  0  0  0  0  0  0  # atno 17320 bound_to 7965
  145.3893  139.1620  143.4238 LP  0  0  0  0  0  0  0  0  0  0  0  0  # atno 17321 bound_to 7965
  139.6775  144.7657  151.1668 LP  0  0  0  0  0  0  0  0  0  0  0  0  # atno 17342 bound_to 10162
  140.7635  143.5773  150.8932 LP  0  0  0  0  0  0  0  0  0  0  0  0  # atno 17343 bound_to 10162
  156.0358  130.5445  150.8649 LP  0  0  0  0  0  0  0  0  0  0  0  0  # atno 17370 bound_to 10713
  157.5714  131.0946  150.9411 LP  0  0  0  0  0  0  0  0  0  0  0  0  # atno 17371 bound_to 10713
  141.1745  133.8542  157.1466 LP  0  0  0  0  0  0  0  0  0  0  0  0  # atno 17394 bound_to 11000
  140.0133  134.9978  157.0441 LP  0  0  0  0  0  0  0  0  0  0  0  0  # atno 17395 bound_to 11000

$$$$
