AV-unprocessed.smi:2499|AV-procd|sdf|9832|dock2
  -GOLD-   2272013463D 1   1.00000     0.00000
 Structure written by MMmdl.
 27 28  0  0  0  0  0  0  0  0  1 V2000
  152.8296  144.7228  157.9750 C   0  0  0  0  0  0  0  0  0  0  0  0
  151.4392  144.2861  158.4566 C   0  0  1  0  0  0  0  0  0  0  0  0
  150.7422  143.6434  157.3468 N   0  0  0  0  0  0  0  0  0  0  0  0
  150.8891  142.3638  156.9731 C   0  0  0  0  0  0  0  0  0  0  0  0
  151.6413  141.5703  157.5393 O   0  0  0  0  0  0  0  0  0  0  0  0
  150.1138  142.0735  155.9148 N   0  0  0  0  0  0  0  0  0  0  0  0
  150.0055  140.8321  155.2387 C   0  0  0  0  0  0  0  0  0  0  0  0
  151.0112  140.0371  154.8700 N   0  0  0  0  0  0  0  0  0  0  0  0
  150.3957  138.9594  154.2500 C   0  0  0  0  0  0  0  0  0  0  0  0
  149.0405  139.1653  154.2805 C   0  0  0  0  0  0  0  0  0  0  0  0
  148.7771  140.3544  154.9060 O   0  0  0  0  0  0  0  0  0  0  0  0
  151.5458  143.4098  159.6935 C   0  0  0  0  0  0  0  0  0  0  0  0
  152.2645  143.8830  160.9352 C   0  0  0  0  0  0  0  0  0  0  0  0
  152.8617  142.7825  160.0892 C   0  0  0  0  0  0  0  0  0  0  0  0
  153.3659  145.2591  158.7585 H   0  0  0  0  0  0  0  0  0  0  0  0
  152.7572  145.3882  157.1139 H   0  0  0  0  0  0  0  0  0  0  0  0
  153.4373  143.8651  157.6844 H   0  0  0  0  0  0  0  0  0  0  0  0
  150.8934  145.1913  158.7301 H   0  0  0  0  0  0  0  0  0  0  0  0
  150.1014  144.2202  156.8216 H   0  0  0  0  0  0  0  0  0  0  0  0
  149.5394  142.8198  155.5525 H   0  0  0  0  0  0  0  0  0  0  0  0
  150.9646  138.1383  153.8395 H   0  0  0  0  0  0  0  0  0  0  0  0
  148.1886  138.6040  153.9260 H   0  0  0  0  0  0  0  0  0  0  0  0
  150.6671  142.7896  159.8617 H   0  0  0  0  0  0  0  0  0  0  0  0
  152.7497  144.8565  160.9043 H   0  0  0  0  0  0  0  0  0  0  0  0
  151.8386  143.6055  161.8971 H   0  0  0  0  0  0  0  0  0  0  0  0
  152.8357  141.7705  160.4877 H   0  0  0  0  0  0  0  0  0  0  0  0
  153.7404  143.0281  159.4961 H   0  0  0  0  0  0  0  0  0  0  0  0
  1  2  1  0  0  0  0
  1 15  1  0  0  0  0
  1 16  1  0  0  0  0
  1 17  1  0  0  0  0
  2  3  1  0  0  0  0
  2 12  1  0  0  0  0
  2 18  1  0  0  0  0
  3  4  1  0  0  0  0
  3 19  1  0  0  0  0
  4  5  2  0  0  0  0
  4  6  1  0  0  0  0
  6  7  1  0  0  0  0
  6 20  1  0  0  0  0
  7 11  1  0  0  0  0
  7  8  2  0  0  0  0
  8  9  1  0  0  0  0
  9 10  2  0  0  0  0
  9 21  1  0  0  0  0
 10 11  1  0  0  0  0
 10 22  1  0  0  0  0
 12 14  1  0  0  0  0
 12 13  1  0  0  0  0
 12 23  1  0  0  0  0
 13 14  1  0  0  0  0
 13 24  1  0  0  0  0
 13 25  1  0  0  0  0
 14 26  1  0  0  0  0
 14 27  1  0  0  0  0
M  END
> <s_m_source_file>
AV-unprocessed.smi

> <i_m_source_file_index>
2499

> <i_lp_mmshare_version>
43012

> <i_f3d_flags>
0

> <s_epik_input>
W0NIMl0xW0NIMl1bQ0hdMVtDQEhdKFtDSDNdKVtOSF1DKD1PKVtOSF1jMm5bY0hdW2NIXW8y

> <s_epik_cmdline>
J2VwaWtfcHl0aG9uJywgJy1waCcsICc3LjAnLCAnLXRuJywgJzgnLCAnLW1hJywgJzIwMCcsICctbWV0YWxfYmluZGluZycsICctaW1hZScsICc8aW5maWxlLm1hZT4nLCAnLW9tYWUnLCAnPG91dGZpbGUubWFlPic=

> <r_lp_tautomer_probability>
0.785861

> <r_epik_Ionization_Penalty>
5.39182e-05

> <r_epik_Ionization_Penalty_Charging>
0

> <r_epik_Ionization_Penalty_Neutral>
5.39182e-05

> <r_epik_State_Penalty>
0.0482803

> <r_epik_Charging_Adjusted_Penalty>
0.0482803

> <i_epik_Tot_Q>
0

> <i_epik_Tot_abs_Q>
0

> <r_epik_Metal_State_Penalty>
0.0621274

> <b_epik_Metal_Only>
0

> <s_lp_Force_Field>
OPLS_2005

> <r_lp_Energy>
12.2154

> <b_lp_Chiralities_Consistent>
1

> <s_lp_Variant>
AV-unprocessed.smi:2499-2

> <Gold.Version>
5.8.1

> <Gold.Id.Protein>
6NUR|6NUR_protein|mol2

> <Gold.PLP.Fitness>
41.8091

> <Gold.PLP.PLP>
-34.3694

> <Gold.PLP.part.hbond>
-3.0000

> <Gold.PLP.part.metal>
0.0000

> <Gold.PLP.part.buried>
-4.8609

> <Gold.PLP.part.nonpolar>
-27.2006

> <Gold.PLP.part.repulsive>
0.2931

> <Gold.PLP.ligand.clash>
0.0000

> <Gold.PLP.ligand.torsion>
1.3142

> <Gold.PLP.Chemscore.Hbond>
3.0000

> <Gold.PLP.Chemscore.CHOScore>
0.0000

> <Gold.PLP.Chemscore.Metal>
0.0000

> <Gold.Chemscore.Hbonds>
donor molecule, donor type, donor heavy atom, donor atom, acceptor molecule, acceptor atom, score
      L1  H     3    19       P1  8028  1.00
      L1  H     6    20       P1  8028  1.00
      P1  H  7989  7998       L1     8  1.00

> <Gold.PLP.Chemscore.Internal.Correction>
1.0682

> <Gold.Rescore>
     Score         DG    S(hbond)    S(metal)    S(lipo)     H(rot)  DE(clash)    DE(int)     intcor
     17.23     -20.21       2.74        0.00      75.87       1.29       0.19       2.79       ----

> <Gold.Chemscore.Fitness>
17.2330

> <Gold.Chemscore.DG>
-20.2111

> <Gold.Chemscore.ZeroCoef>
-5.4800

> <Gold.Chemscore.Hbond>
2.7428

> <Gold.Chemscore.Metal>
0.0000

> <Gold.Chemscore.Lipo>
75.8658

> <Gold.Chemscore.Internal_Hbond>
0.0000

> <Gold.Chemscore.DEClash>
0.1911

> <Gold.Chemscore.DEInternal>
2.7871

> <Gold.Chemscore.Rot>
1.2915

> <Gold.Chemscore.Internal.Correction>
   9.000000E+99

> <Gold.Chemscore.Hbonds>
donor molecule, donor type, donor heavy atom, donor atom, acceptor molecule, acceptor atom, score
      L1  H     3    19       P1  8028  0.94
      L1  H     6    20       P1  8028  0.90
      P1  H  7989  7998       L1     8  0.10

> <Gold.Chemscore.Hbond.Weighted>
-9.1611

> <Gold.Chemscore.Metal.Weighted>
-0.0000

> <Gold.Chemscore.Lipo.Weighted>
-8.8763

> <Gold.Chemscore.Internal_Hbond.Weighted>
0.0000

> <Gold.Chemscore.DEClash.Weighted>
0.1911

> <Gold.Chemscore.DEInternal.Weighted>
2.7871

> <Gold.Chemscore.Rot.Weighted>
3.3062

> <Gold.Chemscore.Internal.Correction.Weighted>
   9.000000E+99

> <Gold.Protein.RotatedTorsions>
[ 6907 6896 6895 6894 ] final  142.44 input  -60.11 | X-H torsion
[ 7974 7965 7964 7962 ] final  -29.65 input  175.53 | X-H torsion
[ 8008 7997 7996 7995 ] final  138.74 input   59.86 | X-H torsion
[ 10167 10162 10161 10158 ] final   98.71 input  -65.29 | X-H torsion
[ 10718 10713 10712 10709 ] final   65.14 input   66.30 | X-H torsion
[ 10763 10752 10751 10750 ] final   86.81 input  -60.55 | X-H torsion
[ 11005 11000 10999 10996 ] final   14.47 input  -57.11 | X-H torsion

> <Gold.Protein.ActiveResidues>
 VAL166  LYS551  ARG553  GLY616  TRP617  ASP618  TYR619  PRO620  LYS621  CYS622 
 ASP623  PHE694  ASN695  SER759  ASP760  ASP761  ALA762  ILE779  LEU786  VAL792 
 PHE793  MET794  SER795  GLU796  ALA797  LYS798  CYS799  TRP800  GLU811  SER814 

> <Gold.Protein.RotatedAtoms>
  152.2187  133.4967  159.5150 H   0  0  0  0  0  0  0  0  0  0  0  0  # atno 6907 bound_to 6896
  150.7007  134.1371  159.4100 H   0  0  0  0  0  0  0  0  0  0  0  0  # atno 6908 bound_to 6896
  151.9291  135.0264  160.0578 H   0  0  0  0  0  0  0  0  0  0  0  0  # atno 6909 bound_to 6896
  146.1201  140.5439  142.8739 H   0  0  0  0  0  0  0  0  0  0  0  0  # atno 7974 bound_to 7965
  156.2995  140.2386  156.4123 H   0  0  0  0  0  0  0  0  0  0  0  0  # atno 8008 bound_to 7997
  154.8430  140.0427  157.1574 H   0  0  0  0  0  0  0  0  0  0  0  0  # atno 8009 bound_to 7997
  154.9081  140.2986  155.5284 H   0  0  0  0  0  0  0  0  0  0  0  0  # atno 8010 bound_to 7997
  139.7684  144.6931  151.0192 H   0  0  0  0  0  0  0  0  0  0  0  0  # atno 10167 bound_to 10162
  157.6086  130.9198  149.9937 H   0  0  0  0  0  0  0  0  0  0  0  0  # atno 10718 bound_to 10713
  153.1607  135.4566  154.9768 H   0  0  0  0  0  0  0  0  0  0  0  0  # atno 10763 bound_to 10752
  154.7895  135.3215  154.7812 H   0  0  0  0  0  0  0  0  0  0  0  0  # atno 10764 bound_to 10752
  153.8302  135.6939  153.4870 H   0  0  0  0  0  0  0  0  0  0  0  0  # atno 10765 bound_to 10752
  140.4691  134.1049  155.7729 H   0  0  0  0  0  0  0  0  0  0  0  0  # atno 11005 bound_to 11000
  144.7589  140.5375  143.6749 LP  0  0  0  0  0  0  0  0  0  0  0  0  # atno 17320 bound_to 7965
  145.5484  139.1476  143.3408 LP  0  0  0  0  0  0  0  0  0  0  0  0  # atno 17321 bound_to 7965
  140.7812  143.4617  151.0269 LP  0  0  0  0  0  0  0  0  0  0  0  0  # atno 17342 bound_to 10162
  139.8301  143.7702  152.3179 LP  0  0  0  0  0  0  0  0  0  0  0  0  # atno 17343 bound_to 10162
  156.1180  130.3647  149.9935 LP  0  0  0  0  0  0  0  0  0  0  0  0  # atno 17370 bound_to 10713
  156.8020  130.9294  151.3646 LP  0  0  0  0  0  0  0  0  0  0  0  0  # atno 17371 bound_to 10713
  141.1585  133.8837  157.1912 LP  0  0  0  0  0  0  0  0  0  0  0  0  # atno 17394 bound_to 11000
  139.9896  135.0069  156.9945 LP  0  0  0  0  0  0  0  0  0  0  0  0  # atno 17395 bound_to 11000

$$$$
