AV-unprocessed.smi:403|AV-procd|sdf|2496|dock2
  -GOLD-   2262022443D 1   1.00000     0.00000
 Structure written by MMmdl.
 46 47  0  0  0  0  0  0  0  0  1 V2000
  146.4864  134.1921  160.4654 C   0  0  0  0  0  0  0  0  0  0  0  0
  147.7707  134.5237  161.2443 C   0  0  0  0  0  0  0  0  0  0  0  0
  147.4937  134.5207  162.7555 C   0  0  0  0  0  0  0  0  0  0  0  0
  148.3979  135.8638  160.8076 C   0  0  0  0  0  0  0  0  0  0  0  0
  148.6950  135.9547  159.2963 C   0  0  0  0  0  0  0  0  0  0  0  0
  149.6885  137.0618  158.9269 C   0  0  0  0  0  0  0  0  0  0  0  0
  150.8900  136.9474  159.1728 O   0  0  0  0  0  0  0  0  0  0  0  0
  149.1630  138.1407  158.3264 N   0  0  0  0  0  0  0  0  0  0  0  0
  149.9243  139.3051  157.8826 C   0  0  0  0  0  0  0  0  0  0  0  0
  150.8998  139.0432  156.7318 C   0  0  0  0  0  0  0  0  0  0  0  0
  150.5161  138.2658  155.6135 C   0  0  0  0  0  0  0  0  0  0  0  0
  151.4282  138.0689  154.5614 C   0  0  0  0  0  0  0  0  0  0  0  0
  152.6977  138.6645  154.6595 C   0  0  0  0  0  0  0  0  0  0  0  0
  153.0791  139.4155  155.7122 N   0  0  0  0  0  0  0  0  0  0  0  0
  152.2040  139.6075  156.7295 C   0  0  0  0  0  0  0  0  0  0  0  0
  152.6451  140.3801  157.8182 N   0  0  0  0  0  0  0  0  0  0  0  0
  151.8926  141.6189  157.9709 C   0  0  0  0  0  0  0  0  0  0  0  0
  152.5561  142.5064  159.0379 C   0  0  0  0  0  0  0  0  0  0  0  0
  152.6685  141.7829  160.2608 O   0  0  0  0  0  0  0  0  0  0  0  0
  153.4633  140.6083  160.1194 C   0  0  0  0  0  0  0  0  0  0  0  0
  152.8201  139.6723  159.0818 C   0  0  0  0  0  0  0  0  0  0  0  0
  145.7356  134.9733  160.5880 H   0  0  0  0  0  0  0  0  0  0  0  0
  146.0494  133.2556  160.8132 H   0  0  0  0  0  0  0  0  0  0  0  0
  146.6786  134.0779  159.3991 H   0  0  0  0  0  0  0  0  0  0  0  0
  148.4950  133.7318  161.0485 H   0  0  0  0  0  0  0  0  0  0  0  0
  146.7676  135.2881  163.0259 H   0  0  0  0  0  0  0  0  0  0  0  0
  148.4045  134.7087  163.3248 H   0  0  0  0  0  0  0  0  0  0  0  0
  147.0979  133.5586  163.0819 H   0  0  0  0  0  0  0  0  0  0  0  0
  147.7464  136.6858  161.1086 H   0  0  0  0  0  0  0  0  0  0  0  0
  149.3321  136.0025  161.3544 H   0  0  0  0  0  0  0  0  0  0  0  0
  149.0976  135.0038  158.9447 H   0  0  0  0  0  0  0  0  0  0  0  0
  147.7740  136.1317  158.7409 H   0  0  0  0  0  0  0  0  0  0  0  0
  148.1669  138.1565  158.1621 H   0  0  0  0  0  0  0  0  0  0  0  0
  149.2145  140.0643  157.5545 H   0  0  0  0  0  0  0  0  0  0  0  0
  150.4450  139.7302  158.7413 H   0  0  0  0  0  0  0  0  0  0  0  0
  149.5338  137.8230  155.5468 H   0  0  0  0  0  0  0  0  0  0  0  0
  151.1599  137.4777  153.6984 H   0  0  0  0  0  0  0  0  0  0  0  0
  153.4254  138.5368  153.8717 H   0  0  0  0  0  0  0  0  0  0  0  0
  151.8384  142.1517  157.0208 H   0  0  0  0  0  0  0  0  0  0  0  0
  150.8684  141.3847  158.2648 H   0  0  0  0  0  0  0  0  0  0  0  0
  153.5418  142.8387  158.7078 H   0  0  0  0  0  0  0  0  0  0  0  0
  151.9578  143.4016  159.2079 H   0  0  0  0  0  0  0  0  0  0  0  0
  154.4789  140.8775  159.8250 H   0  0  0  0  0  0  0  0  0  0  0  0
  153.5329  140.1078  161.0853 H   0  0  0  0  0  0  0  0  0  0  0  0
  151.8545  139.3249  159.4521 H   0  0  0  0  0  0  0  0  0  0  0  0
  153.4459  138.7926  158.9288 H   0  0  0  0  0  0  0  0  0  0  0  0
  1  2  1  0  0  0  0
  1 22  1  0  0  0  0
  1 23  1  0  0  0  0
  1 24  1  0  0  0  0
  2  3  1  0  0  0  0
  2  4  1  0  0  0  0
  2 25  1  0  0  0  0
  3 26  1  0  0  0  0
  3 27  1  0  0  0  0
  3 28  1  0  0  0  0
  4  5  1  0  0  0  0
  4 29  1  0  0  0  0
  4 30  1  0  0  0  0
  5  6  1  0  0  0  0
  5 31  1  0  0  0  0
  5 32  1  0  0  0  0
  6  7  2  0  0  0  0
  6  8  1  0  0  0  0
  8  9  1  0  0  0  0
  8 33  1  0  0  0  0
  9 10  1  0  0  0  0
  9 34  1  0  0  0  0
  9 35  1  0  0  0  0
 10 15  1  0  0  0  0
 10 11  2  0  0  0  0
 11 12  1  0  0  0  0
 11 36  1  0  0  0  0
 12 13  2  0  0  0  0
 12 37  1  0  0  0  0
 13 14  1  0  0  0  0
 13 38  1  0  0  0  0
 14 15  2  0  0  0  0
 15 16  1  0  0  0  0
 16 21  1  0  0  0  0
 16 17  1  0  0  0  0
 17 18  1  0  0  0  0
 17 39  1  0  0  0  0
 17 40  1  0  0  0  0
 18 19  1  0  0  0  0
 18 41  1  0  0  0  0
 18 42  1  0  0  0  0
 19 20  1  0  0  0  0
 20 21  1  0  0  0  0
 20 43  1  0  0  0  0
 20 44  1  0  0  0  0
 21 45  1  0  0  0  0
 21 46  1  0  0  0  0
M  END
> <s_m_source_file>
AV-unprocessed.smi

> <i_m_source_file_index>
403

> <i_lp_mmshare_version>
43012

> <i_f3d_flags>
0

> <s_epik_input>
W0NIM11bQ0hdKFtDSDNdKVtDSDJdW0NIMl1DKD1PKVtOSF1bQ0gyXWMxW2NIXVtjSF1bY0hdbmMxTjJbQ0gyXVtDSDJdT1tDSDJdW0NIMl0y

> <s_epik_cmdline>
J2VwaWtfcHl0aG9uJywgJy1waCcsICc3LjAnLCAnLXRuJywgJzgnLCAnLW1hJywgJzIwMCcsICctbWV0YWxfYmluZGluZycsICctaW1hZScsICc8aW5maWxlLm1hZT4nLCAnLW9tYWUnLCAnPG91dGZpbGUubWFlPic=

> <r_lp_tautomer_probability>
1

> <r_epik_Ionization_Penalty>
0.00581842

> <r_epik_Ionization_Penalty_Charging>
0

> <r_epik_Ionization_Penalty_Neutral>
0.00581842

> <r_epik_State_Penalty>
0.00427389

> <r_epik_Charging_Adjusted_Penalty>
0.00427389

> <i_epik_Tot_Q>
0

> <i_epik_Tot_abs_Q>
0

> <r_epik_Metal_State_Penalty>
-0

> <b_epik_Metal_Only>
0

> <s_lp_Force_Field>
OPLS_2005

> <r_lp_Energy>
20.7725

> <b_lp_Chiralities_Consistent>
1

> <s_lp_Variant>
AV-unprocessed.smi:403-1

> <Gold.Version>
5.8.1

> <Gold.Id.Protein>
6NUR|6NUR_protein|mol2

> <Gold.PLP.Fitness>
42.1782

> <Gold.PLP.PLP>
-37.1275

> <Gold.PLP.part.hbond>
-3.0000

> <Gold.PLP.part.metal>
0.0000

> <Gold.PLP.part.buried>
-5.7161

> <Gold.PLP.part.nonpolar>
-28.7277

> <Gold.PLP.part.repulsive>
0.1512

> <Gold.PLP.ligand.clash>
0.0000

> <Gold.PLP.ligand.torsion>
0.5627

> <Gold.PLP.Chemscore.Hbond>
1.9913

> <Gold.PLP.Chemscore.CHOScore>
0.0000

> <Gold.PLP.Chemscore.Metal>
0.0000

> <Gold.Chemscore.Hbonds>
donor molecule, donor type, donor heavy atom, donor atom, acceptor molecule, acceptor atom, score
      P1  H  6896  6907       L1     7  1.00
      P1  H  7997  8010       L1    14  1.00

> <Gold.PLP.Chemscore.Internal.Correction>
0.2024

> <Gold.Rescore>
     Score         DG    S(hbond)    S(metal)    S(lipo)     H(rot)  DE(clash)    DE(int)     intcor
     17.05     -17.97       1.84        0.00      92.32       1.73       0.00       0.92       ----

> <Gold.Chemscore.Fitness>
17.0492

> <Gold.Chemscore.DG>
-17.9698

> <Gold.Chemscore.ZeroCoef>
-5.4800

> <Gold.Chemscore.Hbond>
1.8351

> <Gold.Chemscore.Metal>
0.0000

> <Gold.Chemscore.Lipo>
92.3213

> <Gold.Chemscore.Internal_Hbond>
0.0000

> <Gold.Chemscore.DEClash>
0.0000

> <Gold.Chemscore.DEInternal>
0.9207

> <Gold.Chemscore.Rot>
1.7347

> <Gold.Chemscore.Internal.Correction>
   9.000000E+99

> <Gold.Chemscore.Hbonds>
donor molecule, donor type, donor heavy atom, donor atom, acceptor molecule, acceptor atom, score
      P1  H  6896  6907       L1     7  0.58
      P1  H  7997  8010       L1    14  0.86

> <Gold.Chemscore.Hbond.Weighted>
-6.1292

> <Gold.Chemscore.Metal.Weighted>
-0.0000

> <Gold.Chemscore.Lipo.Weighted>
-10.8016

> <Gold.Chemscore.Internal_Hbond.Weighted>
0.0000

> <Gold.Chemscore.DEClash.Weighted>
0.0000

> <Gold.Chemscore.DEInternal.Weighted>
0.9207

> <Gold.Chemscore.Rot.Weighted>
4.4409

> <Gold.Chemscore.Internal.Correction.Weighted>
   9.000000E+99

> <Gold.Protein.RotatedTorsions>
[ 6907 6896 6895 6894 ] final  -25.28 input  -60.11 | X-H torsion
[ 7974 7965 7964 7962 ] final  104.50 input  175.53 | X-H torsion
[ 8008 7997 7996 7995 ] final  107.68 input   59.86 | X-H torsion
[ 10167 10162 10161 10158 ] final  -50.86 input  -65.29 | X-H torsion
[ 10718 10713 10712 10709 ] final  -90.06 input   66.30 | X-H torsion
[ 10763 10752 10751 10750 ] final   -5.89 input  -60.55 | X-H torsion
[ 11005 11000 10999 10996 ] final -116.31 input  -57.11 | X-H torsion

> <Gold.Protein.ActiveResidues>
 VAL166  LYS551  ARG553  GLY616  TRP617  ASP618  TYR619  PRO620  LYS621  CYS622 
 ASP623  PHE694  ASN695  SER759  ASP760  ASP761  ALA762  ILE779  LEU786  VAL792 
 PHE793  MET794  SER795  GLU796  ALA797  LYS798  CYS799  TRP800  GLU811  SER814 

> <Gold.Protein.RotatedAtoms>
  151.1774  135.0345  159.8777 H   0  0  0  0  0  0  0  0  0  0  0  0  # atno 6907 bound_to 6896
  152.5446  134.1102  159.8365 H   0  0  0  0  0  0  0  0  0  0  0  0  # atno 6908 bound_to 6896
  151.1215  133.5054  159.2634 H   0  0  0  0  0  0  0  0  0  0  0  0  # atno 6909 bound_to 6896
  145.3319  139.2484  143.3656 H   0  0  0  0  0  0  0  0  0  0  0  0  # atno 7974 bound_to 7965
  156.1843  140.3090  155.9208 H   0  0  0  0  0  0  0  0  0  0  0  0  # atno 8008 bound_to 7997
  155.3315  140.0461  157.3059 H   0  0  0  0  0  0  0  0  0  0  0  0  # atno 8009 bound_to 7997
  154.5378  140.2251  155.8703 H   0  0  0  0  0  0  0  0  0  0  0  0  # atno 8010 bound_to 7997
  140.6617  143.2641  151.4420 H   0  0  0  0  0  0  0  0  0  0  0  0  # atno 10167 bound_to 10162
  155.9986  130.4896  150.5266 H   0  0  0  0  0  0  0  0  0  0  0  0  # atno 10718 bound_to 10713
  153.4047  135.7006  153.6401 H   0  0  0  0  0  0  0  0  0  0  0  0  # atno 10763 bound_to 10752
  153.4919  135.3671  155.2496 H   0  0  0  0  0  0  0  0  0  0  0  0  # atno 10764 bound_to 10752
  154.8713  135.4091  154.3389 H   0  0  0  0  0  0  0  0  0  0  0  0  # atno 10765 bound_to 10752
  141.0431  133.9805  157.2963 H   0  0  0  0  0  0  0  0  0  0  0  0  # atno 11005 bound_to 11000
  146.3042  140.3899  142.8693 LP  0  0  0  0  0  0  0  0  0  0  0  0  # atno 17320 bound_to 7965
  144.8857  140.7459  143.5958 LP  0  0  0  0  0  0  0  0  0  0  0  0  # atno 17321 bound_to 7965
  139.5853  144.1619  152.2020 LP  0  0  0  0  0  0  0  0  0  0  0  0  # atno 17342 bound_to 10162
  140.0957  144.5583  150.7024 LP  0  0  0  0  0  0  0  0  0  0  0  0  # atno 17343 bound_to 10162
  157.3221  131.0684  151.1924 LP  0  0  0  0  0  0  0  0  0  0  0  0  # atno 17370 bound_to 10713
  157.2834  130.6761  149.6077 LP  0  0  0  0  0  0  0  0  0  0  0  0  # atno 17371 bound_to 10713
  139.9290  135.0200  156.8337 LP  0  0  0  0  0  0  0  0  0  0  0  0  # atno 17394 bound_to 11000
  140.6198  134.0004  155.7613 LP  0  0  0  0  0  0  0  0  0  0  0  0  # atno 17395 bound_to 11000

$$$$
