AV-unprocessed.smi:2341|AV-procd|sdf|9353|dock6
  -GOLD-   2272012573D 1   1.00000     0.00000
 Structure written by MMmdl.
 52 54  0  0  0  0  0  0  0  0  2 V2000
  150.9777  142.2402  156.6046 C   0  0  0  0  0  0  0  0  0  0  0  0
  150.2804  141.2381  155.7088 C   0  0  0  0  0  0  0  0  0  0  0  0
  149.0696  141.5530  155.0633 C   0  0  0  0  0  0  0  0  0  0  0  0
  148.4653  140.5806  154.2432 C   0  0  0  0  0  0  0  0  0  0  0  0
  149.0834  139.3194  154.0881 C   0  0  0  0  0  0  0  0  0  0  0  0
  148.3931  138.4111  153.2417 N   0  0  0  0  0  0  0  0  0  0  0  0
  147.0652  138.2631  153.0892 C   0  0  0  0  0  0  0  0  0  0  0  0
  146.2020  138.9082  153.6852 O   0  0  0  0  0  0  0  0  0  0  0  0
  146.7819  137.3071  152.1919 N   0  0  0  0  0  0  0  0  0  0  0  0
  145.4364  136.9103  151.7869 C   0  0  2  0  0  0  0  0  0  0  0  0
  144.6725  136.2704  152.9633 C   0  0  0  0  0  0  0  0  0  0  0  0
  143.3113  135.7026  152.5111 C   0  0  0  0  0  0  0  0  0  0  0  0
  143.4463  134.7380  151.3806 N   0  3  2  0  0  0  0  0  0  0  0  0
  143.9873  133.3903  151.7685 C   0  0  0  0  0  0  0  0  0  0  0  0
  145.4429  133.4458  152.3074 C   0  0  0  0  0  0  0  0  0  0  0  0
  146.0020  132.0551  152.6470 C   0  0  0  0  0  0  0  0  0  0  0  0
  145.9344  131.1152  151.4388 C   0  0  0  0  0  0  0  0  0  0  0  0
  144.4976  131.0202  150.9148 C   0  0  0  0  0  0  0  0  0  0  0  0
  143.9359  132.4081  150.5684 C   0  0  0  0  0  0  0  0  0  0  0  0
  144.1122  135.4150  150.2307 C   0  0  0  0  0  0  0  0  0  0  0  0
  145.5148  135.9274  150.6065 C   0  0  0  0  0  0  0  0  0  0  0  0
  150.2503  139.0258  154.7142 N   0  0  0  0  0  0  0  0  0  0  0  0
  150.8290  139.9581  155.4997 C   0  0  0  0  0  0  0  0  0  0  0  0
  150.4775  143.2088  156.5807 H   0  0  0  0  0  0  0  0  0  0  0  0
  152.0100  142.3816  156.2832 H   0  0  0  0  0  0  0  0  0  0  0  0
  150.9839  141.8835  157.6348 H   0  0  0  0  0  0  0  0  0  0  0  0
  148.6078  142.5210  155.1916 H   0  0  0  0  0  0  0  0  0  0  0  0
  147.5359  140.8061  153.7402 H   0  0  0  0  0  0  0  0  0  0  0  0
  148.9797  137.8068  152.6858 H   0  0  0  0  0  0  0  0  0  0  0  0
  147.5526  136.8270  151.7504 H   0  0  0  0  0  0  0  0  0  0  0  0
  144.8903  137.7948  151.4525 H   0  0  0  0  0  0  0  0  0  0  0  0
  145.2749  135.4838  153.4181 H   0  0  0  0  0  0  0  0  0  0  0  0
  144.5099  137.0120  153.7463 H   0  0  0  0  0  0  0  0  0  0  0  0
  142.7831  135.2716  153.3583 H   0  0  0  0  0  0  0  0  0  0  0  0
  142.6807  136.5274  152.1759 H   0  0  0  0  0  0  0  0  0  0  0  0
  143.3678  132.9861  152.5688 H   0  0  0  0  0  0  0  0  0  0  0  0
  146.0919  133.9281  151.5748 H   0  0  0  0  0  0  0  0  0  0  0  0
  145.4992  134.0390  153.2196 H   0  0  0  0  0  0  0  0  0  0  0  0
  147.0334  132.1437  152.9898 H   0  0  0  0  0  0  0  0  0  0  0  0
  145.4373  131.6266  153.4762 H   0  0  0  0  0  0  0  0  0  0  0  0
  146.5928  131.4799  150.6493 H   0  0  0  0  0  0  0  0  0  0  0  0
  146.2981  130.1248  151.7145 H   0  0  0  0  0  0  0  0  0  0  0  0
  144.4674  130.3772  150.0345 H   0  0  0  0  0  0  0  0  0  0  0  0
  143.8641  130.5454  151.6654 H   0  0  0  0  0  0  0  0  0  0  0  0
  142.9172  132.2641  150.2136 H   0  0  0  0  0  0  0  0  0  0  0  0
  144.4961  132.8244  149.7298 H   0  0  0  0  0  0  0  0  0  0  0  0
  144.1425  134.7864  149.3424 H   0  0  0  0  0  0  0  0  0  0  0  0
  143.4951  136.2658  149.9379 H   0  0  0  0  0  0  0  0  0  0  0  0
  145.9675  136.4199  149.7450 H   0  0  0  0  0  0  0  0  0  0  0  0
  146.1648  135.0878  150.8563 H   0  0  0  0  0  0  0  0  0  0  0  0
  151.7561  139.6726  155.9750 H   0  0  0  0  0  0  0  0  0  0  0  0
  142.5056  134.5507  151.0632 H   0  0  0  0  0  0  0  0  0  0  0  0
  1  2  1  0  0  0  0
  1 24  1  0  0  0  0
  1 25  1  0  0  0  0
  1 26  1  0  0  0  0
  2 23  1  0  0  0  0
  2  3  2  0  0  0  0
  3  4  1  0  0  0  0
  3 27  1  0  0  0  0
  4  5  2  0  0  0  0
  4 28  1  0  0  0  0
  5  6  1  0  0  0  0
  5 22  1  0  0  0  0
  6  7  1  0  0  0  0
  6 29  1  0  0  0  0
  7  8  2  0  0  0  0
  7  9  1  0  0  0  0
  9 10  1  0  0  0  0
  9 30  1  0  0  0  0
 10 21  1  0  0  0  0
 10 11  1  0  0  0  0
 10 31  1  0  0  0  0
 11 12  1  0  0  0  0
 11 32  1  0  0  0  0
 11 33  1  0  0  0  0
 12 13  1  0  0  0  0
 12 34  1  0  0  0  0
 12 35  1  0  0  0  0
 13 14  1  0  0  0  0
 13 20  1  0  0  0  0
 13 52  1  0  0  0  0
 14 19  1  0  0  0  0
 14 15  1  0  0  0  0
 14 36  1  0  0  0  0
 15 16  1  0  0  0  0
 15 37  1  0  0  0  0
 15 38  1  0  0  0  0
 16 17  1  0  0  0  0
 16 39  1  0  0  0  0
 16 40  1  0  0  0  0
 17 18  1  0  0  0  0
 17 41  1  0  0  0  0
 17 42  1  0  0  0  0
 18 19  1  0  0  0  0
 18 43  1  0  0  0  0
 18 44  1  0  0  0  0
 19 45  1  0  0  0  0
 19 46  1  0  0  0  0
 20 21  1  0  0  0  0
 20 47  1  0  0  0  0
 20 48  1  0  0  0  0
 21 49  1  0  0  0  0
 21 50  1  0  0  0  0
 22 23  2  0  0  0  0
 23 51  1  0  0  0  0
M  CHG  1  13   1
M  END
> <s_m_source_file>
AV-unprocessed.smi

> <i_m_source_file_index>
2341

> <i_lp_mmshare_version>
43012

> <i_f3d_flags>
0

> <s_epik_input>
W0NIM11jMVtjSF1bY0hdYyhuW2NIXTEpW05IXUMoPU8pW05IXVtDSF0yW0NIMl1bQ0gyXU4oW0NIMl1bQ0gyXTIpW0NIXTNbQ0gyXVtDSDJdW0NIMl1bQ0gyXVtDSDJdMw==

> <s_epik_cmdline>
J2VwaWtfcHl0aG9uJywgJy1waCcsICc3LjAnLCAnLXRuJywgJzgnLCAnLW1hJywgJzIwMCcsICctbWV0YWxfYmluZGluZycsICctaW1hZScsICc8aW5maWxlLm1hZT4nLCAnLW9tYWUnLCAnPG91dGZpbGUubWFlPic=

> <r_epik_Ionization_Penalty>
0.00176486

> <r_epik_Ionization_Penalty_Charging>
0.00171891

> <r_epik_Ionization_Penalty_Neutral>
4.59494e-05

> <r_epik_State_Penalty>
0.00116222

> <r_epik_Charging_Adjusted_Penalty>
0.00288114

> <i_epik_Tot_Q>
1

> <i_epik_Tot_abs_Q>
1

> <r_epik_Metal_State_Penalty>
-0

> <b_epik_Metal_Only>
0

> <s_lp_Force_Field>
OPLS_2005

> <r_lp_Energy>
32.471

> <b_lp_Chiralities_Consistent>
1

> <s_lp_Variant>
AV-unprocessed.smi:2341-2

> <Gold.Version>
5.8.1

> <Gold.Id.Protein>
6NUR|6NUR_protein|mol2

> <Gold.PLP.Fitness>
47.8120

> <Gold.PLP.PLP>
-39.9960

> <Gold.PLP.part.hbond>
-3.5479

> <Gold.PLP.part.metal>
0.0000

> <Gold.PLP.part.buried>
0.9807

> <Gold.PLP.part.nonpolar>
-37.8918

> <Gold.PLP.part.repulsive>
0.4525

> <Gold.PLP.ligand.clash>
0.0000

> <Gold.PLP.ligand.torsion>
0.3165

> <Gold.PLP.Chemscore.Hbond>
2.7980

> <Gold.PLP.Chemscore.CHOScore>
0.0000

> <Gold.PLP.Chemscore.Metal>
0.0000

> <Gold.Chemscore.Hbonds>
donor molecule, donor type, donor heavy atom, donor atom, acceptor molecule, acceptor atom, score
      L1  H     6    29       P1  7948  0.85
      L1  H     9    30       P1  7948  0.93
      L1  H    13    52       P1 10186  0.94

> <Gold.PLP.Chemscore.Internal.Correction>
0.0550

> <Gold.Rescore>
     Score         DG    S(hbond)    S(metal)    S(lipo)     H(rot)  DE(clash)    DE(int)     intcor
     17.36     -20.92       1.81        0.00     106.41       1.19       0.64       2.92       ----

> <Gold.Chemscore.Fitness>
17.3595

> <Gold.Chemscore.DG>
-20.9162

> <Gold.Chemscore.ZeroCoef>
-5.4800

> <Gold.Chemscore.Hbond>
1.8078

> <Gold.Chemscore.Metal>
0.0000

> <Gold.Chemscore.Lipo>
106.4051

> <Gold.Chemscore.Internal_Hbond>
0.0000

> <Gold.Chemscore.DEClash>
0.6386

> <Gold.Chemscore.DEInternal>
2.9181

> <Gold.Chemscore.Rot>
1.1918

> <Gold.Chemscore.Internal.Correction>
   9.000000E+99

> <Gold.Chemscore.Hbonds>
donor molecule, donor type, donor heavy atom, donor atom, acceptor molecule, acceptor atom, score
      L1  H     6    29       P1  7948  0.85
      L1  H     9    30       P1  7948  0.84
      L1  H    13    52       P1 10186  0.03

> <Gold.Chemscore.Hbond.Weighted>
-6.0380

> <Gold.Chemscore.Metal.Weighted>
-0.0000

> <Gold.Chemscore.Lipo.Weighted>
-12.4494

> <Gold.Chemscore.Internal_Hbond.Weighted>
0.0000

> <Gold.Chemscore.DEClash.Weighted>
0.6386

> <Gold.Chemscore.DEInternal.Weighted>
2.9181

> <Gold.Chemscore.Rot.Weighted>
3.0511

> <Gold.Chemscore.Internal.Correction.Weighted>
   9.000000E+99

> <Gold.Protein.RotatedTorsions>
[ 6907 6896 6895 6894 ] final -173.77 input  -60.11 | X-H torsion
[ 7974 7965 7964 7962 ] final  -33.65 input  175.53 | X-H torsion
[ 8008 7997 7996 7995 ] final -154.27 input   59.86 | X-H torsion
[ 10167 10162 10161 10158 ] final  -18.13 input  -65.29 | X-H torsion
[ 10718 10713 10712 10709 ] final -101.99 input   66.30 | X-H torsion
[ 10763 10752 10751 10750 ] final  -88.21 input  -60.55 | X-H torsion
[ 11005 11000 10999 10996 ] final -155.82 input  -57.11 | X-H torsion

> <Gold.Protein.ActiveResidues>
 VAL166  LYS551  ARG553  GLY616  TRP617  ASP618  TYR619  PRO620  LYS621  CYS622 
 ASP623  PHE694  ASN695  SER759  ASP760  ASP761  ALA762  ILE779  LEU786  VAL792 
 PHE793  MET794  SER795  GLU796  ALA797  LYS798  CYS799  TRP800  GLU811  SER814 

> <Gold.Protein.RotatedAtoms>
  151.5615  133.3402  159.2971 H   0  0  0  0  0  0  0  0  0  0  0  0  # atno 6907 bound_to 6896
  150.8420  134.7718  159.6951 H   0  0  0  0  0  0  0  0  0  0  0  0  # atno 6908 bound_to 6896
  152.4486  134.5450  159.9902 H   0  0  0  0  0  0  0  0  0  0  0  0  # atno 6909 bound_to 6896
  146.0893  140.5943  142.8872 H   0  0  0  0  0  0  0  0  0  0  0  0  # atno 7974 bound_to 7965
  155.6837  140.0747  157.2475 H   0  0  0  0  0  0  0  0  0  0  0  0  # atno 8008 bound_to 7997
  154.4101  140.1677  156.2063 H   0  0  0  0  0  0  0  0  0  0  0  0  # atno 8009 bound_to 7997
  155.9512  140.3377  155.6412 H   0  0  0  0  0  0  0  0  0  0  0  0  # atno 8010 bound_to 7997
  140.7255  143.4947  150.9946 H   0  0  0  0  0  0  0  0  0  0  0  0  # atno 10167 bound_to 10162
  156.0213  130.5399  150.7043 H   0  0  0  0  0  0  0  0  0  0  0  0  # atno 10718 bound_to 10713
  154.6421  135.5385  153.7801 H   0  0  0  0  0  0  0  0  0  0  0  0  # atno 10763 bound_to 10752
  153.0339  135.6461  154.1144 H   0  0  0  0  0  0  0  0  0  0  0  0  # atno 10764 bound_to 10752
  154.1068  135.2929  155.3219 H   0  0  0  0  0  0  0  0  0  0  0  0  # atno 10765 bound_to 10752
  140.6823  134.4131  157.5225 H   0  0  0  0  0  0  0  0  0  0  0  0  # atno 11005 bound_to 11000
  144.7348  140.4778  143.6911 LP  0  0  0  0  0  0  0  0  0  0  0  0  # atno 17320 bound_to 7965
  145.6070  139.1509  143.3097 LP  0  0  0  0  0  0  0  0  0  0  0  0  # atno 17321 bound_to 7965
  139.8653  143.7262  152.3170 LP  0  0  0  0  0  0  0  0  0  0  0  0  # atno 17342 bound_to 10162
  139.7492  144.7539  151.0533 LP  0  0  0  0  0  0  0  0  0  0  0  0  # atno 17343 bound_to 10162
  157.4696  131.0892  151.0657 LP  0  0  0  0  0  0  0  0  0  0  0  0  # atno 17370 bound_to 10713
  157.1121  130.6026  149.5484 LP  0  0  0  0  0  0  0  0  0  0  0  0  # atno 17371 bound_to 10713
  139.8948  134.8698  156.2160 LP  0  0  0  0  0  0  0  0  0  0  0  0  # atno 17394 bound_to 11000
  141.0308  133.6990  156.1426 LP  0  0  0  0  0  0  0  0  0  0  0  0  # atno 17395 bound_to 11000

$$$$
