#       Name:                AV-unprocessed.smi:2692
#       Creating user name   scv26
#       Creation time:       Fri Mar 27 14:43:13 2020


#       File generated by GOLD software.
#

@<TRIPOS>MOLECULE
AV-unprocessed.smi:2692
    21    21     1
SMALL
NO_CHARGES


@<TRIPOS>ATOM
      1 ****        -1.8920   2.5347   0.0980 N.4            1 S1                 1.0000
      2 ****        -1.4018   1.1470   0.0985 C.3            1 S1                 0.0000
      3 ****         0.1314   1.0987   0.1121 C.3            1 S1                 0.0000
      4 ****         0.6521  -0.3237   0.1013 C.ar           1 S1                 0.0000
      5 ****         0.9083  -1.0134   1.3056 C.ar           1 S1                 0.0000
      6 ****         1.3625  -2.2837   1.3532 N.ar           1 S1                 0.0000
      7 ****         1.5820  -2.9202   0.1820 C.ar           1 S1                 0.0000
      8 ****         1.3577  -2.3219  -1.0753 C.ar           1 S1                 0.0000
      9 ****         1.5912  -3.0100  -2.2299 O.co2          1 S1                -1.0000
     10 ****         0.8846  -0.9967  -1.1154 C.ar           1 S1                 0.0000
     11 ****        -2.9019   2.5342   0.0930 H              1 S1                 0.0000
     12 ****        -1.5512   3.0103  -0.7252 H              1 S1                 0.0000
     13 ****        -1.8058   0.6327   0.9712 H              1 S1                 0.0000
     14 ****        -1.7902   0.6386  -0.7848 H              1 S1                 0.0000
     15 ****         0.5323   1.6279  -0.7536 H              1 S1                 0.0000
     16 ****         0.5175   1.6119   0.9939 H              1 S1                 0.0000
     17 ****         0.7390  -0.5345   2.2588 H              1 S1                 0.0000
     18 ****         1.9443  -3.9356   0.2526 H              1 S1                 0.0000
     19 ****         0.6996  -0.5073  -2.0607 H              1 S1                 0.0000
     20 ****        -1.5593   3.0103   0.9245 H              1 S1                 0.0000
     21 ****         1.5311  -2.7390   2.2274 LP             1 S1                 0.0000
@<TRIPOS>BOND
    1    1    2 1     
    2    1   11 1     
    3    1   12 1     
    4    1   20 1     
    5    2    3 1     
    6    2   13 1     
    7    2   14 1     
    8    3    4 1     
    9    3   15 1     
   10    3   16 1     
   11    4   10 ar    
   12    4    5 ar    
   13    5    6 ar    
   14    5   17 1     
   15    6    7 ar    
   16    7    8 ar    
   17    7   18 1     
   18    8    9 ar    
   19    8   10 ar    
   20   10   19 1     
   21    6   21 1     
@<TRIPOS>SUBSTRUCTURE
      1 S1             1
@<TRIPOS>SET
LONE_PAIRS      STATIC     ATOMS    <user>   **** ""
2 21 9
DONOR_HYDROGENS      STATIC     ATOMS    <user>   **** ""
3 11 12 20
ATOM$BLUE        STATIC     ATOMS    COLORGROUP SYSTEM
2 21 9
ATOM$RED        STATIC     ATOMS    COLORGROUP SYSTEM
3 11 12 20
