AV-unprocessed.smi:33|AV-procd|sdf|201|dock6
  -GOLD-   2262015473D 1   1.00000     0.00000
 Structure written by MMmdl.
 67 72  0  0  0  0  0  0  0  0  1 V2000
  153.4503  140.4472  158.2474 O   0  0  0  0  0  0  0  0  0  0  0  0
  152.6340  141.3283  157.9696 C   0  0  0  0  0  0  0  0  0  0  0  0
  151.7277  141.2189  156.9787 O   0  0  0  0  0  0  0  0  0  0  0  0
  151.8966  140.2372  155.9693 C   0  0  0  0  0  0  0  0  0  0  0  0
  150.5234  139.6861  155.5670 C   0  0  2  0  0  0  0  0  0  0  0  0
  149.9621  138.9091  156.6128 O   0  0  0  0  0  0  0  0  0  0  0  0
  148.9701  138.0929  156.0742 C   0  0  2  0  0  0  0  0  0  0  0  0
  148.9804  136.7996  156.8199 N   0  0  0  0  0  0  0  0  0  0  0  0
  150.0518  136.1959  157.4399 C   0  0  0  0  0  0  0  0  0  0  0  0
  149.7904  135.0600  158.0284 N   0  0  0  0  0  0  0  0  0  0  0  0
  148.4360  134.8634  157.7909 C   0  0  0  0  0  0  0  0  0  0  0  0
  147.5097  133.8422  158.1362 C   0  0  0  0  0  0  0  0  0  0  0  0
  147.8563  132.7420  158.8455 N   0  0  0  0  0  0  0  0  0  0  0  0
  147.5050  132.7278  160.2733 C   0  0  0  0  0  0  0  0  0  0  0  0
  147.3629  131.6503  160.8546 O   0  0  0  0  0  0  0  0  0  0  0  0
  147.2725  134.0145  161.0138 C   0  0  0  0  0  0  0  0  0  0  0  0
  148.1123  135.1256  160.7801 C   0  0  0  0  0  0  0  0  0  0  0  0
  147.8891  136.3395  161.4584 C   0  0  0  0  0  0  0  0  0  0  0  0
  146.8143  136.4560  162.3603 C   0  0  0  0  0  0  0  0  0  0  0  0
  145.9562  135.3609  162.5767 C   0  0  0  0  0  0  0  0  0  0  0  0
  146.1788  134.1465  161.8992 C   0  0  0  0  0  0  0  0  0  0  0  0
  148.5601  131.6686  158.1280 C   0  0  0  0  0  0  0  0  0  0  0  0
  149.3001  130.9048  158.7510 O   0  0  0  0  0  0  0  0  0  0  0  0
  148.4283  131.5360  156.6369 C   0  0  0  0  0  0  0  0  0  0  0  0
  147.1629  131.6688  156.0241 C   0  0  0  0  0  0  0  0  0  0  0  0
  147.0357  131.5547  154.6261 C   0  0  0  0  0  0  0  0  0  0  0  0
  148.1751  131.3276  153.8306 C   0  0  0  0  0  0  0  0  0  0  0  0
  149.4434  131.2231  154.4324 C   0  0  0  0  0  0  0  0  0  0  0  0
  149.5713  131.3353  155.8302 C   0  0  0  0  0  0  0  0  0  0  0  0
  146.2220  133.9848  157.7273 N   0  0  0  0  0  0  0  0  0  0  0  0
  145.8649  135.0619  157.0220 C   0  0  0  0  0  0  0  0  0  0  0  0
  146.6202  136.0889  156.6271 N   0  0  0  0  0  0  0  0  0  0  0  0
  147.9148  135.9500  157.0365 C   0  0  0  0  0  0  0  0  0  0  0  0
  149.2972  137.8743  154.5862 C   0  0  1  0  0  0  0  0  0  0  0  0
  148.2648  138.3485  153.7453 O   0  0  0  0  0  0  0  0  0  0  0  0
  150.5544  138.7123  154.3871 C   0  0  2  0  0  0  0  0  0  0  0  0
  151.6278  137.9227  154.4490 F   0  0  0  0  0  0  0  0  0  0  0  0
  152.5461  142.6277  158.6964 C   0  0  0  0  0  0  0  0  0  0  0  0
  152.7103  142.6483  160.1014 C   0  0  0  0  0  0  0  0  0  0  0  0
  152.6286  143.8595  160.8157 C   0  0  0  0  0  0  0  0  0  0  0  0
  152.3811  145.0651  160.1339 C   0  0  0  0  0  0  0  0  0  0  0  0
  152.2152  145.0582  158.7367 C   0  0  0  0  0  0  0  0  0  0  0  0
  152.2970  143.8480  158.0205 C   0  0  0  0  0  0  0  0  0  0  0  0
  152.3793  140.6952  155.1050 H   0  0  0  0  0  0  0  0  0  0  0  0
  152.5441  139.4332  156.3229 H   0  0  0  0  0  0  0  0  0  0  0  0
  149.8403  140.5053  155.3347 H   0  0  0  0  0  0  0  0  0  0  0  0
  147.9805  138.5175  156.2511 H   0  0  0  0  0  0  0  0  0  0  0  0
  151.0415  136.6291  157.4447 H   0  0  0  0  0  0  0  0  0  0  0  0
  148.9398  135.0480  160.0896 H   0  0  0  0  0  0  0  0  0  0  0  0
  148.5422  137.1819  161.2854 H   0  0  0  0  0  0  0  0  0  0  0  0
  146.6437  137.3872  162.8802 H   0  0  0  0  0  0  0  0  0  0  0  0
  145.1257  135.4530  163.2610 H   0  0  0  0  0  0  0  0  0  0  0  0
  145.5104  133.3144  162.0687 H   0  0  0  0  0  0  0  0  0  0  0  0
  146.2815  131.8425  156.6244 H   0  0  0  0  0  0  0  0  0  0  0  0
  146.0633  131.6416  154.1642 H   0  0  0  0  0  0  0  0  0  0  0  0
  148.0770  131.2400  152.7586 H   0  0  0  0  0  0  0  0  0  0  0  0
  150.3188  131.0573  153.8220 H   0  0  0  0  0  0  0  0  0  0  0  0
  150.5503  131.2572  156.2808 H   0  0  0  0  0  0  0  0  0  0  0  0
  144.8256  135.1070  156.7314 H   0  0  0  0  0  0  0  0  0  0  0  0
  149.4760  136.8198  154.3692 H   0  0  0  0  0  0  0  0  0  0  0  0
  148.2388  137.8112  152.9685 H   0  0  0  0  0  0  0  0  0  0  0  0
  150.5972  139.2180  153.4216 H   0  0  0  0  0  0  0  0  0  0  0  0
  152.8999  141.7350  160.6470 H   0  0  0  0  0  0  0  0  0  0  0  0
  152.7552  143.8626  161.8885 H   0  0  0  0  0  0  0  0  0  0  0  0
  152.3186  145.9937  160.6818 H   0  0  0  0  0  0  0  0  0  0  0  0
  152.0242  145.9827  158.2120 H   0  0  0  0  0  0  0  0  0  0  0  0
  152.1629  143.8781  156.9491 H   0  0  0  0  0  0  0  0  0  0  0  0
  1  2  2  0  0  0  0
  2  3  1  0  0  0  0
  2 38  1  0  0  0  0
  3  4  1  0  0  0  0
  4  5  1  0  0  0  0
  4 44  1  0  0  0  0
  4 45  1  0  0  0  0
  5 36  1  0  0  0  0
  5  6  1  0  0  0  0
  5 46  1  0  0  0  0
  6  7  1  0  0  0  0
  7  8  1  0  0  0  0
  7 34  1  0  0  0  0
  7 47  1  0  0  0  0
  8 33  1  0  0  0  0
  8  9  1  0  0  0  0
  9 10  2  0  0  0  0
  9 48  1  0  0  0  0
 10 11  1  0  0  0  0
 11 33  2  0  0  0  0
 11 12  1  0  0  0  0
 12 13  1  0  0  0  0
 12 30  2  0  0  0  0
 13 14  1  0  0  0  0
 13 22  1  0  0  0  0
 14 15  2  0  0  0  0
 14 16  1  0  0  0  0
 16 21  1  0  0  0  0
 16 17  2  0  0  0  0
 17 18  1  0  0  0  0
 17 49  1  0  0  0  0
 18 19  2  0  0  0  0
 18 50  1  0  0  0  0
 19 20  1  0  0  0  0
 19 51  1  0  0  0  0
 20 21  2  0  0  0  0
 20 52  1  0  0  0  0
 21 53  1  0  0  0  0
 22 23  2  0  0  0  0
 22 24  1  0  0  0  0
 24 29  1  0  0  0  0
 24 25  2  0  0  0  0
 25 26  1  0  0  0  0
 25 54  1  0  0  0  0
 26 27  2  0  0  0  0
 26 55  1  0  0  0  0
 27 28  1  0  0  0  0
 27 56  1  0  0  0  0
 28 29  2  0  0  0  0
 28 57  1  0  0  0  0
 29 58  1  0  0  0  0
 30 31  1  0  0  0  0
 31 32  2  0  0  0  0
 31 59  1  0  0  0  0
 32 33  1  0  0  0  0
 34 35  1  0  0  0  0
 34 36  1  0  0  0  0
 34 60  1  0  0  0  0
 35 61  1  0  0  0  0
 36 37  1  0  0  0  0
 36 62  1  0  0  0  0
 38 43  1  0  0  0  0
 38 39  2  0  0  0  0
 39 40  1  0  0  0  0
 39 63  1  0  0  0  0
 40 41  2  0  0  0  0
 40 64  1  0  0  0  0
 41 42  1  0  0  0  0
 41 65  1  0  0  0  0
 42 43  2  0  0  0  0
 42 66  1  0  0  0  0
 43 67  1  0  0  0  0
M  END
> <s_m_source_file>
AV-unprocessed.smi

> <i_m_source_file_index>
33

> <i_lp_mmshare_version>
43012

> <i_f3d_flags>
0

> <s_epik_input>
W2NIXTFbY0hdW2NIXVtjSF1bY0hdYzFDKD1PKU9bQ0gyXVtDQEBIXTJPW0NASF0oW0NAQEhdKFtPSF0pW0NAQEhdMkYpbihbY0hdbjMpYyhjMzQpbltjSF1uYzROKEMoPU8pYzVbY0hdW2NIXVtjSF1bY0hdW2NIXTUpQyg9TyljNltjSF1bY0hdW2NIXVtjSF1bY0hdNg==

> <s_epik_cmdline>
J2VwaWtfcHl0aG9uJywgJy1waCcsICc3LjAnLCAnLXRuJywgJzgnLCAnLW1hJywgJzIwMCcsICctbWV0YWxfYmluZGluZycsICctaW1hZScsICc8aW5maWxlLm1hZT4nLCAnLW9tYWUnLCAnPG91dGZpbGUubWFlPic=

> <r_lp_tautomer_probability>
1

> <r_epik_Ionization_Penalty>
0.00067664

> <r_epik_Ionization_Penalty_Charging>
0

> <r_epik_Ionization_Penalty_Neutral>
0.00067664

> <r_epik_State_Penalty>
0.000428095

> <r_epik_Charging_Adjusted_Penalty>
0.000428095

> <i_epik_Tot_Q>
0

> <i_epik_Tot_abs_Q>
0

> <r_epik_Metal_State_Penalty>
-0

> <b_epik_Metal_Only>
0

> <s_epik_Chemistry_Notes>
This compound has an ester and may undergo hydrolysis at high or low pH. This compound contains an acetal/aminal-like group ( X-CH(R)-Y where X, Y are N, S, or O) that may be acid/base labile, releasing an aldehyde.

> <s_lp_Force_Field>
OPLS_2005

> <r_lp_Energy>
66.4626

> <b_lp_Chiralities_Consistent>
1

> <s_lp_Variant>
AV-unprocessed.smi:33-3

> <Gold.Version>
5.8.1

> <Gold.Id.Protein>
6NUR|6NUR_protein|mol2

> <Gold.PLP.Fitness>
65.5479

> <Gold.PLP.PLP>
-63.4037

> <Gold.PLP.part.hbond>
-3.0000

> <Gold.PLP.part.metal>
0.0000

> <Gold.PLP.part.buried>
-6.7724

> <Gold.PLP.part.nonpolar>
-53.0642

> <Gold.PLP.part.repulsive>
0.0169

> <Gold.PLP.ligand.clash>
0.0000

> <Gold.PLP.ligand.torsion>
5.1753

> <Gold.PLP.Chemscore.Hbond>
2.6232

> <Gold.PLP.Chemscore.CHOScore>
0.0000

> <Gold.PLP.Chemscore.Metal>
0.0000

> <Gold.Chemscore.Hbonds>
donor molecule, donor type, donor heavy atom, donor atom, acceptor molecule, acceptor atom, score
      L1  H    35    61       P1  7948  0.98
      P1  H  6896  6909       L1    10  1.00
      P1  H  7997  8010       L1     1  0.78

> <Gold.PLP.Chemscore.Internal.Correction>
4.6253

> <Gold.Rescore>
     Score         DG    S(hbond)    S(metal)    S(lipo)     H(rot)  DE(clash)    DE(int)     intcor
     18.84     -26.23       2.47        0.00     161.98       2.52       0.34       7.04       ----

> <Gold.Chemscore.Fitness>
18.8396

> <Gold.Chemscore.DG>
-26.2251

> <Gold.Chemscore.ZeroCoef>
-5.4800

> <Gold.Chemscore.Hbond>
2.4721

> <Gold.Chemscore.Metal>
0.0000

> <Gold.Chemscore.Lipo>
161.9781

> <Gold.Chemscore.Internal_Hbond>
0.0000

> <Gold.Chemscore.DEClash>
0.3427

> <Gold.Chemscore.DEInternal>
7.0427

> <Gold.Chemscore.Rot>
2.5247

> <Gold.Chemscore.Internal.Correction>
   9.000000E+99

> <Gold.Chemscore.Hbonds>
donor molecule, donor type, donor heavy atom, donor atom, acceptor molecule, acceptor atom, score
      L1  H    35    61       P1  7948  0.87
      P1  H  6896  6909       L1    10  0.94
      P1  H  7997  8010       L1     1  0.75

> <Gold.Chemscore.Hbond.Weighted>
-8.2569

> <Gold.Chemscore.Metal.Weighted>
-0.0000

> <Gold.Chemscore.Lipo.Weighted>
-18.9514

> <Gold.Chemscore.Internal_Hbond.Weighted>
0.0000

> <Gold.Chemscore.DEClash.Weighted>
0.3427

> <Gold.Chemscore.DEInternal.Weighted>
7.0427

> <Gold.Chemscore.Rot.Weighted>
6.4633

> <Gold.Chemscore.Internal.Correction.Weighted>
   9.000000E+99

> <Gold.Protein.RotatedTorsions>
[ 6907 6896 6895 6894 ] final   34.44 input  -60.11 | X-H torsion
[ 7974 7965 7964 7962 ] final    3.06 input  175.53 | X-H torsion
[ 8008 7997 7996 7995 ] final   28.68 input   59.86 | X-H torsion
[ 10167 10162 10161 10158 ] final   77.43 input  -65.29 | X-H torsion
[ 10718 10713 10712 10709 ] final -106.70 input   66.30 | X-H torsion
[ 10763 10752 10751 10750 ] final  -51.18 input  -60.55 | X-H torsion
[ 11005 11000 10999 10996 ] final  163.25 input  -57.11 | X-H torsion

> <Gold.Protein.ActiveResidues>
 VAL166  LYS551  ARG553  GLY616  TRP617  ASP618  TYR619  PRO620  LYS621  CYS622 
 ASP623  PHE694  ASN695  SER759  ASP760  ASP761  ALA762  ILE779  LEU786  VAL792 
 PHE793  MET794  SER795  GLU796  ALA797  LYS798  CYS799  TRP800  GLU811  SER814 

> <Gold.Protein.RotatedAtoms>
  152.1025  134.9332  160.0568 H   0  0  0  0  0  0  0  0  0  0  0  0  # atno 6907 bound_to 6896
  152.0541  133.4027  159.4398 H   0  0  0  0  0  0  0  0  0  0  0  0  # atno 6908 bound_to 6896
  150.6840  134.3195  159.4824 H   0  0  0  0  0  0  0  0  0  0  0  0  # atno 6909 bound_to 6896
  146.2445  140.0743  142.8360 H   0  0  0  0  0  0  0  0  0  0  0  0  # atno 7974 bound_to 7965
  155.0625  140.3191  155.4656 H   0  0  0  0  0  0  0  0  0  0  0  0  # atno 8008 bound_to 7997
  156.2810  140.2126  156.5696 H   0  0  0  0  0  0  0  0  0  0  0  0  # atno 8009 bound_to 7997
  154.7121  140.0497  157.0547 H   0  0  0  0  0  0  0  0  0  0  0  0  # atno 8010 bound_to 7997
  139.9816  144.5822  150.7895 H   0  0  0  0  0  0  0  0  0  0  0  0  # atno 10167 bound_to 10162
  156.0402  130.5626  150.7718 H   0  0  0  0  0  0  0  0  0  0  0  0  # atno 10718 bound_to 10713
  154.1224  135.6532  153.4905 H   0  0  0  0  0  0  0  0  0  0  0  0  # atno 10763 bound_to 10752
  153.0221  135.5273  154.7083 H   0  0  0  0  0  0  0  0  0  0  0  0  # atno 10764 bound_to 10752
  154.6295  135.2974  155.0203 H   0  0  0  0  0  0  0  0  0  0  0  0  # atno 10765 bound_to 10752
  140.2339  134.8103  157.3344 H   0  0  0  0  0  0  0  0  0  0  0  0  # atno 11005 bound_to 11000
  145.0789  140.9207  143.4837 LP  0  0  0  0  0  0  0  0  0  0  0  0  # atno 17320 bound_to 7965
  145.0892  139.2903  143.5744 LP  0  0  0  0  0  0  0  0  0  0  0  0  # atno 17321 bound_to 7965
  140.7487  143.2926  151.3289 LP  0  0  0  0  0  0  0  0  0  0  0  0  # atno 17342 bound_to 10162
  139.6405  144.0548  152.2551 LP  0  0  0  0  0  0  0  0  0  0  0  0  # atno 17343 bound_to 10162
  157.5209  131.0931  151.0079 LP  0  0  0  0  0  0  0  0  0  0  0  0  # atno 17370 bound_to 10713
  157.0410  130.5749  149.5356 LP  0  0  0  0  0  0  0  0  0  0  0  0  # atno 17371 bound_to 10713
  140.1722  134.4594  155.7824 LP  0  0  0  0  0  0  0  0  0  0  0  0  # atno 17394 bound_to 11000
  141.2216  133.6947  156.7727 LP  0  0  0  0  0  0  0  0  0  0  0  0  # atno 17395 bound_to 11000

$$$$
