AV-unprocessed.smi:47|AV-procd|sdf|446|dock2
  -GOLD-   2262016313D 1   1.00000     0.00000
 Structure written by MMmdl.
 30 32  0  0  0  0  0  0  0  0  2 V2000
  147.6408  136.8199  154.3591 O   0  0  0  0  0  0  0  0  0  0  0  0
  148.4054  137.9487  154.7265 C   0  0  2  0  0  0  0  0  0  0  0  0
  148.3247  139.0675  153.6965 C   0  0  0  0  0  0  0  0  0  0  0  0
  149.4893  139.8972  153.9711 N   0  0  0  0  0  0  0  0  0  0  0  0
  150.5568  139.0203  154.4660 C   0  0  1  0  0  0  0  0  0  0  0  0
  151.2697  139.5923  155.6781 C   0  0  0  0  0  0  0  0  0  0  0  0
  152.2926  139.0010  156.3289 N   0  0  0  0  0  0  0  0  0  0  0  0
  152.6496  139.8345  157.2879 N   0  5  0  0  0  0  0  0  0  0  0  0
  151.8583  140.9148  157.2040 C   0  0  0  0  0  0  0  0  0  0  0  0
  151.9856  142.0600  158.1291 C   0  0  0  0  0  0  0  0  0  0  0  0
  152.5929  141.8934  159.3954 C   0  0  0  0  0  0  0  0  0  0  0  0
  152.7211  142.9752  160.2884 C   0  0  0  0  0  0  0  0  0  0  0  0
  152.2417  144.2470  159.9268 C   0  0  0  0  0  0  0  0  0  0  0  0
  151.6347  144.4317  158.6714 C   0  0  0  0  0  0  0  0  0  0  0  0
  151.5090  143.3467  157.7820 C   0  0  0  0  0  0  0  0  0  0  0  0
  150.9940  140.7952  156.2060 N   0  0  0  0  0  0  0  0  0  0  0  0
  149.9027  137.6615  154.7770 C   0  0  0  0  0  0  0  0  0  0  0  0
  148.0671  138.3162  155.6965 H   0  0  0  0  0  0  0  0  0  0  0  0
  151.3012  138.8781  153.6817 H   0  0  0  0  0  0  0  0  0  0  0  0
  147.7561  136.6711  153.4330 H   0  0  0  0  0  0  0  0  0  0  0  0
  148.3987  138.6538  152.6897 H   0  0  0  0  0  0  0  0  0  0  0  0
  147.3952  139.6336  153.7599 H   0  0  0  0  0  0  0  0  0  0  0  0
  149.7847  140.3491  153.1121 H   0  0  0  0  0  0  0  0  0  0  0  0
  152.9677  140.9244  159.6912 H   0  0  0  0  0  0  0  0  0  0  0  0
  153.1877  142.8270  161.2509 H   0  0  0  0  0  0  0  0  0  0  0  0
  152.3392  145.0779  160.6097 H   0  0  0  0  0  0  0  0  0  0  0  0
  151.2645  145.4061  158.3886 H   0  0  0  0  0  0  0  0  0  0  0  0
  151.0396  143.5123  156.8235 H   0  0  0  0  0  0  0  0  0  0  0  0
  150.2180  137.2314  155.7286 H   0  0  0  0  0  0  0  0  0  0  0  0
  150.1722  136.9526  153.9925 H   0  0  0  0  0  0  0  0  0  0  0  0
  1  2  1  0  0  0  0
  1 20  1  0  0  0  0
  2 18  1  0  0  0  0
  2 17  1  0  0  0  0
  2  3  1  0  0  0  0
  3  4  1  0  0  0  0
  3 21  1  0  0  0  0
  3 22  1  0  0  0  0
  4  5  1  0  0  0  0
  4 23  1  0  0  0  0
  5 19  1  0  0  0  0
  5  6  1  0  0  0  0
  5 17  1  0  0  0  0
  6 16  1  0  0  0  0
  6  7  2  0  0  0  0
  7  8  1  0  0  0  0
  8  9  1  0  0  0  0
  9 10  1  0  0  0  0
  9 16  2  0  0  0  0
 10 15  1  0  0  0  0
 10 11  2  0  0  0  0
 11 12  1  0  0  0  0
 11 24  1  0  0  0  0
 12 13  2  0  0  0  0
 12 25  1  0  0  0  0
 13 14  1  0  0  0  0
 13 26  1  0  0  0  0
 14 15  2  0  0  0  0
 14 27  1  0  0  0  0
 15 28  1  0  0  0  0
 17 29  1  0  0  0  0
 17 30  1  0  0  0  0
M  CHG  1   8  -1
M  END
> <s_m_source_file>
AV-unprocessed.smi

> <i_m_source_file_index>
47

> <i_lp_mmshare_version>
43012

> <i_f3d_flags>
0

> <s_epik_input>
W09IXVtDQEhdMVtDSDJdW05IXVtDQEBIXShbQ0gyXTEpYzJuW25IXWMobjIpLWMzW2NIXVtjSF1bY0hdW2NIXVtjSF0z

> <s_epik_cmdline>
J2VwaWtfcHl0aG9uJywgJy1waCcsICc3LjAnLCAnLXRuJywgJzgnLCAnLW1hJywgJzIwMCcsICctbWV0YWxfYmluZGluZycsICctaW1hZScsICc8aW5maWxlLm1hZT4nLCAnLW9tYWUnLCAnPG91dGZpbGUubWFlPic=

> <r_epik_Ionization_Penalty>
16.1968

> <r_epik_Ionization_Penalty_Charging>
13.1522

> <r_epik_Ionization_Penalty_Neutral>
3.04463

> <r_epik_State_Penalty>
6.32428

> <r_epik_Charging_Adjusted_Penalty>
19.4764

> <i_epik_Tot_Q>
-1

> <i_epik_Tot_abs_Q>
1

> <r_epik_Metal_State_Penalty>
2.82187

> <b_epik_Metal_Only>
1

> <s_lp_Force_Field>
OPLS_2005

> <r_lp_Energy>
30.4729

> <b_lp_Chiralities_Consistent>
1

> <s_lp_Variant>
AV-unprocessed.smi:47-24

> <Gold.Version>
5.8.1

> <Gold.Id.Protein>
6NUR|6NUR_protein|mol2

> <Gold.PLP.Fitness>
45.5047

> <Gold.PLP.PLP>
-34.5378

> <Gold.PLP.part.hbond>
-3.7277

> <Gold.PLP.part.metal>
0.0000

> <Gold.PLP.part.buried>
-3.6219

> <Gold.PLP.part.nonpolar>
-26.8746

> <Gold.PLP.part.repulsive>
0.0235

> <Gold.PLP.ligand.clash>
0.0000

> <Gold.PLP.ligand.torsion>
0.2217

> <Gold.PLP.Chemscore.Hbond>
3.8000

> <Gold.PLP.Chemscore.CHOScore>
0.0000

> <Gold.PLP.Chemscore.Metal>
0.0000

> <Gold.Chemscore.Hbonds>
donor molecule, donor type, donor heavy atom, donor atom, acceptor molecule, acceptor atom, score
      L1  H     1    20       P1  7948  1.00
      L1  H     4    23       P1  7957  0.77
      P1  H  7997  8010       L1     8  2.00

> <Gold.PLP.Chemscore.Internal.Correction>
0.0103

> <Gold.Rescore>
     Score         DG    S(hbond)    S(metal)    S(lipo)     H(rot)  DE(clash)    DE(int)     intcor
     20.19     -20.54       2.58        0.00      87.01       1.46       0.22       0.13       ----

> <Gold.Chemscore.Fitness>
20.1925

> <Gold.Chemscore.DG>
-20.5437

> <Gold.Chemscore.ZeroCoef>
-5.4800

> <Gold.Chemscore.Hbond>
2.5829

> <Gold.Chemscore.Metal>
0.0000

> <Gold.Chemscore.Lipo>
87.0065

> <Gold.Chemscore.Internal_Hbond>
0.0000

> <Gold.Chemscore.DEClash>
0.2216

> <Gold.Chemscore.DEInternal>
0.1296

> <Gold.Chemscore.Rot>
1.4621

> <Gold.Chemscore.Internal.Correction>
   9.000000E+99

> <Gold.Chemscore.Hbonds>
donor molecule, donor type, donor heavy atom, donor atom, acceptor molecule, acceptor atom, score
      L1  H     1    20       P1  7948  0.88
      L1  H     4    23       P1  7957  0.74
      P1  H  7997  8010       L1     8  0.24

> <Gold.Chemscore.Hbond.Weighted>
-8.6268

> <Gold.Chemscore.Metal.Weighted>
-0.0000

> <Gold.Chemscore.Lipo.Weighted>
-10.1798

> <Gold.Chemscore.Internal_Hbond.Weighted>
0.0000

> <Gold.Chemscore.DEClash.Weighted>
0.2216

> <Gold.Chemscore.DEInternal.Weighted>
0.1296

> <Gold.Chemscore.Rot.Weighted>
3.7429

> <Gold.Chemscore.Internal.Correction.Weighted>
   9.000000E+99

> <Gold.Protein.RotatedTorsions>
[ 6907 6896 6895 6894 ] final  166.73 input  -60.11 | X-H torsion
[ 7974 7965 7964 7962 ] final -143.84 input  175.53 | X-H torsion
[ 8008 7997 7996 7995 ] final   45.08 input   59.86 | X-H torsion
[ 10167 10162 10161 10158 ] final    5.13 input  -65.29 | X-H torsion
[ 10718 10713 10712 10709 ] final    4.18 input   66.30 | X-H torsion
[ 10763 10752 10751 10750 ] final  127.24 input  -60.55 | X-H torsion
[ 11005 11000 10999 10996 ] final  -90.33 input  -57.11 | X-H torsion

> <Gold.Protein.ActiveResidues>
 VAL166  LYS551  ARG553  GLY616  TRP617  ASP618  TYR619  PRO620  LYS621  CYS622 
 ASP623  PHE694  ASN695  SER759  ASP760  ASP761  ALA762  ILE779  LEU786  VAL792 
 PHE793  MET794  SER795  GLU796  ALA797  LYS798  CYS799  TRP800  GLU811  SER814 

> <Gold.Protein.RotatedAtoms>
  151.8744  133.3482  159.3745 H   0  0  0  0  0  0  0  0  0  0  0  0  # atno 6907 bound_to 6896
  150.7144  134.5081  159.5603 H   0  0  0  0  0  0  0  0  0  0  0  0  # atno 6908 bound_to 6896
  152.2620  134.8024  160.0480 H   0  0  0  0  0  0  0  0  0  0  0  0  # atno 6909 bound_to 6896
  144.8341  140.5785  143.5496 H   0  0  0  0  0  0  0  0  0  0  0  0  # atno 7974 bound_to 7965
  155.3299  140.3402  155.4239 H   0  0  0  0  0  0  0  0  0  0  0  0  # atno 8008 bound_to 7997
  156.1867  140.1683  156.8209 H   0  0  0  0  0  0  0  0  0  0  0  0  # atno 8009 bound_to 7997
  154.5394  140.0728  156.8467 H   0  0  0  0  0  0  0  0  0  0  0  0  # atno 8010 bound_to 7997
  140.6498  143.7572  150.7557 H   0  0  0  0  0  0  0  0  0  0  0  0  # atno 10167 bound_to 10162
  156.8888  130.5680  149.5650 H   0  0  0  0  0  0  0  0  0  0  0  0  # atno 10718 bound_to 10713
  153.7062  135.3275  155.3236 H   0  0  0  0  0  0  0  0  0  0  0  0  # atno 10763 bound_to 10752
  154.8398  135.4466  154.1361 H   0  0  0  0  0  0  0  0  0  0  0  0  # atno 10764 bound_to 10752
  153.2442  135.6974  153.7829 H   0  0  0  0  0  0  0  0  0  0  0  0  # atno 10765 bound_to 10752
  141.1568  133.7685  156.9723 H   0  0  0  0  0  0  0  0  0  0  0  0  # atno 11005 bound_to 11000
  145.4833  139.1494  143.3750 LP  0  0  0  0  0  0  0  0  0  0  0  0  # atno 17320 bound_to 7965
  146.2641  140.4970  142.8841 LP  0  0  0  0  0  0  0  0  0  0  0  0  # atno 17321 bound_to 7965
  140.1220  143.4603  152.2307 LP  0  0  0  0  0  0  0  0  0  0  0  0  # atno 17342 bound_to 10162
  139.5712  144.7464  151.3885 LP  0  0  0  0  0  0  0  0  0  0  0  0  # atno 17343 bound_to 10162
  156.0639  130.5686  150.9250 LP  0  0  0  0  0  0  0  0  0  0  0  0  # atno 17370 bound_to 10713
  157.6096  131.0937  150.8818 LP  0  0  0  0  0  0  0  0  0  0  0  0  # atno 17371 bound_to 10713
  140.1121  134.9470  157.2081 LP  0  0  0  0  0  0  0  0  0  0  0  0  # atno 17394 bound_to 11000
  140.3180  134.2948  155.7252 LP  0  0  0  0  0  0  0  0  0  0  0  0  # atno 17395 bound_to 11000

$$$$
