AV-unprocessed.smi:1047|AV-procd|sdf|4571|dock5
  -GOLD-   22720 3 23D 1   1.00000     0.00000
 Structure written by MMmdl.
 56 58  0  0  0  0  0  0  0  0  2 V2000
  147.6943  132.8927  152.0987 C   0  0  0  0  0  0  0  0  0  0  0  0
  148.5225  132.0319  153.0635 C   0  0  0  0  0  0  0  0  0  0  0  0
  149.7750  132.6388  153.5115 N   0  0  0  0  0  0  0  0  0  0  0  0
  150.3917  131.8444  154.5682 C   0  0  0  0  0  0  0  0  0  0  0  0
  151.7105  132.4657  155.0576 C   0  0  0  0  0  0  0  0  0  0  0  0
  151.4729  133.8007  155.4924 O   0  0  0  0  0  0  0  0  0  0  0  0
  150.9231  134.6292  154.4706 C   0  0  2  0  0  0  0  0  0  0  0  0
  150.7221  136.0363  155.0488 C   0  0  0  0  0  0  0  0  0  0  0  0
  150.6976  137.0512  153.9776 N   0  3  0  0  0  0  0  0  0  0  0  0
  150.6143  138.4411  154.4674 C   0  0  0  0  0  0  0  0  0  0  0  0
  151.8495  138.8132  155.3086 C   0  0  1  0  0  0  0  0  0  0  0  0
  152.9926  138.7801  154.4755 O   0  0  0  0  0  0  0  0  0  0  0  0
  151.7484  140.2021  155.9763 C   0  0  0  0  0  0  0  0  0  0  0  0
  152.2791  140.2367  157.3299 N   0  0  0  0  0  0  0  0  0  0  0  0
  152.9805  139.2679  157.9501 C   0  0  0  0  0  0  0  0  0  0  0  0
  153.3850  139.5090  159.1932 N   0  0  0  0  0  0  0  0  0  0  0  0
  152.8754  140.7771  159.4117 C   0  0  0  0  0  0  0  0  0  0  0  0
  152.9548  141.6137  160.5463 C   0  0  0  0  0  0  0  0  0  0  0  0
  152.3510  142.8912  160.5486 C   0  0  0  0  0  0  0  0  0  0  0  0
  152.4627  143.7581  161.7905 C   0  0  0  0  0  0  0  0  0  0  0  0
  151.6520  143.3488  159.4028 C   0  0  0  0  0  0  0  0  0  0  0  0
  150.9907  144.7157  159.3852 C   0  0  0  0  0  0  0  0  0  0  0  0
  151.5638  142.5263  158.2602 C   0  0  0  0  0  0  0  0  0  0  0  0
  152.1724  141.2584  158.2684 C   0  0  0  0  0  0  0  0  0  0  0  0
  149.5962  134.0073  153.9902 C   0  0  0  0  0  0  0  0  0  0  0  0
  146.8378  132.3318  151.7247 H   0  0  0  0  0  0  0  0  0  0  0  0
  148.2882  133.2008  151.2379 H   0  0  0  0  0  0  0  0  0  0  0  0
  147.3060  133.7892  152.5813 H   0  0  0  0  0  0  0  0  0  0  0  0
  147.9114  131.7601  153.9256 H   0  0  0  0  0  0  0  0  0  0  0  0
  148.7499  131.0960  152.5514 H   0  0  0  0  0  0  0  0  0  0  0  0
  149.7039  131.7510  155.4103 H   0  0  0  0  0  0  0  0  0  0  0  0
  150.5827  130.8327  154.2084 H   0  0  0  0  0  0  0  0  0  0  0  0
  152.1179  131.8873  155.8869 H   0  0  0  0  0  0  0  0  0  0  0  0
  152.4594  132.4604  154.2639 H   0  0  0  0  0  0  0  0  0  0  0  0
  151.6206  134.6806  153.6322 H   0  0  0  0  0  0  0  0  0  0  0  0
  149.7767  136.0799  155.5915 H   0  0  0  0  0  0  0  0  0  0  0  0
  151.5142  136.2705  155.7617 H   0  0  0  0  0  0  0  0  0  0  0  0
  151.5377  136.9535  153.4252 H   0  0  0  0  0  0  0  0  0  0  0  0
  150.5003  139.1198  153.6207 H   0  0  0  0  0  0  0  0  0  0  0  0
  149.7147  138.5343  155.0772 H   0  0  0  0  0  0  0  0  0  0  0  0
  151.9868  138.0679  156.0933 H   0  0  0  0  0  0  0  0  0  0  0  0
  152.9438  138.0125  153.9258 H   0  0  0  0  0  0  0  0  0  0  0  0
  152.2847  140.9406  155.3792 H   0  0  0  0  0  0  0  0  0  0  0  0
  150.7089  140.5320  156.0049 H   0  0  0  0  0  0  0  0  0  0  0  0
  153.2152  138.3357  157.4569 H   0  0  0  0  0  0  0  0  0  0  0  0
  153.4854  141.2641  161.4198 H   0  0  0  0  0  0  0  0  0  0  0  0
  151.4732  144.0074  162.1741 H   0  0  0  0  0  0  0  0  0  0  0  0
  152.9899  144.6849  161.5622 H   0  0  0  0  0  0  0  0  0  0  0  0
  153.0105  143.2490  162.5840 H   0  0  0  0  0  0  0  0  0  0  0  0
  150.5374  144.9268  158.4162 H   0  0  0  0  0  0  0  0  0  0  0  0
  151.7217  145.4984  159.5892 H   0  0  0  0  0  0  0  0  0  0  0  0
  150.2067  144.7685  160.1406 H   0  0  0  0  0  0  0  0  0  0  0  0
  151.0323  142.8642  157.3830 H   0  0  0  0  0  0  0  0  0  0  0  0
  149.1858  134.6318  153.1972 H   0  0  0  0  0  0  0  0  0  0  0  0
  148.8707  134.0206  154.8052 H   0  0  0  0  0  0  0  0  0  0  0  0
  149.9001  136.8759  153.3827 H   0  0  0  0  0  0  0  0  0  0  0  0
  1  2  1  0  0  0  0
  1 26  1  0  0  0  0
  1 27  1  0  0  0  0
  1 28  1  0  0  0  0
  2  3  1  0  0  0  0
  2 29  1  0  0  0  0
  2 30  1  0  0  0  0
  3 25  1  0  0  0  0
  3  4  1  0  0  0  0
  4  5  1  0  0  0  0
  4 31  1  0  0  0  0
  4 32  1  0  0  0  0
  5  6  1  0  0  0  0
  5 33  1  0  0  0  0
  5 34  1  0  0  0  0
  6  7  1  0  0  0  0
  7  8  1  0  0  0  0
  7 25  1  0  0  0  0
  7 35  1  0  0  0  0
  8  9  1  0  0  0  0
  8 36  1  0  0  0  0
  8 37  1  0  0  0  0
  9 10  1  0  0  0  0
  9 38  1  0  0  0  0
  9 56  1  0  0  0  0
 10 11  1  0  0  0  0
 10 39  1  0  0  0  0
 10 40  1  0  0  0  0
 11 12  1  0  0  0  0
 11 13  1  0  0  0  0
 11 41  1  0  0  0  0
 12 42  1  0  0  0  0
 13 14  1  0  0  0  0
 13 43  1  0  0  0  0
 13 44  1  0  0  0  0
 14 24  1  0  0  0  0
 14 15  1  0  0  0  0
 15 16  2  0  0  0  0
 15 45  1  0  0  0  0
 16 17  1  0  0  0  0
 17 24  2  0  0  0  0
 17 18  1  0  0  0  0
 18 19  2  0  0  0  0
 18 46  1  0  0  0  0
 19 20  1  0  0  0  0
 19 21  1  0  0  0  0
 20 47  1  0  0  0  0
 20 48  1  0  0  0  0
 20 49  1  0  0  0  0
 21 22  1  0  0  0  0
 21 23  2  0  0  0  0
 22 50  1  0  0  0  0
 22 51  1  0  0  0  0
 22 52  1  0  0  0  0
 23 24  1  0  0  0  0
 23 53  1  0  0  0  0
 25 54  1  0  0  0  0
 25 55  1  0  0  0  0
M  CHG  1   9   1
M  END
> <s_m_source_file>
AV-unprocessed.smi

> <i_m_source_file_index>
1047

> <i_lp_mmshare_version>
43012

> <i_f3d_flags>
0

> <s_epik_input>
W0NIM11bQ0gyXU4xW0NIMl1bQ0gyXU9bQ0BIXShbQ0gyXTEpW0NIMl1bTkhdW0NIMl1bQ0BIXShbT0hdKVtDSDJdbihbY0hdbjIpYyhjMjMpW2NIXWMoW0NIM10pYyhbY0hdMylbQ0gzXQ==

> <s_epik_cmdline>
J2VwaWtfcHl0aG9uJywgJy1waCcsICc3LjAnLCAnLXRuJywgJzgnLCAnLW1hJywgJzIwMCcsICctbWV0YWxfYmluZGluZycsICctaW1hZScsICc8aW5maWxlLm1hZT4nLCAnLW9tYWUnLCAnPG91dGZpbGUubWFlPic=

> <r_epik_Ionization_Penalty>
0.692425

> <r_epik_Ionization_Penalty_Charging>
0.0243549

> <r_epik_Ionization_Penalty_Neutral>
0.66807

> <r_epik_State_Penalty>
0.592789

> <r_epik_Charging_Adjusted_Penalty>
0.617144

> <i_epik_Tot_Q>
1

> <i_epik_Tot_abs_Q>
1

> <r_epik_Metal_State_Penalty>
0.508021

> <b_epik_Metal_Only>
0

> <s_lp_Force_Field>
OPLS_2005

> <r_lp_Energy>
28.1656

> <b_lp_Chiralities_Consistent>
1

> <s_lp_Variant>
AV-unprocessed.smi:1047-12

> <Gold.Version>
5.8.1

> <Gold.Id.Protein>
6NUR|6NUR_protein|mol2

> <Gold.PLP.Fitness>
57.5561

> <Gold.PLP.PLP>
-52.7466

> <Gold.PLP.part.hbond>
-2.0000

> <Gold.PLP.part.metal>
0.0000

> <Gold.PLP.part.buried>
-5.7894

> <Gold.PLP.part.nonpolar>
-43.2748

> <Gold.PLP.part.repulsive>
0.2025

> <Gold.PLP.ligand.clash>
0.0000

> <Gold.PLP.ligand.torsion>
0.9492

> <Gold.PLP.Chemscore.Hbond>
2.1503

> <Gold.PLP.Chemscore.CHOScore>
0.0000

> <Gold.PLP.Chemscore.Metal>
0.0000

> <Gold.Chemscore.Hbonds>
donor molecule, donor type, donor heavy atom, donor atom, acceptor molecule, acceptor atom, score
      L1  H     9    38       P1  7949  0.31
      L1  H     9    56       P1  7948  2.00

> <Gold.PLP.Chemscore.Internal.Correction>
0.2570

> <Gold.Rescore>
     Score         DG    S(hbond)    S(metal)    S(lipo)     H(rot)  DE(clash)    DE(int)     intcor
     16.06     -17.07       0.84        0.00     132.08       2.60       0.10       0.91       ----

> <Gold.Chemscore.Fitness>
16.0612

> <Gold.Chemscore.DG>
-17.0717

> <Gold.Chemscore.ZeroCoef>
-5.4800

> <Gold.Chemscore.Hbond>
0.8403

> <Gold.Chemscore.Metal>
0.0000

> <Gold.Chemscore.Lipo>
132.0819

> <Gold.Chemscore.Internal_Hbond>
0.0000

> <Gold.Chemscore.DEClash>
0.1032

> <Gold.Chemscore.DEInternal>
0.9073

> <Gold.Chemscore.Rot>
2.6049

> <Gold.Chemscore.Internal.Correction>
   9.000000E+99

> <Gold.Chemscore.Hbonds>
donor molecule, donor type, donor heavy atom, donor atom, acceptor molecule, acceptor atom, score
      L1  H     9    38       P1  7949  0.14
      L1  H     9    56       P1  7948  0.29

> <Gold.Chemscore.Hbond.Weighted>
-2.8065

> <Gold.Chemscore.Metal.Weighted>
-0.0000

> <Gold.Chemscore.Lipo.Weighted>
-15.4536

> <Gold.Chemscore.Internal_Hbond.Weighted>
0.0000

> <Gold.Chemscore.DEClash.Weighted>
0.1032

> <Gold.Chemscore.DEInternal.Weighted>
0.9073

> <Gold.Chemscore.Rot.Weighted>
6.6685

> <Gold.Chemscore.Internal.Correction.Weighted>
   9.000000E+99

> <Gold.Protein.RotatedTorsions>
[ 6907 6896 6895 6894 ] final -131.27 input  -60.11 | X-H torsion
[ 7974 7965 7964 7962 ] final   93.26 input  175.53 | X-H torsion
[ 8008 7997 7996 7995 ] final  130.04 input   59.86 | X-H torsion
[ 10167 10162 10161 10158 ] final -136.55 input  -65.29 | X-H torsion
[ 10718 10713 10712 10709 ] final  -32.28 input   66.30 | X-H torsion
[ 10763 10752 10751 10750 ] final -125.73 input  -60.55 | X-H torsion
[ 11005 11000 10999 10996 ] final   22.12 input  -57.11 | X-H torsion

> <Gold.Protein.ActiveResidues>
 VAL166  LYS551  ARG553  GLY616  TRP617  ASP618  TYR619  PRO620  LYS621  CYS622 
 ASP623  PHE694  ASN695  SER759  ASP760  ASP761  ALA762  ILE779  LEU786  VAL792 
 PHE793  MET794  SER795  GLU796  ALA797  LYS798  CYS799  TRP800  GLU811  SER814 

> <Gold.Protein.RotatedAtoms>
  150.9490  133.6570  159.2775 H   0  0  0  0  0  0  0  0  0  0  0  0  # atno 6907 bound_to 6896
  151.3933  135.0958  159.9542 H   0  0  0  0  0  0  0  0  0  0  0  0  # atno 6908 bound_to 6896
  152.5102  133.9000  159.7491 H   0  0  0  0  0  0  0  0  0  0  0  0  # atno 6909 bound_to 6896
  145.4813  139.2278  143.2881 H   0  0  0  0  0  0  0  0  0  0  0  0  # atno 7974 bound_to 7965
  156.2947  140.2606  156.2696 H   0  0  0  0  0  0  0  0  0  0  0  0  # atno 8008 bound_to 7997
  154.9708  140.0391  157.2252 H   0  0  0  0  0  0  0  0  0  0  0  0  # atno 8009 bound_to 7997
  154.7861  140.2803  155.6032 H   0  0  0  0  0  0  0  0  0  0  0  0  # atno 8010 bound_to 7997
  139.8666  143.7009  152.2644 H   0  0  0  0  0  0  0  0  0  0  0  0  # atno 10167 bound_to 10162
  156.3769  130.4349  149.7500 H   0  0  0  0  0  0  0  0  0  0  0  0  # atno 10718 bound_to 10713
  154.8739  135.4019  154.3315 H   0  0  0  0  0  0  0  0  0  0  0  0  # atno 10763 bound_to 10752
  153.4128  135.7021  153.6353 H   0  0  0  0  0  0  0  0  0  0  0  0  # atno 10764 bound_to 10752
  153.5048  135.3720  155.2528 H   0  0  0  0  0  0  0  0  0  0  0  0  # atno 10765 bound_to 10752
  140.3840  134.1890  155.7663 H   0  0  0  0  0  0  0  0  0  0  0  0  # atno 11005 bound_to 11000
  146.2339  140.5600  142.8963 LP  0  0  0  0  0  0  0  0  0  0  0  0  # atno 17320 bound_to 7965
  144.7887  140.5988  143.6556 LP  0  0  0  0  0  0  0  0  0  0  0  0  # atno 17321 bound_to 7965
  139.7323  144.7579  151.0783 LP  0  0  0  0  0  0  0  0  0  0  0  0  # atno 17342 bound_to 10162
  140.7767  143.5073  150.9696 LP  0  0  0  0  0  0  0  0  0  0  0  0  # atno 17343 bound_to 10162
  156.4606  130.7950  151.2970 LP  0  0  0  0  0  0  0  0  0  0  0  0  # atno 17370 bound_to 10713
  157.7489  131.0067  150.3162 LP  0  0  0  0  0  0  0  0  0  0  0  0  # atno 17371 bound_to 10713
  141.1914  133.8197  157.0882 LP  0  0  0  0  0  0  0  0  0  0  0  0  # atno 17394 bound_to 11000
  140.0456  134.9832  157.1043 LP  0  0  0  0  0  0  0  0  0  0  0  0  # atno 17395 bound_to 11000

$$$$
