AV-unprocessed.smi:2279|AV-procd|sdf|9184|dock10
  -GOLD-   2272012403D 1   1.00000     0.00000
 Structure written by MMmdl.
 58 60  0  0  0  0  0  0  0  0  3 V2000
  153.9842  141.3708  161.5490 C   0  0  0  0  0  0  0  0  0  0  0  0
  153.1291  142.0766  160.5174 C   0  0  0  0  0  0  0  0  0  0  0  0
  152.8148  143.4424  160.6520 C   0  0  0  0  0  0  0  0  0  0  0  0
  152.0132  144.0407  159.6602 C   0  0  0  0  0  0  0  0  0  0  0  0
  151.6414  145.5064  159.7386 C   0  0  0  0  0  0  0  0  0  0  0  0
  151.5324  143.3650  158.5948 N   0  0  0  0  0  0  0  0  0  0  0  0
  151.8289  142.0492  158.4545 C   0  0  0  0  0  0  0  0  0  0  0  0
  151.3840  141.2552  157.3639 N   0  0  0  0  0  0  0  0  0  0  0  0
  150.1814  141.2751  156.7621 C   0  0  0  0  0  0  0  0  0  0  0  0
  149.2220  141.9635  157.1115 O   0  0  0  0  0  0  0  0  0  0  0  0
  150.1399  140.4267  155.7237 N   0  0  0  0  0  0  0  0  0  0  0  0
  148.9721  140.1965  154.8777 C   0  0  2  0  0  0  0  0  0  0  0  0
  148.6217  141.4670  154.0790 C   0  0  0  0  0  0  0  0  0  0  0  0
  147.3043  141.2921  153.2962 C   0  0  0  0  0  0  0  0  0  0  0  0
  146.1696  140.8977  154.1819 N   0  3  2  0  0  0  0  0  0  0  0  0
  145.6380  141.9975  155.0588 C   0  0  2  0  0  0  0  0  0  0  0  0
  144.3628  141.5855  155.8382 C   0  0  0  0  0  0  0  0  0  0  0  0
  143.7775  142.7423  156.6664 C   0  0  0  0  0  0  0  0  0  0  0  0
  143.4828  143.9164  155.8134 N   0  3  1  0  0  0  0  0  0  0  0  0
  142.8095  145.0013  156.5600 C   0  0  0  0  0  0  0  0  0  0  0  0
  144.6947  144.3853  155.1028 C   0  0  0  0  0  0  0  0  0  0  0  0
  145.2989  143.2664  154.2369 C   0  0  0  0  0  0  0  0  0  0  0  0
  146.5074  139.6193  154.8720 C   0  0  0  0  0  0  0  0  0  0  0  0
  147.7745  139.7569  155.7370 C   0  0  0  0  0  0  0  0  0  0  0  0
  152.6313  141.3738  159.4016 C   0  0  0  0  0  0  0  0  0  0  0  0
  154.3980  142.0767  162.2697 H   0  0  0  0  0  0  0  0  0  0  0  0
  154.8132  140.8535  161.0658 H   0  0  0  0  0  0  0  0  0  0  0  0
  153.3893  140.6364  162.0924 H   0  0  0  0  0  0  0  0  0  0  0  0
  153.1786  144.0162  161.4919 H   0  0  0  0  0  0  0  0  0  0  0  0
  152.1942  146.0123  160.5308 H   0  0  0  0  0  0  0  0  0  0  0  0
  150.5758  145.6155  159.9415 H   0  0  0  0  0  0  0  0  0  0  0  0
  151.8659  146.0073  158.7964 H   0  0  0  0  0  0  0  0  0  0  0  0
  152.0618  140.6033  156.9979 H   0  0  0  0  0  0  0  0  0  0  0  0
  150.9746  139.9024  155.5055 H   0  0  0  0  0  0  0  0  0  0  0  0
  149.1867  139.3903  154.1730 H   0  0  0  0  0  0  0  0  0  0  0  0
  148.5490  142.3247  154.7482 H   0  0  0  0  0  0  0  0  0  0  0  0
  149.4287  141.6987  153.3828 H   0  0  0  0  0  0  0  0  0  0  0  0
  147.0832  142.1847  152.7156 H   0  0  0  0  0  0  0  0  0  0  0  0
  147.4405  140.5048  152.5531 H   0  0  0  0  0  0  0  0  0  0  0  0
  146.3996  142.2584  155.7938 H   0  0  0  0  0  0  0  0  0  0  0  0
  143.6064  141.2145  155.1449 H   0  0  0  0  0  0  0  0  0  0  0  0
  144.5768  140.7762  156.5353 H   0  0  0  0  0  0  0  0  0  0  0  0
  142.8618  142.4100  157.1573 H   0  0  0  0  0  0  0  0  0  0  0  0
  144.4743  143.0286  157.4562 H   0  0  0  0  0  0  0  0  0  0  0  0
  143.4525  145.3915  157.3501 H   0  0  0  0  0  0  0  0  0  0  0  0
  141.8873  144.6398  157.0166 H   0  0  0  0  0  0  0  0  0  0  0  0
  142.5485  145.8239  155.8933 H   0  0  0  0  0  0  0  0  0  0  0  0
  144.4385  145.2358  154.4697 H   0  0  0  0  0  0  0  0  0  0  0  0
  145.4306  144.7397  155.8265 H   0  0  0  0  0  0  0  0  0  0  0  0
  146.1857  143.6768  153.7577 H   0  0  0  0  0  0  0  0  0  0  0  0
  144.6037  143.0117  153.4354 H   0  0  0  0  0  0  0  0  0  0  0  0
  145.6726  139.2290  155.4509 H   0  0  0  0  0  0  0  0  0  0  0  0
  146.6841  138.8603  154.1084 H   0  0  0  0  0  0  0  0  0  0  0  0
  147.9958  138.8024  156.2162 H   0  0  0  0  0  0  0  0  0  0  0  0
  147.6022  140.4711  156.5431 H   0  0  0  0  0  0  0  0  0  0  0  0
  152.8615  140.3254  159.2779 H   0  0  0  0  0  0  0  0  0  0  0  0
  145.4059  140.6686  153.5614 H   0  0  0  0  0  0  0  0  0  0  0  0
  142.8290  143.6091  155.1071 H   0  0  0  0  0  0  0  0  0  0  0  0
  1  2  1  0  0  0  0
  1 26  1  0  0  0  0
  1 27  1  0  0  0  0
  1 28  1  0  0  0  0
  2 25  1  0  0  0  0
  2  3  2  0  0  0  0
  3  4  1  0  0  0  0
  3 29  1  0  0  0  0
  4  5  1  0  0  0  0
  4  6  2  0  0  0  0
  5 30  1  0  0  0  0
  5 31  1  0  0  0  0
  5 32  1  0  0  0  0
  6  7  1  0  0  0  0
  7  8  1  0  0  0  0
  7 25  2  0  0  0  0
  8  9  1  0  0  0  0
  8 33  1  0  0  0  0
  9 10  2  0  0  0  0
  9 11  1  0  0  0  0
 11 12  1  0  0  0  0
 11 34  1  0  0  0  0
 12 24  1  0  0  0  0
 12 13  1  0  0  0  0
 12 35  1  0  0  0  0
 13 14  1  0  0  0  0
 13 36  1  0  0  0  0
 13 37  1  0  0  0  0
 14 15  1  0  0  0  0
 14 38  1  0  0  0  0
 14 39  1  0  0  0  0
 15 16  1  0  0  0  0
 15 23  1  0  0  0  0
 15 57  1  0  0  0  0
 16 22  1  0  0  0  0
 16 17  1  0  0  0  0
 16 40  1  0  0  0  0
 17 18  1  0  0  0  0
 17 41  1  0  0  0  0
 17 42  1  0  0  0  0
 18 19  1  0  0  0  0
 18 43  1  0  0  0  0
 18 44  1  0  0  0  0
 19 20  1  0  0  0  0
 19 21  1  0  0  0  0
 19 58  1  0  0  0  0
 20 45  1  0  0  0  0
 20 46  1  0  0  0  0
 20 47  1  0  0  0  0
 21 22  1  0  0  0  0
 21 48  1  0  0  0  0
 21 49  1  0  0  0  0
 22 50  1  0  0  0  0
 22 51  1  0  0  0  0
 23 24  1  0  0  0  0
 23 52  1  0  0  0  0
 23 53  1  0  0  0  0
 24 54  1  0  0  0  0
 24 55  1  0  0  0  0
 25 56  1  0  0  0  0
M  CHG  1  15   1
M  CHG  1  19   1
M  END
> <s_m_source_file>
AV-unprocessed.smi

> <i_m_source_file_index>
2279

> <i_lp_mmshare_version>
43012

> <i_f3d_flags>
0

> <s_epik_input>
W0NIM11jMVtjSF1jKFtDSDNdKW5jKFtjSF0xKVtOSF1DKD1PKVtOSF1bQ0hdMltDSDJdW0NIMl1OKFtDSDJdW0NIMl0yKVtDSF0zW0NIMl1bQ0gyXU4oW0NIM10pW0NIMl1bQ0gyXTM=

> <s_epik_cmdline>
J2VwaWtfcHl0aG9uJywgJy1waCcsICc3LjAnLCAnLXRuJywgJzgnLCAnLW1hJywgJzIwMCcsICctbWV0YWxfYmluZGluZycsICctaW1hZScsICc8aW5maWxlLm1hZT4nLCAnLW9tYWUnLCAnPG91dGZpbGUubWFlPic=

> <r_epik_Ionization_Penalty>
0.180973

> <r_epik_Ionization_Penalty_Charging>
0.180787

> <r_epik_Ionization_Penalty_Neutral>
0.000186186

> <r_epik_State_Penalty>
0.153592

> <r_epik_Charging_Adjusted_Penalty>
0.334379

> <i_epik_Tot_Q>
2

> <i_epik_Tot_abs_Q>
2

> <r_epik_Metal_State_Penalty>
0.153604

> <b_epik_Metal_Only>
0

> <s_lp_Force_Field>
OPLS_2005

> <r_lp_Energy>
44.6219

> <b_lp_Chiralities_Consistent>
1

> <s_lp_Variant>
AV-unprocessed.smi:2279-2

> <Gold.Version>
5.8.1

> <Gold.Id.Protein>
6NUR|6NUR_protein|mol2

> <Gold.PLP.Fitness>
48.7851

> <Gold.PLP.PLP>
-43.5022

> <Gold.PLP.part.hbond>
-0.9889

> <Gold.PLP.part.metal>
0.0000

> <Gold.PLP.part.buried>
-6.9939

> <Gold.PLP.part.nonpolar>
-35.7749

> <Gold.PLP.part.repulsive>
0.4707

> <Gold.PLP.ligand.clash>
0.0000

> <Gold.PLP.ligand.torsion>
0.3558

> <Gold.PLP.Chemscore.Hbond>
1.9825

> <Gold.PLP.Chemscore.CHOScore>
0.0000

> <Gold.PLP.Chemscore.Metal>
0.0000

> <Gold.Chemscore.Hbonds>
donor molecule, donor type, donor heavy atom, donor atom, acceptor molecule, acceptor atom, score
      L1  H    15    57       P1 10175  1.95

> <Gold.PLP.Chemscore.Internal.Correction>
0.0470

> <Gold.Rescore>
     Score         DG    S(hbond)    S(metal)    S(lipo)     H(rot)  DE(clash)    DE(int)     intcor
     16.36     -18.66       0.98        0.00     111.06       1.21       0.14       2.16       ----

> <Gold.Chemscore.Fitness>
16.3606

> <Gold.Chemscore.DG>
-18.6591

> <Gold.Chemscore.ZeroCoef>
-5.4800

> <Gold.Chemscore.Hbond>
0.9823

> <Gold.Chemscore.Metal>
0.0000

> <Gold.Chemscore.Lipo>
111.0628

> <Gold.Chemscore.Internal_Hbond>
0.0000

> <Gold.Chemscore.DEClash>
0.1405

> <Gold.Chemscore.DEInternal>
2.1580

> <Gold.Chemscore.Rot>
1.2095

> <Gold.Chemscore.Internal.Correction>
   9.000000E+99

> <Gold.Chemscore.Hbonds>
donor molecule, donor type, donor heavy atom, donor atom, acceptor molecule, acceptor atom, score
      L1  H    15    57       P1 10175  0.86

> <Gold.Chemscore.Hbond.Weighted>
-3.2810

> <Gold.Chemscore.Metal.Weighted>
-0.0000

> <Gold.Chemscore.Lipo.Weighted>
-12.9944

> <Gold.Chemscore.Internal_Hbond.Weighted>
0.0000

> <Gold.Chemscore.DEClash.Weighted>
0.1405

> <Gold.Chemscore.DEInternal.Weighted>
2.1580

> <Gold.Chemscore.Rot.Weighted>
3.0963

> <Gold.Chemscore.Internal.Correction.Weighted>
   9.000000E+99

> <Gold.Protein.RotatedTorsions>
[ 6907 6896 6895 6894 ] final -102.23 input  -60.11 | X-H torsion
[ 7974 7965 7964 7962 ] final  -26.59 input  175.53 | X-H torsion
[ 8008 7997 7996 7995 ] final   42.88 input   59.86 | X-H torsion
[ 10167 10162 10161 10158 ] final -147.79 input  -65.29 | X-H torsion
[ 10718 10713 10712 10709 ] final -152.54 input   66.30 | X-H torsion
[ 10763 10752 10751 10750 ] final  112.14 input  -60.55 | X-H torsion
[ 11005 11000 10999 10996 ] final   41.04 input  -57.11 | X-H torsion

> <Gold.Protein.ActiveResidues>
 VAL166  LYS551  ARG553  GLY616  TRP617  ASP618  TYR619  PRO620  LYS621  CYS622 
 ASP623  PHE694  ASN695  SER759  ASP760  ASP761  ALA762  ILE779  LEU786  VAL792 
 PHE793  MET794  SER795  GLU796  ALA797  LYS798  CYS799  TRP800  GLU811  SER814 

> <Gold.Protein.RotatedAtoms>
  150.7187  134.0613  159.3831 H   0  0  0  0  0  0  0  0  0  0  0  0  # atno 6907 bound_to 6896
  151.8593  135.0528  160.0477 H   0  0  0  0  0  0  0  0  0  0  0  0  # atno 6908 bound_to 6896
  152.2730  133.5364  159.5487 H   0  0  0  0  0  0  0  0  0  0  0  0  # atno 6909 bound_to 6896
  146.1415  140.5040  142.8650 H   0  0  0  0  0  0  0  0  0  0  0  0  # atno 7974 bound_to 7965
  155.2936  140.3380  155.4251 H   0  0  0  0  0  0  0  0  0  0  0  0  # atno 8008 bound_to 7997
  156.2034  140.1742  156.7890 H   0  0  0  0  0  0  0  0  0  0  0  0  # atno 8009 bound_to 7997
  154.5589  140.0691  156.8772 H   0  0  0  0  0  0  0  0  0  0  0  0  # atno 8010 bound_to 7997
  139.7590  143.8405  152.2603 H   0  0  0  0  0  0  0  0  0  0  0  0  # atno 10167 bound_to 10162
  156.4739  130.8271  151.2500 H   0  0  0  0  0  0  0  0  0  0  0  0  # atno 10718 bound_to 10713
  153.4735  135.3695  155.2403 H   0  0  0  0  0  0  0  0  0  0  0  0  # atno 10763 bound_to 10752
  154.8756  135.3937  154.3784 H   0  0  0  0  0  0  0  0  0  0  0  0  # atno 10764 bound_to 10752
  153.4376  135.7083  153.6254 H   0  0  0  0  0  0  0  0  0  0  0  0  # atno 10765 bound_to 10752
  140.1873  134.4030  155.8166 H   0  0  0  0  0  0  0  0  0  0  0  0  # atno 11005 bound_to 11000
  144.7797  140.5815  143.6613 LP  0  0  0  0  0  0  0  0  0  0  0  0  # atno 17320 bound_to 7965
  145.5036  139.1482  143.3643 LP  0  0  0  0  0  0  0  0  0  0  0  0  # atno 17321 bound_to 7965
  139.8405  144.7212  150.9336 LP  0  0  0  0  0  0  0  0  0  0  0  0  # atno 17342 bound_to 10162
  140.7805  143.3987  151.1185 LP  0  0  0  0  0  0  0  0  0  0  0  0  # atno 17343 bound_to 10162
  157.7489  131.0067  150.3162 LP  0  0  0  0  0  0  0  0  0  0  0  0  # atno 17370 bound_to 10713
  156.3590  130.3844  149.7267 LP  0  0  0  0  0  0  0  0  0  0  0  0  # atno 17371 bound_to 10713
  141.2225  133.7029  156.8034 LP  0  0  0  0  0  0  0  0  0  0  0  0  # atno 17394 bound_to 11000
  140.2200  134.8764  157.3366 LP  0  0  0  0  0  0  0  0  0  0  0  0  # atno 17395 bound_to 11000

$$$$
