AV-unprocessed.smi:17|AV-procd|sdf|100|dock9
  -GOLD-   2262015243D 1   1.00000     0.00000
 Structure written by MMmdl.
 57 59  0  0  0  0  0  0  0  0  1 V2000
  147.2131  137.2789  163.1530 C   0  0  0  0  0  0  0  0  0  0  0  0
  147.6340  135.9585  162.4925 C   0  0  0  0  0  0  0  0  0  0  0  0
  146.7214  135.5574  161.4179 N   0  0  0  0  0  0  0  0  0  0  0  0
  146.9764  135.9761  160.1480 C   0  0  0  0  0  0  0  0  0  0  0  0
  146.0658  135.6856  159.1811 N   0  0  0  0  0  0  0  0  0  0  0  0
  146.2544  136.0925  157.9232 C   0  0  0  0  0  0  0  0  0  0  0  0
  147.2731  136.7866  157.4160 N   0  0  0  0  0  0  0  0  0  0  0  0
  148.2029  137.0654  158.3730 C   0  0  0  0  0  0  0  0  0  0  0  0
  148.1412  136.6968  159.7477 C   0  0  0  0  0  0  0  0  0  0  0  0
  149.2920  137.1336  160.3971 N   0  0  0  0  0  0  0  0  0  0  0  0
  149.9759  137.7464  159.4706 C   0  0  0  0  0  0  0  0  0  0  0  0
  149.3894  137.7608  158.2267 N   0  0  0  0  0  0  0  0  0  0  0  0
  149.9170  138.3677  157.0183 C   0  0  0  0  0  0  0  0  0  0  0  0
  151.2479  139.1369  157.2348 C   0  0  1  0  0  0  0  0  0  0  0  0
  151.9167  139.5437  155.8964 C   0  0  0  0  0  0  0  0  0  0  0  0
  150.9841  140.0846  154.9827 O   0  0  0  0  0  0  0  0  0  0  0  0
  151.0215  140.3725  158.1450 C   0  0  2  0  0  0  0  0  0  0  0  0
  150.1810  141.4806  157.5201 C   0  0  0  0  0  0  0  0  0  0  0  0
  150.6558  142.7593  158.2150 C   0  0  0  0  0  0  0  0  0  0  0  0
  151.8047  142.3976  158.9705 O   0  0  0  0  0  0  0  0  0  0  0  0
  152.2899  141.1527  158.4972 C   0  0  0  0  0  0  0  0  0  0  0  0
  145.5408  134.7310  161.6951 C   0  0  2  0  0  0  0  0  0  0  0  0
  144.5321  135.4842  162.5777 C   0  0  0  0  0  0  0  0  0  0  0  0
  145.9008  133.3509  162.2871 C   0  0  0  0  0  0  0  0  0  0  0  0
  146.7868  132.2504  161.0889 S   0  0  0  0  0  0  0  0  0  0  0  0
  148.4520  132.0776  161.8534 C   0  0  0  0  0  0  0  0  0  0  0  0
  146.1447  130.9280  161.1282 O   0  0  0  0  0  0  0  0  0  0  0  0
  146.9406  132.9499  159.8039 O   0  0  0  0  0  0  0  0  0  0  0  0
  147.8892  137.5339  163.9690 H   0  0  0  0  0  0  0  0  0  0  0  0
  146.2061  137.2106  163.5653 H   0  0  0  0  0  0  0  0  0  0  0  0
  147.2294  138.1046  162.4414 H   0  0  0  0  0  0  0  0  0  0  0  0
  148.6545  136.0361  162.1170 H   0  0  0  0  0  0  0  0  0  0  0  0
  147.6609  135.1825  163.2567 H   0  0  0  0  0  0  0  0  0  0  0  0
  145.4764  135.8252  157.2236 H   0  0  0  0  0  0  0  0  0  0  0  0
  150.9291  138.2129  159.6724 H   0  0  0  0  0  0  0  0  0  0  0  0
  150.0514  137.5877  156.2680 H   0  0  0  0  0  0  0  0  0  0  0  0
  149.1427  139.0323  156.6363 H   0  0  0  0  0  0  0  0  0  0  0  0
  151.9366  138.4767  157.7646 H   0  0  0  0  0  0  0  0  0  0  0  0
  152.7218  140.2592  156.0659 H   0  0  0  0  0  0  0  0  0  0  0  0
  152.3631  138.6838  155.3992 H   0  0  0  0  0  0  0  0  0  0  0  0
  150.2468  140.4230  155.4675 H   0  0  0  0  0  0  0  0  0  0  0  0
  150.5455  140.0576  159.0753 H   0  0  0  0  0  0  0  0  0  0  0  0
  150.3797  141.5540  156.4499 H   0  0  0  0  0  0  0  0  0  0  0  0
  149.1105  141.3189  157.6502 H   0  0  0  0  0  0  0  0  0  0  0  0
  150.9111  143.5288  157.4856 H   0  0  0  0  0  0  0  0  0  0  0  0
  149.8947  143.1637  158.8826 H   0  0  0  0  0  0  0  0  0  0  0  0
  152.8949  140.6622  159.2599 H   0  0  0  0  0  0  0  0  0  0  0  0
  152.9110  141.3160  157.6148 H   0  0  0  0  0  0  0  0  0  0  0  0
  145.0237  134.5130  160.7633 H   0  0  0  0  0  0  0  0  0  0  0  0
  143.6196  134.9030  162.7117 H   0  0  0  0  0  0  0  0  0  0  0  0
  144.2502  136.4354  162.1251 H   0  0  0  0  0  0  0  0  0  0  0  0
  144.9379  135.6932  163.5675 H   0  0  0  0  0  0  0  0  0  0  0  0
  146.4839  133.4206  163.2043 H   0  0  0  0  0  0  0  0  0  0  0  0
  144.9786  132.8306  162.5471 H   0  0  0  0  0  0  0  0  0  0  0  0
  149.0439  131.3746  161.2680 H   0  0  0  0  0  0  0  0  0  0  0  0
  148.3517  131.7030  162.8715 H   0  0  0  0  0  0  0  0  0  0  0  0
  148.9597  133.0389  161.8674 H   0  0  0  0  0  0  0  0  0  0  0  0
  1  2  1  0  0  0  0
  1 29  1  0  0  0  0
  1 30  1  0  0  0  0
  1 31  1  0  0  0  0
  2  3  1  0  0  0  0
  2 32  1  0  0  0  0
  2 33  1  0  0  0  0
  3  4  1  0  0  0  0
  3 22  1  0  0  0  0
  4  9  1  0  0  0  0
  4  5  2  0  0  0  0
  5  6  1  0  0  0  0
  6  7  2  0  0  0  0
  6 34  1  0  0  0  0
  7  8  1  0  0  0  0
  8 12  1  0  0  0  0
  8  9  2  0  0  0  0
  9 10  1  0  0  0  0
 10 11  2  0  0  0  0
 11 12  1  0  0  0  0
 11 35  1  0  0  0  0
 12 13  1  0  0  0  0
 13 14  1  0  0  0  0
 13 36  1  0  0  0  0
 13 37  1  0  0  0  0
 14 15  1  0  0  0  0
 14 17  1  0  0  0  0
 14 38  1  0  0  0  0
 15 16  1  0  0  0  0
 15 39  1  0  0  0  0
 15 40  1  0  0  0  0
 16 41  1  0  0  0  0
 17 21  1  0  0  0  0
 17 18  1  0  0  0  0
 17 42  1  0  0  0  0
 18 19  1  0  0  0  0
 18 43  1  0  0  0  0
 18 44  1  0  0  0  0
 19 20  1  0  0  0  0
 19 45  1  0  0  0  0
 19 46  1  0  0  0  0
 20 21  1  0  0  0  0
 21 47  1  0  0  0  0
 21 48  1  0  0  0  0
 22 23  1  0  0  0  0
 22 24  1  0  0  0  0
 22 49  1  0  0  0  0
 23 50  1  0  0  0  0
 23 51  1  0  0  0  0
 23 52  1  0  0  0  0
 24 25  1  0  0  0  0
 24 53  1  0  0  0  0
 24 54  1  0  0  0  0
 25 26  1  0  0  0  0
 25 27  2  0  0  0  0
 25 28  2  0  0  0  0
 26 55  1  0  0  0  0
 26 56  1  0  0  0  0
 26 57  1  0  0  0  0
M  END
> <s_m_source_file>
AV-unprocessed.smi

> <i_m_source_file_index>
17

> <i_lp_mmshare_version>
43012

> <i_f3d_flags>
0

> <s_epik_input>
W0NIM11TKD1PKSg9TylbQ0gyXVtDQEBIXShbQ0gzXSlOKFtDSDJdW0NIM10pYyhuW2NIXW4xKWMoYzEyKW5bY0hdbjJbQ0gyXVtDQEhdKFtDSDJdW09IXSlbQ0BASF0zW0NIMl1bQ0gyXU9bQ0gyXTM=

> <s_epik_cmdline>
J2VwaWtfcHl0aG9uJywgJy1waCcsICc3LjAnLCAnLXRuJywgJzgnLCAnLW1hJywgJzIwMCcsICctbWV0YWxfYmluZGluZycsICctaW1hZScsICc8aW5maWxlLm1hZT4nLCAnLW9tYWUnLCAnPG91dGZpbGUubWFlPic=

> <r_lp_tautomer_probability>
1

> <r_epik_Ionization_Penalty>
0.00119955

> <r_epik_Ionization_Penalty_Charging>
0

> <r_epik_Ionization_Penalty_Neutral>
0.00119955

> <r_epik_State_Penalty>
0.000665399

> <r_epik_Charging_Adjusted_Penalty>
0.000665399

> <i_epik_Tot_Q>
0

> <i_epik_Tot_abs_Q>
0

> <r_epik_Metal_State_Penalty>
-0

> <b_epik_Metal_Only>
0

> <s_lp_Force_Field>
OPLS_2005

> <r_lp_Energy>
33.0306

> <b_lp_Chiralities_Consistent>
1

> <s_lp_Variant>
AV-unprocessed.smi:17-2

> <Gold.Version>
5.8.1

> <Gold.Id.Protein>
6NUR|6NUR_protein|mol2

> <Gold.PLP.Fitness>
41.9092

> <Gold.PLP.PLP>
-38.3171

> <Gold.PLP.part.hbond>
-2.0000

> <Gold.PLP.part.metal>
0.0000

> <Gold.PLP.part.buried>
-5.1169

> <Gold.PLP.part.nonpolar>
-31.0813

> <Gold.PLP.part.repulsive>
0.0381

> <Gold.PLP.ligand.clash>
0.0000

> <Gold.PLP.ligand.torsion>
0.7849

> <Gold.PLP.Chemscore.Hbond>
1.5280

> <Gold.PLP.Chemscore.CHOScore>
0.0000

> <Gold.PLP.Chemscore.Metal>
0.0000

> <Gold.Chemscore.Hbonds>
donor molecule, donor type, donor heavy atom, donor atom, acceptor molecule, acceptor atom, score
      P1  H  6931  6943       L1    10  0.53
      P1  H  7989  7998       L1    16  1.00

> <Gold.PLP.Chemscore.Internal.Correction>
0.5781

> <Gold.Rescore>
     Score         DG    S(hbond)    S(metal)    S(lipo)     H(rot)  DE(clash)    DE(int)     intcor
      9.01     -11.27       1.30        0.00      88.92       3.51       0.15       2.11       ----

> <Gold.Chemscore.Fitness>
9.0079

> <Gold.Chemscore.DG>
-11.2666

> <Gold.Chemscore.ZeroCoef>
-5.4800

> <Gold.Chemscore.Hbond>
1.3047

> <Gold.Chemscore.Metal>
0.0000

> <Gold.Chemscore.Lipo>
88.9211

> <Gold.Chemscore.Internal_Hbond>
0.0000

> <Gold.Chemscore.DEClash>
0.1469

> <Gold.Chemscore.DEInternal>
2.1117

> <Gold.Chemscore.Rot>
3.5059

> <Gold.Chemscore.Internal.Correction>
   9.000000E+99

> <Gold.Chemscore.Hbonds>
donor molecule, donor type, donor heavy atom, donor atom, acceptor molecule, acceptor atom, score
      P1  H  6931  6943       L1    10  0.37
      P1  H  7989  7998       L1    16  0.94

> <Gold.Chemscore.Hbond.Weighted>
-4.3578

> <Gold.Chemscore.Metal.Weighted>
-0.0000

> <Gold.Chemscore.Lipo.Weighted>
-10.4038

> <Gold.Chemscore.Internal_Hbond.Weighted>
0.0000

> <Gold.Chemscore.DEClash.Weighted>
0.1469

> <Gold.Chemscore.DEInternal.Weighted>
2.1117

> <Gold.Chemscore.Rot.Weighted>
8.9750

> <Gold.Chemscore.Internal.Correction.Weighted>
   9.000000E+99

> <Gold.Protein.RotatedTorsions>
[ 6907 6896 6895 6894 ] final -172.68 input  -60.11 | X-H torsion
[ 7974 7965 7964 7962 ] final  -99.48 input  175.53 | X-H torsion
[ 8008 7997 7996 7995 ] final  150.52 input   59.86 | X-H torsion
[ 10167 10162 10161 10158 ] final  169.73 input  -65.29 | X-H torsion
[ 10718 10713 10712 10709 ] final   19.85 input   66.30 | X-H torsion
[ 10763 10752 10751 10750 ] final  -55.09 input  -60.55 | X-H torsion
[ 11005 11000 10999 10996 ] final  -38.87 input  -57.11 | X-H torsion

> <Gold.Protein.ActiveResidues>
 VAL166  LYS551  ARG553  GLY616  TRP617  ASP618  TYR619  PRO620  LYS621  CYS622 
 ASP623  PHE694  ASN695  SER759  ASP760  ASP761  ALA762  ILE779  LEU786  VAL792 
 PHE793  MET794  SER795  GLU796  ALA797  LYS798  CYS799  TRP800  GLU811  SER814 

> <Gold.Protein.RotatedAtoms>
  151.5439  133.3428  159.2940 H   0  0  0  0  0  0  0  0  0  0  0  0  # atno 6907 bound_to 6896
  150.8519  134.7849  159.7026 H   0  0  0  0  0  0  0  0  0  0  0  0  # atno 6908 bound_to 6896
  152.4563  134.5292  159.9857 H   0  0  0  0  0  0  0  0  0  0  0  0  # atno 6909 bound_to 6896
  145.3070  140.9391  143.2791 H   0  0  0  0  0  0  0  0  0  0  0  0  # atno 7974 bound_to 7965
  156.2712  140.2072  156.6030 H   0  0  0  0  0  0  0  0  0  0  0  0  # atno 8008 bound_to 7997
  154.6892  140.0532  157.0369 H   0  0  0  0  0  0  0  0  0  0  0  0  # atno 8009 bound_to 7997
  155.0891  140.3194  155.4582 H   0  0  0  0  0  0  0  0  0  0  0  0  # atno 8010 bound_to 7997
  139.5000  144.3674  151.9761 H   0  0  0  0  0  0  0  0  0  0  0  0  # atno 10167 bound_to 10162
  157.1162  130.6530  149.5911 H   0  0  0  0  0  0  0  0  0  0  0  0  # atno 10718 bound_to 10713
  154.1852  135.6436  153.5045 H   0  0  0  0  0  0  0  0  0  0  0  0  # atno 10763 bound_to 10752
  153.0049  135.5415  154.6472 H   0  0  0  0  0  0  0  0  0  0  0  0  # atno 10764 bound_to 10752
  154.5847  135.2928  155.0670 H   0  0  0  0  0  0  0  0  0  0  0  0  # atno 10765 bound_to 10752
  141.0060  133.6931  156.2111 H   0  0  0  0  0  0  0  0  0  0  0  0  # atno 11005 bound_to 11000
  144.9047  139.4605  143.6616 LP  0  0  0  0  0  0  0  0  0  0  0  0  # atno 17320 bound_to 7965
  146.3131  139.7821  142.9004 LP  0  0  0  0  0  0  0  0  0  0  0  0  # atno 17321 bound_to 7965
  140.3110  144.3538  150.6034 LP  0  0  0  0  0  0  0  0  0  0  0  0  # atno 17342 bound_to 10162
  140.5798  143.2173  151.7448 LP  0  0  0  0  0  0  0  0  0  0  0  0  # atno 17343 bound_to 10162
  155.9839  130.4861  150.6956 LP  0  0  0  0  0  0  0  0  0  0  0  0  # atno 17370 bound_to 10713
  157.4516  131.0873  151.0840 LP  0  0  0  0  0  0  0  0  0  0  0  0  # atno 17371 bound_to 10713
  140.6812  134.4765  157.5589 LP  0  0  0  0  0  0  0  0  0  0  0  0  # atno 17394 bound_to 11000
  139.9064  134.8441  156.1692 LP  0  0  0  0  0  0  0  0  0  0  0  0  # atno 17395 bound_to 11000

$$$$
