AV-unprocessed.smi:1033|AV-procd|sdf|4504|dock3
  -GOLD-   22720 2503D 1   1.00000     0.00000
 Structure written by MMmdl.
 57 59  0  0  0  0  0  0  0  0  3 V2000
  152.2914  142.4047  159.4092 C   0  0  0  0  0  0  0  0  0  0  0  0
  151.7232  141.6789  158.2016 C   0  0  0  0  0  0  0  0  0  0  0  0
  150.8913  142.3973  157.3128 C   0  0  0  0  0  0  0  0  0  0  0  0
  150.3856  141.7056  156.2186 C   0  0  0  0  0  0  0  0  0  0  0  0
  149.5520  142.1210  155.1778 N   0  3  0  0  0  0  0  0  0  0  0  0
  149.3268  141.0776  154.3320 C   0  0  0  0  0  0  0  0  0  0  0  0
  150.0058  140.0029  154.8175 N   0  0  0  0  0  0  0  0  0  0  0  0
  150.1036  138.6332  154.2964 C   0  0  0  0  0  0  0  0  0  0  0  0
  149.3595  137.6012  155.1681 C   0  0  2  0  0  0  0  0  0  0  0  0
  149.3188  136.3734  154.4661 O   0  0  0  0  0  0  0  0  0  0  0  0
  147.9189  138.0569  155.4788 C   0  0  0  0  0  0  0  0  0  0  0  0
  147.3159  138.9579  154.4893 N   0  0  0  0  0  0  0  0  0  0  0  0
  146.8237  138.2488  153.3084 C   0  0  0  0  0  0  0  0  0  0  0  0
  145.5587  137.4101  153.5852 C   0  0  0  0  0  0  0  0  0  0  0  0
  144.4773  138.2680  154.1346 N   0  3  0  0  0  0  0  0  0  0  0  0
  143.2169  137.5153  154.3580 C   0  0  0  0  0  0  0  0  0  0  0  0
  142.4006  137.3212  153.0648 C   0  0  1  0  0  0  0  0  0  0  0  0
  141.2057  136.3731  153.2452 C   0  0  0  0  0  0  0  0  0  0  0  0
  141.9077  138.5796  152.6561 O   0  0  0  0  0  0  0  0  0  0  0  0
  144.9509  139.0065  155.3362 C   0  0  0  0  0  0  0  0  0  0  0  0
  146.2333  139.7980  155.0067 C   0  0  0  0  0  0  0  0  0  0  0  0
  150.6803  140.3472  155.9930 C   0  0  0  0  0  0  0  0  0  0  0  0
  151.4980  139.6241  156.8579 C   0  0  0  0  0  0  0  0  0  0  0  0
  152.0236  140.3103  157.9760 C   0  0  0  0  0  0  0  0  0  0  0  0
  152.9217  139.5490  158.9363 C   0  0  0  0  0  0  0  0  0  0  0  0
  151.9654  143.4449  159.4395 H   0  0  0  0  0  0  0  0  0  0  0  0
  153.3812  142.3982  159.3826 H   0  0  0  0  0  0  0  0  0  0  0  0
  151.9633  141.9261  160.3323 H   0  0  0  0  0  0  0  0  0  0  0  0
  150.6591  143.4392  157.4777 H   0  0  0  0  0  0  0  0  0  0  0  0
  148.7217  141.0992  153.4369 H   0  0  0  0  0  0  0  0  0  0  0  0
  149.7242  138.6292  153.2737 H   0  0  0  0  0  0  0  0  0  0  0  0
  151.1636  138.3826  154.2341 H   0  0  0  0  0  0  0  0  0  0  0  0
  149.9115  137.4568  156.0976 H   0  0  0  0  0  0  0  0  0  0  0  0
  149.5425  136.5367  153.5628 H   0  0  0  0  0  0  0  0  0  0  0  0
  147.3004  137.1592  155.5136 H   0  0  0  0  0  0  0  0  0  0  0  0
  147.8661  138.4743  156.4844 H   0  0  0  0  0  0  0  0  0  0  0  0
  146.6008  138.9749  152.5252 H   0  0  0  0  0  0  0  0  0  0  0  0
  147.6101  137.6107  152.9036 H   0  0  0  0  0  0  0  0  0  0  0  0
  145.2228  136.9530  152.6536 H   0  0  0  0  0  0  0  0  0  0  0  0
  145.7734  136.5930  154.2751 H   0  0  0  0  0  0  0  0  0  0  0  0
  143.4485  136.5321  154.7710 H   0  0  0  0  0  0  0  0  0  0  0  0
  142.6227  138.0304  155.1151 H   0  0  0  0  0  0  0  0  0  0  0  0
  143.0372  136.9548  152.2600 H   0  0  0  0  0  0  0  0  0  0  0  0
  141.5343  135.3711  153.5223 H   0  0  0  0  0  0  0  0  0  0  0  0
  140.6328  136.2837  152.3216 H   0  0  0  0  0  0  0  0  0  0  0  0
  140.5288  136.7282  154.0233 H   0  0  0  0  0  0  0  0  0  0  0  0
  142.6080  139.0638  152.2454 H   0  0  0  0  0  0  0  0  0  0  0  0
  144.1854  139.7044  155.6736 H   0  0  0  0  0  0  0  0  0  0  0  0
  145.1242  138.3124  156.1594 H   0  0  0  0  0  0  0  0  0  0  0  0
  146.5671  140.3538  155.8820 H   0  0  0  0  0  0  0  0  0  0  0  0
  145.9912  140.5572  154.2614 H   0  0  0  0  0  0  0  0  0  0  0  0
  151.7254  138.5826  156.6854 H   0  0  0  0  0  0  0  0  0  0  0  0
  153.0712  138.5188  158.6116 H   0  0  0  0  0  0  0  0  0  0  0  0
  152.4812  139.5236  159.9331 H   0  0  0  0  0  0  0  0  0  0  0  0
  153.9018  140.0216  159.0018 H   0  0  0  0  0  0  0  0  0  0  0  0
  144.2801  138.9574  153.4232 H   0  0  0  0  0  0  0  0  0  0  0  0
  149.1638  143.0468  155.0512 H   0  0  0  0  0  0  0  0  0  0  0  0
  1  2  1  0  0  0  0
  1 26  1  0  0  0  0
  1 27  1  0  0  0  0
  1 28  1  0  0  0  0
  2 24  1  0  0  0  0
  2  3  2  0  0  0  0
  3  4  1  0  0  0  0
  3 29  1  0  0  0  0
  4 22  2  0  0  0  0
  4  5  1  0  0  0  0
  5  6  2  0  0  0  0
  5 57  1  0  0  0  0
  6  7  1  0  0  0  0
  6 30  1  0  0  0  0
  7  8  1  0  0  0  0
  7 22  1  0  0  0  0
  8  9  1  0  0  0  0
  8 31  1  0  0  0  0
  8 32  1  0  0  0  0
  9 10  1  0  0  0  0
  9 11  1  0  0  0  0
  9 33  1  0  0  0  0
 10 34  1  0  0  0  0
 11 12  1  0  0  0  0
 11 35  1  0  0  0  0
 11 36  1  0  0  0  0
 12 21  1  0  0  0  0
 12 13  1  0  0  0  0
 13 14  1  0  0  0  0
 13 37  1  0  0  0  0
 13 38  1  0  0  0  0
 14 15  1  0  0  0  0
 14 39  1  0  0  0  0
 14 40  1  0  0  0  0
 15 16  1  0  0  0  0
 15 20  1  0  0  0  0
 15 56  1  0  0  0  0
 16 17  1  0  0  0  0
 16 41  1  0  0  0  0
 16 42  1  0  0  0  0
 17 18  1  0  0  0  0
 17 19  1  0  0  0  0
 17 43  1  0  0  0  0
 18 44  1  0  0  0  0
 18 45  1  0  0  0  0
 18 46  1  0  0  0  0
 19 47  1  0  0  0  0
 20 21  1  0  0  0  0
 20 48  1  0  0  0  0
 20 49  1  0  0  0  0
 21 50  1  0  0  0  0
 21 51  1  0  0  0  0
 22 23  1  0  0  0  0
 23 24  2  0  0  0  0
 23 52  1  0  0  0  0
 24 25  1  0  0  0  0
 25 53  1  0  0  0  0
 25 54  1  0  0  0  0
 25 55  1  0  0  0  0
M  CHG  1   5   1
M  CHG  1  15   1
M  END
> <s_m_source_file>
AV-unprocessed.smi

> <i_m_source_file_index>
1033

> <i_lp_mmshare_version>
43012

> <i_f3d_flags>
0

> <s_epik_input>
W0NIM11jKFtjSF0xKWMoW0NIM10pW2NIXWMoYzEyKW4oW2NIXW4yKVtDSDJdW0NASF0oW09IXSlbQ0gyXU4zW0NIMl1bQ0gyXU4oW0NIMl1bQ0gyXTMpW0NIMl1bQ0BIXShbQ0gzXSlbT0hd

> <s_epik_cmdline>
J2VwaWtfcHl0aG9uJywgJy1waCcsICc3LjAnLCAnLXRuJywgJzgnLCAnLW1hJywgJzIwMCcsICctbWV0YWxfYmluZGluZycsICctaW1hZScsICc8aW5maWxlLm1hZT4nLCAnLW9tYWUnLCAnPG91dGZpbGUubWFlPic=

> <r_epik_Ionization_Penalty>
1.28617

> <r_epik_Ionization_Penalty_Charging>
1.23646

> <r_epik_Ionization_Penalty_Neutral>
0.0497112

> <r_epik_State_Penalty>
1.79157

> <r_epik_Charging_Adjusted_Penalty>
3.02803

> <i_epik_Tot_Q>
2

> <i_epik_Tot_abs_Q>
2

> <r_epik_Metal_State_Penalty>
5.81739

> <b_epik_Metal_Only>
0

> <s_lp_Force_Field>
OPLS_2005

> <r_lp_Energy>
41.725

> <b_lp_Chiralities_Consistent>
1

> <s_lp_Variant>
AV-unprocessed.smi:1033-15

> <Gold.Version>
5.8.1

> <Gold.Id.Protein>
6NUR|6NUR_protein|mol2

> <Gold.PLP.Fitness>
57.8536

> <Gold.PLP.PLP>
-40.2829

> <Gold.PLP.part.hbond>
-5.0000

> <Gold.PLP.part.metal>
0.0000

> <Gold.PLP.part.buried>
-3.8989

> <Gold.PLP.part.nonpolar>
-31.4325

> <Gold.PLP.part.repulsive>
0.3374

> <Gold.PLP.ligand.clash>
0.0000

> <Gold.PLP.ligand.torsion>
1.0862

> <Gold.PLP.Chemscore.Hbond>
5.9680

> <Gold.PLP.Chemscore.CHOScore>
0.4983

> <Gold.PLP.Chemscore.Metal>
0.0000

> <Gold.Chemscore.Hbonds>
donor molecule, donor type, donor heavy atom, donor atom, acceptor molecule, acceptor atom, score
      L1  H     5    57       P1  8028  2.00
      L1  H    10    34       P1  7948  0.86
      L1  H    15    56       P1 10175  2.00
      L1  H    19    47       P1 10175  0.85
      L1  C     6    30       P1  7957  0.57

> <Gold.PLP.Chemscore.Internal.Correction>
0.3442

> <Gold.Rescore>
     Score         DG    S(hbond)    S(metal)    S(lipo)     H(rot)  DE(clash)    DE(int)     intcor
     17.12     -20.36       3.83        0.00      86.55       3.15       0.02       3.22       ----

> <Gold.Chemscore.Fitness>
17.1169

> <Gold.Chemscore.DG>
-20.3550

> <Gold.Chemscore.ZeroCoef>
-5.4800

> <Gold.Chemscore.Hbond>
3.8350

> <Gold.Chemscore.Metal>
0.0000

> <Gold.Chemscore.Lipo>
86.5462

> <Gold.Chemscore.Internal_Hbond>
0.0000

> <Gold.Chemscore.DEClash>
0.0155

> <Gold.Chemscore.DEInternal>
3.2226

> <Gold.Chemscore.Rot>
3.1483

> <Gold.Chemscore.Internal.Correction>
   9.000000E+99

> <Gold.Chemscore.Hbonds>
donor molecule, donor type, donor heavy atom, donor atom, acceptor molecule, acceptor atom, score
      L1  H     5    57       P1  8028  0.95
      L1  H    10    34       P1  7948  0.59
      L1  H    15    56       P1 10175  1.00
      L1  H    19    47       P1 10175  0.75

> <Gold.Chemscore.Hbond.Weighted>
-12.8088

> <Gold.Chemscore.Metal.Weighted>
-0.0000

> <Gold.Chemscore.Lipo.Weighted>
-10.1259

> <Gold.Chemscore.Internal_Hbond.Weighted>
0.0000

> <Gold.Chemscore.DEClash.Weighted>
0.0155

> <Gold.Chemscore.DEInternal.Weighted>
3.2226

> <Gold.Chemscore.Rot.Weighted>
8.0597

> <Gold.Chemscore.Internal.Correction.Weighted>
   9.000000E+99

> <Gold.Protein.RotatedTorsions>
[ 6907 6896 6895 6894 ] final   26.87 input  -60.11 | X-H torsion
[ 7974 7965 7964 7962 ] final   20.69 input  175.53 | X-H torsion
[ 8008 7997 7996 7995 ] final   -1.33 input   59.86 | X-H torsion
[ 10167 10162 10161 10158 ] final   52.08 input  -65.29 | X-H torsion
[ 10718 10713 10712 10709 ] final    3.00 input   66.30 | X-H torsion
[ 10763 10752 10751 10750 ] final   -9.88 input  -60.55 | X-H torsion
[ 11005 11000 10999 10996 ] final  176.11 input  -57.11 | X-H torsion

> <Gold.Protein.ActiveResidues>
 VAL166  LYS551  ARG553  GLY616  TRP617  ASP618  TYR619  PRO620  LYS621  CYS622 
 ASP623  PHE694  ASN695  SER759  ASP760  ASP761  ALA762  ILE779  LEU786  VAL792 
 PHE793  MET794  SER795  GLU796  ALA797  LYS798  CYS799  TRP800  GLU811  SER814 

> <Gold.Protein.RotatedAtoms>
  151.9939  134.9964  160.0562 H   0  0  0  0  0  0  0  0  0  0  0  0  # atno 6907 bound_to 6896
  152.1582  133.4560  159.4856 H   0  0  0  0  0  0  0  0  0  0  0  0  # atno 6908 bound_to 6896
  150.6884  134.2022  159.4369 H   0  0  0  0  0  0  0  0  0  0  0  0  # atno 6909 bound_to 6896
  146.2101  139.8133  142.8695 H   0  0  0  0  0  0  0  0  0  0  0  0  # atno 7974 bound_to 7965
  154.6479  140.2562  155.7247 H   0  0  0  0  0  0  0  0  0  0  0  0  # atno 8008 bound_to 7997
  156.2561  140.2874  156.0822 H   0  0  0  0  0  0  0  0  0  0  0  0  # atno 8009 bound_to 7997
  155.1495  140.0382  157.2808 H   0  0  0  0  0  0  0  0  0  0  0  0  # atno 8010 bound_to 7997
  140.2551  144.3435  150.6335 H   0  0  0  0  0  0  0  0  0  0  0  0  # atno 10167 bound_to 10162
  156.8713  130.5621  149.5657 H   0  0  0  0  0  0  0  0  0  0  0  0  # atno 10718 bound_to 10713
  153.4612  135.7016  153.6049 H   0  0  0  0  0  0  0  0  0  0  0  0  # atno 10763 bound_to 10752
  153.4343  135.3795  155.2189 H   0  0  0  0  0  0  0  0  0  0  0  0  # atno 10764 bound_to 10752
  154.8727  135.3958  154.4038 H   0  0  0  0  0  0  0  0  0  0  0  0  # atno 10765 bound_to 10752
  140.3695  134.7042  157.4383 H   0  0  0  0  0  0  0  0  0  0  0  0  # atno 11005 bound_to 11000
  145.3173  141.0235  143.3520 LP  0  0  0  0  0  0  0  0  0  0  0  0  # atno 17320 bound_to 7965
  144.8892  139.4797  143.6686 LP  0  0  0  0  0  0  0  0  0  0  0  0  # atno 17321 bound_to 7965
  140.6010  143.2167  151.7073 LP  0  0  0  0  0  0  0  0  0  0  0  0  # atno 17342 bound_to 10162
  139.5034  144.3793  152.0392 LP  0  0  0  0  0  0  0  0  0  0  0  0  # atno 17343 bound_to 10162
  156.0725  130.5754  150.9410 LP  0  0  0  0  0  0  0  0  0  0  0  0  # atno 17370 bound_to 10713
  157.6194  131.0931  150.8651 LP  0  0  0  0  0  0  0  0  0  0  0  0  # atno 17371 bound_to 10713
  140.0563  134.6059  155.8801 LP  0  0  0  0  0  0  0  0  0  0  0  0  # atno 17394 bound_to 11000
  141.1959  133.6589  156.5665 LP  0  0  0  0  0  0  0  0  0  0  0  0  # atno 17395 bound_to 11000

$$$$
