#       Name:                AV-unprocessed.smi:1279
#       Creating user name   scv26
#       Creation time:       Fri Mar 27 04:49:12 2020


#       File generated by GOLD software.
#

@<TRIPOS>MOLECULE
AV-unprocessed.smi:1279
    49    50     1
SMALL
NO_CHARGES


@<TRIPOS>ATOM
      1 ****        -6.1542   4.1944   0.2041 C.3            1 S1                 0.0000
      2 ****        -5.5155   2.8813   0.5481 C.2            1 S1                 0.0000
      3 ****        -4.1272   2.5591   0.5709 C.2            1 S1                 0.0000
      4 ****        -4.1299   1.2434   0.9460 C.2            1 S1                 0.0000
      5 ****        -3.0757   0.4062   1.1364 N.am           1 S1                 0.0000
      6 ****        -1.7668   0.6462   0.9444 C.2            1 S1                 0.0000
      7 ****        -1.2831   1.7080   0.5513 O.2            1 S1                 0.0000
      8 ****        -1.0283  -0.4350   1.2333 N.am           1 S1                 0.0000
      9 ****         0.4255  -0.5034   1.1385 C.3            1 S1                 0.0000
     10 ****         0.8917  -0.6866  -0.3191 C.3            1 S1                 0.0000
     11 ****         2.3709  -0.7243  -0.4415 N.4            1 S1                 1.0000
     12 ****         2.8294  -0.3665  -1.8090 C.3            1 S1                 0.0000
     13 ****         4.3633  -0.2795  -1.8787 C.3            1 S1                 0.0000
     14 ****         5.0187  -1.5938  -1.4237 C.3            1 S1                 0.0000
     15 ****         6.5511  -1.5087  -1.4595 C.3            1 S1                 0.0000
     16 ****         4.5014  -1.9563  -0.0219 C.3            1 S1                 0.0000
     17 ****         2.9649  -2.0108   0.0108 C.3            1 S1                 0.0000
     18 ****        -5.4325   0.8354   1.1293 N.pl3          1 S1                 0.0000
     19 ****        -5.9454  -0.4604   1.5296 C.3            1 S1                 0.0000
     20 ****        -6.2861   1.8523   0.8823 N.2            1 S1                 0.0000
     21 ****        -5.4040   4.9404  -0.0589 H              1 S1                 0.0000
     22 ****        -6.7290   4.5838   1.0449 H              1 S1                 0.0000
     23 ****        -6.8308   4.0915  -0.6446 H              1 S1                 0.0000
     24 ****        -3.2887   3.2014   0.3478 H              1 S1                 0.0000
     25 ****        -3.3172  -0.5208   1.4546 H              1 S1                 0.0000
     26 ****        -1.5049  -1.2663   1.5519 H              1 S1                 0.0000
     27 ****         0.8689   0.3946   1.5723 H              1 S1                 0.0000
     28 ****         0.7472  -1.3388   1.7590 H              1 S1                 0.0000
     29 ****         0.4606  -1.5892  -0.7553 H              1 S1                 0.0000
     30 ****         0.5115   0.1495  -0.9077 H              1 S1                 0.0000
     31 ****         2.4608  -1.1050  -2.5229 H              1 S1                 0.0000
     32 ****         2.4064   0.5954  -2.1008 H              1 S1                 0.0000
     33 ****         4.6703  -0.0424  -2.8980 H              1 S1                 0.0000
     34 ****         4.7099   0.5442  -1.2528 H              1 S1                 0.0000
     35 ****         4.7143  -2.3825  -2.1135 H              1 S1                 0.0000
     36 ****         6.9226  -0.7374  -0.7840 H              1 S1                 0.0000
     37 ****         6.9078  -1.2726  -2.4624 H              1 S1                 0.0000
     38 ****         7.0036  -2.4560  -1.1642 H              1 S1                 0.0000
     39 ****         4.9083  -2.9195   0.2884 H              1 S1                 0.0000
     40 ****         4.8549  -1.2237   0.7053 H              1 S1                 0.0000
     41 ****         2.6458  -2.2417   1.0262 H              1 S1                 0.0000
     42 ****         2.6057  -2.8221  -0.6244 H              1 S1                 0.0000
     43 ****        -5.4766  -1.2429   0.9323 H              1 S1                 0.0000
     44 ****        -7.0256  -0.5072   1.3828 H              1 S1                 0.0000
     45 ****        -5.7217  -0.6318   2.5826 H              1 S1                 0.0000
     46 ****         2.7263  -0.0029   0.1698 H              1 S1                 0.0000
     47 ****        -1.8799   2.4836   0.3459 LP             1 S1                 0.0000
     48 ****        -0.2934   1.7948   0.4375 LP             1 S1                 0.0000
     49 ****        -7.2843   1.8345   0.9389 LP             1 S1                 0.0000
@<TRIPOS>BOND
    1    1    2 1     
    2    1   21 1     
    3    1   22 1     
    4    1   23 1     
    5    2   20 2     
    6    2    3 1     
    7    3    4 2     
    8    3   24 1     
    9    4    5 1     
   10    4   18 1     
   11    5    6 am    
   12    5   25 1     
   13    6    7 2     
   14    6    8 am    
   15    8    9 1     
   16    8   26 1     
   17    9   10 1     
   18    9   27 1     
   19    9   28 1     
   20   10   11 1     
   21   10   29 1     
   22   10   30 1     
   23   11   17 1     
   24   11   12 1     
   25   11   46 1     
   26   12   13 1     
   27   12   31 1     
   28   12   32 1     
   29   13   14 1     
   30   13   33 1     
   31   13   34 1     
   32   14   15 1     
   33   14   16 1     
   34   14   35 1     
   35   15   36 1     
   36   15   37 1     
   37   15   38 1     
   38   16   17 1     
   39   16   39 1     
   40   16   40 1     
   41   17   41 1     
   42   17   42 1     
   43   18   19 1     
   44   18   20 1     
   45   19   43 1     
   46   19   44 1     
   47   19   45 1     
   48    7   47 1     
   49    7   48 1     
   50   20   49 1     
@<TRIPOS>SUBSTRUCTURE
      1 S1             1
@<TRIPOS>SET
LONE_PAIRS      STATIC     ATOMS    <user>   **** ""
3 47 48 49
DONOR_HYDROGENS      STATIC     ATOMS    <user>   **** ""
3 25 26 46
ATOM$BLUE        STATIC     ATOMS    COLORGROUP SYSTEM
3 47 48 49
ATOM$RED        STATIC     ATOMS    COLORGROUP SYSTEM
3 25 26 46
