#       Name:                AV-unprocessed.smi:1824
#       Creating user name   scv26
#       Creation time:       Fri Mar 27 09:06:44 2020


#       File generated by GOLD software.
#

@<TRIPOS>MOLECULE
AV-unprocessed.smi:1824
    50    52     1
SMALL
NO_CHARGES


@<TRIPOS>ATOM
      1 ****        -5.1276   1.0020  -1.3661 C.3            1 S1                 0.0000
      2 ****        -3.6487   0.9994  -0.9659 C.3            1 S1                 0.0000
      3 ****        -3.0524  -0.4210  -0.9452 C.3            1 S1                 0.0000
      4 ****        -1.6677  -0.4245  -0.4889 N.3            1 S1                 0.0000
      5 ****        -1.1119  -1.7786  -0.4983 C.3            1 S1                 0.0000
      6 ****         0.4072  -1.8668  -0.2525 C.3            1 S1                 0.0000
      7 ****         0.7716  -3.2319  -0.2204 O.3            1 S1                 0.0000
      8 ****         1.2292  -1.1512  -1.3428 C.3            1 S1                 0.0000
      9 ****         2.6439  -1.1136  -1.0246 N.pl3          1 S1                 0.0000
     10 ****         3.6202  -1.8893  -1.5338 C.2            1 S1                 0.0000
     11 ****         4.8569  -1.6775  -1.0918 N.2            1 S1                 0.0000
     12 ****         4.6610  -0.6407  -0.1952 C.ar           1 S1                 0.0000
     13 ****         5.5818   0.0565   0.6192 C.ar           1 S1                 0.0000
     14 ****         5.1430   1.0948   1.4675 C.ar           1 S1                 0.0000
     15 ****         6.0387   1.7529   2.2409 F              1 S1                 0.0000
     16 ****         3.7785   1.4511   1.5145 C.ar           1 S1                 0.0000
     17 ****         3.3654   2.4486   2.3318 F              1 S1                 0.0000
     18 ****         2.8428   0.7708   0.7122 C.ar           1 S1                 0.0000
     19 ****         3.2860  -0.2641  -0.1316 C.ar           1 S1                 0.0000
     20 ****        -1.6013   0.2077   0.8265 C.3            1 S1                 0.0000
     21 ****        -2.1938   1.6293   0.8103 C.3            1 S1                 0.0000
     22 ****        -2.2003   2.2698   2.2020 C.3            1 S1                 0.0000
     23 ****        -3.5357   1.5702   0.3350 O.3            1 S1                 0.0000
     24 ****        -5.2652   0.5824  -2.3630 H              1 S1                 0.0000
     25 ****        -5.5267   2.0165  -1.3744 H              1 S1                 0.0000
     26 ****        -5.7261   0.4140  -0.6696 H              1 S1                 0.0000
     27 ****        -3.0934   1.6184  -1.6727 H              1 S1                 0.0000
     28 ****        -3.6554  -1.0593  -0.2971 H              1 S1                 0.0000
     29 ****        -3.1112  -0.8502  -1.9461 H              1 S1                 0.0000
     30 ****        -1.6335  -2.3861   0.2432 H              1 S1                 0.0000
     31 ****        -1.3227  -2.2416  -1.4635 H              1 S1                 0.0000
     32 ****         0.6519  -1.4561   0.7266 H              1 S1                 0.0000
     33 ****         1.6923  -3.2914  -0.0159 H              1 S1                 0.0000
     34 ****         1.0931  -1.6349  -2.3112 H              1 S1                 0.0000
     35 ****         0.8907  -0.1211  -1.4602 H              1 S1                 0.0000
     36 ****         3.4105  -2.6541  -2.2674 H              1 S1                 0.0000
     37 ****         6.6285  -0.2075   0.5915 H              1 S1                 0.0000
     38 ****         1.7977   1.0410   0.7449 H              1 S1                 0.0000
     39 ****        -2.1344  -0.4028   1.5571 H              1 S1                 0.0000
     40 ****        -0.5684   0.2710   1.1655 H              1 S1                 0.0000
     41 ****        -1.6083   2.2594   0.1384 H              1 S1                 0.0000
     42 ****        -1.1896   2.3429   2.6047 H              1 S1                 0.0000
     43 ****        -2.7989   1.6867   2.9024 H              1 S1                 0.0000
     44 ****        -2.6168   3.2768   2.1655 H              1 S1                 0.0000
     45 ****        -1.0996   0.1061  -1.1181 LP             1 S1                 0.0000
     46 ****         0.5964  -3.6489  -1.1123 LP             1 S1                 0.0000
     47 ****         0.2390  -3.7069   0.4801 LP             1 S1                 0.0000
     48 ****         5.7052  -2.1444  -1.3415 LP             1 S1                 0.0000
     49 ****        -4.0739   1.0180   0.9717 LP             1 S1                 0.0000
     50 ****        -3.9036   2.4997   0.3067 LP             1 S1                 0.0000
@<TRIPOS>BOND
    1    1    2 1     
    2    1   24 1     
    3    1   25 1     
    4    1   26 1     
    5    2   23 1     
    6    2    3 1     
    7    2   27 1     
    8    3    4 1     
    9    3   28 1     
   10    3   29 1     
   11    4    5 1     
   12    4   20 1     
   13    5    6 1     
   14    5   30 1     
   15    5   31 1     
   16    6    7 1     
   17    6    8 1     
   18    6   32 1     
   19    7   33 1     
   20    8    9 1     
   21    8   34 1     
   22    8   35 1     
   23    9   19 1     
   24    9   10 1     
   25   10   11 2     
   26   10   36 1     
   27   11   12 1     
   28   12   19 ar    
   29   12   13 ar    
   30   13   14 ar    
   31   13   37 1     
   32   14   15 1     
   33   14   16 ar    
   34   16   17 1     
   35   16   18 ar    
   36   18   19 ar    
   37   18   38 1     
   38   20   21 1     
   39   20   39 1     
   40   20   40 1     
   41   21   22 1     
   42   21   23 1     
   43   21   41 1     
   44   22   42 1     
   45   22   43 1     
   46   22   44 1     
   47    4   45 1     
   48    7   46 1     
   49    7   47 1     
   50   11   48 1     
   51   23   49 1     
   52   23   50 1     
@<TRIPOS>SUBSTRUCTURE
      1 S1             1
@<TRIPOS>SET
LONE_PAIRS      STATIC     ATOMS    <user>   **** ""
6 45 46 47 48 49 50
DONOR_HYDROGENS      STATIC     ATOMS    <user>   **** ""
1 33
ATOM$BLUE        STATIC     ATOMS    COLORGROUP SYSTEM
6 45 46 47 48 49 50
ATOM$RED        STATIC     ATOMS    COLORGROUP SYSTEM
1 33
