#       Name:                AV-unprocessed.smi:130
#       Creating user name   scv26
#       Creation time:       Thu Mar 26 18:29:50 2020


#       File generated by GOLD software.
#

@<TRIPOS>MOLECULE
AV-unprocessed.smi:130
    52    55     1
SMALL
NO_CHARGES


@<TRIPOS>ATOM
      1 ****        -0.5530   1.0796  -0.6527 O.2            1 S1                 0.0000
      2 ****        -1.2573   0.0884  -0.8487 C.2            1 S1                 0.0000
      3 ****        -0.5835  -1.2989  -0.9354 C.3            1 S1                 0.0000
      4 ****         0.8860  -1.2587  -0.7620 N.am           1 S1                 0.0000
      5 ****         1.7024  -1.0972  -1.9093 C.2            1 S1                 0.0000
      6 ****         1.2111  -1.0057  -3.0352 O.2            1 S1                 0.0000
      7 ****         3.1380  -1.0374  -1.6582 C.2            1 S1                 0.0000
      8 ****         3.9878  -0.8792  -2.6870 F              1 S1                 0.0000
      9 ****         3.6283  -1.1330  -0.4054 C.2            1 S1                 0.0000
     10 ****         2.8197  -1.2928   0.7048 N.am           1 S1                 0.0000
     11 ****         3.4059  -1.3706   2.0961 C.3            1 S1                 0.0000
     12 ****         3.5025   0.0318   2.7084 C.3            1 S1                 0.0000
     13 ****         4.9367   0.4088   2.4053 C.3            1 S1                 0.0000
     14 ****         5.6380  -0.9396   2.5183 C.3            1 S1                 0.0000
     15 ****         4.7027  -1.8894   2.0153 O.3            1 S1                 0.0000
     16 ****         1.4178  -1.3444   0.5471 C.2            1 S1                 0.0000
     17 ****         0.6766  -1.4479   1.5270 O.2            1 S1                 0.0000
     18 ****        -2.6045   0.1495  -0.9942 N.am           1 S1                 0.0000
     19 ****        -3.4495  -1.0320  -1.2418 C.3            1 S1                 0.0000
     20 ****        -4.8983  -0.5117  -1.3668 C.3            1 S1                 0.0000
     21 ****        -4.7481   0.9651  -1.1504 C.ar           1 S1                 0.0000
     22 ****        -5.7767   1.9231  -1.1481 C.ar           1 S1                 0.0000
     23 ****        -5.4322   3.2722  -0.9218 C.ar           1 S1                 0.0000
     24 ****        -4.0839   3.6382  -0.7050 C.ar           1 S1                 0.0000
     25 ****        -3.0627   2.6626  -0.7114 C.ar           1 S1                 0.0000
     26 ****        -3.4171   1.3132  -0.9393 C.ar           1 S1                 0.0000
     27 ****        -1.0331  -1.9576  -0.1911 H              1 S1                 0.0000
     28 ****        -0.8404  -1.7585  -1.8907 H              1 S1                 0.0000
     29 ****         4.6989  -1.0742  -0.2780 H              1 S1                 0.0000
     30 ****         2.7734  -2.0578   2.6602 H              1 S1                 0.0000
     31 ****         2.7638   0.7195   2.2946 H              1 S1                 0.0000
     32 ****         3.3478  -0.0471   3.7852 H              1 S1                 0.0000
     33 ****         5.0194   0.7957   1.3891 H              1 S1                 0.0000
     34 ****         5.3371   1.1570   3.0900 H              1 S1                 0.0000
     35 ****         6.5781  -0.9732   1.9677 H              1 S1                 0.0000
     36 ****         5.8460  -1.1724   3.5634 H              1 S1                 0.0000
     37 ****        -3.1502  -1.5424  -2.1581 H              1 S1                 0.0000
     38 ****        -3.3721  -1.7390  -0.4147 H              1 S1                 0.0000
     39 ****        -5.3175  -0.7103  -2.3537 H              1 S1                 0.0000
     40 ****        -5.5537  -0.9451  -0.6107 H              1 S1                 0.0000
     41 ****        -6.8041   1.6342  -1.3146 H              1 S1                 0.0000
     42 ****        -6.2021   4.0294  -0.9135 H              1 S1                 0.0000
     43 ****        -3.8319   4.6739  -0.5321 H              1 S1                 0.0000
     44 ****        -2.0441   2.9732  -0.5418 H              1 S1                 0.0000
     45 ****         0.4367   0.9779  -0.5528 LP             1 S1                 0.0000
     46 ****        -0.9710   1.9862  -0.5935 LP             1 S1                 0.0000
     47 ****         0.2187  -1.0449  -3.1524 LP             1 S1                 0.0000
     48 ****         1.8045  -0.8921  -3.8320 LP             1 S1                 0.0000
     49 ****         4.9189  -2.0939   1.0606 LP             1 S1                 0.0000
     50 ****         4.7584  -2.7282   2.5568 LP             1 S1                 0.0000
     51 ****        -0.3155  -1.4723   1.4032 LP             1 S1                 0.0000
     52 ****         1.0674  -1.5074   2.4455 LP             1 S1                 0.0000
@<TRIPOS>BOND
    1    1    2 2     
    2    2    3 1     
    3    2   18 am    
    4    3    4 1     
    5    3   27 1     
    6    3   28 1     
    7    4   16 am    
    8    4    5 am    
    9    5    6 2     
   10    5    7 1     
   11    7    8 1     
   12    7    9 2     
   13    9   10 1     
   14    9   29 1     
   15   10   11 1     
   16   10   16 am    
   17   11   15 1     
   18   11   12 1     
   19   11   30 1     
   20   12   13 1     
   21   12   31 1     
   22   12   32 1     
   23   13   14 1     
   24   13   33 1     
   25   13   34 1     
   26   14   15 1     
   27   14   35 1     
   28   14   36 1     
   29   16   17 2     
   30   18   26 1     
   31   18   19 1     
   32   19   20 1     
   33   19   37 1     
   34   19   38 1     
   35   20   21 1     
   36   20   39 1     
   37   20   40 1     
   38   21   26 ar    
   39   21   22 ar    
   40   22   23 ar    
   41   22   41 1     
   42   23   24 ar    
   43   23   42 1     
   44   24   25 ar    
   45   24   43 1     
   46   25   26 ar    
   47   25   44 1     
   48    1   45 1     
   49    1   46 1     
   50    6   47 1     
   51    6   48 1     
   52   15   49 1     
   53   15   50 1     
   54   17   51 1     
   55   17   52 1     
@<TRIPOS>SUBSTRUCTURE
      1 S1             1
@<TRIPOS>SET
LONE_PAIRS      STATIC     ATOMS    <user>   **** ""
8 45 46 47 48 49 50 51 52
ATOM$BLUE        STATIC     ATOMS    COLORGROUP SYSTEM
8 45 46 47 48 49 50 51 52
