AV-unprocessed.smi:113|AV-procd|sdf|1094|dock10
  -GOLD-   2262018203D 1   1.00000     0.00000
 Structure written by MMmdl.
 52 55  0  0  0  0  0  0  0  0  1 V2000
  149.4145  141.4171  154.7497 C   0  0  0  0  0  0  0  0  0  0  0  0
  150.2614  141.1838  155.9836 C   0  0  0  0  0  0  0  0  0  0  0  0
  150.5250  139.8800  156.4398 C   0  0  0  0  0  0  0  0  0  0  0  0
  151.3149  139.7053  157.5994 C   0  0  0  0  0  0  0  0  0  0  0  0
  151.6320  138.3060  158.1396 C   0  0  0  0  0  0  0  0  0  0  0  0
  150.6370  137.2701  157.9014 N   0  0  0  0  0  0  0  0  0  0  0  0
  149.4055  137.3634  158.5957 C   0  0  0  0  0  0  0  0  0  0  0  0
  149.1633  138.3027  159.3567 O   0  0  0  0  0  0  0  0  0  0  0  0
  148.4714  136.2595  158.3586 C   0  0  0  0  0  0  0  0  0  0  0  0
  147.1320  136.2866  159.0777 C   0  0  0  0  0  0  0  0  0  0  0  0
  148.8212  135.2495  157.5263 C   0  0  0  0  0  0  0  0  0  0  0  0
  150.0316  135.1883  156.8573 N   0  0  0  0  0  0  0  0  0  0  0  0
  150.3704  134.0145  155.9724 C   0  0  1  0  0  0  0  0  0  0  0  0
  149.6179  132.7672  156.4157 C   0  0  0  0  0  0  0  0  0  0  0  0
  149.5354  131.9895  155.1168 C   0  0  2  0  0  0  0  0  0  0  0  0
  150.6531  131.1319  154.9876 O   0  0  0  0  0  0  0  0  0  0  0  0
  149.5668  133.0780  154.0243 C   0  0  1  0  0  0  0  0  0  0  0  0
  148.2004  133.3279  153.3664 C   0  0  0  0  0  0  0  0  0  0  0  0
  147.7635  132.1720  152.6837 O   0  0  0  0  0  0  0  0  0  0  0  0
  149.9559  134.2885  154.6729 O   0  0  0  0  0  0  0  0  0  0  0  0
  150.9918  136.2016  157.0478 C   0  0  0  0  0  0  0  0  0  0  0  0
  152.0989  136.1381  156.5079 O   0  0  0  0  0  0  0  0  0  0  0  0
  151.8043  140.8688  158.2520 C   0  0  0  0  0  0  0  0  0  0  0  0
  152.5989  140.7820  159.4208 C   0  0  0  0  0  0  0  0  0  0  0  0
  153.0728  141.9456  160.0523 C   0  0  0  0  0  0  0  0  0  0  0  0
  152.7587  143.2076  159.5222 C   0  0  0  0  0  0  0  0  0  0  0  0
  151.9699  143.3026  158.3617 C   0  0  0  0  0  0  0  0  0  0  0  0
  151.4821  142.1488  157.7117 C   0  0  0  0  0  0  0  0  0  0  0  0
  150.7255  142.2876  156.6008 N   0  0  0  0  0  0  0  0  0  0  0  0
  149.3155  140.5039  154.1620 H   0  0  0  0  0  0  0  0  0  0  0  0
  149.8617  142.1810  154.1127 H   0  0  0  0  0  0  0  0  0  0  0  0
  148.4164  141.7495  155.0358 H   0  0  0  0  0  0  0  0  0  0  0  0
  150.1195  139.0385  155.8989 H   0  0  0  0  0  0  0  0  0  0  0  0
  152.5774  137.9485  157.7289 H   0  0  0  0  0  0  0  0  0  0  0  0
  151.8047  138.3489  159.2163 H   0  0  0  0  0  0  0  0  0  0  0  0
  146.5200  135.4192  158.8289 H   0  0  0  0  0  0  0  0  0  0  0  0
  146.5704  137.1804  158.8030 H   0  0  0  0  0  0  0  0  0  0  0  0
  147.2787  136.2923  160.1583 H   0  0  0  0  0  0  0  0  0  0  0  0
  148.1167  134.4420  157.3874 H   0  0  0  0  0  0  0  0  0  0  0  0
  151.4551  133.8942  155.9703 H   0  0  0  0  0  0  0  0  0  0  0  0
  150.1327  132.2531  157.2284 H   0  0  0  0  0  0  0  0  0  0  0  0
  148.6168  133.0473  156.7475 H   0  0  0  0  0  0  0  0  0  0  0  0
  148.6330  131.3786  155.0769 H   0  0  0  0  0  0  0  0  0  0  0  0
  151.1432  131.1491  155.7953 H   0  0  0  0  0  0  0  0  0  0  0  0
  150.3060  132.8462  153.2552 H   0  0  0  0  0  0  0  0  0  0  0  0
  147.4569  133.6221  154.1080 H   0  0  0  0  0  0  0  0  0  0  0  0
  148.2752  134.1413  152.6440 H   0  0  0  0  0  0  0  0  0  0  0  0
  148.3030  132.0525  151.9171 H   0  0  0  0  0  0  0  0  0  0  0  0
  152.8587  139.8285  159.8542 H   0  0  0  0  0  0  0  0  0  0  0  0
  153.6775  141.8686  160.9440 H   0  0  0  0  0  0  0  0  0  0  0  0
  153.1216  144.1032  160.0048 H   0  0  0  0  0  0  0  0  0  0  0  0
  151.7343  144.2790  157.9639 H   0  0  0  0  0  0  0  0  0  0  0  0
  1  2  1  0  0  0  0
  1 30  1  0  0  0  0
  1 31  1  0  0  0  0
  1 32  1  0  0  0  0
  2 29  1  0  0  0  0
  2  3  2  0  0  0  0
  3  4  1  0  0  0  0
  3 33  1  0  0  0  0
  4  5  1  0  0  0  0
  4 23  2  0  0  0  0
  5  6  1  0  0  0  0
  5 34  1  0  0  0  0
  5 35  1  0  0  0  0
  6 21  1  0  0  0  0
  6  7  1  0  0  0  0
  7  8  2  0  0  0  0
  7  9  1  0  0  0  0
  9 10  1  0  0  0  0
  9 11  2  0  0  0  0
 10 36  1  0  0  0  0
 10 37  1  0  0  0  0
 10 38  1  0  0  0  0
 11 12  1  0  0  0  0
 11 39  1  0  0  0  0
 12 13  1  0  0  0  0
 12 21  1  0  0  0  0
 13 20  1  0  0  0  0
 13 14  1  0  0  0  0
 13 40  1  0  0  0  0
 14 15  1  0  0  0  0
 14 41  1  0  0  0  0
 14 42  1  0  0  0  0
 15 16  1  0  0  0  0
 15 17  1  0  0  0  0
 15 43  1  0  0  0  0
 16 44  1  0  0  0  0
 17 18  1  0  0  0  0
 17 20  1  0  0  0  0
 17 45  1  0  0  0  0
 18 19  1  0  0  0  0
 18 46  1  0  0  0  0
 18 47  1  0  0  0  0
 19 48  1  0  0  0  0
 21 22  2  0  0  0  0
 23 28  1  0  0  0  0
 23 24  1  0  0  0  0
 24 25  2  0  0  0  0
 24 49  1  0  0  0  0
 25 26  1  0  0  0  0
 25 50  1  0  0  0  0
 26 27  2  0  0  0  0
 26 51  1  0  0  0  0
 27 28  1  0  0  0  0
 27 52  1  0  0  0  0
 28 29  2  0  0  0  0
M  END
> <s_m_source_file>
AV-unprocessed.smi

> <i_m_source_file_index>
113

> <i_lp_mmshare_version>
43012

> <i_f3d_flags>
0

> <s_epik_input>
W2NIXTFbY0hdW2NIXVtjSF1jKGMxMiluYyhbQ0gzXSlbY0hdYzJbQ0gyXW4zYyg9TyljKFtDSDNdKVtjSF1uKGMzPU8pW0NAQEhdNFtDSDJdW0NAQEhdKFtPSF0pW0NASF0oTzQpW0NIMl1bT0hd

> <s_epik_cmdline>
J2VwaWtfcHl0aG9uJywgJy1waCcsICc3LjAnLCAnLXRuJywgJzgnLCAnLW1hJywgJzIwMCcsICctbWV0YWxfYmluZGluZycsICctaW1hZScsICc8aW5maWxlLm1hZT4nLCAnLW9tYWUnLCAnPG91dGZpbGUubWFlPic=

> <r_lp_tautomer_probability>
1

> <r_epik_Ionization_Penalty>
0.214728

> <r_epik_Ionization_Penalty_Charging>
3.04883e-08

> <r_epik_Ionization_Penalty_Neutral>
0.214728

> <r_epik_State_Penalty>
0.204913

> <r_epik_Charging_Adjusted_Penalty>
0.204913

> <i_epik_Tot_Q>
0

> <i_epik_Tot_abs_Q>
0

> <r_epik_Metal_State_Penalty>
0.000244761

> <b_epik_Metal_Only>
0

> <s_epik_Chemistry_Notes>
This compound contains an acetal/aminal-like group ( X-CH(R)-Y where X, Y are N, S, or O) that may be acid/base labile, releasing an aldehyde.

> <s_lp_Force_Field>
OPLS_2005

> <r_lp_Energy>
39.8803

> <b_lp_Chiralities_Consistent>
1

> <s_lp_Variant>
AV-unprocessed.smi:113-4

> <Gold.Version>
5.8.1

> <Gold.Id.Protein>
6NUR|6NUR_protein|mol2

> <Gold.PLP.Fitness>
49.3434

> <Gold.PLP.PLP>
-45.7150

> <Gold.PLP.part.hbond>
-4.0000

> <Gold.PLP.part.metal>
0.0000

> <Gold.PLP.part.buried>
-4.1234

> <Gold.PLP.part.nonpolar>
-36.7520

> <Gold.PLP.part.repulsive>
0.2471

> <Gold.PLP.ligand.clash>
0.0000

> <Gold.PLP.ligand.torsion>
1.1792

> <Gold.PLP.Chemscore.Hbond>
1.9833

> <Gold.PLP.Chemscore.CHOScore>
0.0000

> <Gold.PLP.Chemscore.Metal>
0.0000

> <Gold.Chemscore.Hbonds>
donor molecule, donor type, donor heavy atom, donor atom, acceptor molecule, acceptor atom, score
      L1  H    19    48       P1 10747  0.75
      P1  H 10752 10764       L1    22  1.00

> <Gold.PLP.Chemscore.Internal.Correction>
0.0368

> <Gold.Rescore>
     Score         DG    S(hbond)    S(metal)    S(lipo)     H(rot)  DE(clash)    DE(int)     intcor
     16.40     -17.70       1.95        0.00     113.39       2.95       0.11       1.19       ----

> <Gold.Chemscore.Fitness>
16.4031

> <Gold.Chemscore.DG>
-17.6996

> <Gold.Chemscore.ZeroCoef>
-5.4800

> <Gold.Chemscore.Hbond>
1.9452

> <Gold.Chemscore.Metal>
0.0000

> <Gold.Chemscore.Lipo>
113.3903

> <Gold.Chemscore.Internal_Hbond>
0.0000

> <Gold.Chemscore.DEClash>
0.1112

> <Gold.Chemscore.DEInternal>
1.1853

> <Gold.Chemscore.Rot>
2.9469

> <Gold.Chemscore.Internal.Correction>
   9.000000E+99

> <Gold.Chemscore.Hbonds>
donor molecule, donor type, donor heavy atom, donor atom, acceptor molecule, acceptor atom, score
      L1  H    19    48       P1 10747  0.71
      P1  H 10752 10764       L1    22  0.99

> <Gold.Chemscore.Hbond.Weighted>
-6.4969

> <Gold.Chemscore.Metal.Weighted>
-0.0000

> <Gold.Chemscore.Lipo.Weighted>
-13.2667

> <Gold.Chemscore.Internal_Hbond.Weighted>
0.0000

> <Gold.Chemscore.DEClash.Weighted>
0.1112

> <Gold.Chemscore.DEInternal.Weighted>
1.1853

> <Gold.Chemscore.Rot.Weighted>
7.5439

> <Gold.Chemscore.Internal.Correction.Weighted>
   9.000000E+99

> <Gold.Protein.RotatedTorsions>
[ 6907 6896 6895 6894 ] final   67.59 input  -60.11 | X-H torsion
[ 7974 7965 7964 7962 ] final  123.46 input  175.53 | X-H torsion
[ 8008 7997 7996 7995 ] final -114.44 input   59.86 | X-H torsion
[ 10167 10162 10161 10158 ] final -134.09 input  -65.29 | X-H torsion
[ 10718 10713 10712 10709 ] final  177.44 input   66.30 | X-H torsion
[ 10763 10752 10751 10750 ] final  -12.50 input  -60.55 | X-H torsion
[ 11005 11000 10999 10996 ] final  156.42 input  -57.11 | X-H torsion

> <Gold.Protein.ActiveResidues>
 VAL166  LYS551  ARG553  GLY616  TRP617  ASP618  TYR619  PRO620  LYS621  CYS622 
 ASP623  PHE694  ASN695  SER759  ASP760  ASP761  ALA762  ILE779  LEU786  VAL792 
 PHE793  MET794  SER795  GLU796  ALA797  LYS798  CYS799  TRP800  GLU811  SER814 

> <Gold.Protein.RotatedAtoms>
  152.4562  134.5285  159.9803 H   0  0  0  0  0  0  0  0  0  0  0  0  # atno 6907 bound_to 6896
  151.5345  133.3437  159.2932 H   0  0  0  0  0  0  0  0  0  0  0  0  # atno 6908 bound_to 6896
  150.8508  134.7862  159.7070 H   0  0  0  0  0  0  0  0  0  0  0  0  # atno 6909 bound_to 6896
  145.0957  139.3554  143.4838 H   0  0  0  0  0  0  0  0  0  0  0  0  # atno 7974 bound_to 7965
  155.0364  140.0392  157.2493 H   0  0  0  0  0  0  0  0  0  0  0  0  # atno 8008 bound_to 7997
  154.7253  140.2720  155.6481 H   0  0  0  0  0  0  0  0  0  0  0  0  # atno 8009 bound_to 7997
  156.2827  140.2695  156.1937 H   0  0  0  0  0  0  0  0  0  0  0  0  # atno 8010 bound_to 7997
  139.8915  143.6716  152.2611 H   0  0  0  0  0  0  0  0  0  0  0  0  # atno 10167 bound_to 10162
  156.9053  130.9892  151.3029 H   0  0  0  0  0  0  0  0  0  0  0  0  # atno 10718 bound_to 10713
  153.4993  135.7017  153.5840 H   0  0  0  0  0  0  0  0  0  0  0  0  # atno 10763 bound_to 10752
  153.3979  135.3879  155.1967 H   0  0  0  0  0  0  0  0  0  0  0  0  # atno 10764 bound_to 10752
  154.8712  135.3874  154.4462 H   0  0  0  0  0  0  0  0  0  0  0  0  # atno 10765 bound_to 10752
  140.1674  134.8567  157.2648 H   0  0  0  0  0  0  0  0  0  0  0  0  # atno 11005 bound_to 11000
  146.3531  140.0811  142.8617 LP  0  0  0  0  0  0  0  0  0  0  0  0  # atno 17320 bound_to 7965
  145.1014  140.9348  143.4710 LP  0  0  0  0  0  0  0  0  0  0  0  0  # atno 17321 bound_to 7965
  139.7105  144.7621  151.1120 LP  0  0  0  0  0  0  0  0  0  0  0  0  # atno 17342 bound_to 10162
  140.7725  143.5337  150.9393 LP  0  0  0  0  0  0  0  0  0  0  0  0  # atno 17343 bound_to 10162
  157.6001  130.8506  149.8788 LP  0  0  0  0  0  0  0  0  0  0  0  0  # atno 17370 bound_to 10713
  156.0562  130.3708  150.1086 LP  0  0  0  0  0  0  0  0  0  0  0  0  # atno 17371 bound_to 10713
  140.2418  134.3787  155.7477 LP  0  0  0  0  0  0  0  0  0  0  0  0  # atno 17394 bound_to 11000
  141.2215  133.7269  156.8800 LP  0  0  0  0  0  0  0  0  0  0  0  0  # atno 17395 bound_to 11000

$$$$
