AV-unprocessed.smi:107|AV-procd|sdf|1026|dock9
  -GOLD-   2262018 23D 1   1.00000     0.00000
 Structure written by MMmdl.
 30 31  0  0  0  0  0  0  0  0  2 V2000
  152.2045  144.8032  157.8159 C   0  0  0  0  0  0  0  0  0  0  0  0
  151.9585  143.3310  158.0955 C   0  0  0  0  0  0  0  0  0  0  0  0
  151.1167  142.5852  157.3463 C   0  0  0  0  0  0  0  0  0  0  0  0
  150.8931  141.2448  157.6059 N   0  0  0  0  0  0  0  0  0  0  0  0
  149.9368  140.4496  156.7460 C   0  0  1  0  0  0  0  0  0  0  0  0
  149.3553  141.3217  155.6310 C   0  0  0  0  0  0  0  0  0  0  0  0
  149.3219  140.3488  154.4708 C   0  0  1  0  0  0  0  0  0  0  0  0
  149.3682  141.0356  153.2368 O   0  0  0  0  0  0  0  0  0  0  0  0
  150.5793  139.5120  154.7251 C   0  0  2  0  0  0  0  0  0  0  0  0
  150.5557  138.1067  154.1041 C   0  0  0  0  0  0  0  0  0  0  0  0
  149.3466  137.4458  154.4122 O   0  0  0  0  0  0  0  0  0  0  0  0
  150.6328  139.3956  156.1450 O   0  0  0  0  0  0  0  0  0  0  0  0
  151.5428  140.6252  158.7058 C   0  0  0  0  0  0  0  0  0  0  0  0
  151.2971  139.4414  158.9379 O   0  0  0  0  0  0  0  0  0  0  0  0
  152.4013  141.3675  159.4618 N   0  5  0  0  0  0  0  0  0  0  0  0
  152.6505  142.6862  159.2179 C   0  0  0  0  0  0  0  0  0  0  0  0
  153.4303  143.3429  159.9071 O   0  0  0  0  0  0  0  0  0  0  0  0
  151.6285  145.1447  156.9554 H   0  0  0  0  0  0  0  0  0  0  0  0
  153.2600  144.9803  157.6076 H   0  0  0  0  0  0  0  0  0  0  0  0
  151.9169  145.4079  158.6767 H   0  0  0  0  0  0  0  0  0  0  0  0
  150.5998  143.0551  156.5236 H   0  0  0  0  0  0  0  0  0  0  0  0
  149.1804  140.0130  157.3986 H   0  0  0  0  0  0  0  0  0  0  0  0
  148.3781  141.7191  155.9069 H   0  0  0  0  0  0  0  0  0  0  0  0
  150.0317  142.1525  155.4218 H   0  0  0  0  0  0  0  0  0  0  0  0
  148.4257  139.7295  154.5273 H   0  0  0  0  0  0  0  0  0  0  0  0
  149.5146  140.4028  152.5499 H   0  0  0  0  0  0  0  0  0  0  0  0
  151.4688  140.0569  154.4038 H   0  0  0  0  0  0  0  0  0  0  0  0
  150.6377  138.1782  153.0193 H   0  0  0  0  0  0  0  0  0  0  0  0
  151.3998  137.5108  154.4519 H   0  0  0  0  0  0  0  0  0  0  0  0
  148.9932  137.0802  153.6155 H   0  0  0  0  0  0  0  0  0  0  0  0
  1  2  1  0  0  0  0
  1 18  1  0  0  0  0
  1 19  1  0  0  0  0
  1 20  1  0  0  0  0
  2 16  1  0  0  0  0
  2  3  2  0  0  0  0
  3  4  1  0  0  0  0
  3 21  1  0  0  0  0
  4  5  1  0  0  0  0
  4 13  1  0  0  0  0
  5 12  1  0  0  0  0
  5  6  1  0  0  0  0
  5 22  1  0  0  0  0
  6  7  1  0  0  0  0
  6 23  1  0  0  0  0
  6 24  1  0  0  0  0
  7  8  1  0  0  0  0
  7  9  1  0  0  0  0
  7 25  1  0  0  0  0
  8 26  1  0  0  0  0
  9 10  1  0  0  0  0
  9 12  1  0  0  0  0
  9 27  1  0  0  0  0
 10 11  1  0  0  0  0
 10 28  1  0  0  0  0
 10 29  1  0  0  0  0
 11 30  1  0  0  0  0
 13 14  2  0  0  0  0
 13 15  1  0  0  0  0
 15 16  1  0  0  0  0
 16 17  2  0  0  0  0
M  CHG  1  15  -1
M  END
> <s_m_source_file>
AV-unprocessed.smi

> <i_m_source_file_index>
107

> <i_lp_mmshare_version>
43012

> <i_f3d_flags>
0

> <s_epik_input>
Tz1jMVtuSF1jKD1PKW4oW2NIXWMxW0NIM10pW0NAQEhdMltDSDJdW0NAQEhdKFtPSF0pW0NASF0oTzIpW0NIMl1bT0hd

> <s_epik_cmdline>
J2VwaWtfcHl0aG9uJywgJy1waCcsICc3LjAnLCAnLXRuJywgJzgnLCAnLW1hJywgJzIwMCcsICctbWV0YWxfYmluZGluZycsICctaW1hZScsICc8aW5maWxlLm1hZT4nLCAnLW9tYWUnLCAnPG91dGZpbGUubWFlPic=

> <r_lp_tautomer_probability>
0.999537

> <r_epik_Ionization_Penalty>
3.66603

> <r_epik_Ionization_Penalty_Charging>
1.09773e-07

> <r_epik_Ionization_Penalty_Neutral>
3.66603

> <r_epik_State_Penalty>
3.66562

> <r_epik_Charging_Adjusted_Penalty>
3.66562

> <i_epik_Tot_Q>
-1

> <i_epik_Tot_abs_Q>
1

> <r_epik_Metal_State_Penalty>
0.234536

> <b_epik_Metal_Only>
1

> <s_epik_Chemistry_Notes>
This compound contains an acetal/aminal-like group ( X-CH(R)-Y where X, Y are N, S, or O) that may be acid/base labile, releasing an aldehyde.

> <s_lp_Force_Field>
OPLS_2005

> <r_lp_Energy>
34.2111

> <b_lp_Chiralities_Consistent>
1

> <s_lp_Variant>
AV-unprocessed.smi:107-14

> <Gold.Version>
5.8.1

> <Gold.Id.Protein>
6NUR|6NUR_protein|mol2

> <Gold.PLP.Fitness>
44.2228

> <Gold.PLP.PLP>
-33.5609

> <Gold.PLP.part.hbond>
-3.2754

> <Gold.PLP.part.metal>
0.0000

> <Gold.PLP.part.buried>
-4.1908

> <Gold.PLP.part.nonpolar>
-26.1418

> <Gold.PLP.part.repulsive>
0.0000

> <Gold.PLP.ligand.clash>
0.0000

> <Gold.PLP.ligand.torsion>
0.0471

> <Gold.PLP.Chemscore.Hbond>
2.5825

> <Gold.PLP.Chemscore.CHOScore>
1.0000

> <Gold.PLP.Chemscore.Metal>
0.0000

> <Gold.Chemscore.Hbonds>
donor molecule, donor type, donor heavy atom, donor atom, acceptor molecule, acceptor atom, score
      L1  H     8    26       P1  7957  0.76
      L1  H    11    30       P1  7948  1.00
      P1  H  8011  8017       L1     8  0.80
      L1  C     3    21       P1  8028  0.99

> <Gold.PLP.Chemscore.Internal.Correction>
0.0085

> <Gold.Rescore>
     Score         DG    S(hbond)    S(metal)    S(lipo)     H(rot)  DE(clash)    DE(int)     intcor
     11.35     -12.66       1.94        0.00      64.68       2.69       0.00       1.31       ----

> <Gold.Chemscore.Fitness>
11.3498

> <Gold.Chemscore.DG>
-12.6617

> <Gold.Chemscore.ZeroCoef>
-5.4800

> <Gold.Chemscore.Hbond>
1.9441

> <Gold.Chemscore.Metal>
0.0000

> <Gold.Chemscore.Lipo>
64.6786

> <Gold.Chemscore.Internal_Hbond>
0.0000

> <Gold.Chemscore.DEClash>
0.0042

> <Gold.Chemscore.DEInternal>
1.3078

> <Gold.Chemscore.Rot>
2.6871

> <Gold.Chemscore.Internal.Correction>
   9.000000E+99

> <Gold.Chemscore.Hbonds>
donor molecule, donor type, donor heavy atom, donor atom, acceptor molecule, acceptor atom, score
      L1  H     8    26       P1  7957  0.73
      L1  H    11    30       P1  7948  0.99
      P1  H  8011  8017       L1     8  0.12

> <Gold.Chemscore.Hbond.Weighted>
-6.4934

> <Gold.Chemscore.Metal.Weighted>
-0.0000

> <Gold.Chemscore.Lipo.Weighted>
-7.5674

> <Gold.Chemscore.Internal_Hbond.Weighted>
0.0000

> <Gold.Chemscore.DEClash.Weighted>
0.0042

> <Gold.Chemscore.DEInternal.Weighted>
1.3078

> <Gold.Chemscore.Rot.Weighted>
6.8791

> <Gold.Chemscore.Internal.Correction.Weighted>
   9.000000E+99

> <Gold.Protein.RotatedTorsions>
[ 6907 6896 6895 6894 ] final  -20.34 input  -60.11 | X-H torsion
[ 7974 7965 7964 7962 ] final   80.93 input  175.53 | X-H torsion
[ 8008 7997 7996 7995 ] final  -51.10 input   59.86 | X-H torsion
[ 10167 10162 10161 10158 ] final -127.87 input  -65.29 | X-H torsion
[ 10718 10713 10712 10709 ] final    1.79 input   66.30 | X-H torsion
[ 10763 10752 10751 10750 ] final -131.28 input  -60.55 | X-H torsion
[ 11005 11000 10999 10996 ] final  -75.42 input  -57.11 | X-H torsion

> <Gold.Protein.ActiveResidues>
 VAL166  LYS551  ARG553  GLY616  TRP617  ASP618  TYR619  PRO620  LYS621  CYS622 
 ASP623  PHE694  ASN695  SER759  ASP760  ASP761  ALA762  ILE779  LEU786  VAL792 
 PHE793  MET794  SER795  GLU796  ALA797  LYS798  CYS799  TRP800  GLU811  SER814 

> <Gold.Protein.RotatedAtoms>
  151.2496  135.0617  159.9056 H   0  0  0  0  0  0  0  0  0  0  0  0  # atno 6907 bound_to 6896
  152.5382  134.0347  159.8050 H   0  0  0  0  0  0  0  0  0  0  0  0  # atno 6908 bound_to 6896
  151.0553  133.5540  159.2670 H   0  0  0  0  0  0  0  0  0  0  0  0  # atno 6909 bound_to 6896
  145.6448  139.2433  143.2010 H   0  0  0  0  0  0  0  0  0  0  0  0  # atno 7974 bound_to 7965
  154.4076  140.1256  156.4774 H   0  0  0  0  0  0  0  0  0  0  0  0  # atno 8008 bound_to 7997
  155.7119  140.3493  155.4958 H   0  0  0  0  0  0  0  0  0  0  0  0  # atno 8009 bound_to 7997
  155.9293  140.1066  157.1135 H   0  0  0  0  0  0  0  0  0  0  0  0  # atno 8010 bound_to 7997
  139.9563  143.6000  152.2459 H   0  0  0  0  0  0  0  0  0  0  0  0  # atno 10167 bound_to 10162
  156.8535  130.5562  149.5668 H   0  0  0  0  0  0  0  0  0  0  0  0  # atno 10718 bound_to 10713
  154.8751  135.3835  154.4221 H   0  0  0  0  0  0  0  0  0  0  0  0  # atno 10763 bound_to 10752
  153.4923  135.7030  153.5882 H   0  0  0  0  0  0  0  0  0  0  0  0  # atno 10764 bound_to 10752
  153.4250  135.3892  155.2102 H   0  0  0  0  0  0  0  0  0  0  0  0  # atno 10765 bound_to 10752
  141.1645  133.6946  156.7515 H   0  0  0  0  0  0  0  0  0  0  0  0  # atno 11005 bound_to 11000
  146.1252  140.7258  142.9438 LP  0  0  0  0  0  0  0  0  0  0  0  0  # atno 17320 bound_to 7965
  144.7144  140.4157  143.7055 LP  0  0  0  0  0  0  0  0  0  0  0  0  # atno 17321 bound_to 7965
  139.6589  144.7662  151.2001 LP  0  0  0  0  0  0  0  0  0  0  0  0  # atno 17342 bound_to 10162
  140.7567  143.6041  150.8670 LP  0  0  0  0  0  0  0  0  0  0  0  0  # atno 17343 bound_to 10162
  156.0815  130.5824  150.9572 LP  0  0  0  0  0  0  0  0  0  0  0  0  # atno 17370 bound_to 10713
  157.6290  131.0923  150.8478 LP  0  0  0  0  0  0  0  0  0  0  0  0  # atno 17371 bound_to 10713
  140.2601  134.8474  157.3750 LP  0  0  0  0  0  0  0  0  0  0  0  0  # atno 17394 bound_to 11000
  140.1620  134.4717  155.7888 LP  0  0  0  0  0  0  0  0  0  0  0  0  # atno 17395 bound_to 11000

$$$$
