AV-unprocessed.smi:2775|AV-procd|sdf|10695|dock2
  -GOLD-   2272015133D 1   1.00000     0.00000
 Structure written by MMmdl.
 42 45  0  0  0  0  0  0  0  0  1 V2000
  144.7942  131.7404  150.9764 C   0  0  0  0  0  0  0  0  0  0  0  0
  144.5817  133.1086  151.5965 C   0  0  0  0  0  0  0  0  0  0  0  0
  143.2970  133.5163  151.6867 N   0  0  0  0  0  0  0  0  0  0  0  0
  143.0513  134.7231  152.2362 C   0  0  0  0  0  0  0  0  0  0  0  0
  144.0635  135.5790  152.7103 C   0  0  0  0  0  0  0  0  0  0  0  0
  145.4121  135.1629  152.6010 C   0  0  0  0  0  0  0  0  0  0  0  0
  146.5134  135.9397  153.0556 N   0  0  0  0  0  0  0  0  0  0  0  0
  146.5666  136.8279  154.0676 C   0  0  0  0  0  0  0  0  0  0  0  0
  145.6435  137.0731  154.8409 O   0  0  0  0  0  0  0  0  0  0  0  0
  147.7455  137.4653  154.1683 N   0  0  0  0  0  0  0  0  0  0  0  0
  148.1259  138.4852  155.1553 C   0  0  1  0  0  0  0  0  0  0  0  0
  149.6303  138.5447  155.4547 C   0  0  1  0  0  0  0  0  0  0  0  0
  150.7668  137.5911  155.3715 C   0  0  0  0  0  0  0  0  0  0  0  0
  151.8207  138.5951  154.8400 C   0  0  0  0  0  0  0  0  0  0  0  0
  151.0892  139.8079  154.5285 O   0  0  0  0  0  0  0  0  0  0  0  0
  149.7909  139.3612  154.1824 C   0  0  2  0  0  0  0  0  0  0  0  0
  148.3867  139.8919  154.5255 C   0  0  0  0  0  0  0  0  0  0  0  0
  147.4776  140.4849  153.4419 C   0  0  0  0  0  0  0  0  0  0  0  0
  147.7982  141.8741  154.0032 C   0  0  0  0  0  0  0  0  0  0  0  0
  148.2131  141.1993  155.3149 C   0  0  0  0  0  0  0  0  0  0  0  0
  145.6734  133.8887  152.0444 C   0  0  0  0  0  0  0  0  0  0  0  0
  147.2958  133.2972  151.9085 Cl  0  0  0  0  0  0  0  0  0  0  0  0
  145.4316  131.8190  150.0953 H   0  0  0  0  0  0  0  0  0  0  0  0
  143.8500  131.2881  150.6694 H   0  0  0  0  0  0  0  0  0  0  0  0
  145.2735  131.0705  151.6905 H   0  0  0  0  0  0  0  0  0  0  0  0
  142.0137  135.0144  152.3055 H   0  0  0  0  0  0  0  0  0  0  0  0
  143.7847  136.5220  153.1537 H   0  0  0  0  0  0  0  0  0  0  0  0
  147.3372  135.8937  152.4736 H   0  0  0  0  0  0  0  0  0  0  0  0
  148.4564  137.2142  153.4963 H   0  0  0  0  0  0  0  0  0  0  0  0
  147.4891  138.5191  156.0407 H   0  0  0  0  0  0  0  0  0  0  0  0
  149.7561  139.1619  156.3520 H   0  0  0  0  0  0  0  0  0  0  0  0
  151.0406  137.1697  156.3386 H   0  0  0  0  0  0  0  0  0  0  0  0
  150.5798  136.7825  154.6642 H   0  0  0  0  0  0  0  0  0  0  0  0
  152.5908  138.8101  155.5814 H   0  0  0  0  0  0  0  0  0  0  0  0
  152.3092  138.2060  153.9458 H   0  0  0  0  0  0  0  0  0  0  0  0
  149.8056  138.7634  153.2662 H   0  0  0  0  0  0  0  0  0  0  0  0
  147.8152  140.3172  152.4187 H   0  0  0  0  0  0  0  0  0  0  0  0
  146.4303  140.2090  153.5740 H   0  0  0  0  0  0  0  0  0  0  0  0
  148.6362  142.3507  153.4921 H   0  0  0  0  0  0  0  0  0  0  0  0
  146.9403  142.5420  154.0843 H   0  0  0  0  0  0  0  0  0  0  0  0
  147.3989  141.1493  156.0392 H   0  0  0  0  0  0  0  0  0  0  0  0
  149.1271  141.5947  155.7593 H   0  0  0  0  0  0  0  0  0  0  0  0
  1  2  1  0  0  0  0
  1 23  1  0  0  0  0
  1 24  1  0  0  0  0
  1 25  1  0  0  0  0
  2 21  1  0  0  0  0
  2  3  2  0  0  0  0
  3  4  1  0  0  0  0
  4  5  2  0  0  0  0
  4 26  1  0  0  0  0
  5  6  1  0  0  0  0
  5 27  1  0  0  0  0
  6  7  1  0  0  0  0
  6 21  2  0  0  0  0
  7  8  1  0  0  0  0
  7 28  1  0  0  0  0
  8  9  2  0  0  0  0
  8 10  1  0  0  0  0
 10 11  1  0  0  0  0
 10 29  1  0  0  0  0
 11 17  1  0  0  0  0
 11 12  1  0  0  0  0
 11 30  1  0  0  0  0
 12 16  1  0  0  0  0
 12 13  1  0  0  0  0
 12 31  1  0  0  0  0
 13 14  1  0  0  0  0
 13 32  1  0  0  0  0
 13 33  1  0  0  0  0
 14 15  1  0  0  0  0
 14 34  1  0  0  0  0
 14 35  1  0  0  0  0
 15 16  1  0  0  0  0
 16 17  1  0  0  0  0
 16 36  1  0  0  0  0
 17 20  1  0  0  0  0
 17 18  1  0  0  0  0
 18 19  1  0  0  0  0
 18 37  1  0  0  0  0
 18 38  1  0  0  0  0
 19 20  1  0  0  0  0
 19 39  1  0  0  0  0
 19 40  1  0  0  0  0
 20 41  1  0  0  0  0
 20 42  1  0  0  0  0
 21 22  1  0  0  0  0
M  END
> <s_m_source_file>
AV-unprocessed.smi

> <i_m_source_file_index>
2775

> <i_lp_mmshare_version>
43012

> <i_f3d_flags>
0

> <s_epik_input>
W0NIM11jMW5bY0hdW2NIXWMoYzFDbClbTkhdQyg9TylbTkhdW0NAQEhdMltDQEhdKFtDSDJdW0NIMl1PMylbQ0BASF0zQzI0W0NIMl1bQ0gyXVtDSDJdNA==

> <s_epik_cmdline>
J2VwaWtfcHl0aG9uJywgJy1waCcsICc3LjAnLCAnLXRuJywgJzgnLCAnLW1hJywgJzIwMCcsICctbWV0YWxfYmluZGluZycsICctaW1hZScsICc8aW5maWxlLm1hZT4nLCAnLW9tYWUnLCAnPG91dGZpbGUubWFlPic=

> <r_epik_Ionization_Penalty>
0.01026

> <r_epik_Ionization_Penalty_Charging>
0

> <r_epik_Ionization_Penalty_Neutral>
0.01026

> <r_epik_State_Penalty>
0.00780685

> <r_epik_Charging_Adjusted_Penalty>
0.00780685

> <i_epik_Tot_Q>
0

> <i_epik_Tot_abs_Q>
0

> <r_epik_Metal_State_Penalty>
0.00767411

> <b_epik_Metal_Only>
0

> <s_lp_Force_Field>
OPLS_2005

> <r_lp_Energy>
81.7367

> <b_lp_Chiralities_Consistent>
1

> <s_lp_Variant>
AV-unprocessed.smi:2775-8

> <Gold.Version>
5.8.1

> <Gold.Id.Protein>
6NUR|6NUR_protein|mol2

> <Gold.PLP.Fitness>
42.5898

> <Gold.PLP.PLP>
-34.0857

> <Gold.PLP.part.hbond>
-3.0000

> <Gold.PLP.part.metal>
0.0000

> <Gold.PLP.part.buried>
-5.3513

> <Gold.PLP.part.nonpolar>
-26.9877

> <Gold.PLP.part.repulsive>
0.3483

> <Gold.PLP.ligand.clash>
0.0000

> <Gold.PLP.ligand.torsion>
0.3944

> <Gold.PLP.Chemscore.Hbond>
2.9920

> <Gold.PLP.Chemscore.CHOScore>
0.0000

> <Gold.PLP.Chemscore.Metal>
0.0000

> <Gold.Chemscore.Hbonds>
donor molecule, donor type, donor heavy atom, donor atom, acceptor molecule, acceptor atom, score
      L1  H     7    28       P1  7948  1.00
      L1  H    10    29       P1  7948  0.99
      P1  H  7989  7998       L1    15  1.00

> <Gold.PLP.Chemscore.Internal.Correction>
0.3169

> <Gold.Rescore>
     Score         DG    S(hbond)    S(metal)    S(lipo)     H(rot)  DE(clash)    DE(int)     intcor
     22.23     -22.85       2.85        0.00      89.09       1.00       0.12       0.50       ----

> <Gold.Chemscore.Fitness>
22.2292

> <Gold.Chemscore.DG>
-22.8514

> <Gold.Chemscore.ZeroCoef>
-5.4800

> <Gold.Chemscore.Hbond>
2.8468

> <Gold.Chemscore.Metal>
0.0000

> <Gold.Chemscore.Lipo>
89.0860

> <Gold.Chemscore.Internal_Hbond>
0.0000

> <Gold.Chemscore.DEClash>
0.1205

> <Gold.Chemscore.DEInternal>
0.5016

> <Gold.Chemscore.Rot>
1.0000

> <Gold.Chemscore.Internal.Correction>
   9.000000E+99

> <Gold.Chemscore.Hbonds>
donor molecule, donor type, donor heavy atom, donor atom, acceptor molecule, acceptor atom, score
      L1  H     7    28       P1  7948  1.00
      L1  H    10    29       P1  7948  0.92
      P1  H  7989  7998       L1    15  0.79

> <Gold.Chemscore.Hbond.Weighted>
-9.5083

> <Gold.Chemscore.Metal.Weighted>
-0.0000

> <Gold.Chemscore.Lipo.Weighted>
-10.4231

> <Gold.Chemscore.Internal_Hbond.Weighted>
0.0000

> <Gold.Chemscore.DEClash.Weighted>
0.1205

> <Gold.Chemscore.DEInternal.Weighted>
0.5016

> <Gold.Chemscore.Rot.Weighted>
2.5600

> <Gold.Chemscore.Internal.Correction.Weighted>
   9.000000E+99

> <Gold.Protein.RotatedTorsions>
[ 6907 6896 6895 6894 ] final  -13.61 input  -60.11 | X-H torsion
[ 7974 7965 7964 7962 ] final -118.00 input  175.53 | X-H torsion
[ 8008 7997 7996 7995 ] final   98.60 input   59.86 | X-H torsion
[ 10167 10162 10161 10158 ] final   14.45 input  -65.29 | X-H torsion
[ 10718 10713 10712 10709 ] final  148.19 input   66.30 | X-H torsion
[ 10763 10752 10751 10750 ] final    2.26 input  -60.55 | X-H torsion
[ 11005 11000 10999 10996 ] final  145.81 input  -57.11 | X-H torsion

> <Gold.Protein.ActiveResidues>
 VAL166  LYS551  ARG553  GLY616  TRP617  ASP618  TYR619  PRO620  LYS621  CYS622 
 ASP623  PHE694  ASN695  SER759  ASP760  ASP761  ALA762  ILE779  LEU786  VAL792 
 PHE793  MET794  SER795  GLU796  ALA797  LYS798  CYS799  TRP800  GLU811  SER814 

> <Gold.Protein.RotatedAtoms>
  151.3523  135.0887  159.9406 H   0  0  0  0  0  0  0  0  0  0  0  0  # atno 6907 bound_to 6896
  152.5184  133.9340  159.7605 H   0  0  0  0  0  0  0  0  0  0  0  0  # atno 6908 bound_to 6896
  150.9718  133.6282  159.2766 H   0  0  0  0  0  0  0  0  0  0  0  0  # atno 6909 bound_to 6896
  145.0788  140.8411  143.4052 H   0  0  0  0  0  0  0  0  0  0  0  0  # atno 7974 bound_to 7965
  156.1020  140.3241  155.7955 H   0  0  0  0  0  0  0  0  0  0  0  0  # atno 8008 bound_to 7997
  155.4820  140.0554  157.2983 H   0  0  0  0  0  0  0  0  0  0  0  0  # atno 8009 bound_to 7997
  154.4703  140.2008  156.0027 H   0  0  0  0  0  0  0  0  0  0  0  0  # atno 8010 bound_to 7997
  140.5934  143.8749  150.6895 H   0  0  0  0  0  0  0  0  0  0  0  0  # atno 10167 bound_to 10162
  157.3117  131.0889  151.1311 H   0  0  0  0  0  0  0  0  0  0  0  0  # atno 10718 bound_to 10713
  153.2977  135.6953  153.7232 H   0  0  0  0  0  0  0  0  0  0  0  0  # atno 10763 bound_to 10752
  153.6158  135.3436  155.2995 H   0  0  0  0  0  0  0  0  0  0  0  0  # atno 10764 bound_to 10752
  154.8542  135.4374  154.2079 H   0  0  0  0  0  0  0  0  0  0  0  0  # atno 10765 bound_to 10752
  140.0742  134.9134  157.1395 H   0  0  0  0  0  0  0  0  0  0  0  0  # atno 11005 bound_to 11000
  145.1204  139.2697  143.5591 LP  0  0  0  0  0  0  0  0  0  0  0  0  # atno 17320 bound_to 7965
  146.3530  140.0826  142.8617 LP  0  0  0  0  0  0  0  0  0  0  0  0  # atno 17321 bound_to 7965
  140.2278  143.3759  152.1591 LP  0  0  0  0  0  0  0  0  0  0  0  0  # atno 17342 bound_to 10162
  139.5242  144.7081  151.5291 LP  0  0  0  0  0  0  0  0  0  0  0  0  # atno 17343 bound_to 10162
  157.2630  130.6668  149.5983 LP  0  0  0  0  0  0  0  0  0  0  0  0  # atno 17370 bound_to 10713
  155.9678  130.4503  150.5690 LP  0  0  0  0  0  0  0  0  0  0  0  0  # atno 17371 bound_to 10713
  140.3582  134.2523  155.7190 LP  0  0  0  0  0  0  0  0  0  0  0  0  # atno 17394 bound_to 11000
  141.2023  133.7940  157.0396 LP  0  0  0  0  0  0  0  0  0  0  0  0  # atno 17395 bound_to 11000

$$$$
