AV-unprocessed.smi:971|AV-procd|sdf|4295|dock8
  -GOLD-   22720 2203D 1   1.00000     0.00000
 Structure written by MMmdl.
 34 35  0  0  0  0  0  0  0  0  1 V2000
  154.4392  140.0487  159.9466 C   0  0  0  0  0  0  0  0  0  0  0  0
  154.1886  140.9433  161.1653 C   0  0  0  0  0  0  0  0  0  0  0  0
  153.2048  142.0381  160.8736 C   0  0  0  0  0  0  0  0  0  0  0  0
  152.5970  142.0950  159.6158 N   0  0  0  0  0  0  0  0  0  0  0  0
  151.7357  143.1080  159.5039 C   0  0  0  0  0  0  0  0  0  0  0  0
  150.9786  143.4107  158.2549 C   0  0  0  0  0  0  0  0  0  0  0  0
  151.1907  142.3461  157.1666 C   0  0  0  0  0  0  0  0  0  0  0  0
  150.1063  142.3501  156.1913 N   0  0  0  0  0  0  0  0  0  0  0  0
  149.9181  141.4202  155.2425 C   0  0  0  0  0  0  0  0  0  0  0  0
  150.6626  140.4495  155.0973 O   0  0  0  0  0  0  0  0  0  0  0  0
  148.7226  141.6656  154.3813 C   0  0  0  0  0  0  0  0  0  0  0  0
  147.3698  141.7313  155.0609 C   0  0  0  0  0  0  0  0  0  0  0  0
  147.7284  140.5337  154.2176 C   0  0  0  0  0  0  0  0  0  0  0  0
  151.6337  144.0911  160.9575 S   0  0  0  0  0  0  0  0  0  0  0  0
  152.7953  143.0384  161.7247 C   0  0  0  0  0  0  0  0  0  0  0  0
  153.2296  143.2772  163.1328 C   0  0  0  0  0  0  0  0  0  0  0  0
  155.1553  139.2615  160.1827 H   0  0  0  0  0  0  0  0  0  0  0  0
  154.8400  140.6233  159.1109 H   0  0  0  0  0  0  0  0  0  0  0  0
  153.5166  139.5719  159.6140 H   0  0  0  0  0  0  0  0  0  0  0  0
  153.8382  140.3289  161.9949 H   0  0  0  0  0  0  0  0  0  0  0  0
  155.1356  141.3719  161.4953 H   0  0  0  0  0  0  0  0  0  0  0  0
  149.9200  143.4964  158.5037 H   0  0  0  0  0  0  0  0  0  0  0  0
  151.2926  144.3887  157.8882 H   0  0  0  0  0  0  0  0  0  0  0  0
  152.1229  142.5400  156.6356 H   0  0  0  0  0  0  0  0  0  0  0  0
  151.2879  141.3552  157.6137 H   0  0  0  0  0  0  0  0  0  0  0  0
  149.4496  143.1155  156.2420 H   0  0  0  0  0  0  0  0  0  0  0  0
  148.8680  142.3173  153.5208 H   0  0  0  0  0  0  0  0  0  0  0  0
  147.3211  141.5874  156.1390 H   0  0  0  0  0  0  0  0  0  0  0  0
  146.6502  142.4419  154.6597 H   0  0  0  0  0  0  0  0  0  0  0  0
  147.2512  140.4326  153.2451 H   0  0  0  0  0  0  0  0  0  0  0  0
  147.9165  139.5952  154.7366 H   0  0  0  0  0  0  0  0  0  0  0  0
  153.1497  142.3639  163.7231 H   0  0  0  0  0  0  0  0  0  0  0  0
  152.6160  144.0402  163.6122 H   0  0  0  0  0  0  0  0  0  0  0  0
  154.2668  143.6105  163.1650 H   0  0  0  0  0  0  0  0  0  0  0  0
  1  2  1  0  0  0  0
  1 17  1  0  0  0  0
  1 18  1  0  0  0  0
  1 19  1  0  0  0  0
  2  3  1  0  0  0  0
  2 20  1  0  0  0  0
  2 21  1  0  0  0  0
  3 15  2  0  0  0  0
  3  4  1  0  0  0  0
  4  5  2  0  0  0  0
  5  6  1  0  0  0  0
  5 14  1  0  0  0  0
  6  7  1  0  0  0  0
  6 22  1  0  0  0  0
  6 23  1  0  0  0  0
  7  8  1  0  0  0  0
  7 24  1  0  0  0  0
  7 25  1  0  0  0  0
  8  9  1  0  0  0  0
  8 26  1  0  0  0  0
  9 10  2  0  0  0  0
  9 11  1  0  0  0  0
 11 13  1  0  0  0  0
 11 12  1  0  0  0  0
 11 27  1  0  0  0  0
 12 13  1  0  0  0  0
 12 28  1  0  0  0  0
 12 29  1  0  0  0  0
 13 30  1  0  0  0  0
 13 31  1  0  0  0  0
 14 15  1  0  0  0  0
 15 16  1  0  0  0  0
 16 32  1  0  0  0  0
 16 33  1  0  0  0  0
 16 34  1  0  0  0  0
M  END
> <s_m_source_file>
AV-unprocessed.smi

> <i_m_source_file_index>
971

> <i_lp_mmshare_version>
43012

> <i_f3d_flags>
0

> <s_epik_input>
W0NIM11bQ0gyXWMxbmMoc2MxW0NIM10pW0NIMl1bQ0gyXVtOSF1DKD1PKVtDSF0yW0NIMl1bQ0gyXTI=

> <s_epik_cmdline>
J2VwaWtfcHl0aG9uJywgJy1waCcsICc3LjAnLCAnLXRuJywgJzgnLCAnLW1hJywgJzIwMCcsICctbWV0YWxfYmluZGluZycsICctaW1hZScsICc8aW5maWxlLm1hZT4nLCAnLW9tYWUnLCAnPG91dGZpbGUubWFlPic=

> <r_epik_Ionization_Penalty>
0.00242093

> <r_epik_Ionization_Penalty_Charging>
0

> <r_epik_Ionization_Penalty_Neutral>
0.00242093

> <r_epik_State_Penalty>
0.00167523

> <r_epik_Charging_Adjusted_Penalty>
0.00167523

> <i_epik_Tot_Q>
0

> <i_epik_Tot_abs_Q>
0

> <r_epik_Metal_State_Penalty>
-0

> <b_epik_Metal_Only>
0

> <s_lp_Force_Field>
OPLS_2005

> <r_lp_Energy>
-4.35298

> <b_lp_Chiralities_Consistent>
1

> <s_lp_Variant>
AV-unprocessed.smi:971-1

> <Gold.Version>
5.8.1

> <Gold.Id.Protein>
6NUR|6NUR_protein|mol2

> <Gold.PLP.Fitness>
46.2662

> <Gold.PLP.PLP>
-40.6524

> <Gold.PLP.part.hbond>
-2.0000

> <Gold.PLP.part.metal>
0.0000

> <Gold.PLP.part.buried>
-4.7032

> <Gold.PLP.part.nonpolar>
-33.7674

> <Gold.PLP.part.repulsive>
0.1660

> <Gold.PLP.ligand.clash>
0.0000

> <Gold.PLP.ligand.torsion>
0.2495

> <Gold.PLP.Chemscore.Hbond>
2.0000

> <Gold.PLP.Chemscore.CHOScore>
0.0000

> <Gold.PLP.Chemscore.Metal>
0.0000

> <Gold.Chemscore.Hbonds>
donor molecule, donor type, donor heavy atom, donor atom, acceptor molecule, acceptor atom, score
      L1  H     8    26       P1  8028  0.99
      P1  H  7989  7998       L1    10  1.00

> <Gold.PLP.Chemscore.Internal.Correction>
0.1127

> <Gold.Rescore>
     Score         DG    S(hbond)    S(metal)    S(lipo)     H(rot)  DE(clash)    DE(int)     intcor
     19.83     -20.19       1.67        0.00     111.86       1.54       0.13       0.23       ----

> <Gold.Chemscore.Fitness>
19.8306

> <Gold.Chemscore.DG>
-20.1882

> <Gold.Chemscore.ZeroCoef>
-5.4800

> <Gold.Chemscore.Hbond>
1.6689

> <Gold.Chemscore.Metal>
0.0000

> <Gold.Chemscore.Lipo>
111.8551

> <Gold.Chemscore.Internal_Hbond>
0.0000

> <Gold.Chemscore.DEClash>
0.1263

> <Gold.Chemscore.DEInternal>
0.2312

> <Gold.Chemscore.Rot>
1.5441

> <Gold.Chemscore.Internal.Correction>
   9.000000E+99

> <Gold.Chemscore.Hbonds>
donor molecule, donor type, donor heavy atom, donor atom, acceptor molecule, acceptor atom, score
      L1  H     8    26       P1  8028  0.94
      P1  H  7989  7998       L1    10  0.38

> <Gold.Chemscore.Hbond.Weighted>
-5.5741

> <Gold.Chemscore.Metal.Weighted>
-0.0000

> <Gold.Chemscore.Lipo.Weighted>
-13.0870

> <Gold.Chemscore.Internal_Hbond.Weighted>
0.0000

> <Gold.Chemscore.DEClash.Weighted>
0.1263

> <Gold.Chemscore.DEInternal.Weighted>
0.2312

> <Gold.Chemscore.Rot.Weighted>
3.9529

> <Gold.Chemscore.Internal.Correction.Weighted>
   9.000000E+99

> <Gold.Protein.RotatedTorsions>
[ 6907 6896 6895 6894 ] final  162.03 input  -60.11 | X-H torsion
[ 7974 7965 7964 7962 ] final  -86.72 input  175.53 | X-H torsion
[ 8008 7997 7996 7995 ] final  -91.98 input   59.86 | X-H torsion
[ 10167 10162 10161 10158 ] final -104.18 input  -65.29 | X-H torsion
[ 10718 10713 10712 10709 ] final  -55.01 input   66.30 | X-H torsion
[ 10763 10752 10751 10750 ] final   92.97 input  -60.55 | X-H torsion
[ 11005 11000 10999 10996 ] final  -75.19 input  -57.11 | X-H torsion

> <Gold.Protein.ActiveResidues>
 VAL166  LYS551  ARG553  GLY616  TRP617  ASP618  TYR619  PRO620  LYS621  CYS622 
 ASP623  PHE694  ASN695  SER759  ASP760  ASP761  ALA762  ILE779  LEU786  VAL792 
 PHE793  MET794  SER795  GLU796  ALA797  LYS798  CYS799  TRP800  GLU811  SER814 

> <Gold.Protein.RotatedAtoms>
  151.9466  133.3653  159.3984 H   0  0  0  0  0  0  0  0  0  0  0  0  # atno 6907 bound_to 6896
  150.6988  134.4384  159.5290 H   0  0  0  0  0  0  0  0  0  0  0  0  # atno 6908 bound_to 6896
  152.2050  134.8553  160.0554 H   0  0  0  0  0  0  0  0  0  0  0  0  # atno 6909 bound_to 6896
  145.4761  140.9558  143.1890 H   0  0  0  0  0  0  0  0  0  0  0  0  # atno 7974 bound_to 7965
  154.7174  140.0514  157.0607 H   0  0  0  0  0  0  0  0  0  0  0  0  # atno 8008 bound_to 7997
  155.0473  140.3175  155.4685 H   0  0  0  0  0  0  0  0  0  0  0  0  # atno 8009 bound_to 7997
  156.2807  140.2122  156.5598 H   0  0  0  0  0  0  0  0  0  0  0  0  # atno 8010 bound_to 7997
  140.2121  143.3739  152.1042 H   0  0  0  0  0  0  0  0  0  0  0  0  # atno 10167 bound_to 10162
  156.1403  130.4155  150.0114 H   0  0  0  0  0  0  0  0  0  0  0  0  # atno 10718 bound_to 10713
  153.2250  135.4342  155.0532 H   0  0  0  0  0  0  0  0  0  0  0  0  # atno 10763 bound_to 10752
  154.8269  135.3365  154.6871 H   0  0  0  0  0  0  0  0  0  0  0  0  # atno 10764 bound_to 10752
  153.7300  135.7011  153.5047 H   0  0  0  0  0  0  0  0  0  0  0  0  # atno 10765 bound_to 10752
  141.1643  133.6938  156.7480 H   0  0  0  0  0  0  0  0  0  0  0  0  # atno 11005 bound_to 11000
  144.7917  139.6316  143.7110 LP  0  0  0  0  0  0  0  0  0  0  0  0  # atno 17320 bound_to 7965
  146.2369  139.5922  142.9518 LP  0  0  0  0  0  0  0  0  0  0  0  0  # atno 17321 bound_to 7965
  139.5176  144.6994  151.5537 LP  0  0  0  0  0  0  0  0  0  0  0  0  # atno 17342 bound_to 10162
  140.6316  143.9065  150.6610 LP  0  0  0  0  0  0  0  0  0  0  0  0  # atno 17343 bound_to 10162
  156.8002  130.9287  151.3646 LP  0  0  0  0  0  0  0  0  0  0  0  0  # atno 17370 bound_to 10713
  157.6570  130.8933  149.9749 LP  0  0  0  0  0  0  0  0  0  0  0  0  # atno 17371 bound_to 10713
  140.2625  134.8455  157.3772 LP  0  0  0  0  0  0  0  0  0  0  0  0  # atno 17394 bound_to 11000
  140.1597  134.4744  155.7903 LP  0  0  0  0  0  0  0  0  0  0  0  0  # atno 17395 bound_to 11000

$$$$
