AV-unprocessed.smi:3165|AV-procd|sdf|12091|dock5
  -GOLD-   2272017523D 1   1.00000     0.00000
 Structure written by MMmdl.
 37 38  0  0  0  0  0  0  0  0  1 V2000
  149.3100  141.5169  155.5478 C   0  0  0  0  0  0  0  0  0  0  0  0
  150.7447  141.7700  156.0423 C   0  0  2  0  0  0  0  0  0  0  0  0
  151.3176  140.5862  156.8595 C   0  0  0  0  0  0  0  0  0  0  0  0
  150.9902  139.2904  156.2910 N   0  0  0  0  0  0  0  0  0  0  0  0
  150.6115  138.1390  156.9491 C   0  0  0  0  0  0  0  0  0  0  0  0
  150.4011  137.1790  156.0010 C   0  0  0  0  0  0  0  0  0  0  0  0
  150.6761  137.8486  154.7758 C   0  0  0  0  0  0  0  0  0  0  0  0
  151.0264  139.1122  154.9523 N   0  0  0  0  0  0  0  0  0  0  0  0
  150.7718  143.0214  156.8053 N   0  0  0  0  0  0  0  0  0  0  0  0
  152.0911  143.6283  156.9762 C   0  0  0  0  0  0  0  0  0  0  0  0
  152.3985  143.8606  158.4623 C   0  0  1  0  0  0  0  0  0  0  0  0
  151.4987  144.9580  159.0630 C   0  0  0  0  0  0  0  0  0  0  0  0
  151.7614  145.1091  160.5657 C   0  0  0  0  0  0  0  0  0  0  0  0
  151.6281  143.7460  161.2526 C   0  0  0  0  0  0  0  0  0  0  0  0
  152.5046  142.7024  160.5424 C   0  0  0  0  0  0  0  0  0  0  0  0
  152.1607  142.6400  159.1616 O   0  0  0  0  0  0  0  0  0  0  0  0
  149.2605  140.6641  154.8706 H   0  0  0  0  0  0  0  0  0  0  0  0
  148.9259  142.3795  155.0024 H   0  0  0  0  0  0  0  0  0  0  0  0
  148.6333  141.3215  156.3805 H   0  0  0  0  0  0  0  0  0  0  0  0
  151.3663  141.8940  155.1545 H   0  0  0  0  0  0  0  0  0  0  0  0
  152.4044  140.6459  156.9194 H   0  0  0  0  0  0  0  0  0  0  0  0
  150.9470  140.6241  157.8854 H   0  0  0  0  0  0  0  0  0  0  0  0
  150.5261  138.1002  158.0252 H   0  0  0  0  0  0  0  0  0  0  0  0
  150.0955  136.1553  156.1577 H   0  0  0  0  0  0  0  0  0  0  0  0
  150.6298  137.4575  153.7701 H   0  0  0  0  0  0  0  0  0  0  0  0
  150.1468  143.6952  156.3739 H   0  0  0  0  0  0  0  0  0  0  0  0
  152.8554  142.9730  156.5593 H   0  0  0  0  0  0  0  0  0  0  0  0
  152.1533  144.5720  156.4330 H   0  0  0  0  0  0  0  0  0  0  0  0
  153.4449  144.1523  158.5738 H   0  0  0  0  0  0  0  0  0  0  0  0
  151.6724  145.9090  158.5584 H   0  0  0  0  0  0  0  0  0  0  0  0
  150.4503  144.7046  158.8995 H   0  0  0  0  0  0  0  0  0  0  0  0
  152.7655  145.5047  160.7249 H   0  0  0  0  0  0  0  0  0  0  0  0
  151.0676  145.8268  161.0039 H   0  0  0  0  0  0  0  0  0  0  0  0
  151.9076  143.8235  162.3037 H   0  0  0  0  0  0  0  0  0  0  0  0
  150.5864  143.4233  161.2276 H   0  0  0  0  0  0  0  0  0  0  0  0
  153.5634  142.9411  160.6547 H   0  0  0  0  0  0  0  0  0  0  0  0
  152.3517  141.7196  160.9880 H   0  0  0  0  0  0  0  0  0  0  0  0
  1  2  1  0  0  0  0
  1 17  1  0  0  0  0
  1 18  1  0  0  0  0
  1 19  1  0  0  0  0
  2  3  1  0  0  0  0
  2  9  1  0  0  0  0
  2 20  1  0  0  0  0
  3  4  1  0  0  0  0
  3 21  1  0  0  0  0
  3 22  1  0  0  0  0
  4  8  1  0  0  0  0
  4  5  1  0  0  0  0
  5  6  2  0  0  0  0
  5 23  1  0  0  0  0
  6  7  1  0  0  0  0
  6 24  1  0  0  0  0
  7  8  2  0  0  0  0
  7 25  1  0  0  0  0
  9 10  1  0  0  0  0
  9 26  1  0  0  0  0
 10 11  1  0  0  0  0
 10 27  1  0  0  0  0
 10 28  1  0  0  0  0
 11 16  1  0  0  0  0
 11 12  1  0  0  0  0
 11 29  1  0  0  0  0
 12 13  1  0  0  0  0
 12 30  1  0  0  0  0
 12 31  1  0  0  0  0
 13 14  1  0  0  0  0
 13 32  1  0  0  0  0
 13 33  1  0  0  0  0
 14 15  1  0  0  0  0
 14 34  1  0  0  0  0
 14 35  1  0  0  0  0
 15 16  1  0  0  0  0
 15 36  1  0  0  0  0
 15 37  1  0  0  0  0
M  END
> <s_m_source_file>
AV-unprocessed.smi

> <i_m_source_file_index>
3165

> <i_lp_mmshare_version>
43012

> <i_f3d_flags>
0

> <s_epik_input>
bjFbY0hdW2NIXVtjSF1uMVtDSDJdW0NAQEhdKFtDSDNdKVtOSF1bQ0gyXVtDQEBIXTJbQ0gyXVtDSDJdW0NIMl1bQ0gyXU8y

> <s_epik_cmdline>
J2VwaWtfcHl0aG9uJywgJy1waCcsICc3LjAnLCAnLXRuJywgJzgnLCAnLW1hJywgJzIwMCcsICctbWV0YWxfYmluZGluZycsICctaW1hZScsICc8aW5maWxlLm1hZT4nLCAnLW9tYWUnLCAnPG91dGZpbGUubWFlPic=

> <r_lp_tautomer_probability>
1

> <r_epik_Ionization_Penalty>
2.51982

> <r_epik_Ionization_Penalty_Charging>
0

> <r_epik_Ionization_Penalty_Neutral>
2.51982

> <r_epik_State_Penalty>
2.68614

> <r_epik_Charging_Adjusted_Penalty>
2.68614

> <i_epik_Tot_Q>
0

> <i_epik_Tot_abs_Q>
0

> <r_epik_Metal_State_Penalty>
2.6861

> <b_epik_Metal_Only>
0

> <s_lp_Force_Field>
OPLS_2005

> <r_lp_Energy>
13.227

> <b_lp_Chiralities_Consistent>
1

> <s_lp_Variant>
AV-unprocessed.smi:3165-7

> <Gold.Version>
5.8.1

> <Gold.Id.Protein>
6NUR|6NUR_protein|mol2

> <Gold.PLP.Fitness>
47.1602

> <Gold.PLP.PLP>
-39.8276

> <Gold.PLP.part.hbond>
-2.0000

> <Gold.PLP.part.metal>
0.0000

> <Gold.PLP.part.buried>
-5.6461

> <Gold.PLP.part.nonpolar>
-31.4166

> <Gold.PLP.part.repulsive>
0.1235

> <Gold.PLP.ligand.clash>
0.0000

> <Gold.PLP.ligand.torsion>
0.9512

> <Gold.PLP.Chemscore.Hbond>
2.0000

> <Gold.PLP.Chemscore.CHOScore>
1.0663

> <Gold.PLP.Chemscore.Metal>
0.0000

> <Gold.Chemscore.Hbonds>
donor molecule, donor type, donor heavy atom, donor atom, acceptor molecule, acceptor atom, score
      L1  H     9    26       P1  8028  1.00
      P1  H  7989  7998       L1     8  0.18
      L1  C     7    25       P1  7948  0.29
      L1  C     7    25       P1  7949  0.30

> <Gold.PLP.Chemscore.Internal.Correction>
0.0360

> <Gold.Rescore>
     Score         DG    S(hbond)    S(metal)    S(lipo)     H(rot)  DE(clash)    DE(int)     intcor
     18.90     -20.30       1.78        0.00     110.13       1.57       0.38       1.02       ----

> <Gold.Chemscore.Fitness>
18.8981

> <Gold.Chemscore.DG>
-20.2968

> <Gold.Chemscore.ZeroCoef>
-5.4800

> <Gold.Chemscore.Hbond>
1.7840

> <Gold.Chemscore.Metal>
0.0000

> <Gold.Chemscore.Lipo>
110.1310

> <Gold.Chemscore.Internal_Hbond>
0.0000

> <Gold.Chemscore.DEClash>
0.3834

> <Gold.Chemscore.DEInternal>
1.0153

> <Gold.Chemscore.Rot>
1.5731

> <Gold.Chemscore.Internal.Correction>
   9.000000E+99

> <Gold.Chemscore.Hbonds>
donor molecule, donor type, donor heavy atom, donor atom, acceptor molecule, acceptor atom, score
      L1  H     9    26       P1  8028  1.00
      P1  H  7989  7998       L1     8  0.19

> <Gold.Chemscore.Hbond.Weighted>
-5.9587

> <Gold.Chemscore.Metal.Weighted>
-0.0000

> <Gold.Chemscore.Lipo.Weighted>
-12.8853

> <Gold.Chemscore.Internal_Hbond.Weighted>
0.0000

> <Gold.Chemscore.DEClash.Weighted>
0.3834

> <Gold.Chemscore.DEInternal.Weighted>
1.0153

> <Gold.Chemscore.Rot.Weighted>
4.0273

> <Gold.Chemscore.Internal.Correction.Weighted>
   9.000000E+99

> <Gold.Protein.RotatedTorsions>
[ 6907 6896 6895 6894 ] final -143.14 input  -60.11 | X-H torsion
[ 7974 7965 7964 7962 ] final   -2.38 input  175.53 | X-H torsion
[ 8008 7997 7996 7995 ] final -124.05 input   59.86 | X-H torsion
[ 10167 10162 10161 10158 ] final -109.73 input  -65.29 | X-H torsion
[ 10718 10713 10712 10709 ] final -147.28 input   66.30 | X-H torsion
[ 10763 10752 10751 10750 ] final  145.28 input  -60.55 | X-H torsion
[ 11005 11000 10999 10996 ] final  124.80 input  -57.11 | X-H torsion

> <Gold.Protein.ActiveResidues>
 VAL166  LYS551  ARG553  GLY616  TRP617  ASP618  TYR619  PRO620  LYS621  CYS622 
 ASP623  PHE694  ASN695  SER759  ASP760  ASP761  ALA762  ILE779  LEU786  VAL792 
 PHE793  MET794  SER795  GLU796  ALA797  LYS798  CYS799  TRP800  GLU811  SER814 

> <Gold.Protein.RotatedAtoms>
  151.0965  133.5276  159.2611 H   0  0  0  0  0  0  0  0  0  0  0  0  # atno 6907 bound_to 6896
  151.2123  135.0485  159.8926 H   0  0  0  0  0  0  0  0  0  0  0  0  # atno 6908 bound_to 6896
  152.5439  134.0779  159.8276 H   0  0  0  0  0  0  0  0  0  0  0  0  # atno 6909 bound_to 6896
  146.2405  140.1562  142.8333 H   0  0  0  0  0  0  0  0  0  0  0  0  # atno 7974 bound_to 7965
  155.1906  140.0413  157.2899 H   0  0  0  0  0  0  0  0  0  0  0  0  # atno 8008 bound_to 7997
  154.6141  140.2484  155.7603 H   0  0  0  0  0  0  0  0  0  0  0  0  # atno 8009 bound_to 7997
  156.2396  140.2908  156.0418 H   0  0  0  0  0  0  0  0  0  0  0  0  # atno 8010 bound_to 7997
  140.1521  143.4190  152.1487 H   0  0  0  0  0  0  0  0  0  0  0  0  # atno 10167 bound_to 10162
  156.4056  130.7956  151.2169 H   0  0  0  0  0  0  0  0  0  0  0  0  # atno 10718 bound_to 10713
  154.0028  135.2921  155.3401 H   0  0  0  0  0  0  0  0  0  0  0  0  # atno 10763 bound_to 10752
  154.7149  135.5134  153.8726 H   0  0  0  0  0  0  0  0  0  0  0  0  # atno 10764 bound_to 10752
  153.0758  135.6663  154.0268 H   0  0  0  0  0  0  0  0  0  0  0  0  # atno 10765 bound_to 10752
  139.9376  134.9638  156.8463 H   0  0  0  0  0  0  0  0  0  0  0  0  # atno 11005 bound_to 11000
  145.0127  140.8728  143.5214 LP  0  0  0  0  0  0  0  0  0  0  0  0  # atno 17320 bound_to 7965
  145.1598  139.2465  143.5397 LP  0  0  0  0  0  0  0  0  0  0  0  0  # atno 17321 bound_to 7965
  139.5421  144.7265  151.4701 LP  0  0  0  0  0  0  0  0  0  0  0  0  # atno 17342 bound_to 10162
  140.6696  143.8323  150.6983 LP  0  0  0  0  0  0  0  0  0  0  0  0  # atno 17343 bound_to 10162
  157.7505  131.0273  150.4001 LP  0  0  0  0  0  0  0  0  0  0  0  0  # atno 17370 bound_to 10713
  156.4289  130.3968  149.6774 LP  0  0  0  0  0  0  0  0  0  0  0  0  # atno 17371 bound_to 10713
  140.6035  134.0149  155.7547 LP  0  0  0  0  0  0  0  0  0  0  0  0  # atno 17394 bound_to 11000
  141.0996  133.9788  157.3101 LP  0  0  0  0  0  0  0  0  0  0  0  0  # atno 17395 bound_to 11000

$$$$
