AV-unprocessed.smi:203|AV-procd|sdf|1585|dock5
  -GOLD-   2262019473D 1   1.00000     0.00000
 Structure written by MMmdl.
 57 61  0  0  0  0  0  0  0  0  1 V2000
  148.5082  143.6216  160.1390 O   0  0  0  0  0  0  0  0  0  0  0  0
  149.3838  143.5443  159.2804 C   0  0  0  0  0  0  0  0  0  0  0  0
  149.7678  142.2476  158.5888 C   0  0  0  0  0  0  0  0  0  0  0  0
  151.0357  142.6215  157.7941 C   0  0  2  0  0  0  0  0  0  0  0  0
  152.3505  141.9612  158.3202 C   0  0  1  0  0  0  0  0  0  0  0  0
  152.8780  142.6222  159.6209 C   0  0  0  0  0  0  0  0  0  0  0  0
  154.1747  141.9613  160.1070 C   0  0  0  0  0  0  0  0  0  0  0  0
  153.9563  140.4555  160.2899 C   0  0  0  0  0  0  0  0  0  0  0  0
  153.4367  139.8282  158.9895 C   0  0  0  0  0  0  0  0  0  0  0  0
  152.2292  140.5051  158.5180 N   0  0  0  0  0  0  0  0  0  0  0  0
  151.6610  139.8068  157.5101 C   0  0  0  0  0  0  0  0  0  0  0  0
  152.2101  139.9401  156.2779 N   0  0  0  0  0  0  0  0  0  0  0  0
  151.7147  139.2459  155.2490 C   0  0  0  0  0  0  0  0  0  0  0  0
  150.7004  138.3780  155.2382 N   0  0  0  0  0  0  0  0  0  0  0  0
  150.1423  138.2509  156.4762 C   0  0  0  0  0  0  0  0  0  0  0  0
  150.5470  138.9337  157.6566 C   0  0  0  0  0  0  0  0  0  0  0  0
  149.7364  138.5627  158.7227 N   0  0  0  0  0  0  0  0  0  0  0  0
  148.9122  137.6931  158.2063 C   0  0  0  0  0  0  0  0  0  0  0  0
  149.1046  137.4246  156.8696 N   0  0  0  0  0  0  0  0  0  0  0  0
  148.3607  136.4788  156.0569 C   0  0  0  0  0  0  0  0  0  0  0  0
  149.2167  135.2899  155.5585 C   0  0  2  0  0  0  0  0  0  0  0  0
  149.9874  135.7222  154.4563 O   0  0  0  0  0  0  0  0  0  0  0  0
  148.4663  133.9941  155.1645 C   0  0  2  0  0  0  0  0  0  0  0  0
  149.3160  132.8443  154.6183 C   0  0  0  0  0  0  0  0  0  0  0  0
  148.2766  132.0344  153.8755 C   0  0  0  0  0  0  0  0  0  0  0  0
  147.3838  133.1230  153.2842 C   0  0  0  0  0  0  0  0  0  0  0  0
  147.4639  134.2303  154.1784 O   0  0  0  0  0  0  0  0  0  0  0  0
  151.0777  144.1645  157.8115 C   0  0  0  0  0  0  0  0  0  0  0  0
  150.1185  144.5569  158.8252 N   0  0  0  0  0  0  0  0  0  0  0  0
  149.9281  141.4442  159.3079 H   0  0  0  0  0  0  0  0  0  0  0  0
  148.9612  141.9453  157.9200 H   0  0  0  0  0  0  0  0  0  0  0  0
  150.8838  142.3334  156.7538 H   0  0  0  0  0  0  0  0  0  0  0  0
  153.1156  142.1140  157.5586 H   0  0  0  0  0  0  0  0  0  0  0  0
  153.0600  143.6858  159.4715 H   0  0  0  0  0  0  0  0  0  0  0  0
  152.1319  142.5497  160.4123 H   0  0  0  0  0  0  0  0  0  0  0  0
  154.9727  142.1348  159.3840 H   0  0  0  0  0  0  0  0  0  0  0  0
  154.4978  142.4116  161.0460 H   0  0  0  0  0  0  0  0  0  0  0  0
  154.8868  139.9744  160.5921 H   0  0  0  0  0  0  0  0  0  0  0  0
  153.2393  140.2817  161.0933 H   0  0  0  0  0  0  0  0  0  0  0  0
  154.2072  139.8857  158.2193 H   0  0  0  0  0  0  0  0  0  0  0  0
  153.2310  138.7692  159.1542 H   0  0  0  0  0  0  0  0  0  0  0  0
  152.2070  139.4012  154.3004 H   0  0  0  0  0  0  0  0  0  0  0  0
  148.1504  137.2053  158.7969 H   0  0  0  0  0  0  0  0  0  0  0  0
  147.5122  136.1183  156.6399 H   0  0  0  0  0  0  0  0  0  0  0  0
  147.9406  137.0194  155.2077 H   0  0  0  0  0  0  0  0  0  0  0  0
  149.9298  135.0296  156.3412 H   0  0  0  0  0  0  0  0  0  0  0  0
  150.8028  136.0740  154.7791 H   0  0  0  0  0  0  0  0  0  0  0  0
  147.9263  133.6272  156.0395 H   0  0  0  0  0  0  0  0  0  0  0  0
  150.0718  133.1971  153.9179 H   0  0  0  0  0  0  0  0  0  0  0  0
  149.8175  132.2774  155.4032 H   0  0  0  0  0  0  0  0  0  0  0  0
  148.7050  131.3771  153.1182 H   0  0  0  0  0  0  0  0  0  0  0  0
  147.7078  131.4229  154.5773 H   0  0  0  0  0  0  0  0  0  0  0  0
  147.7607  133.4363  152.3104 H   0  0  0  0  0  0  0  0  0  0  0  0
  146.3537  132.7900  153.1544 H   0  0  0  0  0  0  0  0  0  0  0  0
  152.0681  144.5673  158.0239 H   0  0  0  0  0  0  0  0  0  0  0  0
  150.7575  144.5723  156.8518 H   0  0  0  0  0  0  0  0  0  0  0  0
  150.0275  145.5096  159.1476 H   0  0  0  0  0  0  0  0  0  0  0  0
  1  2  2  0  0  0  0
  2 29  1  0  0  0  0
  2  3  1  0  0  0  0
  3  4  1  0  0  0  0
  3 30  1  0  0  0  0
  3 31  1  0  0  0  0
  4  5  1  0  0  0  0
  4 28  1  0  0  0  0
  4 32  1  0  0  0  0
  5 10  1  0  0  0  0
  5  6  1  0  0  0  0
  5 33  1  0  0  0  0
  6  7  1  0  0  0  0
  6 34  1  0  0  0  0
  6 35  1  0  0  0  0
  7  8  1  0  0  0  0
  7 36  1  0  0  0  0
  7 37  1  0  0  0  0
  8  9  1  0  0  0  0
  8 38  1  0  0  0  0
  8 39  1  0  0  0  0
  9 10  1  0  0  0  0
  9 40  1  0  0  0  0
  9 41  1  0  0  0  0
 10 11  1  0  0  0  0
 11 16  1  0  0  0  0
 11 12  2  0  0  0  0
 12 13  1  0  0  0  0
 13 14  2  0  0  0  0
 13 42  1  0  0  0  0
 14 15  1  0  0  0  0
 15 19  1  0  0  0  0
 15 16  2  0  0  0  0
 16 17  1  0  0  0  0
 17 18  2  0  0  0  0
 18 19  1  0  0  0  0
 18 43  1  0  0  0  0
 19 20  1  0  0  0  0
 20 21  1  0  0  0  0
 20 44  1  0  0  0  0
 20 45  1  0  0  0  0
 21 22  1  0  0  0  0
 21 23  1  0  0  0  0
 21 46  1  0  0  0  0
 22 47  1  0  0  0  0
 23 27  1  0  0  0  0
 23 24  1  0  0  0  0
 23 48  1  0  0  0  0
 24 25  1  0  0  0  0
 24 49  1  0  0  0  0
 24 50  1  0  0  0  0
 25 26  1  0  0  0  0
 25 51  1  0  0  0  0
 25 52  1  0  0  0  0
 26 27  1  0  0  0  0
 26 53  1  0  0  0  0
 26 54  1  0  0  0  0
 28 29  1  0  0  0  0
 28 55  1  0  0  0  0
 28 56  1  0  0  0  0
 29 57  1  0  0  0  0
M  END
> <s_m_source_file>
AV-unprocessed.smi

> <i_m_source_file_index>
203

> <i_lp_mmshare_version>
43012

> <i_f3d_flags>
0

> <s_epik_input>
Tz1DMVtDSDJdW0NASF0oW0NIMl1bTkhdMSlbQ0BASF0yW0NIMl1bQ0gyXVtDSDJdW0NIMl1OMmMobltjSF1uMyljKGMzNCluW2NIXW40W0NIMl1bQ0BIXShbT0hdKVtDQEBIXTVbQ0gyXVtDSDJdW0NIMl1PNQ==

> <s_epik_cmdline>
J2VwaWtfcHl0aG9uJywgJy1waCcsICc3LjAnLCAnLXRuJywgJzgnLCAnLW1hJywgJzIwMCcsICctbWV0YWxfYmluZGluZycsICctaW1hZScsICc8aW5maWxlLm1hZT4nLCAnLW9tYWUnLCAnPG91dGZpbGUubWFlPic=

> <r_lp_tautomer_probability>
1

> <r_epik_Ionization_Penalty>
0.00175146

> <r_epik_Ionization_Penalty_Charging>
0

> <r_epik_Ionization_Penalty_Neutral>
0.00175146

> <r_epik_State_Penalty>
0.00109045

> <r_epik_Charging_Adjusted_Penalty>
0.00109045

> <i_epik_Tot_Q>
0

> <i_epik_Tot_abs_Q>
0

> <r_epik_Metal_State_Penalty>
-0

> <b_epik_Metal_Only>
0

> <s_lp_Force_Field>
OPLS_2005

> <r_lp_Energy>
55.4262

> <b_lp_Chiralities_Consistent>
1

> <s_lp_Variant>
AV-unprocessed.smi:203-4

> <Gold.Version>
5.8.1

> <Gold.Id.Protein>
6NUR|6NUR_protein|mol2

> <Gold.PLP.Fitness>
48.4498

> <Gold.PLP.PLP>
-44.8644

> <Gold.PLP.part.hbond>
-5.4325

> <Gold.PLP.part.metal>
0.0000

> <Gold.PLP.part.buried>
-6.7224

> <Gold.PLP.part.nonpolar>
-35.5354

> <Gold.PLP.part.repulsive>
1.6230

> <Gold.PLP.ligand.clash>
0.0000

> <Gold.PLP.ligand.torsion>
0.7331

> <Gold.PLP.Chemscore.Hbond>
1.5990

> <Gold.PLP.Chemscore.CHOScore>
0.0000

> <Gold.PLP.Chemscore.Metal>
0.0000

> <Gold.Chemscore.Hbonds>
donor molecule, donor type, donor heavy atom, donor atom, acceptor molecule, acceptor atom, score
      P1  H  6933  6944       L1     1  0.80
      P1  H  7997  8010       L1    12  0.71

> <Gold.PLP.Chemscore.Internal.Correction>
0.2544

> <Gold.Rescore>
     Score         DG    S(hbond)    S(metal)    S(lipo)     H(rot)  DE(clash)    DE(int)     intcor
     13.01     -14.49       1.58        0.00      91.35       2.72       0.01       1.46       ----

> <Gold.Chemscore.Fitness>
13.0134

> <Gold.Chemscore.DG>
-14.4854

> <Gold.Chemscore.ZeroCoef>
-5.4800

> <Gold.Chemscore.Hbond>
1.5787

> <Gold.Chemscore.Metal>
0.0000

> <Gold.Chemscore.Lipo>
91.3539

> <Gold.Chemscore.Internal_Hbond>
0.0000

> <Gold.Chemscore.DEClash>
0.0095

> <Gold.Chemscore.DEInternal>
1.4626

> <Gold.Chemscore.Rot>
2.7171

> <Gold.Chemscore.Internal.Correction>
   9.000000E+99

> <Gold.Chemscore.Hbonds>
donor molecule, donor type, donor heavy atom, donor atom, acceptor molecule, acceptor atom, score
      P1  H  6933  6944       L1     1  0.74
      P1  H  7997  8010       L1    12  0.48

> <Gold.Chemscore.Hbond.Weighted>
-5.2727

> <Gold.Chemscore.Metal.Weighted>
-0.0000

> <Gold.Chemscore.Lipo.Weighted>
-10.6884

> <Gold.Chemscore.Internal_Hbond.Weighted>
0.0000

> <Gold.Chemscore.DEClash.Weighted>
0.0095

> <Gold.Chemscore.DEInternal.Weighted>
1.4626

> <Gold.Chemscore.Rot.Weighted>
6.9557

> <Gold.Chemscore.Internal.Correction.Weighted>
   9.000000E+99

> <Gold.Protein.RotatedTorsions>
[ 6907 6896 6895 6894 ] final  -69.42 input  -60.11 | X-H torsion
[ 7974 7965 7964 7962 ] final   33.42 input  175.53 | X-H torsion
[ 8008 7997 7996 7995 ] final   69.21 input   59.86 | X-H torsion
[ 10167 10162 10161 10158 ] final -146.09 input  -65.29 | X-H torsion
[ 10718 10713 10712 10709 ] final  -65.48 input   66.30 | X-H torsion
[ 10763 10752 10751 10750 ] final   86.47 input  -60.55 | X-H torsion
[ 11005 11000 10999 10996 ] final  166.02 input  -57.11 | X-H torsion

> <Gold.Protein.ActiveResidues>
 VAL166  LYS551  ARG553  GLY616  TRP617  ASP618  TYR619  PRO620  LYS621  CYS622 
 ASP623  PHE694  ASN695  SER759  ASP760  ASP761  ALA762  ILE779  LEU786  VAL792 
 PHE793  MET794  SER795  GLU796  ALA797  LYS798  CYS799  TRP800  GLU811  SER814 

> <Gold.Protein.RotatedAtoms>
  150.7306  134.5599  159.5836 H   0  0  0  0  0  0  0  0  0  0  0  0  # atno 6907 bound_to 6896
  152.3065  134.7546  160.0355 H   0  0  0  0  0  0  0  0  0  0  0  0  # atno 6908 bound_to 6896
  151.8108  133.3346  159.3591 H   0  0  0  0  0  0  0  0  0  0  0  0  # atno 6909 bound_to 6896
  146.1422  139.6399  142.9155 H   0  0  0  0  0  0  0  0  0  0  0  0  # atno 7974 bound_to 7965
  155.7201  140.3493  155.5012 H   0  0  0  0  0  0  0  0  0  0  0  0  # atno 8008 bound_to 7997
  155.9277  140.1078  157.1179 H   0  0  0  0  0  0  0  0  0  0  0  0  # atno 8009 bound_to 7997
  154.4080  140.1237  156.4749 H   0  0  0  0  0  0  0  0  0  0  0  0  # atno 8010 bound_to 7997
  139.7746  143.8189  152.2630 H   0  0  0  0  0  0  0  0  0  0  0  0  # atno 10167 bound_to 10162
  156.0667  130.4248  150.1571 H   0  0  0  0  0  0  0  0  0  0  0  0  # atno 10718 bound_to 10713
  153.1574  135.4579  154.9723 H   0  0  0  0  0  0  0  0  0  0  0  0  # atno 10763 bound_to 10752
  154.7871  135.3208  154.7863 H   0  0  0  0  0  0  0  0  0  0  0  0  # atno 10764 bound_to 10752
  153.8358  135.6934  153.4863 H   0  0  0  0  0  0  0  0  0  0  0  0  # atno 10765 bound_to 10752
  140.2621  134.7894  157.3599 H   0  0  0  0  0  0  0  0  0  0  0  0  # atno 11005 bound_to 11000
  145.5021  141.0437  143.2535 LP  0  0  0  0  0  0  0  0  0  0  0  0  # atno 17320 bound_to 7965
  144.7805  139.6536  143.7156 LP  0  0  0  0  0  0  0  0  0  0  0  0  # atno 17321 bound_to 7965
  139.8233  144.7286  150.9544 LP  0  0  0  0  0  0  0  0  0  0  0  0  # atno 17342 bound_to 10162
  140.7816  143.4138  151.0950 LP  0  0  0  0  0  0  0  0  0  0  0  0  # atno 17343 bound_to 10162
  156.9629  130.9810  151.3475 LP  0  0  0  0  0  0  0  0  0  0  0  0  # atno 17370 bound_to 10713
  157.5713  130.8312  149.8395 LP  0  0  0  0  0  0  0  0  0  0  0  0  # atno 17371 bound_to 10713
  140.1454  134.4918  155.8000 LP  0  0  0  0  0  0  0  0  0  0  0  0  # atno 17394 bound_to 11000
  141.2189  133.6841  156.7285 LP  0  0  0  0  0  0  0  0  0  0  0  0  # atno 17395 bound_to 11000

$$$$
