AV-unprocessed.smi:73|AV-procd|sdf|760|dock10
  -GOLD-   2262017103D 1   1.00000     0.00000
 Structure written by MMmdl.
 35 36  0  0  0  0  0  0  0  0  2 V2000
  148.9855  141.3562  154.2904 C   0  0  0  0  0  0  0  0  0  0  0  0
  150.0813  141.0812  155.3316 C   0  0  0  0  0  0  0  0  0  0  0  0
  150.9452  139.9069  155.0975 N   0  0  0  0  0  0  0  0  0  0  0  0
  152.2125  140.0173  155.8454 C   0  0  0  0  0  0  0  0  0  0  0  0
  152.0670  140.3869  157.2862 C   0  0  0  0  0  0  0  0  0  0  0  0
  150.9451  140.7284  157.9245 N   0  0  0  0  0  0  0  0  0  0  0  0
  151.3159  140.9731  159.2280 N   0  0  0  0  0  0  0  0  0  0  0  0
  152.6317  140.7522  159.2792 C   0  0  0  0  0  0  0  0  0  0  0  0
  153.5268  140.8754  160.4639 C   0  0  0  0  0  0  0  0  0  0  0  0
  153.1632  140.3723  158.0889 O   0  0  0  0  0  0  0  0  0  0  0  0
  150.2333  138.6611  155.4539 C   0  0  1  0  0  0  0  0  0  0  0  0
  148.9461  138.3731  154.6423 C   0  0  0  0  0  0  0  0  0  0  0  0
  148.8579  136.9170  154.4212 N   0  3  0  0  0  0  0  0  0  0  0  0
  149.9662  136.2752  155.1411 C   0  0  0  0  0  0  0  0  0  0  0  0
  151.0375  137.3548  155.2644 C   0  0  1  0  0  0  0  0  0  0  0  0
  151.7899  137.3690  154.0634 O   0  0  0  0  0  0  0  0  0  0  0  0
  151.7052  137.1478  156.1013 H   0  0  0  0  0  0  0  0  0  0  0  0
  148.2727  142.0853  154.6759 H   0  0  0  0  0  0  0  0  0  0  0  0
  148.4297  140.4495  154.0491 H   0  0  0  0  0  0  0  0  0  0  0  0
  149.3861  141.7726  153.3676 H   0  0  0  0  0  0  0  0  0  0  0  0
  150.6949  141.9747  155.4573 H   0  0  0  0  0  0  0  0  0  0  0  0
  149.5501  140.9619  156.2742 H   0  0  0  0  0  0  0  0  0  0  0  0
  152.7780  139.0874  155.7691 H   0  0  0  0  0  0  0  0  0  0  0  0
  152.8515  140.7873  155.4190 H   0  0  0  0  0  0  0  0  0  0  0  0
  152.9884  141.3183  161.3021 H   0  0  0  0  0  0  0  0  0  0  0  0
  154.3812  141.5083  160.2231 H   0  0  0  0  0  0  0  0  0  0  0  0
  153.8896  139.8912  160.7608 H   0  0  0  0  0  0  0  0  0  0  0  0
  149.9457  138.7103  156.5058 H   0  0  0  0  0  0  0  0  0  0  0  0
  148.0573  138.7335  155.1612 H   0  0  0  0  0  0  0  0  0  0  0  0
  148.9783  138.8493  153.6616 H   0  0  0  0  0  0  0  0  0  0  0  0
  147.9681  136.5504  154.7275 H   0  0  0  0  0  0  0  0  0  0  0  0
  149.6097  135.9945  156.1330 H   0  0  0  0  0  0  0  0  0  0  0  0
  150.3109  135.3696  154.6401 H   0  0  0  0  0  0  0  0  0  0  0  0
  151.2073  137.1869  153.3410 H   0  0  0  0  0  0  0  0  0  0  0  0
  148.9763  136.7432  153.4332 H   0  0  0  0  0  0  0  0  0  0  0  0
  1  2  1  0  0  0  0
  1 18  1  0  0  0  0
  1 19  1  0  0  0  0
  1 20  1  0  0  0  0
  2  3  1  0  0  0  0
  2 21  1  0  0  0  0
  2 22  1  0  0  0  0
  3  4  1  0  0  0  0
  3 11  1  0  0  0  0
  4  5  1  0  0  0  0
  4 23  1  0  0  0  0
  4 24  1  0  0  0  0
  5 10  1  0  0  0  0
  5  6  2  0  0  0  0
  6  7  1  0  0  0  0
  7  8  2  0  0  0  0
  8  9  1  0  0  0  0
  8 10  1  0  0  0  0
  9 25  1  0  0  0  0
  9 26  1  0  0  0  0
  9 27  1  0  0  0  0
 11 15  1  0  0  0  0
 11 12  1  0  0  0  0
 11 28  1  0  0  0  0
 12 13  1  0  0  0  0
 12 29  1  0  0  0  0
 12 30  1  0  0  0  0
 13 14  1  0  0  0  0
 13 31  1  0  0  0  0
 13 35  1  0  0  0  0
 14 15  1  0  0  0  0
 14 32  1  0  0  0  0
 14 33  1  0  0  0  0
 15 17  1  0  0  0  0
 15 16  1  0  0  0  0
 16 34  1  0  0  0  0
M  CHG  1  13   1
M  END
> <s_m_source_file>
AV-unprocessed.smi

> <i_m_source_file_index>
73

> <i_lp_mmshare_version>
43012

> <i_f3d_flags>
0

> <s_epik_input>
W09IXVtDQEBIXTFbQ0gyXVtOSF1bQ0gyXVtDQEhdMU4oW0NIMl1bQ0gzXSlbQ0gyXWMybm5jKG8yKVtDSDNd

> <s_epik_cmdline>
J2VwaWtfcHl0aG9uJywgJy1waCcsICc3LjAnLCAnLXRuJywgJzgnLCAnLW1hJywgJzIwMCcsICctbWV0YWxfYmluZGluZycsICctaW1hZScsICc8aW5maWxlLm1hZT4nLCAnLW9tYWUnLCAnPG91dGZpbGUubWFlPic=

> <r_lp_tautomer_probability>
1

> <r_epik_Ionization_Penalty>
0.00160433

> <r_epik_Ionization_Penalty_Charging>
0.000122314

> <r_epik_Ionization_Penalty_Neutral>
0.00148202

> <r_epik_State_Penalty>
-0

> <r_epik_Charging_Adjusted_Penalty>
0.000122314

> <i_epik_Tot_Q>
1

> <i_epik_Tot_abs_Q>
1

> <r_epik_Metal_State_Penalty>
-0

> <b_epik_Metal_Only>
0

> <s_lp_Force_Field>
OPLS_2005

> <r_lp_Energy>
44.8836

> <b_lp_Chiralities_Consistent>
1

> <s_lp_Variant>
AV-unprocessed.smi:73-2

> <Gold.Version>
5.8.1

> <Gold.Id.Protein>
6NUR|6NUR_protein|mol2

> <Gold.PLP.Fitness>
39.6493

> <Gold.PLP.PLP>
-25.7816

> <Gold.PLP.part.hbond>
-4.9299

> <Gold.PLP.part.metal>
0.0000

> <Gold.PLP.part.buried>
-1.9662

> <Gold.PLP.part.nonpolar>
-19.2825

> <Gold.PLP.part.repulsive>
0.0475

> <Gold.PLP.ligand.clash>
0.0000

> <Gold.PLP.ligand.torsion>
0.3074

> <Gold.PLP.Chemscore.Hbond>
4.8204

> <Gold.PLP.Chemscore.CHOScore>
0.0000

> <Gold.PLP.Chemscore.Metal>
0.0000

> <Gold.Chemscore.Hbonds>
donor molecule, donor type, donor heavy atom, donor atom, acceptor molecule, acceptor atom, score
      L1  H    13    35       P1  7948  2.00
      L1  H    16    34       P1  7949  0.45
      P1  H  7989  7998       L1     3  0.25
      P1  H  7997  8009       L1    10  0.86
      P1  H 10752 10765       L1    16  0.91

> <Gold.PLP.Chemscore.Internal.Correction>
0.0214

> <Gold.Rescore>
     Score         DG    S(hbond)    S(metal)    S(lipo)     H(rot)  DE(clash)    DE(int)     intcor
     12.64     -14.33       2.93        0.00      46.69       2.51       0.06       1.63       ----

> <Gold.Chemscore.Fitness>
12.6431

> <Gold.Chemscore.DG>
-14.3302

> <Gold.Chemscore.ZeroCoef>
-5.4800

> <Gold.Chemscore.Hbond>
2.9342

> <Gold.Chemscore.Metal>
0.0000

> <Gold.Chemscore.Lipo>
46.6938

> <Gold.Chemscore.Internal_Hbond>
0.0000

> <Gold.Chemscore.DEClash>
0.0580

> <Gold.Chemscore.DEInternal>
1.6292

> <Gold.Chemscore.Rot>
2.5051

> <Gold.Chemscore.Internal.Correction>
   9.000000E+99

> <Gold.Chemscore.Hbonds>
donor molecule, donor type, donor heavy atom, donor atom, acceptor molecule, acceptor atom, score
      L1  H    13    35       P1  7948  1.00
      L1  H    16    34       P1  7949  0.24
      P1  H  7997  8009       L1    10  0.38
      P1  H 10752 10765       L1    16  0.14

> <Gold.Chemscore.Hbond.Weighted>
-9.8001

> <Gold.Chemscore.Metal.Weighted>
-0.0000

> <Gold.Chemscore.Lipo.Weighted>
-5.4632

> <Gold.Chemscore.Internal_Hbond.Weighted>
0.0000

> <Gold.Chemscore.DEClash.Weighted>
0.0580

> <Gold.Chemscore.DEInternal.Weighted>
1.6292

> <Gold.Chemscore.Rot.Weighted>
6.4131

> <Gold.Chemscore.Internal.Correction.Weighted>
   9.000000E+99

> <Gold.Protein.RotatedTorsions>
[ 6907 6896 6895 6894 ] final  159.67 input  -60.11 | X-H torsion
[ 7974 7965 7964 7962 ] final  -49.64 input  175.53 | X-H torsion
[ 8008 7997 7996 7995 ] final  160.25 input   59.86 | X-H torsion
[ 10167 10162 10161 10158 ] final -144.93 input  -65.29 | X-H torsion
[ 10718 10713 10712 10709 ] final   66.88 input   66.30 | X-H torsion
[ 10763 10752 10751 10750 ] final  163.10 input  -60.55 | X-H torsion
[ 11005 11000 10999 10996 ] final   71.26 input  -57.11 | X-H torsion

> <Gold.Protein.ActiveResidues>
 VAL166  LYS551  ARG553  GLY616  TRP617  ASP618  TYR619  PRO620  LYS621  CYS622 
 ASP623  PHE694  ASN695  SER759  ASP760  ASP761  ALA762  ILE779  LEU786  VAL792 
 PHE793  MET794  SER795  GLU796  ALA797  LYS798  CYS799  TRP800  GLU811  SER814 

> <Gold.Protein.RotatedAtoms>
  151.9821  133.3761  159.4111 H   0  0  0  0  0  0  0  0  0  0  0  0  # atno 6907 bound_to 6896
  150.6933  134.4027  159.5135 H   0  0  0  0  0  0  0  0  0  0  0  0  # atno 6908 bound_to 6896
  152.1748  134.8804  160.0582 H   0  0  0  0  0  0  0  0  0  0  0  0  # atno 6909 bound_to 6896
  145.9384  140.7685  142.9564 H   0  0  0  0  0  0  0  0  0  0  0  0  # atno 7974 bound_to 7965
  156.2185  140.1809  156.7533 H   0  0  0  0  0  0  0  0  0  0  0  0  # atno 8008 bound_to 7997
  154.5828  140.0663  156.9157 H   0  0  0  0  0  0  0  0  0  0  0  0  # atno 8009 bound_to 7997
  155.2473  140.3326  155.4288 H   0  0  0  0  0  0  0  0  0  0  0  0  # atno 8010 bound_to 7997
  139.7853  143.8043  152.2644 H   0  0  0  0  0  0  0  0  0  0  0  0  # atno 10167 bound_to 10162
  157.6196  130.9291  150.0167 H   0  0  0  0  0  0  0  0  0  0  0  0  # atno 10718 bound_to 10713
  154.2885  135.2761  155.2665 H   0  0  0  0  0  0  0  0  0  0  0  0  # atno 10763 bound_to 10752
  154.5154  135.5771  153.6642 H   0  0  0  0  0  0  0  0  0  0  0  0  # atno 10764 bound_to 10752
  152.9918  135.6191  154.3049 H   0  0  0  0  0  0  0  0  0  0  0  0  # atno 10765 bound_to 10752
  139.9553  134.7156  156.0768 H   0  0  0  0  0  0  0  0  0  0  0  0  # atno 11005 bound_to 11000
  144.6775  140.2241  143.7363 LP  0  0  0  0  0  0  0  0  0  0  0  0  # atno 17320 bound_to 7965
  145.8332  139.2095  143.1870 LP  0  0  0  0  0  0  0  0  0  0  0  0  # atno 17321 bound_to 7965
  139.8118  144.7333  150.9688 LP  0  0  0  0  0  0  0  0  0  0  0  0  # atno 17342 bound_to 10162
  140.7819  143.4244  151.0792 LP  0  0  0  0  0  0  0  0  0  0  0  0  # atno 17343 bound_to 10162
  156.1335  130.3643  149.9694 LP  0  0  0  0  0  0  0  0  0  0  0  0  # atno 17370 bound_to 10713
  156.7750  130.9200  151.3645 LP  0  0  0  0  0  0  0  0  0  0  0  0  # atno 17371 bound_to 10713
  141.1223  133.6609  156.3246 LP  0  0  0  0  0  0  0  0  0  0  0  0  # atno 17394 bound_to 11000
  140.5624  134.5921  157.5437 LP  0  0  0  0  0  0  0  0  0  0  0  0  # atno 17395 bound_to 11000

$$$$
