#       Name:                AV-unprocessed.smi:2002
#       Creating user name   scv26
#       Creation time:       Fri Mar 27 10:34:46 2020


#       File generated by GOLD software.
#

@<TRIPOS>MOLECULE
AV-unprocessed.smi:2002
    44    45     1
SMALL
NO_CHARGES


@<TRIPOS>ATOM
      1 ****        -2.8660  -2.6710  -0.6375 C.3            1 S1                 0.0000
      2 ****        -3.4220  -1.7303   0.4402 C.3            1 S1                 0.0000
      3 ****        -2.4134  -1.4176   1.4793 N.4            1 S1                 1.0000
      4 ****        -2.9767  -0.8124   2.7052 C.3            1 S1                 0.0000
      5 ****        -1.8620   0.0608   3.2745 C.3            1 S1                 0.0000
      6 ****        -1.2053   0.6192   2.0156 C.3            1 S1                 0.0000
      7 ****         0.2100   1.1834   2.2454 C.3            1 S1                 0.0000
      8 ****         0.7487   1.8170   1.0451 N.am           1 S1                 0.0000
      9 ****         1.5268   1.2204   0.1301 C.2            1 S1                 0.0000
     10 ****         1.8739   0.0417   0.2013 O.2            1 S1                 0.0000
     11 ****         1.8585   2.0713  -0.8554 N.am           1 S1                 0.0000
     12 ****         2.6447   1.8198  -2.0097 C.2            1 S1                 0.0000
     13 ****         3.2711   0.5862  -2.3525 C.2            1 S1                 0.0000
     14 ****         3.8904   0.8759  -3.5354 C.2            1 S1                 0.0000
     15 ****         4.7283   0.0675  -4.4654 C.3            1 S1                 0.0000
     16 ****         3.6623   2.1703  -3.8856 O.3            1 S1                 0.0000
     17 ****         2.8640   2.7671  -2.9028 N.2            1 S1                 0.0000
     18 ****        -1.2911  -0.5579   1.0300 C.3            1 S1                 0.0000
     19 ****        -3.6378  -2.9210  -1.3656 H              1 S1                 0.0000
     20 ****        -2.5092  -3.6041  -0.2005 H              1 S1                 0.0000
     21 ****        -2.0376  -2.2176  -1.1819 H              1 S1                 0.0000
     22 ****        -3.7922  -0.8078  -0.0092 H              1 S1                 0.0000
     23 ****        -4.2767  -2.2134   0.9158 H              1 S1                 0.0000
     24 ****        -3.8327  -0.1851   2.4494 H              1 S1                 0.0000
     25 ****        -3.3161  -1.5731   3.4089 H              1 S1                 0.0000
     26 ****        -2.2350   0.8401   3.9399 H              1 S1                 0.0000
     27 ****        -1.1544  -0.5532   3.8338 H              1 S1                 0.0000
     28 ****        -1.8452   1.4207   1.6415 H              1 S1                 0.0000
     29 ****         0.1749   1.9422   3.0273 H              1 S1                 0.0000
     30 ****         0.8826   0.4047   2.6095 H              1 S1                 0.0000
     31 ****         0.5169   2.7900   0.9057 H              1 S1                 0.0000
     32 ****         1.5008   3.0119  -0.7767 H              1 S1                 0.0000
     33 ****         3.2777  -0.3599  -1.8331 H              1 S1                 0.0000
     34 ****         4.9910  -0.8915  -4.0185 H              1 S1                 0.0000
     35 ****         5.6529   0.5913  -4.7085 H              1 S1                 0.0000
     36 ****         4.1940  -0.1271  -5.3952 H              1 S1                 0.0000
     37 ****        -0.3852  -1.1634   1.0633 H              1 S1                 0.0000
     38 ****        -1.4109  -0.2010   0.0061 H              1 S1                 0.0000
     39 ****        -2.0002  -2.2944   1.7640 H              1 S1                 0.0000
     40 ****         1.5741  -0.5222   0.9708 LP             1 S1                 0.0000
     41 ****         2.4557  -0.3521  -0.5103 LP             1 S1                 0.0000
     42 ****         3.1912   2.2024  -4.7670 LP             1 S1                 0.0000
     43 ****         4.5323   2.6585  -3.9546 LP             1 S1                 0.0000
     44 ****         2.5309   3.7098  -2.8816 LP             1 S1                 0.0000
@<TRIPOS>BOND
    1    1    2 1     
    2    1   19 1     
    3    1   20 1     
    4    1   21 1     
    5    2    3 1     
    6    2   22 1     
    7    2   23 1     
    8    3   18 1     
    9    3    4 1     
   10    3   39 1     
   11    4    5 1     
   12    4   24 1     
   13    4   25 1     
   14    5    6 1     
   15    5   26 1     
   16    5   27 1     
   17    6    7 1     
   18    6   18 1     
   19    6   28 1     
   20    7    8 1     
   21    7   29 1     
   22    7   30 1     
   23    8    9 am    
   24    8   31 1     
   25    9   10 2     
   26    9   11 am    
   27   11   12 1     
   28   11   32 1     
   29   12   17 2     
   30   12   13 1     
   31   13   14 2     
   32   13   33 1     
   33   14   15 1     
   34   14   16 1     
   35   15   34 1     
   36   15   35 1     
   37   15   36 1     
   38   16   17 1     
   39   18   37 1     
   40   18   38 1     
   41   10   40 1     
   42   10   41 1     
   43   16   42 1     
   44   16   43 1     
   45   17   44 1     
@<TRIPOS>SUBSTRUCTURE
      1 S1             1
@<TRIPOS>SET
LONE_PAIRS      STATIC     ATOMS    <user>   **** ""
5 40 41 42 43 44
DONOR_HYDROGENS      STATIC     ATOMS    <user>   **** ""
3 39 31 32
ATOM$BLUE        STATIC     ATOMS    COLORGROUP SYSTEM
5 40 41 42 43 44
ATOM$RED        STATIC     ATOMS    COLORGROUP SYSTEM
3 39 31 32
