#       Name:                AV-unprocessed.smi:3339
#       Creating user name   scv26
#       Creation time:       Fri Mar 27 19:28:12 2020


#       File generated by GOLD software.
#

@<TRIPOS>MOLECULE
AV-unprocessed.smi:3339
    45    46     1
SMALL
NO_CHARGES


@<TRIPOS>ATOM
      1 ****        -4.0321   2.4546   1.3113 C.3            1 S1                 0.0000
      2 ****        -3.9919   0.9266   1.1937 C.3            1 S1                 0.0000
      3 ****        -4.5809   0.2516   2.4431 C.3            1 S1                 0.0000
      4 ****        -2.6294   0.5596   1.0194 O.3            1 S1                 0.0000
      5 ****        -2.4283  -0.7132   0.4213 C.3            1 S1                 0.0000
      6 ****        -0.9201  -0.9482   0.2477 C.3            1 S1                 0.0000
      7 ****        -0.7512  -2.2883  -0.1688 O.3            1 S1                 0.0000
      8 ****        -0.3005  -0.0187  -0.8164 C.3            1 S1                 0.0000
      9 ****         1.1434   0.1210  -0.6357 N.am           1 S1                 0.0000
     10 ****         1.7693   0.9503   0.2332 C.2            1 S1                 0.0000
     11 ****         1.2185   1.7271   1.0133 O.2            1 S1                 0.0000
     12 ****         3.1037   0.7682   0.0988 N.am           1 S1                 0.0000
     13 ****         4.1609   1.4450   0.8403 C.3            1 S1                 0.0000
     14 ****         3.3383  -0.2130  -0.8724 C.ar           1 S1                 0.0000
     15 ****         4.5378  -0.7600  -1.3595 C.ar           1 S1                 0.0000
     16 ****         4.4341  -1.7578  -2.3570 C.ar           1 S1                 0.0000
     17 ****         3.1657  -2.1789  -2.8346 C.ar           1 S1                 0.0000
     18 ****         1.9740  -1.6119  -2.3249 C.ar           1 S1                 0.0000
     19 ****         2.1055  -0.6212  -1.3361 C.ar           1 S1                 0.0000
     20 ****        -5.0542   2.8133   1.4357 H              1 S1                 0.0000
     21 ****        -3.6224   2.9248   0.4169 H              1 S1                 0.0000
     22 ****        -3.4491   2.8010   2.1654 H              1 S1                 0.0000
     23 ****        -4.5718   0.6409   0.3145 H              1 S1                 0.0000
     24 ****        -5.6048   0.5828   2.6183 H              1 S1                 0.0000
     25 ****        -3.9973   0.4922   3.3322 H              1 S1                 0.0000
     26 ****        -4.6066  -0.8330   2.3445 H              1 S1                 0.0000
     27 ****        -2.8509  -1.4910   1.0579 H              1 S1                 0.0000
     28 ****        -2.9343  -0.7678  -0.5441 H              1 S1                 0.0000
     29 ****        -0.4290  -0.8182   1.2131 H              1 S1                 0.0000
     30 ****        -1.2026  -2.4060  -0.9904 H              1 S1                 0.0000
     31 ****        -0.5395  -0.3563  -1.8255 H              1 S1                 0.0000
     32 ****        -0.7380   0.9776  -0.7347 H              1 S1                 0.0000
     33 ****         4.9155   1.8335   0.1557 H              1 S1                 0.0000
     34 ****         4.6449   0.7470   1.5239 H              1 S1                 0.0000
     35 ****         3.7781   2.2829   1.4249 H              1 S1                 0.0000
     36 ****         5.4988  -0.4353  -0.9889 H              1 S1                 0.0000
     37 ****         5.3311  -2.2054  -2.7589 H              1 S1                 0.0000
     38 ****         3.1088  -2.9431  -3.5958 H              1 S1                 0.0000
     39 ****         1.0069  -1.9322  -2.6826 H              1 S1                 0.0000
     40 ****        -2.1911   0.5540   1.9182 LP             1 S1                 0.0000
     41 ****        -2.1932   1.2482   0.4402 LP             1 S1                 0.0000
     42 ****        -1.1343  -2.9059   0.5181 LP             1 S1                 0.0000
     43 ****         0.2221  -2.4845  -0.2875 LP             1 S1                 0.0000
     44 ****         0.2205   1.7835   1.0415 LP             1 S1                 0.0000
     45 ****         1.7691   2.3017   1.6189 LP             1 S1                 0.0000
@<TRIPOS>BOND
    1    1    2 1     
    2    1   20 1     
    3    1   21 1     
    4    1   22 1     
    5    2    3 1     
    6    2    4 1     
    7    2   23 1     
    8    3   24 1     
    9    3   25 1     
   10    3   26 1     
   11    4    5 1     
   12    5    6 1     
   13    5   27 1     
   14    5   28 1     
   15    6    7 1     
   16    6    8 1     
   17    6   29 1     
   18    7   30 1     
   19    8    9 1     
   20    8   31 1     
   21    8   32 1     
   22    9   19 1     
   23    9   10 am    
   24   10   11 2     
   25   10   12 am    
   26   12   13 1     
   27   12   14 1     
   28   13   33 1     
   29   13   34 1     
   30   13   35 1     
   31   14   19 ar    
   32   14   15 ar    
   33   15   16 ar    
   34   15   36 1     
   35   16   17 ar    
   36   16   37 1     
   37   17   18 ar    
   38   17   38 1     
   39   18   19 ar    
   40   18   39 1     
   41    4   40 1     
   42    4   41 1     
   43    7   42 1     
   44    7   43 1     
   45   11   44 1     
   46   11   45 1     
@<TRIPOS>SUBSTRUCTURE
      1 S1             1
@<TRIPOS>SET
LONE_PAIRS      STATIC     ATOMS    <user>   **** ""
6 40 41 42 43 44 45
DONOR_HYDROGENS      STATIC     ATOMS    <user>   **** ""
1 30
ATOM$BLUE        STATIC     ATOMS    COLORGROUP SYSTEM
6 40 41 42 43 44 45
ATOM$RED        STATIC     ATOMS    COLORGROUP SYSTEM
1 30
