AV-unprocessed.smi:1997|AV-procd|sdf|8089|dock5
  -GOLD-   2272010303D 1   1.00000     0.00000
 Structure written by MMmdl.
 36 38  0  0  0  0  0  0  0  0  2 V2000
  152.8125  139.5895  155.7147 O   0  0  0  0  0  0  0  0  0  0  0  0
  151.7054  139.3850  156.2183 C   0  0  0  0  0  0  0  0  0  0  0  0
  150.6116  138.9079  155.5816 N   0  5  0  0  0  0  0  0  0  0  0  0
  149.7451  139.7588  155.0077 C   0  0  0  0  0  0  0  0  0  0  0  0
  150.1442  140.7819  154.2391 N   0  0  0  0  0  0  0  0  0  0  0  0
  149.0895  141.5351  153.7442 N   0  0  0  0  0  0  0  0  0  0  0  0
  147.9049  141.0653  154.1423 C   0  0  0  0  0  0  0  0  0  0  0  0
  146.6163  141.7045  153.7459 C   0  0  0  0  0  0  0  0  0  0  0  0
  146.3937  143.1859  153.9466 C   0  0  0  0  0  0  0  0  0  0  0  0
  145.6258  142.1927  154.7805 C   0  0  0  0  0  0  0  0  0  0  0  0
  147.9928  139.6369  155.1608 S   0  0  0  0  0  0  0  0  0  0  0  0
  151.5029  139.6462  157.5189 N   0  0  0  0  0  0  0  0  0  0  0  0
  152.4931  140.1769  158.4601 C   0  0  1  0  0  0  0  0  0  0  0  0
  151.8465  141.3755  159.1918 C   0  0  0  0  0  0  0  0  0  0  0  0
  152.8655  142.3624  159.7881 C   0  0  0  0  0  0  0  0  0  0  0  0
  153.7444  141.7903  160.9108 C   0  0  0  0  0  0  0  0  0  0  0  0
  154.6416  140.6246  160.4611 C   0  0  0  0  0  0  0  0  0  0  0  0
  153.9003  139.3753  160.3506 N   0  0  0  0  0  0  0  0  0  0  0  0
  152.8984  139.1059  159.4997 C   0  0  0  0  0  0  0  0  0  0  0  0
  152.3120  138.0252  159.5553 O   0  0  0  0  0  0  0  0  0  0  0  0
  146.2225  141.2466  152.8408 H   0  0  0  0  0  0  0  0  0  0  0  0
  147.1815  143.7525  154.4393 H   0  0  0  0  0  0  0  0  0  0  0  0
  145.8485  143.7205  153.1714 H   0  0  0  0  0  0  0  0  0  0  0  0
  144.5680  142.0636  154.5614 H   0  0  0  0  0  0  0  0  0  0  0  0
  145.8967  142.1128  155.8312 H   0  0  0  0  0  0  0  0  0  0  0  0
  150.5839  139.4536  157.8891 H   0  0  0  0  0  0  0  0  0  0  0  0
  153.3701  140.5087  157.9017 H   0  0  0  0  0  0  0  0  0  0  0  0
  151.2381  141.9377  158.4816 H   0  0  0  0  0  0  0  0  0  0  0  0
  151.1532  141.0353  159.9630 H   0  0  0  0  0  0  0  0  0  0  0  0
  153.5021  142.7490  158.9912 H   0  0  0  0  0  0  0  0  0  0  0  0
  152.3247  143.2248  160.1788 H   0  0  0  0  0  0  0  0  0  0  0  0
  154.3825  142.5927  161.2821 H   0  0  0  0  0  0  0  0  0  0  0  0
  153.1257  141.4853  161.7558 H   0  0  0  0  0  0  0  0  0  0  0  0
  155.1496  140.8539  159.5232 H   0  0  0  0  0  0  0  0  0  0  0  0
  155.4246  140.4680  161.2034 H   0  0  0  0  0  0  0  0  0  0  0  0
  154.1488  138.6496  161.0070 H   0  0  0  0  0  0  0  0  0  0  0  0
  1  2  2  0  0  0  0
  2  3  1  0  0  0  0
  2 12  1  0  0  0  0
  3  4  1  0  0  0  0
  4 11  1  0  0  0  0
  4  5  2  0  0  0  0
  5  6  1  0  0  0  0
  6  7  2  0  0  0  0
  7  8  1  0  0  0  0
  7 11  1  0  0  0  0
  8 10  1  0  0  0  0
  8  9  1  0  0  0  0
  8 21  1  0  0  0  0
  9 10  1  0  0  0  0
  9 22  1  0  0  0  0
  9 23  1  0  0  0  0
 10 24  1  0  0  0  0
 10 25  1  0  0  0  0
 12 13  1  0  0  0  0
 12 26  1  0  0  0  0
 13 19  1  0  0  0  0
 13 14  1  0  0  0  0
 13 27  1  0  0  0  0
 14 15  1  0  0  0  0
 14 28  1  0  0  0  0
 14 29  1  0  0  0  0
 15 16  1  0  0  0  0
 15 30  1  0  0  0  0
 15 31  1  0  0  0  0
 16 17  1  0  0  0  0
 16 32  1  0  0  0  0
 16 33  1  0  0  0  0
 17 18  1  0  0  0  0
 17 34  1  0  0  0  0
 17 35  1  0  0  0  0
 18 19  1  0  0  0  0
 18 36  1  0  0  0  0
 19 20  2  0  0  0  0
M  CHG  1   3  -1
M  END
> <s_m_source_file>
AV-unprocessed.smi

> <i_m_source_file_index>
1997

> <i_lp_mmshare_version>
43012

> <i_f3d_flags>
0

> <s_epik_input>
W0NIMl0xW0NIMl1bQ0hdMWMoczIpbm5jMltOSF1DKD1PKVtOSF1bQ0BASF0zW0NIMl1bQ0gyXVtDSDJdW0NIMl1bTkhdQzM9Tw==

> <s_epik_cmdline>
J2VwaWtfcHl0aG9uJywgJy1waCcsICc3LjAnLCAnLXRuJywgJzgnLCAnLW1hJywgJzIwMCcsICctbWV0YWxfYmluZGluZycsICctaW1hZScsICc8aW5maWxlLm1hZT4nLCAnLW9tYWUnLCAnPG91dGZpbGUubWFlPic=

> <r_lp_tautomer_probability>
1

> <r_epik_Ionization_Penalty>
4.47229

> <r_epik_Ionization_Penalty_Charging>
4.32584

> <r_epik_Ionization_Penalty_Neutral>
0.146443

> <r_epik_State_Penalty>
4.32544

> <r_epik_Charging_Adjusted_Penalty>
8.65129

> <i_epik_Tot_Q>
-1

> <i_epik_Tot_abs_Q>
1

> <r_epik_Metal_State_Penalty>
0.738743

> <b_epik_Metal_Only>
1

> <s_lp_Force_Field>
OPLS_2005

> <r_lp_Energy>
7.41149

> <b_lp_Chiralities_Consistent>
1

> <s_lp_Variant>
AV-unprocessed.smi:1997-4

> <Gold.Version>
5.8.1

> <Gold.Id.Protein>
6NUR|6NUR_protein|mol2

> <Gold.PLP.Fitness>
40.6426

> <Gold.PLP.PLP>
-35.8744

> <Gold.PLP.part.hbond>
-3.6378

> <Gold.PLP.part.metal>
0.0000

> <Gold.PLP.part.buried>
-5.5739

> <Gold.PLP.part.nonpolar>
-27.7239

> <Gold.PLP.part.repulsive>
0.7952

> <Gold.PLP.ligand.clash>
0.0000

> <Gold.PLP.ligand.torsion>
1.2933

> <Gold.PLP.Chemscore.Hbond>
2.4080

> <Gold.PLP.Chemscore.CHOScore>
0.0000

> <Gold.PLP.Chemscore.Metal>
0.0000

> <Gold.Chemscore.Hbonds>
donor molecule, donor type, donor heavy atom, donor atom, acceptor molecule, acceptor atom, score
      P1  H  7989  7998       L1     5  0.69
      P1  H  7997  8010       L1     1  1.00
      P1  H  8011  8017       L1     6  0.74

> <Gold.PLP.Chemscore.Internal.Correction>
0.1307

> <Gold.Rescore>
     Score         DG    S(hbond)    S(metal)    S(lipo)     H(rot)  DE(clash)    DE(int)     intcor
     16.29     -18.18       2.15        0.00      75.20       1.27       0.64       1.25       ----

> <Gold.Chemscore.Fitness>
16.2912

> <Gold.Chemscore.DG>
-18.1832

> <Gold.Chemscore.ZeroCoef>
-5.4800

> <Gold.Chemscore.Hbond>
2.1456

> <Gold.Chemscore.Metal>
0.0000

> <Gold.Chemscore.Lipo>
75.1965

> <Gold.Chemscore.Internal_Hbond>
0.0000

> <Gold.Chemscore.DEClash>
0.6436

> <Gold.Chemscore.DEInternal>
1.2484

> <Gold.Chemscore.Rot>
1.2738

> <Gold.Chemscore.Internal.Correction>
   9.000000E+99

> <Gold.Chemscore.Hbonds>
donor molecule, donor type, donor heavy atom, donor atom, acceptor molecule, acceptor atom, score
      P1  H  7989  7998       L1     5  0.65
      P1  H  7997  8010       L1     1  1.00
      P1  H  8011  8017       L1     6  0.37

> <Gold.Chemscore.Hbond.Weighted>
-7.1661

> <Gold.Chemscore.Metal.Weighted>
-0.0000

> <Gold.Chemscore.Lipo.Weighted>
-8.7980

> <Gold.Chemscore.Internal_Hbond.Weighted>
0.0000

> <Gold.Chemscore.DEClash.Weighted>
0.6436

> <Gold.Chemscore.DEInternal.Weighted>
1.2484

> <Gold.Chemscore.Rot.Weighted>
3.2610

> <Gold.Chemscore.Internal.Correction.Weighted>
   9.000000E+99

> <Gold.Protein.RotatedTorsions>
[ 6907 6896 6895 6894 ] final  143.90 input  -60.11 | X-H torsion
[ 7974 7965 7964 7962 ] final -144.84 input  175.53 | X-H torsion
[ 8008 7997 7996 7995 ] final   97.75 input   59.86 | X-H torsion
[ 10167 10162 10161 10158 ] final   48.41 input  -65.29 | X-H torsion
[ 10718 10713 10712 10709 ] final   42.28 input   66.30 | X-H torsion
[ 10763 10752 10751 10750 ] final   -3.75 input  -60.55 | X-H torsion
[ 11005 11000 10999 10996 ] final  -16.88 input  -57.11 | X-H torsion

> <Gold.Protein.ActiveResidues>
 VAL166  LYS551  ARG553  GLY616  TRP617  ASP618  TYR619  PRO620  LYS621  CYS622 
 ASP623  PHE694  ASN695  SER759  ASP760  ASP761  ALA762  ILE779  LEU786  VAL792 
 PHE793  MET794  SER795  GLU796  ALA797  LYS798  CYS799  TRP800  GLU811  SER814 

> <Gold.Protein.RotatedAtoms>
  152.2004  133.4837  159.5055 H   0  0  0  0  0  0  0  0  0  0  0  0  # atno 6907 bound_to 6896
  150.6968  134.1597  159.4180 H   0  0  0  0  0  0  0  0  0  0  0  0  # atno 6908 bound_to 6896
  151.9515  135.0167  160.0593 H   0  0  0  0  0  0  0  0  0  0  0  0  # atno 6909 bound_to 6896
  144.8269  140.5659  143.5541 H   0  0  0  0  0  0  0  0  0  0  0  0  # atno 7974 bound_to 7965
  156.0933  140.3254  155.7845 H   0  0  0  0  0  0  0  0  0  0  0  0  # atno 8008 bound_to 7997
  155.4960  140.0565  157.2964 H   0  0  0  0  0  0  0  0  0  0  0  0  # atno 8009 bound_to 7997
  154.4651  140.1985  156.0156 H   0  0  0  0  0  0  0  0  0  0  0  0  # atno 8010 bound_to 7997
  140.2935  144.3018  150.6235 H   0  0  0  0  0  0  0  0  0  0  0  0  # atno 10167 bound_to 10162
  157.4031  130.7871  149.7365 H   0  0  0  0  0  0  0  0  0  0  0  0  # atno 10718 bound_to 10713
  153.3755  135.6996  153.6605 H   0  0  0  0  0  0  0  0  0  0  0  0  # atno 10763 bound_to 10752
  153.5238  135.3606  155.2644 H   0  0  0  0  0  0  0  0  0  0  0  0  # atno 10764 bound_to 10752
  154.8686  135.4164  154.3042 H   0  0  0  0  0  0  0  0  0  0  0  0  # atno 10765 bound_to 10752
  140.8112  133.8139  155.9565 H   0  0  0  0  0  0  0  0  0  0  0  0  # atno 11005 bound_to 11000
  145.4980  139.1485  143.3673 LP  0  0  0  0  0  0  0  0  0  0  0  0  # atno 17320 bound_to 7965
  146.2574  140.5120  142.8868 LP  0  0  0  0  0  0  0  0  0  0  0  0  # atno 17321 bound_to 7965
  140.5712  143.2181  151.7596 LP  0  0  0  0  0  0  0  0  0  0  0  0  # atno 17342 bound_to 10162
  139.4932  144.4214  151.9973 LP  0  0  0  0  0  0  0  0  0  0  0  0  # atno 17343 bound_to 10162
  155.9829  130.4006  150.3394 LP  0  0  0  0  0  0  0  0  0  0  0  0  # atno 17370 bound_to 10713
  157.1523  131.0324  151.2879 LP  0  0  0  0  0  0  0  0  0  0  0  0  # atno 17371 bound_to 10713
  140.9196  134.2158  157.4935 LP  0  0  0  0  0  0  0  0  0  0  0  0  # atno 17394 bound_to 11000
  139.8714  134.9786  156.5005 LP  0  0  0  0  0  0  0  0  0  0  0  0  # atno 17395 bound_to 11000

$$$$
