AV-unprocessed.smi:2617|AV-procd|sdf|10217|dock2
  -GOLD-   2272014223D 1   1.00000     0.00000
 Structure written by MMmdl.
 35 35  0  0  0  0  0  0  0  0  1 V2000
  146.5168  138.4941  152.4805 C   0  0  0  0  0  0  0  0  0  0  0  0
  147.4835  138.8007  153.6283 C   0  0  0  0  0  0  0  0  0  0  0  0
  148.4263  139.9712  153.3020 C   0  0  0  0  0  0  0  0  0  0  0  0
  149.4253  140.1867  154.3297 N   0  0  0  0  0  0  0  0  0  0  0  0
  149.5315  141.3658  155.0726 C   0  0  0  0  0  0  0  0  0  0  0  0
  148.6457  142.3968  154.7965 N   0  0  0  0  0  0  0  0  0  0  0  0
  150.4902  141.5372  156.0276 C   0  0  0  0  0  0  0  0  0  0  0  0
  150.5822  142.7126  156.7666 N   0  0  0  0  0  0  0  0  0  0  0  0
  151.5590  143.0051  157.8055 C   0  0  0  0  0  0  0  0  0  0  0  0
  151.3511  144.4107  158.3790 C   0  0  0  0  0  0  0  0  0  0  0  0
  152.4171  144.7116  159.2649 O   0  0  0  0  0  0  0  0  0  0  0  0
  152.4259  143.8756  160.4083 C   0  0  0  0  0  0  0  0  0  0  0  0
  151.4433  140.4569  156.3213 C   0  0  0  0  0  0  0  0  0  0  0  0
  152.3144  140.4746  157.1903 O   0  0  0  0  0  0  0  0  0  0  0  0
  151.3063  139.3210  155.5265 N   0  0  0  0  0  0  0  0  0  0  0  0
  150.3526  139.1376  154.5320 C   0  0  0  0  0  0  0  0  0  0  0  0
  150.3503  138.0916  153.8819 O   0  0  0  0  0  0  0  0  0  0  0  0
  151.9563  138.5655  155.6873 H   0  0  0  0  0  0  0  0  0  0  0  0
  145.8618  137.6610  152.7362 H   0  0  0  0  0  0  0  0  0  0  0  0
  147.0571  138.2264  151.5722 H   0  0  0  0  0  0  0  0  0  0  0  0
  145.8877  139.3559  152.2561 H   0  0  0  0  0  0  0  0  0  0  0  0
  146.9097  139.0259  154.5279 H   0  0  0  0  0  0  0  0  0  0  0  0
  148.0696  137.9087  153.8522 H   0  0  0  0  0  0  0  0  0  0  0  0
  148.9619  139.8052  152.3677 H   0  0  0  0  0  0  0  0  0  0  0  0
  147.8841  140.9069  153.1537 H   0  0  0  0  0  0  0  0  0  0  0  0
  147.9407  142.3048  154.0796 H   0  0  0  0  0  0  0  0  0  0  0  0
  148.5355  143.1763  155.4286 H   0  0  0  0  0  0  0  0  0  0  0  0
  150.3083  143.5400  156.2572 H   0  0  0  0  0  0  0  0  0  0  0  0
  151.4457  142.2613  158.5944 H   0  0  0  0  0  0  0  0  0  0  0  0
  152.5781  142.9164  157.4277 H   0  0  0  0  0  0  0  0  0  0  0  0
  151.2936  145.1476  157.5760 H   0  0  0  0  0  0  0  0  0  0  0  0
  150.4065  144.4464  158.9237 H   0  0  0  0  0  0  0  0  0  0  0  0
  153.2621  144.1455  161.0530 H   0  0  0  0  0  0  0  0  0  0  0  0
  152.5397  142.8272  160.1295 H   0  0  0  0  0  0  0  0  0  0  0  0
  151.5068  143.9871  160.9851 H   0  0  0  0  0  0  0  0  0  0  0  0
  1  2  1  0  0  0  0
  1 19  1  0  0  0  0
  1 20  1  0  0  0  0
  1 21  1  0  0  0  0
  2  3  1  0  0  0  0
  2 22  1  0  0  0  0
  2 23  1  0  0  0  0
  3  4  1  0  0  0  0
  3 24  1  0  0  0  0
  3 25  1  0  0  0  0
  4 16  1  0  0  0  0
  4  5  1  0  0  0  0
  5  6  1  0  0  0  0
  5  7  2  0  0  0  0
  6 26  1  0  0  0  0
  6 27  1  0  0  0  0
  7  8  1  0  0  0  0
  7 13  1  0  0  0  0
  8  9  1  0  0  0  0
  8 28  1  0  0  0  0
  9 10  1  0  0  0  0
  9 29  1  0  0  0  0
  9 30  1  0  0  0  0
 10 11  1  0  0  0  0
 10 31  1  0  0  0  0
 10 32  1  0  0  0  0
 11 12  1  0  0  0  0
 12 33  1  0  0  0  0
 12 34  1  0  0  0  0
 12 35  1  0  0  0  0
 13 14  2  0  0  0  0
 13 15  1  0  0  0  0
 15 18  1  0  0  0  0
 15 16  1  0  0  0  0
 16 17  2  0  0  0  0
M  END
> <s_m_source_file>
AV-unprocessed.smi

> <i_m_source_file_index>
2617

> <i_lp_mmshare_version>
43012

> <i_f3d_flags>
0

> <s_epik_input>
W0NIM11bQ0gyXVtDSDJdbjFjKFtOSDJdKWMoYyg9TylbbkhdYzE9TylbTkhdW0NIMl1bQ0gyXU9bQ0gzXQ==

> <s_epik_cmdline>
J2VwaWtfcHl0aG9uJywgJy1waCcsICc3LjAnLCAnLXRuJywgJzgnLCAnLW1hJywgJzIwMCcsICctbWV0YWxfYmluZGluZycsICctaW1hZScsICc8aW5maWxlLm1hZT4nLCAnLW9tYWUnLCAnPG91dGZpbGUubWFlPic=

> <r_lp_tautomer_probability>
1

> <r_epik_Ionization_Penalty>
1.06398e-05

> <r_epik_Ionization_Penalty_Charging>
2.62604e-06

> <r_epik_Ionization_Penalty_Neutral>
8.01376e-06

> <r_epik_State_Penalty>
-0

> <r_epik_Charging_Adjusted_Penalty>
2.62604e-06

> <i_epik_Tot_Q>
0

> <i_epik_Tot_abs_Q>
0

> <r_epik_Metal_State_Penalty>
-0

> <b_epik_Metal_Only>
0

> <s_epik_Chemistry_Notes>
This compound has an imine and may undergo hydrolysis.

> <s_lp_Force_Field>
OPLS_2005

> <r_lp_Energy>
15.6594

> <b_lp_Chiralities_Consistent>
1

> <s_lp_Variant>
AV-unprocessed.smi:2617-1

> <Gold.Version>
5.8.1

> <Gold.Id.Protein>
6NUR|6NUR_protein|mol2

> <Gold.PLP.Fitness>
38.8588

> <Gold.PLP.PLP>
-30.8741

> <Gold.PLP.part.hbond>
-2.8481

> <Gold.PLP.part.metal>
0.0000

> <Gold.PLP.part.buried>
1.0725

> <Gold.PLP.part.nonpolar>
-29.9929

> <Gold.PLP.part.repulsive>
1.4774

> <Gold.PLP.ligand.clash>
1.3886

> <Gold.PLP.ligand.torsion>
0.0375

> <Gold.PLP.Chemscore.Hbond>
2.6712

> <Gold.PLP.Chemscore.CHOScore>
0.0000

> <Gold.PLP.Chemscore.Metal>
0.0000

> <Gold.Chemscore.Hbonds>
donor molecule, donor type, donor heavy atom, donor atom, acceptor molecule, acceptor atom, score
      L1  H     6    27       P1  8028  0.88
      L1  H     8    28       P1  8028  0.99
      P1  H  7997  8008       L1    14  0.61

> <Gold.PLP.Chemscore.Internal.Correction>
1.4347

> <Gold.Rescore>
     Score         DG    S(hbond)    S(metal)    S(lipo)     H(rot)  DE(clash)    DE(int)     intcor
     11.87     -14.73       2.45        0.00      56.52       2.17       0.25       2.61       ----

> <Gold.Chemscore.Fitness>
11.8719

> <Gold.Chemscore.DG>
-14.7289

> <Gold.Chemscore.ZeroCoef>
-5.4800

> <Gold.Chemscore.Hbond>
2.4546

> <Gold.Chemscore.Metal>
0.0000

> <Gold.Chemscore.Lipo>
56.5247

> <Gold.Chemscore.Internal_Hbond>
0.0000

> <Gold.Chemscore.DEClash>
0.2508

> <Gold.Chemscore.DEInternal>
2.6062

> <Gold.Chemscore.Rot>
2.1730

> <Gold.Chemscore.Internal.Correction>
   9.000000E+99

> <Gold.Chemscore.Hbonds>
donor molecule, donor type, donor heavy atom, donor atom, acceptor molecule, acceptor atom, score
      L1  H     6    27       P1  8028  0.85
      L1  H     8    28       P1  8028  0.93
      P1  H  7997  8008       L1    14  0.56

> <Gold.Chemscore.Hbond.Weighted>
-8.1983

> <Gold.Chemscore.Metal.Weighted>
-0.0000

> <Gold.Chemscore.Lipo.Weighted>
-6.6134

> <Gold.Chemscore.Internal_Hbond.Weighted>
0.0000

> <Gold.Chemscore.DEClash.Weighted>
0.2508

> <Gold.Chemscore.DEInternal.Weighted>
2.6062

> <Gold.Chemscore.Rot.Weighted>
5.5628

> <Gold.Chemscore.Internal.Correction.Weighted>
   9.000000E+99

> <Gold.Protein.RotatedTorsions>
[ 6907 6896 6895 6894 ] final   70.39 input  -60.11 | X-H torsion
[ 7974 7965 7964 7962 ] final -101.57 input  175.53 | X-H torsion
[ 8008 7997 7996 7995 ] final  -54.84 input   59.86 | X-H torsion
[ 10167 10162 10161 10158 ] final   48.00 input  -65.29 | X-H torsion
[ 10718 10713 10712 10709 ] final  -33.59 input   66.30 | X-H torsion
[ 10763 10752 10751 10750 ] final    7.95 input  -60.55 | X-H torsion
[ 11005 11000 10999 10996 ] final  -34.89 input  -57.11 | X-H torsion

> <Gold.Protein.ActiveResidues>
 VAL166  LYS551  ARG553  GLY616  TRP617  ASP618  TYR619  PRO620  LYS621  CYS622 
 ASP623  PHE694  ASN695  SER759  ASP760  ASP761  ALA762  ILE779  LEU786  VAL792 
 PHE793  MET794  SER795  GLU796  ALA797  LYS798  CYS799  TRP800  GLU811  SER814 

> <Gold.Protein.RotatedAtoms>
  152.4746  134.4875  159.9684 H   0  0  0  0  0  0  0  0  0  0  0  0  # atno 6907 bound_to 6896
  151.4894  133.3522  159.2859 H   0  0  0  0  0  0  0  0  0  0  0  0  # atno 6908 bound_to 6896
  150.8777  134.8190  159.7263 H   0  0  0  0  0  0  0  0  0  0  0  0  # atno 6909 bound_to 6896
  145.2799  140.9323  143.2938 H   0  0  0  0  0  0  0  0  0  0  0  0  # atno 7974 bound_to 7965
  154.4175  140.1167  156.5381 H   0  0  0  0  0  0  0  0  0  0  0  0  # atno 8008 bound_to 7997
  155.6536  140.3496  155.4738 H   0  0  0  0  0  0  0  0  0  0  0  0  # atno 8009 bound_to 7997
  155.9772  140.1153  157.0749 H   0  0  0  0  0  0  0  0  0  0  0  0  # atno 8010 bound_to 7997
  140.2978  144.2969  150.6226 H   0  0  0  0  0  0  0  0  0  0  0  0  # atno 10167 bound_to 10162
  156.3609  130.4323  149.7625 H   0  0  0  0  0  0  0  0  0  0  0  0  # atno 10718 bound_to 10713
  153.2305  135.6892  153.7895 H   0  0  0  0  0  0  0  0  0  0  0  0  # atno 10763 bound_to 10752
  153.7061  135.3289  155.3237 H   0  0  0  0  0  0  0  0  0  0  0  0  # atno 10764 bound_to 10752
  154.8312  135.4579  154.1188 H   0  0  0  0  0  0  0  0  0  0  0  0  # atno 10765 bound_to 10752
  140.9752  133.7087  156.1591 H   0  0  0  0  0  0  0  0  0  0  0  0  # atno 11005 bound_to 11000
  144.9262  139.4352  143.6517 LP  0  0  0  0  0  0  0  0  0  0  0  0  # atno 17320 bound_to 7965
  146.3220  139.8149  142.8938 LP  0  0  0  0  0  0  0  0  0  0  0  0  # atno 17321 bound_to 7965
  140.5677  143.2184  151.7655 LP  0  0  0  0  0  0  0  0  0  0  0  0  # atno 17342 bound_to 10162
  139.4922  144.4261  151.9924 LP  0  0  0  0  0  0  0  0  0  0  0  0  # atno 17343 bound_to 10162
  156.4789  130.8032  151.3047 LP  0  0  0  0  0  0  0  0  0  0  0  0  # atno 17370 bound_to 10713
  157.7473  131.0012  150.2954 LP  0  0  0  0  0  0  0  0  0  0  0  0  # atno 17371 bound_to 10713
  140.7269  134.4297  157.5570 LP  0  0  0  0  0  0  0  0  0  0  0  0  # atno 17394 bound_to 11000
  139.8928  134.8746  156.2254 LP  0  0  0  0  0  0  0  0  0  0  0  0  # atno 17395 bound_to 11000

$$$$
