#       Name:                AV-unprocessed.smi:148
#       Creating user name   scv26
#       Creation time:       Thu Mar 26 18:41:11 2020


#       File generated by GOLD software.
#

@<TRIPOS>MOLECULE
AV-unprocessed.smi:148
    73    77     1
SMALL
NO_CHARGES


@<TRIPOS>ATOM
      1 ****        -2.4832  -3.2427  -1.6317 O.3            1 S1                 0.0000
      2 ****        -1.4560  -2.3458  -1.9993 C.3            1 S1                 0.0000
      3 ****        -1.9643  -1.2910  -3.0135 C.3            1 S1                 0.0000
      4 ****        -0.9214  -0.1710  -3.2715 C.3            1 S1                 0.0000
      5 ****        -0.4280   0.4424  -2.0512 N.pl3          1 S1                 0.0000
      6 ****        -1.0815   1.3724  -1.2757 C.2            1 S1                 0.0000
      7 ****        -0.4292   1.7689  -0.2171 N.2            1 S1                 0.0000
      8 ****         0.7637   1.0566  -0.2657 C.ar           1 S1                 0.0000
      9 ****         1.9188   0.9842   0.5650 C.ar           1 S1                 0.0000
     10 ****         2.1018   1.6835   1.7092 N.3            1 S1                 0.0000
     11 ****         2.6289   3.0103   1.3846 C.3            1 S1                 0.0000
     12 ****         3.0879   3.7615   2.6411 C.3            1 S1                 0.0000
     13 ****         1.9525   3.8282   3.6673 C.3            1 S1                 0.0000
     14 ****         1.4655   2.4098   3.9873 C.3            1 S1                 0.0000
     15 ****         1.0141   1.6601   2.7059 C.3            1 S1                 0.0000
     16 ****         0.4531   0.2302   2.9992 C.3            1 S1                 0.0000
     17 ****        -0.8694   0.2224   3.7969 C.3            1 S1                 0.0000
     18 ****        -0.7563  -0.9058   4.8314 C.3            1 S1                 0.0000
     19 ****         0.4224  -1.7617   4.3736 C.3            1 S1                 0.0000
     20 ****         1.3802  -0.7492   3.7488 C.3            1 S1                 0.0000
     21 ****         2.2998  -1.3941   2.8931 O.3            1 S1                 0.0000
     22 ****         2.9314   0.1709   0.1750 N.ar           1 S1                 0.0000
     23 ****         2.8152  -0.5547  -0.9411 C.ar           1 S1                 0.0000
     24 ****         1.7954  -0.6069  -1.8003 N.ar           1 S1                 0.0000
     25 ****         0.7847   0.2267  -1.4214 C.ar           1 S1                 0.0000
     26 ****        -2.4914  -1.9603  -4.3147 C.3            1 S1                 0.0000
     27 ****        -3.0984  -1.0419  -5.3603 C.3            1 S1                 0.0000
     28 ****        -3.1635  -1.9703  -6.5678 C.3            1 S1                 0.0000
     29 ****        -2.0012  -2.7881  -6.4749 O.3            1 S1                 0.0000
     30 ****        -1.4750  -2.7481  -5.1497 C.3            1 S1                 0.0000
     31 ****        -2.1340  -3.8598  -1.0066 H              1 S1                 0.0000
     32 ****        -1.1077  -1.8781  -1.0789 H              1 S1                 0.0000
     33 ****        -0.6144  -2.9057  -2.4078 H              1 S1                 0.0000
     34 ****        -2.8224  -0.8029  -2.5481 H              1 S1                 0.0000
     35 ****        -0.0657  -0.5545  -3.8255 H              1 S1                 0.0000
     36 ****        -1.3500   0.6260  -3.8777 H              1 S1                 0.0000
     37 ****        -2.0656   1.7457  -1.5199 H              1 S1                 0.0000
     38 ****         3.4676   2.9232   0.6917 H              1 S1                 0.0000
     39 ****         1.8561   3.5873   0.8739 H              1 S1                 0.0000
     40 ****         3.9509   3.2558   3.0763 H              1 S1                 0.0000
     41 ****         3.4158   4.7670   2.3765 H              1 S1                 0.0000
     42 ****         2.2955   4.3233   4.5761 H              1 S1                 0.0000
     43 ****         1.1283   4.4251   3.2747 H              1 S1                 0.0000
     44 ****         2.2815   1.8785   4.4755 H              1 S1                 0.0000
     45 ****         0.6582   2.4689   4.7156 H              1 S1                 0.0000
     46 ****         0.1940   2.2406   2.2833 H              1 S1                 0.0000
     47 ****         0.1920  -0.2490   2.0554 H              1 S1                 0.0000
     48 ****        -1.0810   1.1698   4.2903 H              1 S1                 0.0000
     49 ****        -1.7048   0.0358   3.1207 H              1 S1                 0.0000
     50 ****        -0.5344  -0.4790   5.8105 H              1 S1                 0.0000
     51 ****        -1.6773  -1.4819   4.9248 H              1 S1                 0.0000
     52 ****         0.8765  -2.3241   5.1901 H              1 S1                 0.0000
     53 ****         0.0828  -2.4769   3.6225 H              1 S1                 0.0000
     54 ****         1.9260  -0.2547   4.5499 H              1 S1                 0.0000
     55 ****         2.8480  -0.7369   2.4912 H              1 S1                 0.0000
     56 ****         3.6590  -1.1856  -1.1784 H              1 S1                 0.0000
     57 ****        -3.2825  -2.6580  -4.0342 H              1 S1                 0.0000
     58 ****        -4.0743  -0.6491  -5.0739 H              1 S1                 0.0000
     59 ****        -2.4440  -0.2031  -5.5936 H              1 S1                 0.0000
     60 ****        -4.0463  -2.6085  -6.5107 H              1 S1                 0.0000
     61 ****        -3.1972  -1.4284  -7.5132 H              1 S1                 0.0000
     62 ****        -0.5061  -2.2527  -5.1900 H              1 S1                 0.0000
     63 ****        -1.3185  -3.7550  -4.7618 H              1 S1                 0.0000
     64 ****        -2.8101  -3.7309  -2.4409 LP             1 S1                 0.0000
     65 ****        -3.2408  -2.7369  -1.2190 LP             1 S1                 0.0000
     66 ****        -0.7208   2.4330   0.4713 LP             1 S1                 0.0000
     67 ****         2.7892   1.1822   2.2346 LP             1 S1                 0.0000
     68 ****         1.8052  -1.8992   2.1858 LP             1 S1                 0.0000
     69 ****         2.8650  -2.0276   3.4215 LP             1 S1                 0.0000
     70 ****         3.7658   0.1141   0.7231 LP             1 S1                 0.0000
     71 ****         1.7749  -1.1833  -2.6172 LP             1 S1                 0.0000
     72 ****        -1.3098  -2.4533  -7.1151 LP             1 S1                 0.0000
     73 ****        -2.2413  -3.7308  -6.7066 LP             1 S1                 0.0000
@<TRIPOS>BOND
    1    1    2 1     
    2    1   31 1     
    3    2    3 1     
    4    2   32 1     
    5    2   33 1     
    6    3    4 1     
    7    3   26 1     
    8    3   34 1     
    9    4    5 1     
   10    4   35 1     
   11    4   36 1     
   12    5   25 1     
   13    5    6 1     
   14    6    7 2     
   15    6   37 1     
   16    7    8 1     
   17    8   25 ar    
   18    8    9 ar    
   19    9   10 1     
   20    9   22 ar    
   21   10   15 1     
   22   10   11 1     
   23   11   12 1     
   24   11   38 1     
   25   11   39 1     
   26   12   13 1     
   27   12   40 1     
   28   12   41 1     
   29   13   14 1     
   30   13   42 1     
   31   13   43 1     
   32   14   15 1     
   33   14   44 1     
   34   14   45 1     
   35   15   16 1     
   36   15   46 1     
   37   16   20 1     
   38   16   17 1     
   39   16   47 1     
   40   17   18 1     
   41   17   48 1     
   42   17   49 1     
   43   18   19 1     
   44   18   50 1     
   45   18   51 1     
   46   19   20 1     
   47   19   52 1     
   48   19   53 1     
   49   20   21 1     
   50   20   54 1     
   51   21   55 1     
   52   22   23 ar    
   53   23   24 ar    
   54   23   56 1     
   55   24   25 ar    
   56   26   30 1     
   57   26   27 1     
   58   26   57 1     
   59   27   28 1     
   60   27   58 1     
   61   27   59 1     
   62   28   29 1     
   63   28   60 1     
   64   28   61 1     
   65   29   30 1     
   66   30   62 1     
   67   30   63 1     
   68    1   64 1     
   69    1   65 1     
   70    7   66 1     
   71   10   67 1     
   72   21   68 1     
   73   21   69 1     
   74   22   70 1     
   75   24   71 1     
   76   29   72 1     
   77   29   73 1     
@<TRIPOS>SUBSTRUCTURE
      1 S1             1
@<TRIPOS>SET
LONE_PAIRS      STATIC     ATOMS    <user>   **** ""
10 64 65 66 67 68 69 70 71 72 73
DONOR_HYDROGENS      STATIC     ATOMS    <user>   **** ""
2 31 55
ATOM$BLUE        STATIC     ATOMS    COLORGROUP SYSTEM
10 64 65 66 67 68 69 70 71 72 73
ATOM$RED        STATIC     ATOMS    COLORGROUP SYSTEM
2 31 55
