AV-unprocessed.smi:462|AV-procd|sdf|2633|dock6
  -GOLD-   2262023 43D 1   1.00000     0.00000
 Structure written by MMmdl.
 47 49  0  0  0  0  0  0  0  0  2 V2000
  156.4759  135.7014  156.8113 C   0  0  0  0  0  0  0  0  0  0  0  0
  155.4628  136.5573  156.3057 O   0  0  0  0  0  0  0  0  0  0  0  0
  155.7892  137.4280  155.2860 C   0  0  0  0  0  0  0  0  0  0  0  0
  157.0832  137.5215  154.7141 C   0  0  0  0  0  0  0  0  0  0  0  0
  157.3387  138.4320  153.6726 C   0  0  0  0  0  0  0  0  0  0  0  0
  156.3085  139.2585  153.1924 C   0  0  0  0  0  0  0  0  0  0  0  0
  155.0208  139.1741  153.7522 C   0  0  0  0  0  0  0  0  0  0  0  0
  154.7534  138.2582  154.7999 C   0  0  0  0  0  0  0  0  0  0  0  0
  153.5198  138.1186  155.3963 O   0  0  0  0  0  0  0  0  0  0  0  0
  152.4443  138.9326  154.9527 C   0  0  0  0  0  0  0  0  0  0  0  0
  151.3752  139.0006  156.0564 C   0  0  0  0  0  0  0  0  0  0  0  0
  150.9562  140.3833  156.3527 N   0  0  0  0  0  0  0  0  0  0  0  0
  149.9890  141.1718  155.7856 C   0  0  0  0  0  0  0  0  0  0  0  0
  149.0943  140.8467  154.6144 C   0  0  0  0  0  0  0  0  0  0  0  0
  148.4650  139.4478  154.7657 C   0  0  0  0  0  0  0  0  0  0  0  0
  147.9982  141.9180  154.4854 C   0  0  0  0  0  0  0  0  0  0  0  0
  149.8074  140.8143  153.3948 O   0  0  0  0  0  0  0  0  0  0  0  0
  150.0268  142.3695  156.4405 N   0  3  0  0  0  0  0  0  0  0  0  0
  150.9971  142.3438  157.4398 C   0  0  0  0  0  0  0  0  0  0  0  0
  151.3795  143.3131  158.3619 C   0  0  0  0  0  0  0  0  0  0  0  0
  152.4150  142.9650  159.2533 C   0  0  0  0  0  0  0  0  0  0  0  0
  153.0311  141.6982  159.2020 C   0  0  0  0  0  0  0  0  0  0  0  0
  152.6374  140.7274  158.2581 C   0  0  0  0  0  0  0  0  0  0  0  0
  151.6057  141.0752  157.3849 C   0  0  0  0  0  0  0  0  0  0  0  0
  156.0533  135.0701  157.5928 H   0  0  0  0  0  0  0  0  0  0  0  0
  157.2951  136.2698  157.2532 H   0  0  0  0  0  0  0  0  0  0  0  0
  156.8677  135.0447  156.0335 H   0  0  0  0  0  0  0  0  0  0  0  0
  157.8991  136.9041  155.0572 H   0  0  0  0  0  0  0  0  0  0  0  0
  158.3273  138.4963  153.2421 H   0  0  0  0  0  0  0  0  0  0  0  0
  156.5057  139.9585  152.3940 H   0  0  0  0  0  0  0  0  0  0  0  0
  154.2531  139.8255  153.3631 H   0  0  0  0  0  0  0  0  0  0  0  0
  152.8026  139.9369  154.7236 H   0  0  0  0  0  0  0  0  0  0  0  0
  152.0072  138.5160  154.0445 H   0  0  0  0  0  0  0  0  0  0  0  0
  150.4970  138.4155  155.7831 H   0  0  0  0  0  0  0  0  0  0  0  0
  151.7571  138.5551  156.9739 H   0  0  0  0  0  0  0  0  0  0  0  0
  147.8385  139.3825  155.6560 H   0  0  0  0  0  0  0  0  0  0  0  0
  149.2296  138.6733  154.8398 H   0  0  0  0  0  0  0  0  0  0  0  0
  147.8326  139.2027  153.9113 H   0  0  0  0  0  0  0  0  0  0  0  0
  147.3889  141.9669  155.3884 H   0  0  0  0  0  0  0  0  0  0  0  0
  147.3294  141.7052  153.6507 H   0  0  0  0  0  0  0  0  0  0  0  0
  148.4192  142.9103  154.3222 H   0  0  0  0  0  0  0  0  0  0  0  0
  149.3722  140.2158  152.8069 H   0  0  0  0  0  0  0  0  0  0  0  0
  150.9094  144.2847  158.4018 H   0  0  0  0  0  0  0  0  0  0  0  0
  152.7433  143.6832  159.9905 H   0  0  0  0  0  0  0  0  0  0  0  0
  153.8202  141.4639  159.9016 H   0  0  0  0  0  0  0  0  0  0  0  0
  153.1126  139.7580  158.2350 H   0  0  0  0  0  0  0  0  0  0  0  0
  149.4210  143.1483  156.2175 H   0  0  0  0  0  0  0  0  0  0  0  0
  1  2  1  0  0  0  0
  1 25  1  0  0  0  0
  1 26  1  0  0  0  0
  1 27  1  0  0  0  0
  2  3  1  0  0  0  0
  3  8  1  0  0  0  0
  3  4  2  0  0  0  0
  4  5  1  0  0  0  0
  4 28  1  0  0  0  0
  5  6  2  0  0  0  0
  5 29  1  0  0  0  0
  6  7  1  0  0  0  0
  6 30  1  0  0  0  0
  7  8  2  0  0  0  0
  7 31  1  0  0  0  0
  8  9  1  0  0  0  0
  9 10  1  0  0  0  0
 10 11  1  0  0  0  0
 10 32  1  0  0  0  0
 10 33  1  0  0  0  0
 11 12  1  0  0  0  0
 11 34  1  0  0  0  0
 11 35  1  0  0  0  0
 12 24  1  0  0  0  0
 12 13  1  0  0  0  0
 13 14  1  0  0  0  0
 13 18  2  0  0  0  0
 14 15  1  0  0  0  0
 14 16  1  0  0  0  0
 14 17  1  0  0  0  0
 15 36  1  0  0  0  0
 15 37  1  0  0  0  0
 15 38  1  0  0  0  0
 16 39  1  0  0  0  0
 16 40  1  0  0  0  0
 16 41  1  0  0  0  0
 17 42  1  0  0  0  0
 18 19  1  0  0  0  0
 18 47  1  0  0  0  0
 19 24  2  0  0  0  0
 19 20  1  0  0  0  0
 20 21  2  0  0  0  0
 20 43  1  0  0  0  0
 21 22  1  0  0  0  0
 21 44  1  0  0  0  0
 22 23  2  0  0  0  0
 22 45  1  0  0  0  0
 23 24  1  0  0  0  0
 23 46  1  0  0  0  0
M  CHG  1  18   1
M  END
> <s_m_source_file>
AV-unprocessed.smi

> <i_m_source_file_index>
462

> <i_lp_mmshare_version>
43012

> <i_f3d_flags>
0

> <s_epik_input>
W0NIM11PYzFbY0hdW2NIXVtjSF1bY0hdYzFPW0NIMl1bQ0gyXW4oYyhuMilDKFtDSDNdKShbQ0gzXSlbT0hdKWMoYzIzKVtjSF1bY0hdW2NIXVtjSF0z

> <s_epik_cmdline>
J2VwaWtfcHl0aG9uJywgJy1waCcsICc3LjAnLCAnLXRuJywgJzgnLCAnLW1hJywgJzIwMCcsICctbWV0YWxfYmluZGluZycsICctaW1hZScsICc8aW5maWxlLm1hZT4nLCAnLW9tYWUnLCAnPG91dGZpbGUubWFlPic=

> <r_lp_tautomer_probability>
1

> <r_epik_Ionization_Penalty>
1.32796

> <r_epik_Ionization_Penalty_Charging>
1.32796

> <r_epik_Ionization_Penalty_Neutral>
1.51811e-06

> <r_epik_State_Penalty>
1.40413

> <r_epik_Charging_Adjusted_Penalty>
2.73209

> <i_epik_Tot_Q>
1

> <i_epik_Tot_abs_Q>
1

> <r_epik_Metal_State_Penalty>
5.43878

> <b_epik_Metal_Only>
0

> <s_lp_Force_Field>
OPLS_2005

> <r_lp_Energy>
22.2215

> <b_lp_Chiralities_Consistent>
1

> <s_lp_Variant>
AV-unprocessed.smi:462-2

> <Gold.Version>
5.8.1

> <Gold.Id.Protein>
6NUR|6NUR_protein|mol2

> <Gold.PLP.Fitness>
52.4078

> <Gold.PLP.PLP>
-41.1555

> <Gold.PLP.part.hbond>
-5.5689

> <Gold.PLP.part.metal>
0.0000

> <Gold.PLP.part.buried>
4.3329

> <Gold.PLP.part.nonpolar>
-40.1103

> <Gold.PLP.part.repulsive>
0.0687

> <Gold.PLP.ligand.clash>
0.0000

> <Gold.PLP.ligand.torsion>
1.2698

> <Gold.PLP.Chemscore.Hbond>
4.5520

> <Gold.PLP.Chemscore.CHOScore>
0.0000

> <Gold.PLP.Chemscore.Metal>
0.0000

> <Gold.Chemscore.Hbonds>
donor molecule, donor type, donor heavy atom, donor atom, acceptor molecule, acceptor atom, score
      L1  H    17    42       P1  7957  0.54
      L1  H    18    47       P1  8028  2.00
      P1  H  7989  7998       L1    17  0.30
      P1  H  8011  8017       L1    17  1.00
      P1  H 10752 10763       L1     2  0.66

> <Gold.PLP.Chemscore.Internal.Correction>
0.1359

> <Gold.Rescore>
     Score         DG    S(hbond)    S(metal)    S(lipo)     H(rot)  DE(clash)    DE(int)     intcor
     19.83     -24.17       2.05        0.00     152.19       2.33       3.05       1.29       ----

> <Gold.Chemscore.Fitness>
19.8291

> <Gold.Chemscore.DG>
-24.1702

> <Gold.Chemscore.ZeroCoef>
-5.4800

> <Gold.Chemscore.Hbond>
2.0504

> <Gold.Chemscore.Metal>
0.0000

> <Gold.Chemscore.Lipo>
152.1911

> <Gold.Chemscore.Internal_Hbond>
0.0000

> <Gold.Chemscore.DEClash>
3.0478

> <Gold.Chemscore.DEInternal>
1.2933

> <Gold.Chemscore.Rot>
2.3298

> <Gold.Chemscore.Internal.Correction>
   9.000000E+99

> <Gold.Chemscore.Hbonds>
donor molecule, donor type, donor heavy atom, donor atom, acceptor molecule, acceptor atom, score
      L1  H    17    42       P1  7957  0.56
      L1  H    18    47       P1  8028  1.00
      P1  H  7989  7998       L1    17  0.29
      P1  H  8011  8017       L1    17  0.24
      P1  H 10752 10763       L1     2  0.09

> <Gold.Chemscore.Hbond.Weighted>
-6.8482

> <Gold.Chemscore.Metal.Weighted>
-0.0000

> <Gold.Chemscore.Lipo.Weighted>
-17.8064

> <Gold.Chemscore.Internal_Hbond.Weighted>
0.0000

> <Gold.Chemscore.DEClash.Weighted>
3.0478

> <Gold.Chemscore.DEInternal.Weighted>
1.2933

> <Gold.Chemscore.Rot.Weighted>
5.9643

> <Gold.Chemscore.Internal.Correction.Weighted>
   9.000000E+99

> <Gold.Protein.RotatedTorsions>
[ 6907 6896 6895 6894 ] final  -77.50 input  -60.11 | X-H torsion
[ 7974 7965 7964 7962 ] final   88.52 input  175.53 | X-H torsion
[ 8008 7997 7996 7995 ] final  112.64 input   59.86 | X-H torsion
[ 10167 10162 10161 10158 ] final  120.17 input  -65.29 | X-H torsion
[ 10718 10713 10712 10709 ] final  138.13 input   66.30 | X-H torsion
[ 10763 10752 10751 10750 ] final  153.71 input  -60.55 | X-H torsion
[ 11005 11000 10999 10996 ] final  -31.63 input  -57.11 | X-H torsion

> <Gold.Protein.ActiveResidues>
 VAL166  LYS551  ARG553  GLY616  TRP617  ASP618  TYR619  PRO620  LYS621  CYS622 
 ASP623  PHE694  ASN695  SER759  ASP760  ASP761  ALA762  ILE779  LEU786  VAL792 
 PHE793  MET794  SER795  GLU796  ALA797  LYS798  CYS799  TRP800  GLU811  SER814 

> <Gold.Protein.RotatedAtoms>
  150.6997  134.4413  159.5293 H   0  0  0  0  0  0  0  0  0  0  0  0  # atno 6907 bound_to 6896
  152.2122  134.8488  160.0505 H   0  0  0  0  0  0  0  0  0  0  0  0  # atno 6908 bound_to 6896
  151.9369  133.3592  159.3988 H   0  0  0  0  0  0  0  0  0  0  0  0  # atno 6909 bound_to 6896
  145.5446  139.2291  143.2546 H   0  0  0  0  0  0  0  0  0  0  0  0  # atno 7974 bound_to 7965
  156.2206  140.2995  155.9942 H   0  0  0  0  0  0  0  0  0  0  0  0  # atno 8008 bound_to 7997
  155.2492  140.0425  157.3002 H   0  0  0  0  0  0  0  0  0  0  0  0  # atno 8009 bound_to 7997
  154.5834  140.2381  155.8029 H   0  0  0  0  0  0  0  0  0  0  0  0  # atno 8010 bound_to 7997
  139.5999  144.7053  151.3088 H   0  0  0  0  0  0  0  0  0  0  0  0  # atno 10167 bound_to 10162
  157.4286  131.1046  151.0275 H   0  0  0  0  0  0  0  0  0  0  0  0  # atno 10718 bound_to 10713
  154.1406  135.2821  155.3162 H   0  0  0  0  0  0  0  0  0  0  0  0  # atno 10763 bound_to 10752
  154.6290  135.5442  153.7662 H   0  0  0  0  0  0  0  0  0  0  0  0  # atno 10764 bound_to 10752
  153.0252  135.6458  154.1553 H   0  0  0  0  0  0  0  0  0  0  0  0  # atno 10765 bound_to 10752
  140.9484  133.7236  156.1182 H   0  0  0  0  0  0  0  0  0  0  0  0  # atno 11005 bound_to 11000
  146.1958  140.6267  142.9125 LP  0  0  0  0  0  0  0  0  0  0  0  0  # atno 17320 bound_to 7965
  144.7560  140.5307  143.6769 LP  0  0  0  0  0  0  0  0  0  0  0  0  # atno 17321 bound_to 7965
  140.7241  143.7053  150.7812 LP  0  0  0  0  0  0  0  0  0  0  0  0  # atno 17342 bound_to 10162
  140.0627  143.5139  152.2619 LP  0  0  0  0  0  0  0  0  0  0  0  0  # atno 17343 bound_to 10162
  157.1179  130.6049  149.5498 LP  0  0  0  0  0  0  0  0  0  0  0  0  # atno 17370 bound_to 10713
  155.9905  130.4956  150.7260 LP  0  0  0  0  0  0  0  0  0  0  0  0  # atno 17371 bound_to 10713
  140.7637  134.3910  157.5521 LP  0  0  0  0  0  0  0  0  0  0  0  0  # atno 17394 bound_to 11000
  139.8840  134.8978  156.2730 LP  0  0  0  0  0  0  0  0  0  0  0  0  # atno 17395 bound_to 11000

$$$$
