AV-unprocessed.smi:2768|AV-procd|sdf|10652|dock4
  -GOLD-   2272015103D 1   1.00000     0.00000
 Structure written by MMmdl.
 34 35  0  0  0  0  0  0  0  0  2 V2000
  151.9253  144.3607  156.8227 O   0  0  0  0  0  0  0  0  0  0  0  0
  151.4709  143.5960  157.6817 C   0  0  0  0  0  0  0  0  0  0  0  0
  150.9932  142.3247  157.5521 N   0  5  0  0  0  0  0  0  0  0  0  0
  150.9934  141.5626  156.3017 C   0  0  2  0  0  0  0  0  0  0  0  0
  149.5772  141.6056  155.6750 C   0  0  0  0  0  0  0  0  0  0  0  0
  149.4281  140.7062  154.4222 C   0  0  0  0  0  0  0  0  0  0  0  0
  149.8080  139.2375  154.7007 C   0  0  0  0  0  0  0  0  0  0  0  0
  151.2248  139.1786  155.3079 C   0  0  0  0  0  0  0  0  0  0  0  0
  151.3782  140.0786  156.5635 C   0  0  1  0  0  0  0  0  0  0  0  0
  152.7220  139.9987  156.9982 O   0  0  0  0  0  0  0  0  0  0  0  0
  151.3920  144.1032  159.1380 C   0  0  0  0  0  0  0  0  0  0  0  0
  151.7759  145.3828  159.2087 F   0  0  0  0  0  0  0  0  0  0  0  0
  150.1186  144.0505  159.5370 F   0  0  0  0  0  0  0  0  0  0  0  0
  152.2409  143.2284  160.0586 C   0  0  0  0  0  0  0  0  0  0  0  0
  152.2388  143.4392  161.4567 C   0  0  0  0  0  0  0  0  0  0  0  0
  153.0278  142.6022  162.2685 C   0  0  0  0  0  0  0  0  0  0  0  0
  153.7891  141.5871  161.6591 C   0  0  0  0  0  0  0  0  0  0  0  0
  153.7250  141.4534  160.2582 C   0  0  0  0  0  0  0  0  0  0  0  0
  152.9728  142.2511  159.4711 N   0  0  0  0  0  0  0  0  0  0  0  0
  151.6909  141.9675  155.5659 H   0  0  0  0  0  0  0  0  0  0  0  0
  150.7472  139.6732  157.3563 H   0  0  0  0  0  0  0  0  0  0  0  0
  148.8405  141.2928  156.4169 H   0  0  0  0  0  0  0  0  0  0  0  0
  149.3239  142.6335  155.4123 H   0  0  0  0  0  0  0  0  0  0  0  0
  148.3988  140.7514  154.0650 H   0  0  0  0  0  0  0  0  0  0  0  0
  150.0428  141.0926  153.6067 H   0  0  0  0  0  0  0  0  0  0  0  0
  149.0914  138.7972  155.3953 H   0  0  0  0  0  0  0  0  0  0  0  0
  149.7619  138.6507  153.7829 H   0  0  0  0  0  0  0  0  0  0  0  0
  151.4586  138.1458  155.5688 H   0  0  0  0  0  0  0  0  0  0  0  0
  151.9521  139.4642  154.5447 H   0  0  0  0  0  0  0  0  0  0  0  0
  152.7336  139.5543  157.8318 H   0  0  0  0  0  0  0  0  0  0  0  0
  151.6385  144.2209  161.8984 H   0  0  0  0  0  0  0  0  0  0  0  0
  153.0468  142.7359  163.3399 H   0  0  0  0  0  0  0  0  0  0  0  0
  154.4050  140.9259  162.2502 H   0  0  0  0  0  0  0  0  0  0  0  0
  154.2952  140.6860  159.7559 H   0  0  0  0  0  0  0  0  0  0  0  0
  1  2  2  0  0  0  0
  2  3  1  0  0  0  0
  2 11  1  0  0  0  0
  3  4  1  0  0  0  0
  4 20  1  0  0  0  0
  4  9  1  0  0  0  0
  4  5  1  0  0  0  0
  5  6  1  0  0  0  0
  5 22  1  0  0  0  0
  5 23  1  0  0  0  0
  6  7  1  0  0  0  0
  6 24  1  0  0  0  0
  6 25  1  0  0  0  0
  7  8  1  0  0  0  0
  7 26  1  0  0  0  0
  7 27  1  0  0  0  0
  8  9  1  0  0  0  0
  8 28  1  0  0  0  0
  8 29  1  0  0  0  0
  9 21  1  0  0  0  0
  9 10  1  0  0  0  0
 10 30  1  0  0  0  0
 11 12  1  0  0  0  0
 11 13  1  0  0  0  0
 11 14  1  0  0  0  0
 14 19  1  0  0  0  0
 14 15  2  0  0  0  0
 15 16  1  0  0  0  0
 15 31  1  0  0  0  0
 16 17  2  0  0  0  0
 16 32  1  0  0  0  0
 17 18  1  0  0  0  0
 17 33  1  0  0  0  0
 18 19  2  0  0  0  0
 18 34  1  0  0  0  0
M  CHG  1   3  -1
M  END
> <s_m_source_file>
AV-unprocessed.smi

> <i_m_source_file_index>
2768

> <i_lp_mmshare_version>
43012

> <i_f3d_flags>
0

> <s_epik_input>
bjFbY0hdW2NIXVtjSF1bY0hdYzFDKEYpKEYpQyg9TylbTkhdW0NAQEhdMltDSDJdW0NIMl1bQ0gyXVtDSDJdW0NASF0yW09IXQ==

> <s_epik_cmdline>
J2VwaWtfcHl0aG9uJywgJy1waCcsICc3LjAnLCAnLXRuJywgJzgnLCAnLW1hJywgJzIwMCcsICctbWV0YWxfYmluZGluZycsICctaW1hZScsICc8aW5maWxlLm1hZT4nLCAnLW9tYWUnLCAnPG91dGZpbGUubWFlPic=

> <r_lp_tautomer_probability>
1

> <r_epik_Ionization_Penalty>
5.70553

> <r_epik_Ionization_Penalty_Charging>
5.70553

> <r_epik_Ionization_Penalty_Neutral>
5.5493e-06

> <r_epik_State_Penalty>
5.70549

> <r_epik_Charging_Adjusted_Penalty>
11.411

> <i_epik_Tot_Q>
-1

> <i_epik_Tot_abs_Q>
1

> <r_epik_Metal_State_Penalty>
1.6859

> <b_epik_Metal_Only>
1

> <s_lp_Force_Field>
OPLS_2005

> <r_lp_Energy>
26.6713

> <b_lp_Chiralities_Consistent>
1

> <s_lp_Variant>
AV-unprocessed.smi:2768-5

> <Gold.Version>
5.8.1

> <Gold.Id.Protein>
6NUR|6NUR_protein|mol2

> <Gold.PLP.Fitness>
49.4978

> <Gold.PLP.PLP>
-47.1323

> <Gold.PLP.part.hbond>
-1.0000

> <Gold.PLP.part.metal>
0.0000

> <Gold.PLP.part.buried>
-1.0628

> <Gold.PLP.part.nonpolar>
-44.9932

> <Gold.PLP.part.repulsive>
0.2171

> <Gold.PLP.ligand.clash>
0.0000

> <Gold.PLP.ligand.torsion>
0.3335

> <Gold.PLP.Chemscore.Hbond>
1.0000

> <Gold.PLP.Chemscore.CHOScore>
0.0000

> <Gold.PLP.Chemscore.Metal>
0.0000

> <Gold.Chemscore.Hbonds>
donor molecule, donor type, donor heavy atom, donor atom, acceptor molecule, acceptor atom, score
      P1  H  7997  8010       L1    10  1.00

> <Gold.PLP.Chemscore.Internal.Correction>
0.0325

> <Gold.Rescore>
     Score         DG    S(hbond)    S(metal)    S(lipo)     H(rot)  DE(clash)    DE(int)     intcor
     13.41     -15.57       0.84        0.00     105.04       1.95       0.37       1.79       ----

> <Gold.Chemscore.Fitness>
13.4149

> <Gold.Chemscore.DG>
-15.5703

> <Gold.Chemscore.ZeroCoef>
-5.4800

> <Gold.Chemscore.Hbond>
0.8364

> <Gold.Chemscore.Metal>
0.0000

> <Gold.Chemscore.Lipo>
105.0383

> <Gold.Chemscore.Internal_Hbond>
0.0000

> <Gold.Chemscore.DEClash>
0.3658

> <Gold.Chemscore.DEInternal>
1.7896

> <Gold.Chemscore.Rot>
1.9503

> <Gold.Chemscore.Internal.Correction>
   9.000000E+99

> <Gold.Chemscore.Hbonds>
donor molecule, donor type, donor heavy atom, donor atom, acceptor molecule, acceptor atom, score
      P1  H  7997  8010       L1    10  0.68

> <Gold.Chemscore.Hbond.Weighted>
-2.7936

> <Gold.Chemscore.Metal.Weighted>
-0.0000

> <Gold.Chemscore.Lipo.Weighted>
-12.2895

> <Gold.Chemscore.Internal_Hbond.Weighted>
0.0000

> <Gold.Chemscore.DEClash.Weighted>
0.3658

> <Gold.Chemscore.DEInternal.Weighted>
1.7896

> <Gold.Chemscore.Rot.Weighted>
4.9928

> <Gold.Chemscore.Internal.Correction.Weighted>
   9.000000E+99

> <Gold.Protein.RotatedTorsions>
[ 6907 6896 6895 6894 ] final   77.35 input  -60.11 | X-H torsion
[ 7974 7965 7964 7962 ] final -178.86 input  175.53 | X-H torsion
[ 8008 7997 7996 7995 ] final   73.90 input   59.86 | X-H torsion
[ 10167 10162 10161 10158 ] final   83.64 input  -65.29 | X-H torsion
[ 10718 10713 10712 10709 ] final   39.44 input   66.30 | X-H torsion
[ 10763 10752 10751 10750 ] final  109.72 input  -60.55 | X-H torsion
[ 11005 11000 10999 10996 ] final  108.03 input  -57.11 | X-H torsion

> <Gold.Protein.ActiveResidues>
 VAL166  LYS551  ARG553  GLY616  TRP617  ASP618  TYR619  PRO620  LYS621  CYS622 
 ASP623  PHE694  ASN695  SER759  ASP760  ASP761  ALA762  ILE779  LEU786  VAL792 
 PHE793  MET794  SER795  GLU796  ALA797  LYS798  CYS799  TRP800  GLU811  SER814 

> <Gold.Protein.RotatedAtoms>
  152.5114  134.3830  159.9357 H   0  0  0  0  0  0  0  0  0  0  0  0  # atno 6907 bound_to 6896
  151.3787  133.3822  159.2715 H   0  0  0  0  0  0  0  0  0  0  0  0  # atno 6908 bound_to 6896
  150.9521  134.8940  159.7737 H   0  0  0  0  0  0  0  0  0  0  0  0  # atno 6909 bound_to 6896
  144.7133  140.0804  143.6426 H   0  0  0  0  0  0  0  0  0  0  0  0  # atno 7974 bound_to 7965
  155.7905  140.3479  155.5347 H   0  0  0  0  0  0  0  0  0  0  0  0  # atno 8008 bound_to 7997
  155.8638  140.0975  157.1616 H   0  0  0  0  0  0  0  0  0  0  0  0  # atno 8009 bound_to 7997
  154.4013  140.1353  156.3981 H   0  0  0  0  0  0  0  0  0  0  0  0  # atno 8010 bound_to 7997
  139.9163  144.6240  150.8485 H   0  0  0  0  0  0  0  0  0  0  0  0  # atno 10167 bound_to 10162
  157.3706  130.7699  149.7116 H   0  0  0  0  0  0  0  0  0  0  0  0  # atno 10718 bound_to 10713
  153.4387  135.3771  155.2215 H   0  0  0  0  0  0  0  0  0  0  0  0  # atno 10763 bound_to 10752
  154.8753  135.3857  154.4179 H   0  0  0  0  0  0  0  0  0  0  0  0  # atno 10764 bound_to 10752
  153.4722  135.7087  153.6050 H   0  0  0  0  0  0  0  0  0  0  0  0  # atno 10765 bound_to 10752
  139.8837  134.9418  156.5910 H   0  0  0  0  0  0  0  0  0  0  0  0  # atno 11005 bound_to 11000
  145.9707  139.2867  143.1100 LP  0  0  0  0  0  0  0  0  0  0  0  0  # atno 17320 bound_to 7965
  145.9120  140.9174  143.0449 LP  0  0  0  0  0  0  0  0  0  0  0  0  # atno 17321 bound_to 7965
  140.7673  143.3329  151.2372 LP  0  0  0  0  0  0  0  0  0  0  0  0  # atno 17342 bound_to 10162
  139.6899  143.9710  152.2854 LP  0  0  0  0  0  0  0  0  0  0  0  0  # atno 17343 bound_to 10162
  155.9755  130.4088  150.3847 LP  0  0  0  0  0  0  0  0  0  0  0  0  # atno 17370 bound_to 10713
  157.1938  131.0421  151.2686 LP  0  0  0  0  0  0  0  0  0  0  0  0  # atno 17371 bound_to 10713
  140.7956  133.8547  155.8682 LP  0  0  0  0  0  0  0  0  0  0  0  0  # atno 17394 bound_to 11000
  140.9639  134.1620  157.4632 LP  0  0  0  0  0  0  0  0  0  0  0  0  # atno 17395 bound_to 11000

$$$$
