AV-unprocessed.smi:1877|AV-procd|sdf|7623|dock1
  -GOLD-   22720 9353D 1   1.00000     0.00000
 Structure written by MMmdl.
 32 34  0  0  0  0  0  0  0  0  1 V2000
  152.6961  140.5620  158.2341 O   0  0  0  0  0  0  0  0  0  0  0  0
  151.9296  141.7419  158.1003 C   0  0  1  0  0  0  0  0  0  0  0  0
  150.4546  141.3379  157.9045 C   0  0  0  0  0  0  0  0  0  0  0  0
  150.1376  141.0675  156.5133 N   0  0  0  0  0  0  0  0  0  0  0  0
  150.9121  140.4252  155.6180 C   0  0  0  0  0  0  0  0  0  0  0  0
  150.4358  140.2923  154.3835 N   0  0  0  0  0  0  0  0  0  0  0  0
  149.2084  140.9236  154.4884 C   0  0  0  0  0  0  0  0  0  0  0  0
  148.2014  141.1371  153.5198 C   0  0  0  0  0  0  0  0  0  0  0  0
  147.0167  141.8226  153.8600 C   0  0  0  0  0  0  0  0  0  0  0  0
  146.8192  142.3020  155.1713 C   0  0  0  0  0  0  0  0  0  0  0  0
  147.8063  142.0980  156.1540 C   0  0  0  0  0  0  0  0  0  0  0  0
  148.9889  141.4166  155.8102 C   0  0  0  0  0  0  0  0  0  0  0  0
  152.1163  142.6890  159.2804 C   0  0  0  0  0  0  0  0  0  0  0  0
  152.5480  142.1911  160.5304 C   0  0  0  0  0  0  0  0  0  0  0  0
  152.6889  143.0566  161.6319 C   0  0  0  0  0  0  0  0  0  0  0  0
  153.0983  142.5698  162.8270 F   0  0  0  0  0  0  0  0  0  0  0  0
  152.3994  144.4268  161.4920 C   0  0  0  0  0  0  0  0  0  0  0  0
  151.9683  144.9303  160.2503 C   0  0  0  0  0  0  0  0  0  0  0  0
  151.8258  144.0662  159.1471 C   0  0  0  0  0  0  0  0  0  0  0  0
  151.3953  144.5663  157.9639 F   0  0  0  0  0  0  0  0  0  0  0  0
  153.1229  140.3872  157.4092 H   0  0  0  0  0  0  0  0  0  0  0  0
  152.2853  142.2282  157.1913 H   0  0  0  0  0  0  0  0  0  0  0  0
  150.2343  140.4352  158.4764 H   0  0  0  0  0  0  0  0  0  0  0  0
  149.7840  142.1131  158.2778 H   0  0  0  0  0  0  0  0  0  0  0  0
  151.8833  140.0364  155.8877 H   0  0  0  0  0  0  0  0  0  0  0  0
  148.3419  140.7746  152.5123 H   0  0  0  0  0  0  0  0  0  0  0  0
  146.2552  141.9815  153.1106 H   0  0  0  0  0  0  0  0  0  0  0  0
  145.9092  142.8267  155.4229 H   0  0  0  0  0  0  0  0  0  0  0  0
  147.6584  142.4662  157.1582 H   0  0  0  0  0  0  0  0  0  0  0  0
  152.7622  141.1393  160.6518 H   0  0  0  0  0  0  0  0  0  0  0  0
  152.5048  145.0909  162.3371 H   0  0  0  0  0  0  0  0  0  0  0  0
  151.7414  145.9809  160.1447 H   0  0  0  0  0  0  0  0  0  0  0  0
  1  2  1  0  0  0  0
  1 21  1  0  0  0  0
  2  3  1  0  0  0  0
  2 13  1  0  0  0  0
  2 22  1  0  0  0  0
  3  4  1  0  0  0  0
  3 23  1  0  0  0  0
  3 24  1  0  0  0  0
  4 12  1  0  0  0  0
  4  5  1  0  0  0  0
  5  6  2  0  0  0  0
  5 25  1  0  0  0  0
  6  7  1  0  0  0  0
  7 12  2  0  0  0  0
  7  8  1  0  0  0  0
  8  9  2  0  0  0  0
  8 26  1  0  0  0  0
  9 10  1  0  0  0  0
  9 27  1  0  0  0  0
 10 11  2  0  0  0  0
 10 28  1  0  0  0  0
 11 12  1  0  0  0  0
 11 29  1  0  0  0  0
 13 19  1  0  0  0  0
 13 14  2  0  0  0  0
 14 15  1  0  0  0  0
 14 30  1  0  0  0  0
 15 16  1  0  0  0  0
 15 17  2  0  0  0  0
 17 18  1  0  0  0  0
 17 31  1  0  0  0  0
 18 19  2  0  0  0  0
 18 32  1  0  0  0  0
 19 20  1  0  0  0  0
M  END
> <s_m_source_file>
AV-unprocessed.smi

> <i_m_source_file_index>
1877

> <i_lp_mmshare_version>
43012

> <i_f3d_flags>
0

> <s_epik_input>
RmMxW2NIXVtjSF1jKEYpW2NIXWMxW0NASF0oW09IXSlbQ0gyXW4oW2NIXW4yKWMoYzIzKVtjSF1bY0hdW2NIXVtjSF0z

> <s_epik_cmdline>
J2VwaWtfcHl0aG9uJywgJy1waCcsICc3LjAnLCAnLXRuJywgJzgnLCAnLW1hJywgJzIwMCcsICctbWV0YWxfYmluZGluZycsICctaW1hZScsICc8aW5maWxlLm1hZT4nLCAnLW9tYWUnLCAnPG91dGZpbGUubWFlPic=

> <r_epik_Ionization_Penalty>
0.0696522

> <r_epik_Ionization_Penalty_Charging>
0

> <r_epik_Ionization_Penalty_Neutral>
0.0696522

> <r_epik_State_Penalty>
0.0610247

> <r_epik_Charging_Adjusted_Penalty>
0.0610247

> <i_epik_Tot_Q>
0

> <i_epik_Tot_abs_Q>
0

> <r_epik_Metal_State_Penalty>
6.42746e-05

> <b_epik_Metal_Only>
0

> <s_lp_Force_Field>
OPLS_2005

> <r_lp_Energy>
11.5038

> <b_lp_Chiralities_Consistent>
1

> <s_lp_Variant>
AV-unprocessed.smi:1877-2

> <Gold.Version>
5.8.1

> <Gold.Id.Protein>
6NUR|6NUR_protein|mol2

> <Gold.PLP.Fitness>
51.6918

> <Gold.PLP.PLP>
-51.1187

> <Gold.PLP.part.hbond>
-1.7349

> <Gold.PLP.part.metal>
0.0000

> <Gold.PLP.part.buried>
-1.1770

> <Gold.PLP.part.nonpolar>
-47.1243

> <Gold.PLP.part.repulsive>
0.1094

> <Gold.PLP.ligand.clash>
0.0000

> <Gold.PLP.ligand.torsion>
1.2226

> <Gold.PLP.Chemscore.Hbond>
1.0000

> <Gold.PLP.Chemscore.CHOScore>
0.0000

> <Gold.PLP.Chemscore.Metal>
0.0000

> <Gold.Chemscore.Hbonds>
donor molecule, donor type, donor heavy atom, donor atom, acceptor molecule, acceptor atom, score
      P1  H  7989  7998       L1     6  1.00

> <Gold.PLP.Chemscore.Internal.Correction>
0.0183

> <Gold.Rescore>
     Score         DG    S(hbond)    S(metal)    S(lipo)     H(rot)  DE(clash)    DE(int)     intcor
     14.91     -16.07       0.63        0.00     116.32       2.00       0.14       1.02       ----

> <Gold.Chemscore.Fitness>
14.9119

> <Gold.Chemscore.DG>
-16.0729

> <Gold.Chemscore.ZeroCoef>
-5.4800

> <Gold.Chemscore.Hbond>
0.6328

> <Gold.Chemscore.Metal>
0.0000

> <Gold.Chemscore.Lipo>
116.3218

> <Gold.Chemscore.Internal_Hbond>
0.0000

> <Gold.Chemscore.DEClash>
0.1385

> <Gold.Chemscore.DEInternal>
1.0224

> <Gold.Chemscore.Rot>
2.0040

> <Gold.Chemscore.Internal.Correction>
   9.000000E+99

> <Gold.Chemscore.Hbonds>
donor molecule, donor type, donor heavy atom, donor atom, acceptor molecule, acceptor atom, score
      P1  H  7989  7998       L1     6  0.38

> <Gold.Chemscore.Hbond.Weighted>
-2.1136

> <Gold.Chemscore.Metal.Weighted>
-0.0000

> <Gold.Chemscore.Lipo.Weighted>
-13.6096

> <Gold.Chemscore.Internal_Hbond.Weighted>
0.0000

> <Gold.Chemscore.DEClash.Weighted>
0.1385

> <Gold.Chemscore.DEInternal.Weighted>
1.0224

> <Gold.Chemscore.Rot.Weighted>
5.1303

> <Gold.Chemscore.Internal.Correction.Weighted>
   9.000000E+99

> <Gold.Protein.RotatedTorsions>
[ 6907 6896 6895 6894 ] final   64.97 input  -60.11 | X-H torsion
[ 7974 7965 7964 7962 ] final  -38.72 input  175.53 | X-H torsion
[ 8008 7997 7996 7995 ] final  117.55 input   59.86 | X-H torsion
[ 10167 10162 10161 10158 ] final -160.73 input  -65.29 | X-H torsion
[ 10718 10713 10712 10709 ] final -123.20 input   66.30 | X-H torsion
[ 10763 10752 10751 10750 ] final  -21.16 input  -60.55 | X-H torsion
[ 11005 11000 10999 10996 ] final  -12.20 input  -57.11 | X-H torsion

> <Gold.Protein.ActiveResidues>
 VAL166  LYS551  ARG553  GLY616  TRP617  ASP618  TYR619  PRO620  LYS621  CYS622 
 ASP623  PHE694  ASN695  SER759  ASP760  ASP761  ALA762  ILE779  LEU786  VAL792 
 PHE793  MET794  SER795  GLU796  ALA797  LYS798  CYS799  TRP800  GLU811  SER814 

> <Gold.Protein.RotatedAtoms>
  152.4372  134.5663  159.9908 H   0  0  0  0  0  0  0  0  0  0  0  0  # atno 6907 bound_to 6896
  151.5770  133.3377  159.3009 H   0  0  0  0  0  0  0  0  0  0  0  0  # atno 6908 bound_to 6896
  150.8272  134.7543  159.6887 H   0  0  0  0  0  0  0  0  0  0  0  0  # atno 6909 bound_to 6896
  146.0461  140.6543  142.9064 H   0  0  0  0  0  0  0  0  0  0  0  0  # atno 7974 bound_to 7965
  156.2500  140.2894  156.0697 H   0  0  0  0  0  0  0  0  0  0  0  0  # atno 8008 bound_to 7997
  155.1685  140.0401  157.2875 H   0  0  0  0  0  0  0  0  0  0  0  0  # atno 8009 bound_to 7997
  154.6343  140.2507  155.7404 H   0  0  0  0  0  0  0  0  0  0  0  0  # atno 8010 bound_to 7997
  139.6518  144.0071  152.2166 H   0  0  0  0  0  0  0  0  0  0  0  0  # atno 10167 bound_to 10162
  156.1482  130.6515  150.9874 H   0  0  0  0  0  0  0  0  0  0  0  0  # atno 10718 bound_to 10713
  153.6317  135.6989  153.5273 H   0  0  0  0  0  0  0  0  0  0  0  0  # atno 10763 bound_to 10752
  153.2854  135.4173  155.1117 H   0  0  0  0  0  0  0  0  0  0  0  0  # atno 10764 bound_to 10752
  154.8520  135.3612  154.5860 H   0  0  0  0  0  0  0  0  0  0  0  0  # atno 10765 bound_to 10752
  140.7633  133.8497  155.9143 H   0  0  0  0  0  0  0  0  0  0  0  0  # atno 11005 bound_to 11000
  144.7099  140.3997  143.7089 LP  0  0  0  0  0  0  0  0  0  0  0  0  # atno 17320 bound_to 7965
  145.6803  139.1617  143.2705 LP  0  0  0  0  0  0  0  0  0  0  0  0  # atno 17321 bound_to 7965
  139.9787  144.6444  150.7921 LP  0  0  0  0  0  0  0  0  0  0  0  0  # atno 17342 bound_to 10162
  140.7541  143.3021  151.3055 LP  0  0  0  0  0  0  0  0  0  0  0  0  # atno 17343 bound_to 10162
  157.6635  131.0876  150.7784 LP  0  0  0  0  0  0  0  0  0  0  0  0  # atno 17370 bound_to 10713
  156.7854  130.4872  149.5394 LP  0  0  0  0  0  0  0  0  0  0  0  0  # atno 17371 bound_to 10713
  140.9643  134.1615  157.4629 LP  0  0  0  0  0  0  0  0  0  0  0  0  # atno 17394 bound_to 11000
  139.8767  134.9956  156.5751 LP  0  0  0  0  0  0  0  0  0  0  0  0  # atno 17395 bound_to 11000

$$$$
