#       Name:                AV-unprocessed.smi:794
#       Creating user name   scv26
#       Creation time:       Fri Mar 27 01:19:13 2020


#       File generated by GOLD software.
#

@<TRIPOS>MOLECULE
AV-unprocessed.smi:794
    46    48     1
SMALL
NO_CHARGES


@<TRIPOS>ATOM
      1 ****        -5.8707  -0.8382   0.1400 C.3            1 S1                 0.0000
      2 ****        -4.8345   0.1513  -0.2971 C.2            1 S1                 0.0000
      3 ****        -3.4791  -0.1711  -0.1799 N.2            1 S1                 0.0000
      4 ****        -2.6850   0.8126  -0.6144 C.2            1 S1                 0.0000
      5 ****        -1.2665   0.7565  -0.6161 N.am           1 S1                 0.0000
      6 ****        -0.4748  -0.2503  -0.2070 C.2            1 S1                 0.0000
      7 ****        -0.8667  -1.3240   0.2512 O.2            1 S1                 0.0000
      8 ****         0.8206   0.0599  -0.3549 N.am           1 S1                 0.0000
      9 ****         1.9329  -0.8152   0.0095 C.3            1 S1                 0.0000
     10 ****         2.1978  -0.8723   1.5353 C.3            1 S1                 0.0000
     11 ****         2.3306   0.5423   2.1401 C.3            1 S1                 0.0000
     12 ****         3.6729   1.0297   1.5640 C.3            1 S1                 0.0000
     13 ****         4.1440  -0.1772   0.7293 C.3            1 S1                 0.0000
     14 ****         3.6456  -1.3438   1.5749 C.3            1 S1                 0.0000
     15 ****         3.2806  -0.2859  -0.5492 C.3            1 S1                 0.0000
     16 ****         3.9062  -1.2059  -1.6152 C.3            1 S1                 0.0000
     17 ****         3.1312  -1.1802  -2.7952 O.3            1 S1                 0.0000
     18 ****        -3.5602   2.2169  -1.1999 S.3            1 S1                 0.0000
     19 ****        -5.0588   1.3995  -0.8308 C.2            1 S1                 0.0000
     20 ****        -6.3739   2.0534  -1.0968 C.3            1 S1                 0.0000
     21 ****        -6.5951  -0.3783   0.8124 H              1 S1                 0.0000
     22 ****        -5.4258  -1.6834   0.6662 H              1 S1                 0.0000
     23 ****        -6.4190  -1.2339  -0.7149 H              1 S1                 0.0000
     24 ****        -0.8005   1.5786  -0.9703 H              1 S1                 0.0000
     25 ****         1.0576   0.9614  -0.7424 H              1 S1                 0.0000
     26 ****         1.7393  -1.8232  -0.3636 H              1 S1                 0.0000
     27 ****         1.4969  -1.5103   2.0746 H              1 S1                 0.0000
     28 ****         1.5007   1.2037   1.8909 H              1 S1                 0.0000
     29 ****         2.3842   0.4874   3.2282 H              1 S1                 0.0000
     30 ****         3.5656   1.9344   0.9646 H              1 S1                 0.0000
     31 ****         4.3776   1.2452   2.3683 H              1 S1                 0.0000
     32 ****         5.2178  -0.1737   0.5387 H              1 S1                 0.0000
     33 ****         4.0686  -1.3618   2.5810 H              1 S1                 0.0000
     34 ****         3.7960  -2.3197   1.1110 H              1 S1                 0.0000
     35 ****         3.1675   0.7080  -0.9868 H              1 S1                 0.0000
     36 ****         4.9139  -0.8695  -1.8607 H              1 S1                 0.0000
     37 ****         3.9877  -2.2334  -1.2604 H              1 S1                 0.0000
     38 ****         3.5297  -1.7565  -3.4294 H              1 S1                 0.0000
     39 ****        -6.9940   1.4272  -1.7384 H              1 S1                 0.0000
     40 ****        -6.2444   3.0159  -1.5919 H              1 S1                 0.0000
     41 ****        -6.9153   2.2244  -0.1661 H              1 S1                 0.0000
     42 ****        -3.1423  -1.0383   0.1870 LP             1 S1                 0.0000
     43 ****        -1.8467  -1.5007   0.3428 LP             1 S1                 0.0000
     44 ****        -0.2050  -2.0193   0.5317 LP             1 S1                 0.0000
     45 ****         3.1007  -0.2489  -3.1582 LP             1 S1                 0.0000
     46 ****         2.2018  -1.4904  -2.5949 LP             1 S1                 0.0000
@<TRIPOS>BOND
    1    1    2 1     
    2    1   21 1     
    3    1   22 1     
    4    1   23 1     
    5    2   19 2     
    6    2    3 1     
    7    3    4 2     
    8    4    5 1     
    9    4   18 1     
   10    5    6 am    
   11    5   24 1     
   12    6    7 2     
   13    6    8 am    
   14    8    9 1     
   15    8   25 1     
   16    9   15 1     
   17    9   10 1     
   18    9   26 1     
   19   10   14 1     
   20   10   11 1     
   21   10   27 1     
   22   11   12 1     
   23   11   28 1     
   24   11   29 1     
   25   12   13 1     
   26   12   30 1     
   27   12   31 1     
   28   13   14 1     
   29   13   15 1     
   30   13   32 1     
   31   14   33 1     
   32   14   34 1     
   33   15   16 1     
   34   15   35 1     
   35   16   17 1     
   36   16   36 1     
   37   16   37 1     
   38   17   38 1     
   39   18   19 1     
   40   19   20 1     
   41   20   39 1     
   42   20   40 1     
   43   20   41 1     
   44    3   42 1     
   45    7   43 1     
   46    7   44 1     
   47   17   45 1     
   48   17   46 1     
@<TRIPOS>SUBSTRUCTURE
      1 S1             1
@<TRIPOS>SET
LONE_PAIRS      STATIC     ATOMS    <user>   **** ""
5 42 43 44 45 46
DONOR_HYDROGENS      STATIC     ATOMS    <user>   **** ""
3 24 25 38
ATOM$BLUE        STATIC     ATOMS    COLORGROUP SYSTEM
5 42 43 44 45 46
ATOM$RED        STATIC     ATOMS    COLORGROUP SYSTEM
3 24 25 38
