AV-unprocessed.smi:1224|AV-procd|sdf|5129|dock2
  -GOLD-   22720 4183D 1   1.00000     0.00000
 Structure written by MMmdl.
 44 46  0  0  0  0  0  0  0  0  2 V2000
  152.9021  141.3934  159.3379 C   0  0  0  0  0  0  0  0  0  0  0  0
  151.9557  141.3378  158.1517 C   0  0  0  0  0  0  0  0  0  0  0  0
  152.0662  140.2689  157.2340 C   0  0  0  0  0  0  0  0  0  0  0  0
  151.2027  140.1784  156.1203 C   0  0  0  0  0  0  0  0  0  0  0  0
  151.1317  139.2330  155.1116 N   0  0  0  0  0  0  0  0  0  0  0  0
  150.1261  139.6993  154.3769 C   0  0  0  0  0  0  0  0  0  0  0  0
  149.5374  140.8383  154.7901 N   0  0  0  0  0  0  0  0  0  0  0  0
  148.4309  141.5359  154.1604 C   0  0  0  0  0  0  0  0  0  0  0  0
  147.1295  140.7116  154.1819 C   0  0  1  0  0  0  0  0  0  0  0  0
  146.0416  141.5455  153.8302 O   0  0  0  0  0  0  0  0  0  0  0  0
  147.1834  139.5238  153.2083 C   0  0  0  0  0  0  0  0  0  0  0  0
  145.8515  138.9014  153.0494 N   0  3  0  0  0  0  0  0  0  0  0  0
  145.8067  137.7464  152.1286 C   0  0  0  0  0  0  0  0  0  0  0  0
  144.6656  136.8249  152.4153 C   0  0  0  0  0  0  0  0  0  0  0  0
  143.3343  137.1424  152.5117 C   0  0  0  0  0  0  0  0  0  0  0  0
  142.5095  136.0172  152.8044 C   0  0  0  0  0  0  0  0  0  0  0  0
  143.2226  134.8548  152.9275 C   0  0  0  0  0  0  0  0  0  0  0  0
  144.9275  135.1206  152.6866 S   0  0  0  0  0  0  0  0  0  0  0  0
  150.2186  141.1952  155.9484 C   0  0  0  0  0  0  0  0  0  0  0  0
  150.0995  142.2643  156.8536 C   0  0  0  0  0  0  0  0  0  0  0  0
  150.9696  142.3390  157.9613 C   0  0  0  0  0  0  0  0  0  0  0  0
  150.8320  143.4962  158.9350 C   0  0  0  0  0  0  0  0  0  0  0  0
  153.6147  140.5684  159.3186 H   0  0  0  0  0  0  0  0  0  0  0  0
  152.3444  141.3326  160.2727 H   0  0  0  0  0  0  0  0  0  0  0  0
  153.4696  142.3242  159.3322 H   0  0  0  0  0  0  0  0  0  0  0  0
  152.8168  139.5059  157.3792 H   0  0  0  0  0  0  0  0  0  0  0  0
  149.8002  139.1844  153.4850 H   0  0  0  0  0  0  0  0  0  0  0  0
  148.2883  142.4944  154.6621 H   0  0  0  0  0  0  0  0  0  0  0  0
  148.7173  141.7624  153.1327 H   0  0  0  0  0  0  0  0  0  0  0  0
  146.9616  140.3392  155.1937 H   0  0  0  0  0  0  0  0  0  0  0  0
  145.4727  141.0717  153.2423 H   0  0  0  0  0  0  0  0  0  0  0  0
  147.5707  139.8455  152.2406 H   0  0  0  0  0  0  0  0  0  0  0  0
  147.8704  138.7679  153.5916 H   0  0  0  0  0  0  0  0  0  0  0  0
  145.5440  138.5885  153.9591 H   0  0  0  0  0  0  0  0  0  0  0  0
  145.7580  138.1039  151.0993 H   0  0  0  0  0  0  0  0  0  0  0  0
  146.7461  137.2007  152.2217 H   0  0  0  0  0  0  0  0  0  0  0  0
  142.9263  138.1343  152.3847 H   0  0  0  0  0  0  0  0  0  0  0  0
  141.4379  136.0984  152.9125 H   0  0  0  0  0  0  0  0  0  0  0  0
  142.8522  133.8632  153.1428 H   0  0  0  0  0  0  0  0  0  0  0  0
  149.3439  143.0198  156.6971 H   0  0  0  0  0  0  0  0  0  0  0  0
  150.0147  144.1597  158.6512 H   0  0  0  0  0  0  0  0  0  0  0  0
  151.7488  144.0856  158.9593 H   0  0  0  0  0  0  0  0  0  0  0  0
  150.6298  143.1278  159.9409 H   0  0  0  0  0  0  0  0  0  0  0  0
  145.2056  139.6045  152.7193 H   0  0  0  0  0  0  0  0  0  0  0  0
  1  2  1  0  0  0  0
  1 23  1  0  0  0  0
  1 24  1  0  0  0  0
  1 25  1  0  0  0  0
  2 21  1  0  0  0  0
  2  3  2  0  0  0  0
  3  4  1  0  0  0  0
  3 26  1  0  0  0  0
  4 19  2  0  0  0  0
  4  5  1  0  0  0  0
  5  6  2  0  0  0  0
  6  7  1  0  0  0  0
  6 27  1  0  0  0  0
  7  8  1  0  0  0  0
  7 19  1  0  0  0  0
  8  9  1  0  0  0  0
  8 28  1  0  0  0  0
  8 29  1  0  0  0  0
  9 10  1  0  0  0  0
  9 11  1  0  0  0  0
  9 30  1  0  0  0  0
 10 31  1  0  0  0  0
 11 12  1  0  0  0  0
 11 32  1  0  0  0  0
 11 33  1  0  0  0  0
 12 13  1  0  0  0  0
 12 34  1  0  0  0  0
 12 44  1  0  0  0  0
 13 14  1  0  0  0  0
 13 35  1  0  0  0  0
 13 36  1  0  0  0  0
 14 18  1  0  0  0  0
 14 15  2  0  0  0  0
 15 16  1  0  0  0  0
 15 37  1  0  0  0  0
 16 17  2  0  0  0  0
 16 38  1  0  0  0  0
 17 18  1  0  0  0  0
 17 39  1  0  0  0  0
 19 20  1  0  0  0  0
 20 21  2  0  0  0  0
 20 40  1  0  0  0  0
 21 22  1  0  0  0  0
 22 41  1  0  0  0  0
 22 42  1  0  0  0  0
 22 43  1  0  0  0  0
M  CHG  1  12   1
M  END
> <s_m_source_file>
AV-unprocessed.smi

> <i_m_source_file_index>
1224

> <i_lp_mmshare_version>
43012

> <i_f3d_flags>
0

> <s_epik_input>
W0NIM11jKFtjSF0xKWMoW0NIM10pW2NIXWMoYzEyKW4oW2NIXW4yKVtDSDJdW0NASF0oW09IXSlbQ0gyXVtOSF1bQ0gyXWMzW2NIXVtjSF1bY0hdczM=

> <s_epik_cmdline>
J2VwaWtfcHl0aG9uJywgJy1waCcsICc3LjAnLCAnLXRuJywgJzgnLCAnLW1hJywgJzIwMCcsICctbWV0YWxfYmluZGluZycsICctaW1hZScsICc8aW5maWxlLm1hZT4nLCAnLW9tYWUnLCAnPG91dGZpbGUubWFlPic=

> <r_epik_Ionization_Penalty>
0.145091

> <r_epik_Ionization_Penalty_Charging>
0.0551904

> <r_epik_Ionization_Penalty_Neutral>
0.0899003

> <r_epik_State_Penalty>
0.131364

> <r_epik_Charging_Adjusted_Penalty>
0.186554

> <i_epik_Tot_Q>
1

> <i_epik_Tot_abs_Q>
1

> <r_epik_Metal_State_Penalty>
0.0472291

> <b_epik_Metal_Only>
0

> <s_lp_Force_Field>
OPLS_2005

> <r_lp_Energy>
7.75101

> <b_lp_Chiralities_Consistent>
1

> <s_lp_Variant>
AV-unprocessed.smi:1224-2

> <Gold.Version>
5.8.1

> <Gold.Id.Protein>
6NUR|6NUR_protein|mol2

> <Gold.PLP.Fitness>
54.7618

> <Gold.PLP.PLP>
-40.5167

> <Gold.PLP.part.hbond>
-2.0000

> <Gold.PLP.part.metal>
0.0000

> <Gold.PLP.part.buried>
-0.4982

> <Gold.PLP.part.nonpolar>
-37.5947

> <Gold.PLP.part.repulsive>
0.0417

> <Gold.PLP.ligand.clash>
0.0000

> <Gold.PLP.ligand.torsion>
0.3348

> <Gold.PLP.Chemscore.Hbond>
2.9913

> <Gold.PLP.Chemscore.CHOScore>
1.9270

> <Gold.PLP.Chemscore.Metal>
0.0000

> <Gold.Chemscore.Hbonds>
donor molecule, donor type, donor heavy atom, donor atom, acceptor molecule, acceptor atom, score
      L1  H    10    31       P1 10175  1.00
      L1  H    12    44       P1 10175  2.00
      L1  C     6    27       P1  7957  0.99
      L1  C    17    39       P1 10957  0.67

> <Gold.PLP.Chemscore.Internal.Correction>
0.1599

> <Gold.Rescore>
     Score         DG    S(hbond)    S(metal)    S(lipo)     H(rot)  DE(clash)    DE(int)     intcor
     15.82     -17.62       1.72        0.00     107.80       2.42       1.51       0.29       ----

> <Gold.Chemscore.Fitness>
15.8240

> <Gold.Chemscore.DG>
-17.6175

> <Gold.Chemscore.ZeroCoef>
-5.4800

> <Gold.Chemscore.Hbond>
1.7158

> <Gold.Chemscore.Metal>
0.0000

> <Gold.Chemscore.Lipo>
107.7977

> <Gold.Chemscore.Internal_Hbond>
0.0000

> <Gold.Chemscore.DEClash>
1.5076

> <Gold.Chemscore.DEInternal>
0.2859

> <Gold.Chemscore.Rot>
2.4240

> <Gold.Chemscore.Internal.Correction>
   9.000000E+99

> <Gold.Chemscore.Hbonds>
donor molecule, donor type, donor heavy atom, donor atom, acceptor molecule, acceptor atom, score
      L1  H    10    31       P1 10175  0.36
      L1  H    12    44       P1 10175  1.00

> <Gold.Chemscore.Hbond.Weighted>
-5.7306

> <Gold.Chemscore.Metal.Weighted>
-0.0000

> <Gold.Chemscore.Lipo.Weighted>
-12.6123

> <Gold.Chemscore.Internal_Hbond.Weighted>
0.0000

> <Gold.Chemscore.DEClash.Weighted>
1.5076

> <Gold.Chemscore.DEInternal.Weighted>
0.2859

> <Gold.Chemscore.Rot.Weighted>
6.2055

> <Gold.Chemscore.Internal.Correction.Weighted>
   9.000000E+99

> <Gold.Protein.RotatedTorsions>
[ 6907 6896 6895 6894 ] final  -46.83 input  -60.11 | X-H torsion
[ 7974 7965 7964 7962 ] final   14.87 input  175.53 | X-H torsion
[ 8008 7997 7996 7995 ] final  -98.00 input   59.86 | X-H torsion
[ 10167 10162 10161 10158 ] final  -92.95 input  -65.29 | X-H torsion
[ 10718 10713 10712 10709 ] final  100.53 input   66.30 | X-H torsion
[ 10763 10752 10751 10750 ] final -114.89 input  -60.55 | X-H torsion
[ 11005 11000 10999 10996 ] final  -72.37 input  -57.11 | X-H torsion

> <Gold.Protein.ActiveResidues>
 VAL166  LYS551  ARG553  GLY616  TRP617  ASP618  TYR619  PRO620  LYS621  CYS622 
 ASP623  PHE694  ASN695  SER759  ASP760  ASP761  ALA762  ILE779  LEU786  VAL792 
 PHE793  MET794  SER795  GLU796  ALA797  LYS798  CYS799  TRP800  GLU811  SER814 

> <Gold.Protein.RotatedAtoms>
  150.9071  134.8486  159.7399 H   0  0  0  0  0  0  0  0  0  0  0  0  # atno 6907 bound_to 6896
  152.4924  134.4415  159.9555 H   0  0  0  0  0  0  0  0  0  0  0  0  # atno 6908 bound_to 6896
  151.4461  133.3591  159.2824 H   0  0  0  0  0  0  0  0  0  0  0  0  # atno 6909 bound_to 6896
  146.2293  139.8977  142.8544 H   0  0  0  0  0  0  0  0  0  0  0  0  # atno 7974 bound_to 7965
  154.7953  140.0458  157.1232 H   0  0  0  0  0  0  0  0  0  0  0  0  # atno 8008 bound_to 7997
  154.9542  140.3069  155.5041 H   0  0  0  0  0  0  0  0  0  0  0  0  # atno 8009 bound_to 7997
  156.2955  140.2282  156.4622 H   0  0  0  0  0  0  0  0  0  0  0  0  # atno 8010 bound_to 7997
  140.3296  143.3002  151.9956 H   0  0  0  0  0  0  0  0  0  0  0  0  # atno 10167 bound_to 10162
  157.6851  131.0701  150.5115 H   0  0  0  0  0  0  0  0  0  0  0  0  # atno 10718 bound_to 10713
  154.8459  135.4401  154.1577 H   0  0  0  0  0  0  0  0  0  0  0  0  # atno 10763 bound_to 10752
  153.2722  135.6946  153.7475 H   0  0  0  0  0  0  0  0  0  0  0  0  # atno 10764 bound_to 10752
  153.6712  135.3418  155.3129 H   0  0  0  0  0  0  0  0  0  0  0  0  # atno 10765 bound_to 10752
  141.1607  133.6845  156.7048 H   0  0  0  0  0  0  0  0  0  0  0  0  # atno 11005 bound_to 11000
  145.2354  140.9989  143.3966 LP  0  0  0  0  0  0  0  0  0  0  0  0  # atno 17320 bound_to 7965
  144.9495  139.4098  143.6409 LP  0  0  0  0  0  0  0  0  0  0  0  0  # atno 17321 bound_to 7965
  139.4859  144.6245  151.7190 LP  0  0  0  0  0  0  0  0  0  0  0  0  # atno 17342 bound_to 10162
  140.5409  144.0581  150.6088 LP  0  0  0  0  0  0  0  0  0  0  0  0  # atno 17343 bound_to 10162
  156.5432  130.4213  149.6144 LP  0  0  0  0  0  0  0  0  0  0  0  0  # atno 17370 bound_to 10713
  156.2967  130.7154  151.2016 LP  0  0  0  0  0  0  0  0  0  0  0  0  # atno 17371 bound_to 10713
  140.2931  134.8224  157.4034 LP  0  0  0  0  0  0  0  0  0  0  0  0  # atno 17394 bound_to 11000
  140.1328  134.5072  155.8092 LP  0  0  0  0  0  0  0  0  0  0  0  0  # atno 17395 bound_to 11000

$$$$
