AV-unprocessed.smi:160|AV-procd|sdf|1353|dock7
  -GOLD-   2262019 63D 1   1.00000     0.00000
 Structure written by MMmdl.
 29 30  0  0  0  0  0  0  0  0  1 V2000
  152.7702  140.6092  159.5970 N   0  0  0  0  0  0  0  0  0  0  0  0
  152.8780  140.0830  158.3724 C   0  0  0  0  0  0  0  0  0  0  0  0
  153.6699  139.1789  158.1110 O   0  0  0  0  0  0  0  0  0  0  0  0
  151.9711  140.6591  157.3203 C   0  0  0  0  0  0  0  0  0  0  0  0
  151.5901  141.9703  157.3577 N   0  0  0  0  0  0  0  0  0  0  0  0
  150.8283  141.9971  156.2720 C   0  0  0  0  0  0  0  0  0  0  0  0
  150.7504  140.8283  155.6278 N   0  0  0  0  0  0  0  0  0  0  0  0
  149.9981  140.4719  154.3796 C   0  0  2  0  0  0  0  0  0  0  0  0
  149.1523  141.5342  154.0539 O   0  0  0  0  0  0  0  0  0  0  0  0
  147.8148  141.2152  154.4226 C   0  0  1  0  0  0  0  0  0  0  0  0
  146.8028  142.0953  153.6681 C   0  0  0  0  0  0  0  0  0  0  0  0
  145.5344  142.0122  154.2825 O   0  0  0  0  0  0  0  0  0  0  0  0
  147.7374  139.7110  154.1260 C   0  0  1  0  0  0  0  0  0  0  0  0
  147.5092  139.4748  152.7481 O   0  0  0  0  0  0  0  0  0  0  0  0
  149.1193  139.2052  154.5273 C   0  0  2  0  0  0  0  0  0  0  0  0
  149.0807  138.6657  155.8374 O   0  0  0  0  0  0  0  0  0  0  0  0
  151.5006  139.9261  156.3098 N   0  0  0  0  0  0  0  0  0  0  0  0
  150.7723  140.3710  153.6180 H   0  0  0  0  0  0  0  0  0  0  0  0
  147.6962  141.3540  155.4986 H   0  0  0  0  0  0  0  0  0  0  0  0
  146.9345  139.2289  154.6856 H   0  0  0  0  0  0  0  0  0  0  0  0
  149.4834  138.4300  153.8515 H   0  0  0  0  0  0  0  0  0  0  0  0
  153.3524  140.2651  160.3463 H   0  0  0  0  0  0  0  0  0  0  0  0
  152.1045  141.3504  159.7633 H   0  0  0  0  0  0  0  0  0  0  0  0
  150.3189  142.8886  155.9369 H   0  0  0  0  0  0  0  0  0  0  0  0
  147.1330  143.1337  153.6227 H   0  0  0  0  0  0  0  0  0  0  0  0
  146.6901  141.7428  152.6425 H   0  0  0  0  0  0  0  0  0  0  0  0
  144.9753  141.4707  153.7466 H   0  0  0  0  0  0  0  0  0  0  0  0
  148.2149  139.8646  152.2552 H   0  0  0  0  0  0  0  0  0  0  0  0
  148.2730  138.1865  155.9422 H   0  0  0  0  0  0  0  0  0  0  0  0
  1  2  1  0  0  0  0
  1 22  1  0  0  0  0
  1 23  1  0  0  0  0
  2  3  2  0  0  0  0
  2  4  1  0  0  0  0
  4 17  2  0  0  0  0
  4  5  1  0  0  0  0
  5  6  2  0  0  0  0
  6  7  1  0  0  0  0
  6 24  1  0  0  0  0
  7  8  1  0  0  0  0
  7 17  1  0  0  0  0
  8 18  1  0  0  0  0
  8 15  1  0  0  0  0
  8  9  1  0  0  0  0
  9 10  1  0  0  0  0
 10 19  1  0  0  0  0
 10 11  1  0  0  0  0
 10 13  1  0  0  0  0
 11 12  1  0  0  0  0
 11 25  1  0  0  0  0
 11 26  1  0  0  0  0
 12 27  1  0  0  0  0
 13 20  1  0  0  0  0
 13 14  1  0  0  0  0
 13 15  1  0  0  0  0
 14 28  1  0  0  0  0
 15 21  1  0  0  0  0
 15 16  1  0  0  0  0
 16 29  1  0  0  0  0
M  END
> <s_m_source_file>
AV-unprocessed.smi

> <i_m_source_file_index>
160

> <i_lp_mmshare_version>
43012

> <i_f3d_flags>
0

> <s_epik_input>
W05IMl1DKD1PKWMxbltjSF1uKG4xKVtDQEBIXTJPW0NASF0oW0NIMl1bT0hdKVtDQEBIXShbT0hdKVtDQEhdMltPSF0=

> <s_epik_cmdline>
J2VwaWtfcHl0aG9uJywgJy1waCcsICc3LjAnLCAnLXRuJywgJzgnLCAnLW1hJywgJzIwMCcsICctbWV0YWxfYmluZGluZycsICctaW1hZScsICc8aW5maWxlLm1hZT4nLCAnLW9tYWUnLCAnPG91dGZpbGUubWFlPic=

> <r_lp_tautomer_probability>
1

> <r_epik_Ionization_Penalty>
1.06932e-05

> <r_epik_Ionization_Penalty_Charging>
0

> <r_epik_Ionization_Penalty_Neutral>
1.06932e-05

> <r_epik_State_Penalty>
-0

> <r_epik_Charging_Adjusted_Penalty>
0

> <i_epik_Tot_Q>
0

> <i_epik_Tot_abs_Q>
0

> <r_epik_Metal_State_Penalty>
0.0142097

> <b_epik_Metal_Only>
0

> <s_epik_Chemistry_Notes>
This compound contains an acetal/aminal-like group ( X-CH(R)-Y where X, Y are N, S, or O) that may be acid/base labile, releasing an aldehyde.

> <s_lp_Force_Field>
OPLS_2005

> <r_lp_Energy>
42.6693

> <b_lp_Chiralities_Consistent>
1

> <s_lp_Variant>
AV-unprocessed.smi:160-11

> <Gold.Version>
5.8.1

> <Gold.Id.Protein>
6NUR|6NUR_protein|mol2

> <Gold.PLP.Fitness>
37.6106

> <Gold.PLP.PLP>
-25.6356

> <Gold.PLP.part.hbond>
-4.3304

> <Gold.PLP.part.metal>
0.0000

> <Gold.PLP.part.buried>
-1.6608

> <Gold.PLP.part.nonpolar>
-19.0858

> <Gold.PLP.part.repulsive>
0.3479

> <Gold.PLP.ligand.clash>
0.0000

> <Gold.PLP.ligand.torsion>
0.7257

> <Gold.PLP.Chemscore.Hbond>
3.4742

> <Gold.PLP.Chemscore.CHOScore>
1.0000

> <Gold.PLP.Chemscore.Metal>
0.0000

> <Gold.Chemscore.Hbonds>
donor molecule, donor type, donor heavy atom, donor atom, acceptor molecule, acceptor atom, score
      L1  H    12    27       P1 10175  0.93
      L1  H    14    28       P1  7957  1.00
      P1  H  7997  8008       L1     3  1.00
      P1  H  8011  8017       L1     9  0.65
      L1  C     6    24       P1  8028  1.00

> <Gold.PLP.Chemscore.Internal.Correction>
0.0038

> <Gold.Rescore>
     Score         DG    S(hbond)    S(metal)    S(lipo)     H(rot)  DE(clash)    DE(int)     intcor
      4.78      -8.85       3.27        0.00      24.16       4.06       1.30       2.77       ----

> <Gold.Chemscore.Fitness>
4.7845

> <Gold.Chemscore.DG>
-8.8503

> <Gold.Chemscore.ZeroCoef>
-5.4800

> <Gold.Chemscore.Hbond>
3.2744

> <Gold.Chemscore.Metal>
0.0000

> <Gold.Chemscore.Lipo>
24.1646

> <Gold.Chemscore.Internal_Hbond>
0.0000

> <Gold.Chemscore.DEClash>
1.2965

> <Gold.Chemscore.DEInternal>
2.7693

> <Gold.Chemscore.Rot>
4.0600

> <Gold.Chemscore.Internal.Correction>
   9.000000E+99

> <Gold.Chemscore.Hbonds>
donor molecule, donor type, donor heavy atom, donor atom, acceptor molecule, acceptor atom, score
      L1  H    12    27       P1 10175  0.20
      L1  H    14    28       P1  7957  1.00
      P1  H  7997  8008       L1     3  0.34
      P1  H  8011  8017       L1     9  0.45

> <Gold.Chemscore.Hbond.Weighted>
-10.9366

> <Gold.Chemscore.Metal.Weighted>
-0.0000

> <Gold.Chemscore.Lipo.Weighted>
-2.8273

> <Gold.Chemscore.Internal_Hbond.Weighted>
0.0000

> <Gold.Chemscore.DEClash.Weighted>
1.2965

> <Gold.Chemscore.DEInternal.Weighted>
2.7693

> <Gold.Chemscore.Rot.Weighted>
10.3936

> <Gold.Chemscore.Internal.Correction.Weighted>
   9.000000E+99

> <Gold.Protein.RotatedTorsions>
[ 6907 6896 6895 6894 ] final  -27.06 input  -60.11 | X-H torsion
[ 7974 7965 7964 7962 ] final   21.01 input  175.53 | X-H torsion
[ 8008 7997 7996 7995 ] final -108.24 input   59.86 | X-H torsion
[ 10167 10162 10161 10158 ] final  -47.36 input  -65.29 | X-H torsion
[ 10718 10713 10712 10709 ] final   17.95 input   66.30 | X-H torsion
[ 10763 10752 10751 10750 ] final  -49.05 input  -60.55 | X-H torsion
[ 11005 11000 10999 10996 ] final -175.19 input  -57.11 | X-H torsion

> <Gold.Protein.ActiveResidues>
 VAL166  LYS551  ARG553  GLY616  TRP617  ASP618  TYR619  PRO620  LYS621  CYS622 
 ASP623  PHE694  ASN695  SER759  ASP760  ASP761  ALA762  ILE779  LEU786  VAL792 
 PHE793  MET794  SER795  GLU796  ALA797  LYS798  CYS799  TRP800  GLU811  SER814 

> <Gold.Protein.RotatedAtoms>
  151.1522  135.0232  159.8672 H   0  0  0  0  0  0  0  0  0  0  0  0  # atno 6907 bound_to 6896
  152.5452  134.1376  159.8475 H   0  0  0  0  0  0  0  0  0  0  0  0  # atno 6908 bound_to 6896
  151.1462  133.4892  159.2628 H   0  0  0  0  0  0  0  0  0  0  0  0  # atno 6909 bound_to 6896
  146.2088  139.8088  142.8705 H   0  0  0  0  0  0  0  0  0  0  0  0  # atno 7974 bound_to 7965
  154.9413  140.0402  157.2098 H   0  0  0  0  0  0  0  0  0  0  0  0  # atno 8008 bound_to 7997
  154.8066  140.2861  155.5861 H   0  0  0  0  0  0  0  0  0  0  0  0  # atno 8009 bound_to 7997
  156.2967  140.2545  156.2946 H   0  0  0  0  0  0  0  0  0  0  0  0  # atno 8010 bound_to 7997
  140.6778  143.2788  151.3915 H   0  0  0  0  0  0  0  0  0  0  0  0  # atno 10167 bound_to 10162
  157.0894  130.6421  149.5845 H   0  0  0  0  0  0  0  0  0  0  0  0  # atno 10718 bound_to 10713
  154.0877  135.6582  153.4847 H   0  0  0  0  0  0  0  0  0  0  0  0  # atno 10763 bound_to 10752
  153.0333  135.5195  154.7411 H   0  0  0  0  0  0  0  0  0  0  0  0  # atno 10764 bound_to 10752
  154.6525  135.3003  154.9937 H   0  0  0  0  0  0  0  0  0  0  0  0  # atno 10765 bound_to 10752
  140.4660  134.6210  157.4862 H   0  0  0  0  0  0  0  0  0  0  0  0  # atno 11005 bound_to 11000
  145.3218  141.0246  143.3496 LP  0  0  0  0  0  0  0  0  0  0  0  0  # atno 17320 bound_to 7965
  144.8861  139.4837  143.6700 LP  0  0  0  0  0  0  0  0  0  0  0  0  # atno 17321 bound_to 7965
  139.6081  144.1154  152.2270 LP  0  0  0  0  0  0  0  0  0  0  0  0  # atno 17342 bound_to 10162
  140.0560  144.5895  150.7299 LP  0  0  0  0  0  0  0  0  0  0  0  0  # atno 17343 bound_to 10162
  155.9902  130.4952  150.7247 LP  0  0  0  0  0  0  0  0  0  0  0  0  # atno 17370 bound_to 10713
  157.4734  131.0895  151.0617 LP  0  0  0  0  0  0  0  0  0  0  0  0  # atno 17371 bound_to 10713
  139.9915  134.6978  155.9682 LP  0  0  0  0  0  0  0  0  0  0  0  0  # atno 17394 bound_to 11000
  141.1599  133.6539  156.4284 LP  0  0  0  0  0  0  0  0  0  0  0  0  # atno 17395 bound_to 11000

$$$$
