#       Name:                AV-unprocessed.smi:47
#       Creating user name   scv26
#       Creation time:       Thu Mar 26 16:31:11 2020


#       File generated by GOLD software.
#

@<TRIPOS>MOLECULE
AV-unprocessed.smi:47
    36    38     1
SMALL
NO_CHARGES


@<TRIPOS>ATOM
      1 ****        -4.5182   0.7566  -2.5927 O.3            1 S1                 0.0000
      2 ****        -3.4578   1.1248  -1.7363 C.3            1 S1                 0.0000
      3 ****        -3.9395   1.8790  -0.5041 C.3            1 S1                 0.0000
      4 ****        -2.8475   1.7500   0.4501 N.3            1 S1                 0.0000
      5 ****        -2.1973   0.4555   0.2146 C.3            1 S1                 0.0000
      6 ****        -0.6825   0.5547   0.2025 C.2            1 S1                 0.0000
      7 ****         0.0240   1.5978  -0.2794 N.2            1 S1                 0.0000
      8 ****         1.2963   1.2748  -0.1436 N.pl3          1 S1                -1.0000
      9 ****         1.3497   0.0501   0.4016 C.2            1 S1                 0.0000
     10 ****         2.6295  -0.6298   0.6901 C.ar           1 S1                 0.0000
     11 ****         2.6399  -1.9235   1.2614 C.ar           1 S1                 0.0000
     12 ****         3.8516  -2.5845   1.5426 C.ar           1 S1                 0.0000
     13 ****         5.0779  -1.9590   1.2543 C.ar           1 S1                 0.0000
     14 ****         5.0870  -0.6727   0.6851 C.ar           1 S1                 0.0000
     15 ****         3.8726  -0.0155   0.4070 C.ar           1 S1                 0.0000
     16 ****         0.1322  -0.4262   0.6217 N.2            1 S1                 0.0000
     17 ****        -2.7451  -0.0761  -1.1227 C.3            1 S1                 0.0000
     18 ****        -2.7424   1.7377  -2.2868 H              1 S1                 0.0000
     19 ****        -2.4765  -0.2394   1.0075 H              1 S1                 0.0000
     20 ****        -4.1586   0.2738  -3.3211 H              1 S1                 0.0000
     21 ****        -4.1781   2.9218  -0.7139 H              1 S1                 0.0000
     22 ****        -4.8352   1.4030  -0.1024 H              1 S1                 0.0000
     23 ****        -3.2240   1.7809   1.3917 H              1 S1                 0.0000
     24 ****         1.7085  -2.4209   1.4890 H              1 S1                 0.0000
     25 ****         3.8379  -3.5719   1.9794 H              1 S1                 0.0000
     26 ****         6.0083  -2.4637   1.4687 H              1 S1                 0.0000
     27 ****         6.0257  -0.1882   0.4608 H              1 S1                 0.0000
     28 ****         3.9044   0.9720  -0.0294 H              1 S1                 0.0000
     29 ****        -3.4652  -0.8698  -0.9177 H              1 S1                 0.0000
     30 ****        -1.9776  -0.4922  -1.7768 H              1 S1                 0.0000
     31 ****        -4.9827   1.5766  -2.9272 LP             1 S1                 0.0000
     32 ****        -5.1700   0.1834  -2.0962 LP             1 S1                 0.0000
     33 ****        -2.1871   2.4930   0.3408 LP             1 S1                 0.0000
     34 ****        -0.3427   2.4456  -0.6626 LP             1 S1                 0.0000
     35 ****         2.0795   1.8409  -0.4008 LP             1 S1                 0.0000
     36 ****        -0.1209  -1.3121   1.0104 LP             1 S1                 0.0000
@<TRIPOS>BOND
    1    1    2 1     
    2    1   20 1     
    3    2   18 1     
    4    2   17 1     
    5    2    3 1     
    6    3    4 1     
    7    3   21 1     
    8    3   22 1     
    9    4    5 1     
   10    4   23 1     
   11    5   19 1     
   12    5    6 1     
   13    5   17 1     
   14    6   16 1     
   15    6    7 2     
   16    7    8 1     
   17    8    9 1     
   18    9   10 1     
   19    9   16 2     
   20   10   15 ar    
   21   10   11 ar    
   22   11   12 ar    
   23   11   24 1     
   24   12   13 ar    
   25   12   25 1     
   26   13   14 ar    
   27   13   26 1     
   28   14   15 ar    
   29   14   27 1     
   30   15   28 1     
   31   17   29 1     
   32   17   30 1     
   33    1   31 1     
   34    1   32 1     
   35    4   33 1     
   36    7   34 1     
   37    8   35 1     
   38   16   36 1     
@<TRIPOS>SUBSTRUCTURE
      1 S1             1
@<TRIPOS>SET
LONE_PAIRS      STATIC     ATOMS    <user>   **** ""
6 31 32 33 34 35 36
DONOR_HYDROGENS      STATIC     ATOMS    <user>   **** ""
2 20 23
ATOM$BLUE        STATIC     ATOMS    COLORGROUP SYSTEM
6 31 32 33 34 35 36
ATOM$RED        STATIC     ATOMS    COLORGROUP SYSTEM
2 20 23
