AV-unprocessed.smi:283|AV-procd|sdf|2126|dock7
  -GOLD-   2262021433D 1   1.00000     0.00000
 Structure written by MMmdl.
 48 51  0  0  0  0  0  0  0  0  1 V2000
  151.5911  140.6985  156.0284 C   0  0  0  0  0  0  0  0  0  0  0  0
  151.0886  141.8085  156.9693 C   0  0  1  0  0  0  0  0  0  0  0  0
  149.6547  141.6754  157.2243 N   0  0  0  0  0  0  0  0  0  0  0  0
  148.7441  141.7674  156.2297 C   0  0  0  0  0  0  0  0  0  0  0  0
  149.0593  141.4415  154.9486 N   0  0  0  0  0  0  0  0  0  0  0  0
  148.1389  141.5459  153.9850 C   0  0  0  0  0  0  0  0  0  0  0  0
  146.8699  141.9500  154.0825 N   0  0  0  0  0  0  0  0  0  0  0  0
  146.5528  142.2833  155.3669 C   0  0  0  0  0  0  0  0  0  0  0  0
  147.4247  142.2197  156.4884 C   0  0  0  0  0  0  0  0  0  0  0  0
  146.7507  142.6317  157.6309 N   0  0  0  0  0  0  0  0  0  0  0  0
  145.5503  142.9201  157.2036 C   0  0  0  0  0  0  0  0  0  0  0  0
  145.3469  142.7382  155.8516 N   0  0  0  0  0  0  0  0  0  0  0  0
  144.1121  142.9614  155.0397 C   0  0  2  0  0  0  0  0  0  0  0  0
  143.7677  144.3130  155.1464 O   0  0  0  0  0  0  0  0  0  0  0  0
  142.5061  144.4686  155.7937 C   0  0  2  0  0  0  0  0  0  0  0  0
  142.5266  145.7309  156.6697 C   0  0  0  0  0  0  0  0  0  0  0  0
  141.2954  145.8844  157.3429 O   0  0  0  0  0  0  0  0  0  0  0  0
  142.3074  143.1577  156.5581 C   0  0  1  0  0  0  0  0  0  0  0  0
  140.9517  142.8572  156.8276 O   0  0  0  0  0  0  0  0  0  0  0  0
  142.9608  142.1409  155.6337 C   0  0  1  0  0  0  0  0  0  0  0  0
  142.0960  141.6739  154.6142 O   0  0  0  0  0  0  0  0  0  0  0  0
  151.9163  141.8170  158.2537 C   0  0  0  0  0  0  0  0  0  0  0  0
  152.1335  140.6119  158.9631 C   0  0  0  0  0  0  0  0  0  0  0  0
  152.8999  140.6012  160.1438 C   0  0  0  0  0  0  0  0  0  0  0  0
  153.4644  141.7951  160.6265 C   0  0  0  0  0  0  0  0  0  0  0  0
  153.2662  142.9973  159.9231 C   0  0  0  0  0  0  0  0  0  0  0  0
  152.5005  143.0146  158.7399 C   0  0  0  0  0  0  0  0  0  0  0  0
  152.3084  144.5193  157.9094 Cl  0  0  0  0  0  0  0  0  0  0  0  0
  144.3957  142.6863  154.0227 H   0  0  0  0  0  0  0  0  0  0  0  0
  141.7557  144.5625  155.0065 H   0  0  0  0  0  0  0  0  0  0  0  0
  142.8575  143.1923  157.4996 H   0  0  0  0  0  0  0  0  0  0  0  0
  143.3357  141.2740  156.1802 H   0  0  0  0  0  0  0  0  0  0  0  0
  152.6497  140.8287  155.8021 H   0  0  0  0  0  0  0  0  0  0  0  0
  151.0565  140.6962  155.0787 H   0  0  0  0  0  0  0  0  0  0  0  0
  151.4679  139.7133  156.4793 H   0  0  0  0  0  0  0  0  0  0  0  0
  151.2337  142.7715  156.4815 H   0  0  0  0  0  0  0  0  0  0  0  0
  149.4030  141.4268  158.1701 H   0  0  0  0  0  0  0  0  0  0  0  0
  148.4666  141.2660  152.9947 H   0  0  0  0  0  0  0  0  0  0  0  0
  144.7786  143.2745  157.8709 H   0  0  0  0  0  0  0  0  0  0  0  0
  143.3406  145.6963  157.3941 H   0  0  0  0  0  0  0  0  0  0  0  0
  142.6848  146.6134  156.0496 H   0  0  0  0  0  0  0  0  0  0  0  0
  141.0460  146.7958  157.3097 H   0  0  0  0  0  0  0  0  0  0  0  0
  140.7630  141.9999  156.4765 H   0  0  0  0  0  0  0  0  0  0  0  0
  142.6197  141.2676  153.9405 H   0  0  0  0  0  0  0  0  0  0  0  0
  151.7177  139.6820  158.6048 H   0  0  0  0  0  0  0  0  0  0  0  0
  153.0565  139.6754  160.6777 H   0  0  0  0  0  0  0  0  0  0  0  0
  154.0534  141.7886  161.5317 H   0  0  0  0  0  0  0  0  0  0  0  0
  153.7076  143.9113  160.2927 H   0  0  0  0  0  0  0  0  0  0  0  0
  1  2  1  0  0  0  0
  1 33  1  0  0  0  0
  1 34  1  0  0  0  0
  1 35  1  0  0  0  0
  2  3  1  0  0  0  0
  2 22  1  0  0  0  0
  2 36  1  0  0  0  0
  3  4  1  0  0  0  0
  3 37  1  0  0  0  0
  4  9  1  0  0  0  0
  4  5  2  0  0  0  0
  5  6  1  0  0  0  0
  6  7  2  0  0  0  0
  6 38  1  0  0  0  0
  7  8  1  0  0  0  0
  8 12  1  0  0  0  0
  8  9  2  0  0  0  0
  9 10  1  0  0  0  0
 10 11  2  0  0  0  0
 11 12  1  0  0  0  0
 11 39  1  0  0  0  0
 12 13  1  0  0  0  0
 13 29  1  0  0  0  0
 13 20  1  0  0  0  0
 13 14  1  0  0  0  0
 14 15  1  0  0  0  0
 15 30  1  0  0  0  0
 15 16  1  0  0  0  0
 15 18  1  0  0  0  0
 16 17  1  0  0  0  0
 16 40  1  0  0  0  0
 16 41  1  0  0  0  0
 17 42  1  0  0  0  0
 18 31  1  0  0  0  0
 18 19  1  0  0  0  0
 18 20  1  0  0  0  0
 19 43  1  0  0  0  0
 20 32  1  0  0  0  0
 20 21  1  0  0  0  0
 21 44  1  0  0  0  0
 22 27  1  0  0  0  0
 22 23  2  0  0  0  0
 23 24  1  0  0  0  0
 23 45  1  0  0  0  0
 24 25  2  0  0  0  0
 24 46  1  0  0  0  0
 25 26  1  0  0  0  0
 25 47  1  0  0  0  0
 26 27  2  0  0  0  0
 26 48  1  0  0  0  0
 27 28  1  0  0  0  0
M  END
> <s_m_source_file>
AV-unprocessed.smi

> <i_m_source_file_index>
283

> <i_lp_mmshare_version>
43012

> <i_f3d_flags>
0

> <s_epik_input>
Q2xjMVtjSF1bY0hdW2NIXVtjSF1jMVtDQEhdKFtDSDNdKVtOSF1jKG5bY0hdbjIpYyhjMjMpbltjSF1uM1tDQEBIXTRPW0NASF0oW0NIMl1bT0hdKVtDQEBIXShbT0hdKVtDQEhdNFtPSF0=

> <s_epik_cmdline>
J2VwaWtfcHl0aG9uJywgJy1waCcsICc3LjAnLCAnLXRuJywgJzgnLCAnLW1hJywgJzIwMCcsICctbWV0YWxfYmluZGluZycsICctaW1hZScsICc8aW5maWxlLm1hZT4nLCAnLW9tYWUnLCAnPG91dGZpbGUubWFlPic=

> <r_lp_tautomer_probability>
1

> <r_epik_Ionization_Penalty>
0.000266407

> <r_epik_Ionization_Penalty_Charging>
0

> <r_epik_Ionization_Penalty_Neutral>
0.000266407

> <r_epik_State_Penalty>
-0

> <r_epik_Charging_Adjusted_Penalty>
0

> <i_epik_Tot_Q>
0

> <i_epik_Tot_abs_Q>
0

> <r_epik_Metal_State_Penalty>
-0

> <b_epik_Metal_Only>
0

> <s_epik_Chemistry_Notes>
This compound contains an acetal/aminal-like group ( X-CH(R)-Y where X, Y are N, S, or O) that may be acid/base labile, releasing an aldehyde.

> <s_lp_Force_Field>
OPLS_2005

> <r_lp_Energy>
43.9323

> <b_lp_Chiralities_Consistent>
1

> <s_lp_Variant>
AV-unprocessed.smi:283-2

> <Gold.Version>
5.8.1

> <Gold.Id.Protein>
6NUR|6NUR_protein|mol2

> <Gold.PLP.Fitness>
46.4391

> <Gold.PLP.PLP>
-41.2798

> <Gold.PLP.part.hbond>
-2.0000

> <Gold.PLP.part.metal>
0.0000

> <Gold.PLP.part.buried>
-5.4434

> <Gold.PLP.part.nonpolar>
-34.7234

> <Gold.PLP.part.repulsive>
0.5629

> <Gold.PLP.ligand.clash>
0.0000

> <Gold.PLP.ligand.torsion>
0.4636

> <Gold.PLP.Chemscore.Hbond>
1.0000

> <Gold.PLP.Chemscore.CHOScore>
1.0000

> <Gold.PLP.Chemscore.Metal>
0.0000

> <Gold.Chemscore.Hbonds>
donor molecule, donor type, donor heavy atom, donor atom, acceptor molecule, acceptor atom, score
      L1  H    21    44       P1 10175  0.55
      L1  C     6    38       P1  7957  1.00

> <Gold.PLP.Chemscore.Internal.Correction>
0.0864

> <Gold.Rescore>
     Score         DG    S(hbond)    S(metal)    S(lipo)     H(rot)  DE(clash)    DE(int)     intcor
      8.19      -9.84       0.87        0.00     101.96       4.10       0.13       1.52       ----

> <Gold.Chemscore.Fitness>
8.1886

> <Gold.Chemscore.DG>
-9.8432

> <Gold.Chemscore.ZeroCoef>
-5.4800

> <Gold.Chemscore.Hbond>
0.8749

> <Gold.Chemscore.Metal>
0.0000

> <Gold.Chemscore.Lipo>
101.9559

> <Gold.Chemscore.Internal_Hbond>
0.0000

> <Gold.Chemscore.DEClash>
0.1324

> <Gold.Chemscore.DEInternal>
1.5222

> <Gold.Chemscore.Rot>
4.0968

> <Gold.Chemscore.Internal.Correction>
   9.000000E+99

> <Gold.Chemscore.Hbonds>
donor molecule, donor type, donor heavy atom, donor atom, acceptor molecule, acceptor atom, score
      L1  H    21    44       P1 10175  0.03

> <Gold.Chemscore.Hbond.Weighted>
-2.9223

> <Gold.Chemscore.Metal.Weighted>
-0.0000

> <Gold.Chemscore.Lipo.Weighted>
-11.9288

> <Gold.Chemscore.Internal_Hbond.Weighted>
0.0000

> <Gold.Chemscore.DEClash.Weighted>
0.1324

> <Gold.Chemscore.DEInternal.Weighted>
1.5222

> <Gold.Chemscore.Rot.Weighted>
10.4879

> <Gold.Chemscore.Internal.Correction.Weighted>
   9.000000E+99

> <Gold.Protein.RotatedTorsions>
[ 6907 6896 6895 6894 ] final   55.87 input  -60.11 | X-H torsion
[ 7974 7965 7964 7962 ] final   42.77 input  175.53 | X-H torsion
[ 8008 7997 7996 7995 ] final  120.97 input   59.86 | X-H torsion
[ 10167 10162 10161 10158 ] final  -27.93 input  -65.29 | X-H torsion
[ 10718 10713 10712 10709 ] final -100.51 input   66.30 | X-H torsion
[ 10763 10752 10751 10750 ] final   82.95 input  -60.55 | X-H torsion
[ 11005 11000 10999 10996 ] final   16.60 input  -57.11 | X-H torsion

> <Gold.Protein.ActiveResidues>
 VAL166  LYS551  ARG553  GLY616  TRP617  ASP618  TYR619  PRO620  LYS621  CYS622 
 ASP623  PHE694  ASN695  SER759  ASP760  ASP761  ALA762  ILE779  LEU786  VAL792 
 PHE793  MET794  SER795  GLU796  ALA797  LYS798  CYS799  TRP800  GLU811  SER814 

> <Gold.Protein.RotatedAtoms>
  152.3581  134.6911  160.0215 H   0  0  0  0  0  0  0  0  0  0  0  0  # atno 6907 bound_to 6896
  151.7243  133.3310  159.3331 H   0  0  0  0  0  0  0  0  0  0  0  0  # atno 6908 bound_to 6896
  150.7586  134.6354  159.6253 H   0  0  0  0  0  0  0  0  0  0  0  0  # atno 6909 bound_to 6896
  146.0712  139.5262  142.9596 H   0  0  0  0  0  0  0  0  0  0  0  0  # atno 7974 bound_to 7965
  156.2666  140.2819  156.1234 H   0  0  0  0  0  0  0  0  0  0  0  0  # atno 8008 bound_to 7997
  155.1131  140.0391  157.2747 H   0  0  0  0  0  0  0  0  0  0  0  0  # atno 8009 bound_to 7997
  154.6727  140.2591  155.6996 H   0  0  0  0  0  0  0  0  0  0  0  0  # atno 8010 bound_to 7997
  140.7274  143.4052  151.1197 H   0  0  0  0  0  0  0  0  0  0  0  0  # atno 10167 bound_to 10162
  156.0165  130.5331  150.6827 H   0  0  0  0  0  0  0  0  0  0  0  0  # atno 10718 bound_to 10713
  153.1247  135.4709  154.9253 H   0  0  0  0  0  0  0  0  0  0  0  0  # atno 10763 bound_to 10752
  154.7609  135.3131  154.8382 H   0  0  0  0  0  0  0  0  0  0  0  0  # atno 10764 bound_to 10752
  153.8938  135.6882  153.4813 H   0  0  0  0  0  0  0  0  0  0  0  0  # atno 10765 bound_to 10752
  140.4453  134.1280  155.7695 H   0  0  0  0  0  0  0  0  0  0  0  0  # atno 11005 bound_to 11000
  145.6388  141.0289  143.1823 LP  0  0  0  0  0  0  0  0  0  0  0  0  # atno 17320 bound_to 7965
  144.7233  139.7959  143.7374 LP  0  0  0  0  0  0  0  0  0  0  0  0  # atno 17321 bound_to 7965
  139.7678  143.8539  152.3114 LP  0  0  0  0  0  0  0  0  0  0  0  0  # atno 17342 bound_to 10162
  139.8447  144.7193  150.9287 LP  0  0  0  0  0  0  0  0  0  0  0  0  # atno 17343 bound_to 10162
  157.4526  131.0874  151.0830 LP  0  0  0  0  0  0  0  0  0  0  0  0  # atno 17370 bound_to 10713
  157.1341  130.6115  149.5537 LP  0  0  0  0  0  0  0  0  0  0  0  0  # atno 17371 bound_to 10713
  141.1688  133.8650  157.1634 LP  0  0  0  0  0  0  0  0  0  0  0  0  # atno 17394 bound_to 11000
  140.0043  135.0015  157.0257 LP  0  0  0  0  0  0  0  0  0  0  0  0  # atno 17395 bound_to 11000

$$$$
