AV-unprocessed.smi:1737|AV-procd|sdf|6995|dock8
  -GOLD-   22720 8213D 1   1.00000     0.00000
 Structure written by MMmdl.
 43 44  0  0  0  0  0  0  0  0  2 V2000
  147.2198  132.4092  152.5713 C   0  0  0  0  0  0  0  0  0  0  0  0
  146.1010  132.6749  151.5770 C   0  0  0  0  0  0  0  0  0  0  0  0
  145.4914  131.5866  150.9171 C   0  0  0  0  0  0  0  0  0  0  0  0
  144.4564  131.8333  149.9991 C   0  0  0  0  0  0  0  0  0  0  0  0
  144.0723  133.1669  149.7783 C   0  0  0  0  0  0  0  0  0  0  0  0
  144.6491  134.2129  150.4044 N   0  0  0  0  0  0  0  0  0  0  0  0
  145.6493  133.9920  151.2942 C   0  0  0  0  0  0  0  0  0  0  0  0
  146.3069  135.0479  151.9865 N   0  0  0  0  0  0  0  0  0  0  0  0
  145.7911  135.9065  152.8837 C   0  0  0  0  0  0  0  0  0  0  0  0
  144.6305  135.8998  153.2954 O   0  0  0  0  0  0  0  0  0  0  0  0
  146.7086  136.7951  153.2920 N   0  0  0  0  0  0  0  0  0  0  0  0
  146.4601  137.8549  154.2652 C   0  0  0  0  0  0  0  0  0  0  0  0
  147.7022  138.7491  154.5244 C   0  0  2  0  0  0  0  0  0  0  0  0
  147.6489  140.0070  153.6238 C   0  0  0  0  0  0  0  0  0  0  0  0
  148.9594  137.9482  154.3626 N   0  3  0  0  0  0  0  0  0  0  0  0
  150.2308  138.7208  154.4308 C   0  0  0  0  0  0  0  0  0  0  0  0
  151.4482  137.8036  154.2203 C   0  0  0  0  0  0  0  0  0  0  0  0
  151.4384  136.7565  155.1792 O   0  0  0  0  0  0  0  0  0  0  0  0
  150.2793  135.9462  155.0538 C   0  0  0  0  0  0  0  0  0  0  0  0
  149.0276  136.8010  155.3090 C   0  0  0  0  0  0  0  0  0  0  0  0
  147.4463  131.3448  152.6393 H   0  0  0  0  0  0  0  0  0  0  0  0
  146.9356  132.7556  153.5654 H   0  0  0  0  0  0  0  0  0  0  0  0
  148.1312  132.9266  152.2700 H   0  0  0  0  0  0  0  0  0  0  0  0
  145.8115  130.5729  151.1096 H   0  0  0  0  0  0  0  0  0  0  0  0
  143.9704  131.0221  149.4778 H   0  0  0  0  0  0  0  0  0  0  0  0
  143.2825  133.4014  149.0799 H   0  0  0  0  0  0  0  0  0  0  0  0
  147.2838  135.1665  151.7629 H   0  0  0  0  0  0  0  0  0  0  0  0
  147.6406  136.7333  152.9081 H   0  0  0  0  0  0  0  0  0  0  0  0
  145.6045  138.4326  153.9178 H   0  0  0  0  0  0  0  0  0  0  0  0
  146.1452  137.3848  155.1976 H   0  0  0  0  0  0  0  0  0  0  0  0
  147.6753  139.1043  155.5559 H   0  0  0  0  0  0  0  0  0  0  0  0
  146.7124  140.5507  153.7458 H   0  0  0  0  0  0  0  0  0  0  0  0
  147.7398  139.7473  152.5685 H   0  0  0  0  0  0  0  0  0  0  0  0
  148.4355  140.7201  153.8703 H   0  0  0  0  0  0  0  0  0  0  0  0
  150.2631  139.4877  153.6573 H   0  0  0  0  0  0  0  0  0  0  0  0
  150.3036  139.2237  155.3966 H   0  0  0  0  0  0  0  0  0  0  0  0
  151.4533  137.3887  153.2110 H   0  0  0  0  0  0  0  0  0  0  0  0
  152.3702  138.3744  154.3324 H   0  0  0  0  0  0  0  0  0  0  0  0
  150.2433  135.4835  154.0662 H   0  0  0  0  0  0  0  0  0  0  0  0
  150.3358  135.1372  155.7824 H   0  0  0  0  0  0  0  0  0  0  0  0
  149.0422  137.1748  156.3340 H   0  0  0  0  0  0  0  0  0  0  0  0
  148.1500  136.1634  155.2216 H   0  0  0  0  0  0  0  0  0  0  0  0
  148.9260  137.5588  153.4312 H   0  0  0  0  0  0  0  0  0  0  0  0
  1  2  1  0  0  0  0
  1 21  1  0  0  0  0
  1 22  1  0  0  0  0
  1 23  1  0  0  0  0
  2  7  1  0  0  0  0
  2  3  2  0  0  0  0
  3  4  1  0  0  0  0
  3 24  1  0  0  0  0
  4  5  2  0  0  0  0
  4 25  1  0  0  0  0
  5  6  1  0  0  0  0
  5 26  1  0  0  0  0
  6  7  2  0  0  0  0
  7  8  1  0  0  0  0
  8  9  1  0  0  0  0
  8 27  1  0  0  0  0
  9 10  2  0  0  0  0
  9 11  1  0  0  0  0
 11 12  1  0  0  0  0
 11 28  1  0  0  0  0
 12 13  1  0  0  0  0
 12 29  1  0  0  0  0
 12 30  1  0  0  0  0
 13 14  1  0  0  0  0
 13 15  1  0  0  0  0
 13 31  1  0  0  0  0
 14 32  1  0  0  0  0
 14 33  1  0  0  0  0
 14 34  1  0  0  0  0
 15 20  1  0  0  0  0
 15 16  1  0  0  0  0
 15 43  1  0  0  0  0
 16 17  1  0  0  0  0
 16 35  1  0  0  0  0
 16 36  1  0  0  0  0
 17 18  1  0  0  0  0
 17 37  1  0  0  0  0
 17 38  1  0  0  0  0
 18 19  1  0  0  0  0
 19 20  1  0  0  0  0
 19 39  1  0  0  0  0
 19 40  1  0  0  0  0
 20 41  1  0  0  0  0
 20 42  1  0  0  0  0
M  CHG  1  15   1
M  END
> <s_m_source_file>
AV-unprocessed.smi

> <i_m_source_file_index>
1737

> <i_lp_mmshare_version>
43012

> <i_f3d_flags>
0

> <s_epik_input>
W0NIM11jMVtjSF1bY0hdW2NIXW5jMVtOSF1DKD1PKVtOSF1bQ0gyXVtDQEhdKFtDSDNdKU4yW0NIMl1bQ0gyXU9bQ0gyXVtDSDJdMg==

> <s_epik_cmdline>
J2VwaWtfcHl0aG9uJywgJy1waCcsICc3LjAnLCAnLXRuJywgJzgnLCAnLW1hJywgJzIwMCcsICctbWV0YWxfYmluZGluZycsICctaW1hZScsICc8aW5maWxlLm1hZT4nLCAnLW9tYWUnLCAnPG91dGZpbGUubWFlPic=

> <r_epik_Ionization_Penalty>
0.602573

> <r_epik_Ionization_Penalty_Charging>
0.602531

> <r_epik_Ionization_Penalty_Neutral>
4.25912e-05

> <r_epik_State_Penalty>
0.617039

> <r_epik_Charging_Adjusted_Penalty>
1.21957

> <i_epik_Tot_Q>
1

> <i_epik_Tot_abs_Q>
1

> <r_epik_Metal_State_Penalty>
0.617042

> <b_epik_Metal_Only>
0

> <s_lp_Force_Field>
OPLS_2005

> <r_lp_Energy>
21.8503

> <b_lp_Chiralities_Consistent>
1

> <s_lp_Variant>
AV-unprocessed.smi:1737-3

> <Gold.Version>
5.8.1

> <Gold.Id.Protein>
6NUR|6NUR_protein|mol2

> <Gold.PLP.Fitness>
46.9460

> <Gold.PLP.PLP>
-31.0452

> <Gold.PLP.part.hbond>
-4.0000

> <Gold.PLP.part.metal>
0.0000

> <Gold.PLP.part.buried>
-4.1711

> <Gold.PLP.part.nonpolar>
-24.4431

> <Gold.PLP.part.repulsive>
0.3948

> <Gold.PLP.ligand.clash>
0.0000

> <Gold.PLP.ligand.torsion>
1.0642

> <Gold.PLP.Chemscore.Hbond>
5.0000

> <Gold.PLP.Chemscore.CHOScore>
0.9953

> <Gold.PLP.Chemscore.Metal>
0.0000

> <Gold.Chemscore.Hbonds>
donor molecule, donor type, donor heavy atom, donor atom, acceptor molecule, acceptor atom, score
      L1  H     8    27       P1  7948  1.00
      L1  H    11    28       P1  7948  1.00
      L1  H    15    43       P1  7948  1.95
      P1  H 10752 10764       L1    18  1.00
      L1  C     5    26       P1 10186  0.98

> <Gold.PLP.Chemscore.Internal.Correction>
0.0434

> <Gold.Rescore>
     Score         DG    S(hbond)    S(metal)    S(lipo)     H(rot)  DE(clash)    DE(int)     intcor
     21.21     -22.62       3.49        0.00      79.98       1.51       0.24       1.18       ----

> <Gold.Chemscore.Fitness>
21.2055

> <Gold.Chemscore.DG>
-22.6249

> <Gold.Chemscore.ZeroCoef>
-5.4800

> <Gold.Chemscore.Hbond>
3.4908

> <Gold.Chemscore.Metal>
0.0000

> <Gold.Chemscore.Lipo>
79.9844

> <Gold.Chemscore.Internal_Hbond>
0.0000

> <Gold.Chemscore.DEClash>
0.2418

> <Gold.Chemscore.DEInternal>
1.1776

> <Gold.Chemscore.Rot>
1.5128

> <Gold.Chemscore.Internal.Correction>
   9.000000E+99

> <Gold.Chemscore.Hbonds>
donor molecule, donor type, donor heavy atom, donor atom, acceptor molecule, acceptor atom, score
      L1  H     8    27       P1  7948  0.90
      L1  H    11    28       P1  7948  0.99
      L1  H    15    43       P1  7948  0.92
      P1  H 10752 10764       L1    18  0.22

> <Gold.Chemscore.Hbond.Weighted>
-11.6593

> <Gold.Chemscore.Metal.Weighted>
-0.0000

> <Gold.Chemscore.Lipo.Weighted>
-9.3582

> <Gold.Chemscore.Internal_Hbond.Weighted>
0.0000

> <Gold.Chemscore.DEClash.Weighted>
0.2418

> <Gold.Chemscore.DEInternal.Weighted>
1.1776

> <Gold.Chemscore.Rot.Weighted>
3.8726

> <Gold.Chemscore.Internal.Correction.Weighted>
   9.000000E+99

> <Gold.Protein.RotatedTorsions>
[ 6907 6896 6895 6894 ] final -111.14 input  -60.11 | X-H torsion
[ 7974 7965 7964 7962 ] final -157.47 input  175.53 | X-H torsion
[ 8008 7997 7996 7995 ] final   -8.51 input   59.86 | X-H torsion
[ 10167 10162 10161 10158 ] final  -40.98 input  -65.29 | X-H torsion
[ 10718 10713 10712 10709 ] final  -92.14 input   66.30 | X-H torsion
[ 10763 10752 10751 10750 ] final  -56.35 input  -60.55 | X-H torsion
[ 11005 11000 10999 10996 ] final  -72.27 input  -57.11 | X-H torsion

> <Gold.Protein.ActiveResidues>
 VAL166  LYS551  ARG553  GLY616  TRP617  ASP618  TYR619  PRO620  LYS621  CYS622 
 ASP623  PHE694  ASN695  SER759  ASP760  ASP761  ALA762  ILE779  LEU786  VAL792 
 PHE793  MET794  SER795  GLU796  ALA797  LYS798  CYS799  TRP800  GLU811  SER814 

> <Gold.Protein.RotatedAtoms>
  150.7671  133.9278  159.3417 H   0  0  0  0  0  0  0  0  0  0  0  0  # atno 6907 bound_to 6896
  151.7174  135.0899  160.0287 H   0  0  0  0  0  0  0  0  0  0  0  0  # atno 6908 bound_to 6896
  152.3671  133.6333  159.6095 H   0  0  0  0  0  0  0  0  0  0  0  0  # atno 6909 bound_to 6896
  144.7547  140.3965  143.6021 H   0  0  0  0  0  0  0  0  0  0  0  0  # atno 7974 bound_to 7965
  154.5734  140.2379  155.8158 H   0  0  0  0  0  0  0  0  0  0  0  0  # atno 8008 bound_to 7997
  156.2125  140.3022  155.9721 H   0  0  0  0  0  0  0  0  0  0  0  0  # atno 8009 bound_to 7997
  155.2670  140.0417  157.2994 H   0  0  0  0  0  0  0  0  0  0  0  0  # atno 8010 bound_to 7997
  140.7017  143.3121  151.3001 H   0  0  0  0  0  0  0  0  0  0  0  0  # atno 10167 bound_to 10162
  155.9999  130.4975  150.5580 H   0  0  0  0  0  0  0  0  0  0  0  0  # atno 10718 bound_to 10713
  154.2052  135.6404  153.5099 H   0  0  0  0  0  0  0  0  0  0  0  0  # atno 10763 bound_to 10752
  153.0002  135.5461  154.6273 H   0  0  0  0  0  0  0  0  0  0  0  0  # atno 10764 bound_to 10752
  154.5696  135.2915  155.0814 H   0  0  0  0  0  0  0  0  0  0  0  0  # atno 10765 bound_to 10752
  141.1606  133.6842  156.7034 H   0  0  0  0  0  0  0  0  0  0  0  0  # atno 11005 bound_to 11000
  145.6820  139.1620  143.2695 LP  0  0  0  0  0  0  0  0  0  0  0  0  # atno 17320 bound_to 7965
  146.1542  140.6881  142.9307 LP  0  0  0  0  0  0  0  0  0  0  0  0  # atno 17321 bound_to 7965
  139.6548  144.0297  152.2652 LP  0  0  0  0  0  0  0  0  0  0  0  0  # atno 17342 bound_to 10162
  139.9845  144.6405  150.7871 LP  0  0  0  0  0  0  0  0  0  0  0  0  # atno 17343 bound_to 10162
  157.3494  131.0731  151.1725 LP  0  0  0  0  0  0  0  0  0  0  0  0  # atno 17370 bound_to 10713
  157.2547  130.6630  149.5947 LP  0  0  0  0  0  0  0  0  0  0  0  0  # atno 17371 bound_to 10713
  140.2942  134.8216  157.4042 LP  0  0  0  0  0  0  0  0  0  0  0  0  # atno 17394 bound_to 11000
  140.1320  134.5083  155.8098 LP  0  0  0  0  0  0  0  0  0  0  0  0  # atno 17395 bound_to 11000

$$$$
