AV-unprocessed.smi:1803|AV-procd|sdf|7284|dock7
  -GOLD-   22720 8543D 1   1.00000     0.00000
 Structure written by MMmdl.
 36 38  0  0  0  0  0  0  0  0  2 V2000
  142.9218  136.1399  153.4529 O   0  0  0  0  0  0  0  0  0  0  0  0
  143.0663  137.3010  153.0752 C   0  0  0  0  0  0  0  0  0  0  0  0
  142.0152  138.1462  153.0066 N   0  0  0  0  0  0  0  0  0  0  0  0
  140.6332  137.9681  153.3097 C   0  0  0  0  0  0  0  0  0  0  0  0
  139.7070  138.9390  153.2438 N   0  0  0  0  0  0  0  0  0  0  0  0
  138.4458  138.4851  153.6053 N   0  0  0  0  0  0  0  0  0  0  0  0
  138.4678  137.1914  153.9367 C   0  0  0  0  0  0  0  0  0  0  0  0
  140.0323  136.4024  153.8386 S   0  0  0  0  0  0  0  0  0  0  0  0
  144.2584  137.7995  152.7086 N   0  0  0  0  0  0  0  0  0  0  0  0
  145.5236  137.0726  152.7148 C   0  0  1  0  0  0  0  0  0  0  0  0
  146.1210  136.9270  154.1259 C   0  0  0  0  0  0  0  0  0  0  0  0
  146.7337  135.5132  154.1676 C   0  0  0  0  0  0  0  0  0  0  0  0
  146.5669  134.9747  152.8043 N   0  3  1  0  0  0  0  0  0  0  0  0
  146.5476  133.5027  152.6586 C   0  0  0  0  0  0  0  0  0  0  0  0
  146.4518  133.1415  151.1629 C   0  0  0  0  0  0  0  0  0  0  0  0
  145.2605  133.8439  150.4801 C   0  0  0  0  0  0  0  0  0  0  0  0
  145.2816  135.3617  150.7464 C   0  0  0  0  0  0  0  0  0  0  0  0
  145.3620  135.6195  152.2607 C   0  0  2  0  0  0  0  0  0  0  0  0
  142.2437  139.0630  152.6501 H   0  0  0  0  0  0  0  0  0  0  0  0
  137.5566  136.6987  154.2426 H   0  0  0  0  0  0  0  0  0  0  0  0
  144.2884  138.7635  152.4072 H   0  0  0  0  0  0  0  0  0  0  0  0
  146.2585  137.5738  152.0811 H   0  0  0  0  0  0  0  0  0  0  0  0
  146.8673  137.6991  154.3164 H   0  0  0  0  0  0  0  0  0  0  0  0
  145.3536  137.0175  154.8964 H   0  0  0  0  0  0  0  0  0  0  0  0
  147.7858  135.5230  154.4538 H   0  0  0  0  0  0  0  0  0  0  0  0
  146.1930  134.8928  154.8842 H   0  0  0  0  0  0  0  0  0  0  0  0
  147.4549  133.0796  153.0912 H   0  0  0  0  0  0  0  0  0  0  0  0
  145.7022  133.0856  153.2083 H   0  0  0  0  0  0  0  0  0  0  0  0
  147.3757  133.4351  150.6625 H   0  0  0  0  0  0  0  0  0  0  0  0
  146.3680  132.0610  151.0434 H   0  0  0  0  0  0  0  0  0  0  0  0
  145.2751  133.6506  149.4070 H   0  0  0  0  0  0  0  0  0  0  0  0
  144.3274  133.4230  150.8570 H   0  0  0  0  0  0  0  0  0  0  0  0
  146.1347  135.8167  150.2413 H   0  0  0  0  0  0  0  0  0  0  0  0
  144.3866  135.8232  150.3287 H   0  0  0  0  0  0  0  0  0  0  0  0
  144.4858  135.1867  152.7498 H   0  0  0  0  0  0  0  0  0  0  0  0
  147.3448  135.3212  152.2613 H   0  0  0  0  0  0  0  0  0  0  0  0
  1  2  2  0  0  0  0
  2  3  1  0  0  0  0
  2  9  1  0  0  0  0
  3  4  1  0  0  0  0
  3 19  1  0  0  0  0
  4  8  1  0  0  0  0
  4  5  2  0  0  0  0
  5  6  1  0  0  0  0
  6  7  2  0  0  0  0
  7  8  1  0  0  0  0
  7 20  1  0  0  0  0
  9 10  1  0  0  0  0
  9 21  1  0  0  0  0
 10 18  1  0  0  0  0
 10 11  1  0  0  0  0
 10 22  1  0  0  0  0
 11 12  1  0  0  0  0
 11 23  1  0  0  0  0
 11 24  1  0  0  0  0
 12 13  1  0  0  0  0
 12 25  1  0  0  0  0
 12 26  1  0  0  0  0
 13 18  1  0  0  0  0
 13 14  1  0  0  0  0
 13 36  1  0  0  0  0
 14 15  1  0  0  0  0
 14 27  1  0  0  0  0
 14 28  1  0  0  0  0
 15 16  1  0  0  0  0
 15 29  1  0  0  0  0
 15 30  1  0  0  0  0
 16 17  1  0  0  0  0
 16 31  1  0  0  0  0
 16 32  1  0  0  0  0
 17 18  1  0  0  0  0
 17 33  1  0  0  0  0
 17 34  1  0  0  0  0
 18 35  1  0  0  0  0
M  CHG  1  13   1
M  END
> <s_m_source_file>
AV-unprocessed.smi

> <i_m_source_file_index>
1803

> <i_lp_mmshare_version>
43012

> <i_f3d_flags>
0

> <s_epik_input>
czFbY0hdbm5jMVtOSF1DKD1PKVtOSF1bQ0BIXShbQ0gyXVtDSDJdMilbQ0BASF0oTjIzKVtDSDJdW0NIMl1bQ0gyXVtDSDJdMw==

> <s_epik_cmdline>
J2VwaWtfcHl0aG9uJywgJy1waCcsICc3LjAnLCAnLXRuJywgJzgnLCAnLW1hJywgJzIwMCcsICctbWV0YWxfYmluZGluZycsICctaW1hZScsICc8aW5maWxlLm1hZT4nLCAnLW9tYWUnLCAnPG91dGZpbGUubWFlPic=

> <r_lp_tautomer_probability>
1

> <r_epik_Ionization_Penalty>
0.00213286

> <r_epik_Ionization_Penalty_Charging>
0.00107044

> <r_epik_Ionization_Penalty_Neutral>
0.00106242

> <r_epik_State_Penalty>
-0

> <r_epik_Charging_Adjusted_Penalty>
0.00107044

> <i_epik_Tot_Q>
1

> <i_epik_Tot_abs_Q>
1

> <r_epik_Metal_State_Penalty>
0.292783

> <b_epik_Metal_Only>
0

> <s_lp_Force_Field>
OPLS_2005

> <r_lp_Energy>
35.8309

> <b_lp_Chiralities_Consistent>
1

> <s_lp_Variant>
AV-unprocessed.smi:1803-6

> <Gold.Version>
5.8.1

> <Gold.Id.Protein>
6NUR|6NUR_protein|mol2

> <Gold.PLP.Fitness>
40.3163

> <Gold.PLP.PLP>
-29.0067

> <Gold.PLP.part.hbond>
-4.0000

> <Gold.PLP.part.metal>
0.0000

> <Gold.PLP.part.buried>
-5.1914

> <Gold.PLP.part.nonpolar>
-20.8612

> <Gold.PLP.part.repulsive>
1.7466

> <Gold.PLP.ligand.clash>
0.0000

> <Gold.PLP.ligand.torsion>
0.2659

> <Gold.PLP.Chemscore.Hbond>
3.9440

> <Gold.PLP.Chemscore.CHOScore>
0.0000

> <Gold.PLP.Chemscore.Metal>
0.0000

> <Gold.Chemscore.Hbonds>
donor molecule, donor type, donor heavy atom, donor atom, acceptor molecule, acceptor atom, score
      L1  H     3    19       P1 10175  0.94
      L1  H     9    21       P1 10175  1.00
      L1  H    13    36       P1  7948  2.00

> <Gold.PLP.Chemscore.Internal.Correction>
0.0095

> <Gold.Rescore>
     Score         DG    S(hbond)    S(metal)    S(lipo)     H(rot)  DE(clash)    DE(int)     intcor
     15.35     -18.12       2.94        0.00      46.10       1.00       0.12       2.65       ----

> <Gold.Chemscore.Fitness>
15.3536

> <Gold.Chemscore.DG>
-18.1238

> <Gold.Chemscore.ZeroCoef>
-5.4800

> <Gold.Chemscore.Hbond>
2.9373

> <Gold.Chemscore.Metal>
0.0000

> <Gold.Chemscore.Lipo>
46.0964

> <Gold.Chemscore.Internal_Hbond>
0.0000

> <Gold.Chemscore.DEClash>
0.1162

> <Gold.Chemscore.DEInternal>
2.6540

> <Gold.Chemscore.Rot>
1.0000

> <Gold.Chemscore.Internal.Correction>
   9.000000E+99

> <Gold.Chemscore.Hbonds>
donor molecule, donor type, donor heavy atom, donor atom, acceptor molecule, acceptor atom, score
      L1  H     3    19       P1 10175  0.86
      L1  H     9    21       P1 10175  0.95
      L1  H    13    36       P1  7948  1.00

> <Gold.Chemscore.Hbond.Weighted>
-9.8105

> <Gold.Chemscore.Metal.Weighted>
-0.0000

> <Gold.Chemscore.Lipo.Weighted>
-5.3933

> <Gold.Chemscore.Internal_Hbond.Weighted>
0.0000

> <Gold.Chemscore.DEClash.Weighted>
0.1162

> <Gold.Chemscore.DEInternal.Weighted>
2.6540

> <Gold.Chemscore.Rot.Weighted>
2.5600

> <Gold.Chemscore.Internal.Correction.Weighted>
   9.000000E+99

> <Gold.Protein.RotatedTorsions>
[ 6907 6896 6895 6894 ] final  123.27 input  -60.11 | X-H torsion
[ 7974 7965 7964 7962 ] final  129.17 input  175.53 | X-H torsion
[ 8008 7997 7996 7995 ] final  -93.73 input   59.86 | X-H torsion
[ 10167 10162 10161 10158 ] final  150.60 input  -65.29 | X-H torsion
[ 10718 10713 10712 10709 ] final -109.59 input   66.30 | X-H torsion
[ 10763 10752 10751 10750 ] final   41.69 input  -60.55 | X-H torsion
[ 11005 11000 10999 10996 ] final   50.55 input  -57.11 | X-H torsion

> <Gold.Protein.ActiveResidues>
 VAL166  LYS551  ARG553  GLY616  TRP617  ASP618  TYR619  PRO620  LYS621  CYS622 
 ASP623  PHE694  ASN695  SER759  ASP760  ASP761  ALA762  ILE779  LEU786  VAL792 
 PHE793  MET794  SER795  GLU796  ALA797  LYS798  CYS799  TRP800  GLU811  SER814 

> <Gold.Protein.RotatedAtoms>
  152.4176  133.7063  159.6452 H   0  0  0  0  0  0  0  0  0  0  0  0  # atno 6907 bound_to 6896
  150.8052  133.8512  159.3214 H   0  0  0  0  0  0  0  0  0  0  0  0  # atno 6908 bound_to 6896
  151.6238  135.1031  160.0159 H   0  0  0  0  0  0  0  0  0  0  0  0  # atno 6909 bound_to 6896
  145.0316  139.4041  143.5147 H   0  0  0  0  0  0  0  0  0  0  0  0  # atno 7974 bound_to 7965
  154.7394  140.0496  157.0798 H   0  0  0  0  0  0  0  0  0  0  0  0  # atno 8008 bound_to 7997
  155.0198  140.3145  155.4778 H   0  0  0  0  0  0  0  0  0  0  0  0  # atno 8009 bound_to 7997
  156.2861  140.2169  156.5315 H   0  0  0  0  0  0  0  0  0  0  0  0  # atno 8010 bound_to 7997
  139.4848  144.5509  151.7402 H   0  0  0  0  0  0  0  0  0  0  0  0  # atno 10167 bound_to 10162
  156.0545  130.5772  150.8121 H   0  0  0  0  0  0  0  0  0  0  0  0  # atno 10718 bound_to 10713
  152.9902  135.6154  154.2828 H   0  0  0  0  0  0  0  0  0  0  0  0  # atno 10763 bound_to 10752
  154.2556  135.2784  155.2800 H   0  0  0  0  0  0  0  0  0  0  0  0  # atno 10764 bound_to 10752
  154.5250  135.5804  153.6769 H   0  0  0  0  0  0  0  0  0  0  0  0  # atno 10765 bound_to 10752
  140.1008  134.5084  155.8765 H   0  0  0  0  0  0  0  0  0  0  0  0  # atno 11005 bound_to 11000
  146.3499  139.9869  142.8690 LP  0  0  0  0  0  0  0  0  0  0  0  0  # atno 17320 bound_to 7965
  145.1763  140.9745  143.4292 LP  0  0  0  0  0  0  0  0  0  0  0  0  # atno 17321 bound_to 7965
  140.5063  144.1093  150.5983 LP  0  0  0  0  0  0  0  0  0  0  0  0  # atno 17342 bound_to 10162
  140.4003  143.2707  151.9955 LP  0  0  0  0  0  0  0  0  0  0  0  0  # atno 17343 bound_to 10162
  157.5503  131.0943  150.9705 LP  0  0  0  0  0  0  0  0  0  0  0  0  # atno 17370 bound_to 10713
  156.9967  130.5584  149.5308 LP  0  0  0  0  0  0  0  0  0  0  0  0  # atno 17371 bound_to 10713
  141.2105  133.6695  156.6513 LP  0  0  0  0  0  0  0  0  0  0  0  0  # atno 17394 bound_to 11000
  140.3223  134.7997  157.4262 LP  0  0  0  0  0  0  0  0  0  0  0  0  # atno 17395 bound_to 11000

$$$$
