AV-unprocessed.smi:3029|AV-procd|sdf|11527|dock9
  -GOLD-   2272016473D 1   1.00000     0.00000
 Structure written by MMmdl.
 42 43  0  0  0  0  0  0  0  0  4 V2000
  147.3632  141.3332  154.0751 O   0  0  0  0  0  0  0  0  0  0  0  0
  148.2710  140.6048  154.4758 C   0  0  0  0  0  0  0  0  0  0  0  0
  149.3347  141.0964  155.3574 C   0  0  0  0  0  0  0  0  0  0  0  0
  150.3144  140.2864  155.8049 C   0  0  0  0  0  0  0  0  0  0  0  0
  150.3431  138.8873  155.4245 C   0  0  0  0  0  0  0  0  0  0  0  0
  151.3811  138.0051  155.9106 N   0  3  0  0  0  0  0  0  0  0  0  0
  152.2713  138.4672  156.6181 O   0  0  0  0  0  0  0  0  0  0  0  0
  151.3389  136.8193  155.5995 O   0  5  0  0  0  0  0  0  0  0  0  0
  149.3683  138.4400  154.6085 C   0  0  0  0  0  0  0  0  0  0  0  0
  148.3482  139.2844  154.1294 N   0  0  0  0  0  0  0  0  0  0  0  0
  147.3412  138.6812  153.2458 C   0  0  0  0  0  0  0  0  0  0  0  0
  146.6982  137.4421  153.8891 C   0  0  0  0  0  0  0  0  0  0  0  0
  146.2977  136.4641  152.8567 N   0  3  0  0  0  0  0  0  0  0  0  0
  145.4361  135.3530  153.3279 C   0  0  2  0  0  0  0  0  0  0  0  0
  145.9407  134.7772  154.6703 C   0  0  0  0  0  0  0  0  0  0  0  0
  147.2808  134.0379  154.5147 C   0  0  0  0  0  0  0  0  0  0  0  0
  147.1869  132.9344  153.4508 C   0  0  0  0  0  0  0  0  0  0  0  0
  146.6821  133.4866  152.1078 C   0  0  0  0  0  0  0  0  0  0  0  0
  145.3338  134.2241  152.2672 C   0  0  2  0  0  0  0  0  0  0  0  0
  144.7450  134.6873  150.9148 C   0  0  0  0  0  0  0  0  0  0  0  0
  144.5895  133.6654  150.0726 F   0  0  0  0  0  0  0  0  0  0  0  0
  143.5568  135.2571  151.1135 F   0  0  0  0  0  0  0  0  0  0  0  0
  145.5493  135.5895  150.3535 F   0  0  0  0  0  0  0  0  0  0  0  0
  149.3318  142.1350  155.6540 H   0  0  0  0  0  0  0  0  0  0  0  0
  151.0772  140.6947  156.4514 H   0  0  0  0  0  0  0  0  0  0  0  0
  149.2977  137.4154  154.2723 H   0  0  0  0  0  0  0  0  0  0  0  0
  146.5728  139.4137  152.9901 H   0  0  0  0  0  0  0  0  0  0  0  0
  147.7954  138.4056  152.2926 H   0  0  0  0  0  0  0  0  0  0  0  0
  147.4021  136.9835  154.5832 H   0  0  0  0  0  0  0  0  0  0  0  0
  145.8185  137.7314  154.4653 H   0  0  0  0  0  0  0  0  0  0  0  0
  145.7802  136.9716  152.1526 H   0  0  0  0  0  0  0  0  0  0  0  0
  144.4346  135.7564  153.4840 H   0  0  0  0  0  0  0  0  0  0  0  0
  146.0295  135.5566  155.4265 H   0  0  0  0  0  0  0  0  0  0  0  0
  145.1978  134.0784  155.0574 H   0  0  0  0  0  0  0  0  0  0  0  0
  148.0652  134.7449  154.2427 H   0  0  0  0  0  0  0  0  0  0  0  0
  147.5779  133.6046  155.4702 H   0  0  0  0  0  0  0  0  0  0  0  0
  148.1611  132.4632  153.3165 H   0  0  0  0  0  0  0  0  0  0  0  0
  146.5122  132.1511  153.7985 H   0  0  0  0  0  0  0  0  0  0  0  0
  147.4292  134.1581  151.6836 H   0  0  0  0  0  0  0  0  0  0  0  0
  146.5768  132.6634  151.4007 H   0  0  0  0  0  0  0  0  0  0  0  0
  144.6259  133.4946  152.6646 H   0  0  0  0  0  0  0  0  0  0  0  0
  147.1238  136.0746  152.4251 H   0  0  0  0  0  0  0  0  0  0  0  0
  1  2  2  0  0  0  0
  2 10  1  0  0  0  0
  2  3  1  0  0  0  0
  3  4  2  0  0  0  0
  3 24  1  0  0  0  0
  4  5  1  0  0  0  0
  4 25  1  0  0  0  0
  5  6  1  0  0  0  0
  5  9  2  0  0  0  0
  6  7  2  0  0  0  0
  6  8  1  0  0  0  0
  9 10  1  0  0  0  0
  9 26  1  0  0  0  0
 10 11  1  0  0  0  0
 11 12  1  0  0  0  0
 11 27  1  0  0  0  0
 11 28  1  0  0  0  0
 12 13  1  0  0  0  0
 12 29  1  0  0  0  0
 12 30  1  0  0  0  0
 13 14  1  0  0  0  0
 13 31  1  0  0  0  0
 13 42  1  0  0  0  0
 14 19  1  0  0  0  0
 14 15  1  0  0  0  0
 14 32  1  0  0  0  0
 15 16  1  0  0  0  0
 15 33  1  0  0  0  0
 15 34  1  0  0  0  0
 16 17  1  0  0  0  0
 16 35  1  0  0  0  0
 16 36  1  0  0  0  0
 17 18  1  0  0  0  0
 17 37  1  0  0  0  0
 17 38  1  0  0  0  0
 18 19  1  0  0  0  0
 18 39  1  0  0  0  0
 18 40  1  0  0  0  0
 19 20  1  0  0  0  0
 19 41  1  0  0  0  0
 20 21  1  0  0  0  0
 20 22  1  0  0  0  0
 20 23  1  0  0  0  0
M  CHG  1   6   1
M  CHG  1   8  -1
M  CHG  1  13   1
M  END
> <s_m_source_file>
AV-unprocessed.smi

> <i_m_source_file_index>
3029

> <i_lp_mmshare_version>
43012

> <i_f3d_flags>
0

> <s_epik_input>
Tz1jMVtjSF1bY0hdYyhbTitdKD1PKVtPLV0pW2NIXW4xW0NIMl1bQ0gyXVtOSF1bQ0BASF0yW0NIMl1bQ0gyXVtDSDJdW0NIMl1bQ0BIXTJDKEYpKEYpRg==

> <s_epik_cmdline>
J2VwaWtfcHl0aG9uJywgJy1waCcsICc3LjAnLCAnLXRuJywgJzgnLCAnLW1hJywgJzIwMCcsICctbWV0YWxfYmluZGluZycsICctaW1hZScsICc8aW5maWxlLm1hZT4nLCAnLW9tYWUnLCAnPG91dGZpbGUubWFlPic=

> <r_lp_tautomer_probability>
1

> <r_epik_Ionization_Penalty>
0.037386

> <r_epik_Ionization_Penalty_Charging>
0.037386

> <r_epik_Ionization_Penalty_Neutral>
0

> <r_epik_State_Penalty>
0.0312892

> <r_epik_Charging_Adjusted_Penalty>
0.0686752

> <i_epik_Tot_Q>
1

> <i_epik_Tot_abs_Q>
3

> <r_epik_Metal_State_Penalty>
0.0312892

> <b_epik_Metal_Only>
0

> <s_lp_Force_Field>
OPLS_2005

> <r_lp_Energy>
34.7992

> <b_lp_Chiralities_Consistent>
1

> <s_lp_Variant>
AV-unprocessed.smi:3029-3

> <Gold.Version>
5.8.1

> <Gold.Id.Protein>
6NUR|6NUR_protein|mol2

> <Gold.PLP.Fitness>
55.1459

> <Gold.PLP.PLP>
-41.0994

> <Gold.PLP.part.hbond>
-3.0000

> <Gold.PLP.part.metal>
0.0000

> <Gold.PLP.part.buried>
-2.4443

> <Gold.PLP.part.nonpolar>
-35.5956

> <Gold.PLP.part.repulsive>
0.2782

> <Gold.PLP.ligand.clash>
0.0000

> <Gold.PLP.ligand.torsion>
0.3879

> <Gold.PLP.Chemscore.Hbond>
3.9120

> <Gold.PLP.Chemscore.CHOScore>
1.0000

> <Gold.PLP.Chemscore.Metal>
0.0000

> <Gold.Chemscore.Hbonds>
donor molecule, donor type, donor heavy atom, donor atom, acceptor molecule, acceptor atom, score
      L1  H    13    42       P1  7948  2.00
      P1  H 10752 10765       L1     8  0.05
      L1  C     9    26       P1  7948  0.61

> <Gold.PLP.Chemscore.Internal.Correction>
0.0862

> <Gold.Rescore>
     Score         DG    S(hbond)    S(metal)    S(lipo)     H(rot)  DE(clash)    DE(int)     intcor
     15.51     -17.33       2.85        0.00      61.66       1.90       0.05       1.77       ----

> <Gold.Chemscore.Fitness>
15.5114

> <Gold.Chemscore.DG>
-17.3282

> <Gold.Chemscore.ZeroCoef>
-5.4800

> <Gold.Chemscore.Hbond>
2.8467

> <Gold.Chemscore.Metal>
0.0000

> <Gold.Chemscore.Lipo>
61.6565

> <Gold.Chemscore.Internal_Hbond>
0.0000

> <Gold.Chemscore.DEClash>
0.0495

> <Gold.Chemscore.DEInternal>
1.7673

> <Gold.Chemscore.Rot>
1.9037

> <Gold.Chemscore.Internal.Correction>
   9.000000E+99

> <Gold.Chemscore.Hbonds>
donor molecule, donor type, donor heavy atom, donor atom, acceptor molecule, acceptor atom, score
      L1  H    13    42       P1  7948  0.96
      P1  H 10752 10765       L1     8  0.09

> <Gold.Chemscore.Hbond.Weighted>
-9.5079

> <Gold.Chemscore.Metal.Weighted>
-0.0000

> <Gold.Chemscore.Lipo.Weighted>
-7.2138

> <Gold.Chemscore.Internal_Hbond.Weighted>
0.0000

> <Gold.Chemscore.DEClash.Weighted>
0.0495

> <Gold.Chemscore.DEInternal.Weighted>
1.7673

> <Gold.Chemscore.Rot.Weighted>
4.8736

> <Gold.Chemscore.Internal.Correction.Weighted>
   9.000000E+99

> <Gold.Protein.RotatedTorsions>
[ 6907 6896 6895 6894 ] final -164.81 input  -60.11 | X-H torsion
[ 7974 7965 7964 7962 ] final  -26.64 input  175.53 | X-H torsion
[ 8008 7997 7996 7995 ] final  113.59 input   59.86 | X-H torsion
[ 10167 10162 10161 10158 ] final  102.24 input  -65.29 | X-H torsion
[ 10718 10713 10712 10709 ] final  106.36 input   66.30 | X-H torsion
[ 10763 10752 10751 10750 ] final  157.48 input  -60.55 | X-H torsion
[ 11005 11000 10999 10996 ] final   -3.34 input  -57.11 | X-H torsion

> <Gold.Protein.ActiveResidues>
 VAL166  LYS551  ARG553  GLY616  TRP617  ASP618  TYR619  PRO620  LYS621  CYS622 
 ASP623  PHE694  ASN695  SER759  ASP760  ASP761  ALA762  ILE779  LEU786  VAL792 
 PHE793  MET794  SER795  GLU796  ALA797  LYS798  CYS799  TRP800  GLU811  SER814 

> <Gold.Protein.RotatedAtoms>
  151.4178  133.3707  159.2751 H   0  0  0  0  0  0  0  0  0  0  0  0  # atno 6907 bound_to 6896
  150.9316  134.8732  159.7565 H   0  0  0  0  0  0  0  0  0  0  0  0  # atno 6908 bound_to 6896
  152.5030  134.4123  159.9505 H   0  0  0  0  0  0  0  0  0  0  0  0  # atno 6909 bound_to 6896
  146.1412  140.5046  142.8651 H   0  0  0  0  0  0  0  0  0  0  0  0  # atno 7974 bound_to 7965
  156.2268  140.2976  156.0086 H   0  0  0  0  0  0  0  0  0  0  0  0  # atno 8008 bound_to 7997
  155.2336  140.0420  157.2982 H   0  0  0  0  0  0  0  0  0  0  0  0  # atno 8009 bound_to 7997
  154.5928  140.2406  155.7905 H   0  0  0  0  0  0  0  0  0  0  0  0  # atno 8010 bound_to 7997
  139.7367  144.7022  151.0637 H   0  0  0  0  0  0  0  0  0  0  0  0  # atno 10167 bound_to 10162
  157.6671  131.0849  150.5995 H   0  0  0  0  0  0  0  0  0  0  0  0  # atno 10718 bound_to 10713
  154.2009  135.2790  155.2991 H   0  0  0  0  0  0  0  0  0  0  0  0  # atno 10763 bound_to 10752
  154.5855  135.5576  153.7230 H   0  0  0  0  0  0  0  0  0  0  0  0  # atno 10764 bound_to 10752
  153.0088  135.6355  154.2147 H   0  0  0  0  0  0  0  0  0  0  0  0  # atno 10765 bound_to 10752
  140.6683  133.9259  155.8478 H   0  0  0  0  0  0  0  0  0  0  0  0  # atno 11005 bound_to 11000
  144.7794  140.5809  143.6615 LP  0  0  0  0  0  0  0  0  0  0  0  0  # atno 17320 bound_to 7965
  145.5042  139.1482  143.3640 LP  0  0  0  0  0  0  0  0  0  0  0  0  # atno 17321 bound_to 7965
  140.7780  143.4974  150.9814 LP  0  0  0  0  0  0  0  0  0  0  0  0  # atno 17342 bound_to 10162
  139.8663  143.7250  152.3170 LP  0  0  0  0  0  0  0  0  0  0  0  0  # atno 17343 bound_to 10162
  156.6296  130.4428  149.5791 LP  0  0  0  0  0  0  0  0  0  0  0  0  # atno 17370 bound_to 10713
  156.2292  130.6784  151.1447 LP  0  0  0  0  0  0  0  0  0  0  0  0  # atno 17371 bound_to 10713
  141.0412  134.0618  157.3899 LP  0  0  0  0  0  0  0  0  0  0  0  0  # atno 17394 bound_to 11000
  139.8990  135.0157  156.7175 LP  0  0  0  0  0  0  0  0  0  0  0  0  # atno 17395 bound_to 11000

$$$$
