AV-unprocessed.smi:1576|AV-procd|sdf|6346|dock3
  -GOLD-   22720 6563D 1   1.00000     0.00000
 Structure written by MMmdl.
 46 48  0  0  0  0  0  0  0  0  2 V2000
  146.7920  139.4167  154.7923 O   0  0  0  0  0  0  0  0  0  0  0  0
  147.6487  138.8198  154.1412 C   0  0  0  0  0  0  0  0  0  0  0  0
  148.9764  138.9653  154.2928 N   0  0  0  0  0  0  0  0  0  0  0  0
  149.6712  139.8301  155.1814 C   0  0  0  0  0  0  0  0  0  0  0  0
  151.0801  139.7463  155.2179 C   0  0  0  0  0  0  0  0  0  0  0  0
  151.8100  140.5953  156.0748 C   0  0  0  0  0  0  0  0  0  0  0  0
  151.1167  141.5287  156.8783 C   0  0  0  0  0  0  0  0  0  0  0  0
  151.7540  142.4135  157.7576 N   0  0  0  0  0  0  0  0  0  0  0  0
  151.5889  143.8129  157.3727 C   0  0  0  0  0  0  0  0  0  0  0  0
  152.4647  144.7277  158.2467 C   0  0  0  0  0  0  0  0  0  0  0  0
  152.1876  144.4910  159.7402 C   0  0  0  0  0  0  0  0  0  0  0  0
  152.3441  143.0003  160.0817 C   0  0  0  0  0  0  0  0  0  0  0  0
  151.4684  142.1319  159.1621 C   0  0  0  0  0  0  0  0  0  0  0  0
  149.7694  141.5888  156.8064 N   0  3  0  0  0  0  0  0  0  0  0  0
  149.0330  140.7930  156.0013 C   0  0  0  0  0  0  0  0  0  0  0  0
  147.3642  137.9136  153.1924 N   0  0  0  0  0  0  0  0  0  0  0  0
  146.0326  137.4687  152.7726 C   0  0  1  0  0  0  0  0  0  0  0  0
  145.8864  137.3426  151.2289 C   0  0  0  0  0  0  0  0  0  0  0  0
  145.6177  135.8857  150.8336 C   0  0  0  0  0  0  0  0  0  0  0  0
  144.6951  135.1818  152.2385 S   0  0  0  0  0  0  0  0  0  0  0  0
  143.3026  135.6505  152.1693 O   0  0  0  0  0  0  0  0  0  0  0  0
  145.0129  133.7545  152.3962 O   0  0  0  0  0  0  0  0  0  0  0  0
  145.5815  136.1739  153.4895 C   0  0  0  0  0  0  0  0  0  0  0  0
  149.5568  138.3488  153.7429 H   0  0  0  0  0  0  0  0  0  0  0  0
  151.6031  139.0321  154.5985 H   0  0  0  0  0  0  0  0  0  0  0  0
  152.8876  140.5282  156.1107 H   0  0  0  0  0  0  0  0  0  0  0  0
  151.8543  143.9403  156.3222 H   0  0  0  0  0  0  0  0  0  0  0  0
  150.5407  144.0975  157.4749 H   0  0  0  0  0  0  0  0  0  0  0  0
  153.5176  144.5357  158.0357 H   0  0  0  0  0  0  0  0  0  0  0  0
  152.2836  145.7723  157.9922 H   0  0  0  0  0  0  0  0  0  0  0  0
  152.8642  145.0910  160.3493 H   0  0  0  0  0  0  0  0  0  0  0  0
  151.1754  144.8183  159.9818 H   0  0  0  0  0  0  0  0  0  0  0  0
  153.3898  142.7085  159.9735 H   0  0  0  0  0  0  0  0  0  0  0  0
  152.0799  142.8243  161.1249 H   0  0  0  0  0  0  0  0  0  0  0  0
  150.4145  142.3250  159.3670 H   0  0  0  0  0  0  0  0  0  0  0  0
  151.6470  141.0759  159.3696 H   0  0  0  0  0  0  0  0  0  0  0  0
  147.9690  140.9710  156.0408 H   0  0  0  0  0  0  0  0  0  0  0  0
  148.1425  137.4790  152.7183 H   0  0  0  0  0  0  0  0  0  0  0  0
  145.3553  138.2636  153.0868 H   0  0  0  0  0  0  0  0  0  0  0  0
  145.0282  137.9397  150.9181 H   0  0  0  0  0  0  0  0  0  0  0  0
  146.7421  137.7469  150.6869 H   0  0  0  0  0  0  0  0  0  0  0  0
  145.0464  135.7840  149.9111 H   0  0  0  0  0  0  0  0  0  0  0  0
  146.5519  135.3331  150.7334 H   0  0  0  0  0  0  0  0  0  0  0  0
  146.4246  135.5772  153.8375 H   0  0  0  0  0  0  0  0  0  0  0  0
  144.9262  136.3655  154.3397 H   0  0  0  0  0  0  0  0  0  0  0  0
  149.2832  142.2728  157.3867 H   0  0  0  0  0  0  0  0  0  0  0  0
  1  2  2  0  0  0  0
  2  3  1  0  0  0  0
  2 16  1  0  0  0  0
  3  4  1  0  0  0  0
  3 24  1  0  0  0  0
  4 15  1  0  0  0  0
  4  5  2  0  0  0  0
  5  6  1  0  0  0  0
  5 25  1  0  0  0  0
  6  7  2  0  0  0  0
  6 26  1  0  0  0  0
  7  8  1  0  0  0  0
  7 14  1  0  0  0  0
  8 13  1  0  0  0  0
  8  9  1  0  0  0  0
  9 10  1  0  0  0  0
  9 27  1  0  0  0  0
  9 28  1  0  0  0  0
 10 11  1  0  0  0  0
 10 29  1  0  0  0  0
 10 30  1  0  0  0  0
 11 12  1  0  0  0  0
 11 31  1  0  0  0  0
 11 32  1  0  0  0  0
 12 13  1  0  0  0  0
 12 33  1  0  0  0  0
 12 34  1  0  0  0  0
 13 35  1  0  0  0  0
 13 36  1  0  0  0  0
 14 15  2  0  0  0  0
 14 46  1  0  0  0  0
 15 37  1  0  0  0  0
 16 17  1  0  0  0  0
 16 38  1  0  0  0  0
 17 23  1  0  0  0  0
 17 18  1  0  0  0  0
 17 39  1  0  0  0  0
 18 19  1  0  0  0  0
 18 40  1  0  0  0  0
 18 41  1  0  0  0  0
 19 20  1  0  0  0  0
 19 42  1  0  0  0  0
 19 43  1  0  0  0  0
 20 21  2  0  0  0  0
 20 22  2  0  0  0  0
 20 23  1  0  0  0  0
 23 44  1  0  0  0  0
 23 45  1  0  0  0  0
M  CHG  1  14   1
M  END
> <s_m_source_file>
AV-unprocessed.smi

> <i_m_source_file_index>
1576

> <i_lp_mmshare_version>
43012

> <i_f3d_flags>
0

> <s_epik_input>
Tz1TMSg9TylbQ0gyXVtDSDJdW0NASF0oW0NIMl0xKVtOSF1DKD1PKVtOSF1jMltjSF1bY0hdYyhuW2NIXTIpTjNbQ0gyXVtDSDJdW0NIMl1bQ0gyXVtDSDJdMw==

> <s_epik_cmdline>
J2VwaWtfcHl0aG9uJywgJy1waCcsICc3LjAnLCAnLXRuJywgJzgnLCAnLW1hJywgJzIwMCcsICctbWV0YWxfYmluZGluZycsICctaW1hZScsICc8aW5maWxlLm1hZT4nLCAnLW9tYWUnLCAnPG91dGZpbGUubWFlPic=

> <r_lp_tautomer_probability>
0.999994

> <r_epik_Ionization_Penalty>
1.19724

> <r_epik_Ionization_Penalty_Charging>
1.19722

> <r_epik_Ionization_Penalty_Neutral>
2.11505e-05

> <r_epik_State_Penalty>
1.26251

> <r_epik_Charging_Adjusted_Penalty>
2.45973

> <i_epik_Tot_Q>
1

> <i_epik_Tot_abs_Q>
1

> <r_epik_Metal_State_Penalty>
1.33857

> <b_epik_Metal_Only>
0

> <s_lp_Force_Field>
OPLS_2005

> <r_lp_Energy>
28.6197

> <b_lp_Chiralities_Consistent>
1

> <s_lp_Variant>
AV-unprocessed.smi:1576-4

> <Gold.Version>
5.8.1

> <Gold.Id.Protein>
6NUR|6NUR_protein|mol2

> <Gold.PLP.Fitness>
40.1744

> <Gold.PLP.PLP>
-37.7286

> <Gold.PLP.part.hbond>
-1.0000

> <Gold.PLP.part.metal>
0.0000

> <Gold.PLP.part.buried>
-0.9994

> <Gold.PLP.part.nonpolar>
-36.2931

> <Gold.PLP.part.repulsive>
0.4687

> <Gold.PLP.ligand.clash>
0.0000

> <Gold.PLP.ligand.torsion>
0.3678

> <Gold.PLP.Chemscore.Hbond>
1.0000

> <Gold.PLP.Chemscore.CHOScore>
0.0000

> <Gold.PLP.Chemscore.Metal>
0.0000

> <Gold.Chemscore.Hbonds>
donor molecule, donor type, donor heavy atom, donor atom, acceptor molecule, acceptor atom, score
      L1  H    16    38       P1  7948  1.00

> <Gold.PLP.Chemscore.Internal.Correction>
0.1814

> <Gold.Rescore>
     Score         DG    S(hbond)    S(metal)    S(lipo)     H(rot)  DE(clash)    DE(int)     intcor
     15.19     -17.91       0.97        0.00     105.83       1.25       1.00       1.71       ----

> <Gold.Chemscore.Fitness>
15.1910

> <Gold.Chemscore.DG>
-17.9058

> <Gold.Chemscore.ZeroCoef>
-5.4800

> <Gold.Chemscore.Hbond>
0.9693

> <Gold.Chemscore.Metal>
0.0000

> <Gold.Chemscore.Lipo>
105.8255

> <Gold.Chemscore.Internal_Hbond>
0.0000

> <Gold.Chemscore.DEClash>
1.0036

> <Gold.Chemscore.DEInternal>
1.7112

> <Gold.Chemscore.Rot>
1.2473

> <Gold.Chemscore.Internal.Correction>
   9.000000E+99

> <Gold.Chemscore.Hbonds>
donor molecule, donor type, donor heavy atom, donor atom, acceptor molecule, acceptor atom, score
      L1  H    16    38       P1  7948  0.99

> <Gold.Chemscore.Hbond.Weighted>
-3.2373

> <Gold.Chemscore.Metal.Weighted>
-0.0000

> <Gold.Chemscore.Lipo.Weighted>
-12.3816

> <Gold.Chemscore.Internal_Hbond.Weighted>
0.0000

> <Gold.Chemscore.DEClash.Weighted>
1.0036

> <Gold.Chemscore.DEInternal.Weighted>
1.7112

> <Gold.Chemscore.Rot.Weighted>
3.1931

> <Gold.Chemscore.Internal.Correction.Weighted>
   9.000000E+99

> <Gold.Protein.RotatedTorsions>
[ 6907 6896 6895 6894 ] final -125.15 input  -60.11 | X-H torsion
[ 7974 7965 7964 7962 ] final   87.34 input  175.53 | X-H torsion
[ 8008 7997 7996 7995 ] final   -6.27 input   59.86 | X-H torsion
[ 10167 10162 10161 10158 ] final  -58.25 input  -65.29 | X-H torsion
[ 10718 10713 10712 10709 ] final -159.10 input   66.30 | X-H torsion
[ 10763 10752 10751 10750 ] final  123.67 input  -60.55 | X-H torsion
[ 11005 11000 10999 10996 ] final  167.46 input  -57.11 | X-H torsion

> <Gold.Protein.ActiveResidues>
 VAL166  LYS551  ARG553  GLY616  TRP617  ASP618  TYR619  PRO620  LYS621  CYS622 
 ASP623  PHE694  ASN695  SER759  ASP760  ASP761  ALA762  ILE779  LEU786  VAL792 
 PHE793  MET794  SER795  GLU796  ALA797  LYS798  CYS799  TRP800  GLU811  SER814 

> <Gold.Protein.RotatedAtoms>
  150.8839  133.7334  159.2923 H   0  0  0  0  0  0  0  0  0  0  0  0  # atno 6907 bound_to 6896
  151.4907  135.1056  159.9812 H   0  0  0  0  0  0  0  0  0  0  0  0  # atno 6908 bound_to 6896
  152.4777  133.8133  159.7070 H   0  0  0  0  0  0  0  0  0  0  0  0  # atno 6909 bound_to 6896
  145.5603  139.2303  143.2463 H   0  0  0  0  0  0  0  0  0  0  0  0  # atno 7974 bound_to 7965
  154.5955  140.2437  155.7863 H   0  0  0  0  0  0  0  0  0  0  0  0  # atno 8008 bound_to 7997
  156.2276  140.2977  156.0059 H   0  0  0  0  0  0  0  0  0  0  0  0  # atno 8009 bound_to 7997
  155.2301  140.0403  157.2951 H   0  0  0  0  0  0  0  0  0  0  0  0  # atno 8010 bound_to 7997
  140.6208  143.2419  151.5484 H   0  0  0  0  0  0  0  0  0  0  0  0  # atno 10167 bound_to 10162
  156.5634  130.8657  151.2816 H   0  0  0  0  0  0  0  0  0  0  0  0  # atno 10718 bound_to 10713
  153.6492  135.3365  155.3095 H   0  0  0  0  0  0  0  0  0  0  0  0  # atno 10763 bound_to 10752
  154.8541  135.4337  154.1922 H   0  0  0  0  0  0  0  0  0  0  0  0  # atno 10764 bound_to 10752
  153.2860  135.7013  153.7413 H   0  0  0  0  0  0  0  0  0  0  0  0  # atno 10765 bound_to 10752
  140.2770  134.7780  157.3725 H   0  0  0  0  0  0  0  0  0  0  0  0  # atno 11005 bound_to 11000
  146.1856  140.6428  142.9169 LP  0  0  0  0  0  0  0  0  0  0  0  0  # atno 17320 bound_to 7965
  144.7486  140.5133  143.6818 LP  0  0  0  0  0  0  0  0  0  0  0  0  # atno 17321 bound_to 7965
  139.5437  144.2578  152.1401 LP  0  0  0  0  0  0  0  0  0  0  0  0  # atno 17342 bound_to 10162
  140.1797  144.4856  150.6535 LP  0  0  0  0  0  0  0  0  0  0  0  0  # atno 17343 bound_to 10162
  157.7364  130.9777  150.2132 LP  0  0  0  0  0  0  0  0  0  0  0  0  # atno 17370 bound_to 10713
  156.2779  130.3729  149.7965 LP  0  0  0  0  0  0  0  0  0  0  0  0  # atno 17371 bound_to 10713
  140.1319  134.5084  155.8099 LP  0  0  0  0  0  0  0  0  0  0  0  0  # atno 17394 bound_to 11000
  141.2169  133.6793  156.7054 LP  0  0  0  0  0  0  0  0  0  0  0  0  # atno 17395 bound_to 11000

$$$$
