AV-unprocessed.smi:290|AV-procd|sdf|2235|dock1
  -GOLD-   2262022103D 1   1.00000     0.00000
 Structure written by MMmdl.
 59 62  0  0  0  0  0  0  0  0  2 V2000
  152.4119  138.1598  159.2901 C   0  0  0  0  0  0  0  0  0  0  0  0
  152.8071  138.2433  157.8085 C   0  0  2  0  0  0  0  0  0  0  0  0
  152.5037  139.5304  157.2771 O   0  0  0  0  0  0  0  0  0  0  0  0
  152.1255  139.4204  155.9077 C   0  0  0  0  0  0  0  0  0  0  0  0
  152.3561  137.9599  155.5308 C   0  0  0  0  0  0  0  0  0  0  0  0
  152.1384  137.2358  156.8538 C   0  0  1  0  0  0  0  0  0  0  0  0
  152.8629  136.0208  156.8342 O   0  0  0  0  0  0  0  0  0  0  0  0
  150.6461  136.9507  157.1802 C   0  0  0  0  0  0  0  0  0  0  0  0
  149.9949  136.0469  156.2452 N   0  0  0  0  0  0  0  0  0  0  0  0
  148.9353  136.3427  155.4183 C   0  0  0  0  0  0  0  0  0  0  0  0
  148.5231  135.3579  154.6680 N   0  0  0  0  0  0  0  0  0  0  0  0
  149.3483  134.2951  155.0174 C   0  0  0  0  0  0  0  0  0  0  0  0
  149.4567  132.9362  154.6037 C   0  0  0  0  0  0  0  0  0  0  0  0
  148.6944  132.3406  153.6595 N   0  0  0  0  0  0  0  0  0  0  0  0
  148.2410  130.9743  153.9128 C   0  0  0  0  0  0  0  0  0  0  0  0
  146.7301  130.9584  153.6533 C   0  0  0  0  0  0  0  0  0  0  0  0
  146.3281  132.4342  153.7706 C   0  0  2  0  0  0  0  0  0  0  0  0
  145.0307  132.8088  153.1345 N   0  3  1  0  0  0  0  0  0  0  0  0
  144.8566  134.2787  153.0078 C   0  0  0  0  0  0  0  0  0  0  0  0
  144.8179  132.1092  151.8368 C   0  0  0  0  0  0  0  0  0  0  0  0
  143.4960  132.4932  151.1476 C   0  0  0  0  0  0  0  0  0  0  0  0
  143.4828  132.0231  149.8171 O   0  0  0  0  0  0  0  0  0  0  0  0
  147.5705  133.1436  153.1908 C   0  0  2  0  0  0  0  0  0  0  0  0
  147.5971  133.2264  151.6525 C   0  0  0  0  0  0  0  0  0  0  0  0
  150.4280  132.1768  155.1659 N   0  0  0  0  0  0  0  0  0  0  0  0
  151.2337  132.7004  156.0946 C   0  0  0  0  0  0  0  0  0  0  0  0
  151.2448  133.9409  156.5870 N   0  0  0  0  0  0  0  0  0  0  0  0
  150.2804  134.7134  156.0089 C   0  0  0  0  0  0  0  0  0  0  0  0
  146.2517  132.6725  154.8324 H   0  0  0  0  0  0  0  0  0  0  0  0
  147.6380  134.1572  153.5897 H   0  0  0  0  0  0  0  0  0  0  0  0
  152.6067  137.1654  159.6926 H   0  0  0  0  0  0  0  0  0  0  0  0
  151.3565  138.3863  159.4410 H   0  0  0  0  0  0  0  0  0  0  0  0
  152.9853  138.8745  159.8809 H   0  0  0  0  0  0  0  0  0  0  0  0
  153.8908  138.1324  157.7334 H   0  0  0  0  0  0  0  0  0  0  0  0
  151.0704  139.6794  155.8150 H   0  0  0  0  0  0  0  0  0  0  0  0
  152.6983  140.1042  155.2809 H   0  0  0  0  0  0  0  0  0  0  0  0
  151.7228  137.6209  154.7122 H   0  0  0  0  0  0  0  0  0  0  0  0
  153.3911  137.8423  155.2044 H   0  0  0  0  0  0  0  0  0  0  0  0
  153.3311  135.9377  157.6511 H   0  0  0  0  0  0  0  0  0  0  0  0
  150.5507  136.5212  158.1781 H   0  0  0  0  0  0  0  0  0  0  0  0
  150.0775  137.8814  157.1970 H   0  0  0  0  0  0  0  0  0  0  0  0
  148.4806  137.3221  155.3835 H   0  0  0  0  0  0  0  0  0  0  0  0
  148.7565  130.2817  153.2470 H   0  0  0  0  0  0  0  0  0  0  0  0
  148.4595  130.6558  154.9320 H   0  0  0  0  0  0  0  0  0  0  0  0
  146.5373  130.5879  152.6458 H   0  0  0  0  0  0  0  0  0  0  0  0
  146.2012  130.3144  154.3567 H   0  0  0  0  0  0  0  0  0  0  0  0
  145.6537  134.7134  152.4033 H   0  0  0  0  0  0  0  0  0  0  0  0
  144.8612  134.7667  153.9820 H   0  0  0  0  0  0  0  0  0  0  0  0
  143.9054  134.5365  152.5456 H   0  0  0  0  0  0  0  0  0  0  0  0
  145.6594  132.3194  151.1752 H   0  0  0  0  0  0  0  0  0  0  0  0
  144.8158  131.0288  151.9791 H   0  0  0  0  0  0  0  0  0  0  0  0
  142.6219  132.1195  151.6786 H   0  0  0  0  0  0  0  0  0  0  0  0
  143.4017  133.5790  151.1218 H   0  0  0  0  0  0  0  0  0  0  0  0
  144.2148  132.4035  149.3550 H   0  0  0  0  0  0  0  0  0  0  0  0
  146.7885  133.8476  151.2703 H   0  0  0  0  0  0  0  0  0  0  0  0
  147.5131  132.2442  151.1874 H   0  0  0  0  0  0  0  0  0  0  0  0
  148.5312  133.6719  151.3086 H   0  0  0  0  0  0  0  0  0  0  0  0
  151.9774  132.0299  156.4995 H   0  0  0  0  0  0  0  0  0  0  0  0
  144.3067  132.4822  153.7590 H   0  0  0  0  0  0  0  0  0  0  0  0
  1  2  1  0  0  0  0
  1 31  1  0  0  0  0
  1 32  1  0  0  0  0
  1 33  1  0  0  0  0
  2  6  1  0  0  0  0
  2  3  1  0  0  0  0
  2 34  1  0  0  0  0
  3  4  1  0  0  0  0
  4  5  1  0  0  0  0
  4 35  1  0  0  0  0
  4 36  1  0  0  0  0
  5  6  1  0  0  0  0
  5 37  1  0  0  0  0
  5 38  1  0  0  0  0
  6  7  1  0  0  0  0
  6  8  1  0  0  0  0
  7 39  1  0  0  0  0
  8  9  1  0  0  0  0
  8 40  1  0  0  0  0
  8 41  1  0  0  0  0
  9 28  1  0  0  0  0
  9 10  1  0  0  0  0
 10 11  2  0  0  0  0
 10 42  1  0  0  0  0
 11 12  1  0  0  0  0
 12 28  2  0  0  0  0
 12 13  1  0  0  0  0
 13 14  1  0  0  0  0
 13 25  2  0  0  0  0
 14 23  1  0  0  0  0
 14 15  1  0  0  0  0
 15 16  1  0  0  0  0
 15 43  1  0  0  0  0
 15 44  1  0  0  0  0
 16 17  1  0  0  0  0
 16 45  1  0  0  0  0
 16 46  1  0  0  0  0
 17 29  1  0  0  0  0
 17 18  1  0  0  0  0
 17 23  1  0  0  0  0
 18 19  1  0  0  0  0
 18 20  1  0  0  0  0
 18 59  1  0  0  0  0
 19 47  1  0  0  0  0
 19 48  1  0  0  0  0
 19 49  1  0  0  0  0
 20 21  1  0  0  0  0
 20 50  1  0  0  0  0
 20 51  1  0  0  0  0
 21 22  1  0  0  0  0
 21 52  1  0  0  0  0
 21 53  1  0  0  0  0
 22 54  1  0  0  0  0
 23 30  1  0  0  0  0
 23 24  1  0  0  0  0
 24 55  1  0  0  0  0
 24 56  1  0  0  0  0
 24 57  1  0  0  0  0
 25 26  1  0  0  0  0
 26 27  2  0  0  0  0
 26 58  1  0  0  0  0
 27 28  1  0  0  0  0
M  CHG  1  18   1
M  END
> <s_m_source_file>
AV-unprocessed.smi

> <i_m_source_file_index>
290

> <i_lp_mmshare_version>
43012

> <i_f3d_flags>
0

> <s_epik_input>
W0NIMl0xW0NIMl1PW0NAQEhdKFtDSDNdKVtDQEBdMShbT0hdKVtDSDJdbihbY0hdbjIpYyhjMjMpbltjSF1uYzNONFtDSDJdW0NIMl1bQ0BIXShbQ0BIXTRbQ0gzXSlOKFtDSDNdKVtDSDJdW0NIMl1bT0hd

> <s_epik_cmdline>
J2VwaWtfcHl0aG9uJywgJy1waCcsICc3LjAnLCAnLXRuJywgJzgnLCAnLW1hJywgJzIwMCcsICctbWV0YWxfYmluZGluZycsICctaW1hZScsICc8aW5maWxlLm1hZT4nLCAnLW9tYWUnLCAnPG91dGZpbGUubWFlPic=

> <r_lp_tautomer_probability>
1

> <r_epik_Ionization_Penalty>
0.0036983

> <r_epik_Ionization_Penalty_Charging>
0.0032725

> <r_epik_Ionization_Penalty_Neutral>
0.000425798

> <r_epik_State_Penalty>
-0

> <r_epik_Charging_Adjusted_Penalty>
0.0032725

> <i_epik_Tot_Q>
1

> <i_epik_Tot_abs_Q>
1

> <r_epik_Metal_State_Penalty>
-0

> <b_epik_Metal_Only>
0

> <s_lp_Force_Field>
OPLS_2005

> <r_lp_Energy>
64.7341

> <b_lp_Chiralities_Consistent>
1

> <s_lp_Variant>
AV-unprocessed.smi:290-21

> <Gold.Version>
5.8.1

> <Gold.Id.Protein>
6NUR|6NUR_protein|mol2

> <Gold.PLP.Fitness>
48.8483

> <Gold.PLP.PLP>
-35.6842

> <Gold.PLP.part.hbond>
-4.9210

> <Gold.PLP.part.metal>
0.0000

> <Gold.PLP.part.buried>
-6.8658

> <Gold.PLP.part.nonpolar>
-26.6016

> <Gold.PLP.part.repulsive>
1.7938

> <Gold.PLP.ligand.clash>
0.0000

> <Gold.PLP.ligand.torsion>
0.6566

> <Gold.PLP.Chemscore.Hbond>
4.6400

> <Gold.PLP.Chemscore.CHOScore>
0.0000

> <Gold.PLP.Chemscore.Metal>
0.0000

> <Gold.Chemscore.Hbonds>
donor molecule, donor type, donor heavy atom, donor atom, acceptor molecule, acceptor atom, score
      L1  H    18    59       P1 10957  1.92
      P1  H  7997  8008       L1     3  0.42
      P1  H 10752 10763       L1     7  1.00
      P1  H 10785 10796       L1    22  0.62

> <Gold.PLP.Chemscore.Internal.Correction>
0.5573

> <Gold.Rescore>
     Score         DG    S(hbond)    S(metal)    S(lipo)     H(rot)  DE(clash)    DE(int)     intcor
      6.44     -11.22       1.88        0.00      75.58       3.67       0.35       4.43       ----

> <Gold.Chemscore.Fitness>
6.4379

> <Gold.Chemscore.DG>
-11.2226

> <Gold.Chemscore.ZeroCoef>
-5.4800

> <Gold.Chemscore.Hbond>
1.8814

> <Gold.Chemscore.Metal>
0.0000

> <Gold.Chemscore.Lipo>
75.5824

> <Gold.Chemscore.Internal_Hbond>
0.0000

> <Gold.Chemscore.DEClash>
0.3530

> <Gold.Chemscore.DEInternal>
4.4316

> <Gold.Chemscore.Rot>
3.6658

> <Gold.Chemscore.Internal.Correction>
   9.000000E+99

> <Gold.Chemscore.Hbonds>
donor molecule, donor type, donor heavy atom, donor atom, acceptor molecule, acceptor atom, score
      L1  H    18    59       P1 10957  0.36
      P1  H 10752 10763       L1     7  0.94
      P1  H 10785 10796       L1    22  0.20

> <Gold.Chemscore.Hbond.Weighted>
-6.2838

> <Gold.Chemscore.Metal.Weighted>
-0.0000

> <Gold.Chemscore.Lipo.Weighted>
-8.8431

> <Gold.Chemscore.Internal_Hbond.Weighted>
0.0000

> <Gold.Chemscore.DEClash.Weighted>
0.3530

> <Gold.Chemscore.DEInternal.Weighted>
4.4316

> <Gold.Chemscore.Rot.Weighted>
9.3844

> <Gold.Chemscore.Internal.Correction.Weighted>
   9.000000E+99

> <Gold.Protein.RotatedTorsions>
[ 6907 6896 6895 6894 ] final  -74.47 input  -60.11 | X-H torsion
[ 7974 7965 7964 7962 ] final  -62.62 input  175.53 | X-H torsion
[ 8008 7997 7996 7995 ] final  -64.70 input   59.86 | X-H torsion
[ 10167 10162 10161 10158 ] final   70.89 input  -65.29 | X-H torsion
[ 10718 10713 10712 10709 ] final  -58.72 input   66.30 | X-H torsion
[ 10763 10752 10751 10750 ] final  106.51 input  -60.55 | X-H torsion
[ 11005 11000 10999 10996 ] final   97.93 input  -57.11 | X-H torsion

> <Gold.Protein.ActiveResidues>
 VAL166  LYS551  ARG553  GLY616  TRP617  ASP618  TYR619  PRO620  LYS621  CYS622 
 ASP623  PHE694  ASN695  SER759  ASP760  ASP761  ALA762  ILE779  LEU786  VAL792 
 PHE793  MET794  SER795  GLU796  ALA797  LYS798  CYS799  TRP800  GLU811  SER814 

> <Gold.Protein.RotatedAtoms>
  150.7092  134.4864  159.5494 H   0  0  0  0  0  0  0  0  0  0  0  0  # atno 6907 bound_to 6896
  152.2491  134.8148  160.0458 H   0  0  0  0  0  0  0  0  0  0  0  0  # atno 6908 bound_to 6896
  151.8902  133.3479  159.3832 H   0  0  0  0  0  0  0  0  0  0  0  0  # atno 6909 bound_to 6896
  145.7891  140.8719  143.0290 H   0  0  0  0  0  0  0  0  0  0  0  0  # atno 7974 bound_to 7965
  154.4627  140.0948  156.6937 H   0  0  0  0  0  0  0  0  0  0  0  0  # atno 8008 bound_to 7997
  155.4947  140.3472  155.4342 H   0  0  0  0  0  0  0  0  0  0  0  0  # atno 8009 bound_to 7997
  156.0900  140.1395  156.9593 H   0  0  0  0  0  0  0  0  0  0  0  0  # atno 8010 bound_to 7997
  140.0520  144.5304  150.7356 H   0  0  0  0  0  0  0  0  0  0  0  0  # atno 10167 bound_to 10162
  156.1114  130.4174  150.0617 H   0  0  0  0  0  0  0  0  0  0  0  0  # atno 10718 bound_to 10713
  153.3939  135.3875  155.1942 H   0  0  0  0  0  0  0  0  0  0  0  0  # atno 10763 bound_to 10752
  154.8722  135.3755  154.4703 H   0  0  0  0  0  0  0  0  0  0  0  0  # atno 10764 bound_to 10752
  153.5192  135.7087  153.5801 H   0  0  0  0  0  0  0  0  0  0  0  0  # atno 10765 bound_to 10752
  139.8774  134.9025  156.4381 H   0  0  0  0  0  0  0  0  0  0  0  0  # atno 11005 bound_to 11000
  144.6784  140.0098  143.7484 LP  0  0  0  0  0  0  0  0  0  0  0  0  # atno 17320 bound_to 7965
  145.9995  139.3080  143.0936 LP  0  0  0  0  0  0  0  0  0  0  0  0  # atno 17321 bound_to 7965
  140.7212  143.2591  151.4272 LP  0  0  0  0  0  0  0  0  0  0  0  0  # atno 17342 bound_to 10162
  139.5947  144.1423  152.2130 LP  0  0  0  0  0  0  0  0  0  0  0  0  # atno 17343 bound_to 10162
  156.8579  130.9481  151.3620 LP  0  0  0  0  0  0  0  0  0  0  0  0  # atno 17370 bound_to 10713
  157.6295  130.8718  149.9249 LP  0  0  0  0  0  0  0  0  0  0  0  0  # atno 17371 bound_to 10713
  140.9019  133.7773  155.9690 LP  0  0  0  0  0  0  0  0  0  0  0  0  # atno 17394 bound_to 11000
  140.8642  134.2804  157.5221 LP  0  0  0  0  0  0  0  0  0  0  0  0  # atno 17395 bound_to 11000

$$$$
