#       Name:                AV-unprocessed.smi:460
#       Creating user name   scv26
#       Creation time:       Thu Mar 26 23:03:20 2020


#       File generated by GOLD software.
#

@<TRIPOS>MOLECULE
AV-unprocessed.smi:460
    53    55     1
SMALL
NO_CHARGES


@<TRIPOS>ATOM
      1 ****        -1.4166   2.2324   0.5899 C.3            1 S1                 0.0000
      2 ****        -1.2691   2.5866  -0.8984 C.3            1 S1                 0.0000
      3 ****        -0.5973   1.4890  -1.7509 C.3            1 S1                 0.0000
      4 ****        -0.5268   1.9409  -3.0859 O.3            1 S1                 0.0000
      5 ****        -1.3006   0.1673  -1.6579 C.2            1 S1                 0.0000
      6 ****        -2.6524  -0.0175  -1.6544 N.pl3          1 S1                 1.0000
      7 ****        -2.9471  -1.3768  -1.5601 C.ar           1 S1                 0.0000
      8 ****        -4.1678  -2.0419  -1.5042 C.ar           1 S1                 0.0000
      9 ****        -4.1181  -3.4479  -1.4070 C.ar           1 S1                 0.0000
     10 ****        -2.8889  -4.1377  -1.3685 C.ar           1 S1                 0.0000
     11 ****        -1.6578  -3.4517  -1.4280 C.ar           1 S1                 0.0000
     12 ****        -1.7155  -2.0612  -1.5266 C.ar           1 S1                 0.0000
     13 ****        -0.7278  -1.0724  -1.6141 N.pl3          1 S1                 0.0000
     14 ****         0.6857  -1.4803  -1.6458 C.3            1 S1                 0.0000
     15 ****         1.3086  -1.5603  -0.2454 C.3            1 S1                 0.0000
     16 ****         1.4092  -0.2460   0.2826 O.3            1 S1                 0.0000
     17 ****         2.1010  -0.0604   1.4598 C.ar           1 S1                 0.0000
     18 ****         2.4679  -1.1201   2.3261 C.ar           1 S1                 0.0000
     19 ****         3.1646  -0.8565   3.5193 C.ar           1 S1                 0.0000
     20 ****         3.4994   0.4651   3.8596 C.ar           1 S1                 0.0000
     21 ****         3.1405   1.5241   3.0058 C.ar           1 S1                 0.0000
     22 ****         2.4405   1.2697   1.7993 C.ar           1 S1                 0.0000
     23 ****         2.0706   2.2551   0.9073 O.3            1 S1                 0.0000
     24 ****         2.3390   3.6073   1.2452 C.3            1 S1                 0.0000
     25 ****        -1.8070   3.0819   1.1506 H              1 S1                 0.0000
     26 ****        -0.4605   1.9582   1.0319 H              1 S1                 0.0000
     27 ****        -2.1016   1.3989   0.7426 H              1 S1                 0.0000
     28 ****        -2.2553   2.8194  -1.3025 H              1 S1                 0.0000
     29 ****        -0.6861   3.5048  -0.9813 H              1 S1                 0.0000
     30 ****         0.4275   1.3675  -1.4032 H              1 S1                 0.0000
     31 ****         0.0083   1.3371  -3.5782 H              1 S1                 0.0000
     32 ****        -5.1100  -1.5146  -1.5322 H              1 S1                 0.0000
     33 ****        -5.0406  -4.0082  -1.3600 H              1 S1                 0.0000
     34 ****        -2.8899  -5.2154  -1.2920 H              1 S1                 0.0000
     35 ****        -0.7234  -3.9918  -1.3952 H              1 S1                 0.0000
     36 ****         0.7659  -2.4385  -2.1589 H              1 S1                 0.0000
     37 ****         1.2295  -0.7638  -2.2622 H              1 S1                 0.0000
     38 ****         0.6988  -2.1924   0.4017 H              1 S1                 0.0000
     39 ****         2.3008  -2.0082  -0.3185 H              1 S1                 0.0000
     40 ****         2.2198  -2.1456   2.0992 H              1 S1                 0.0000
     41 ****         3.4398  -1.6694   4.1751 H              1 S1                 0.0000
     42 ****         4.0336   0.6673   4.7764 H              1 S1                 0.0000
     43 ****         3.4184   2.5253   3.2978 H              1 S1                 0.0000
     44 ****         1.9560   4.2552   0.4571 H              1 S1                 0.0000
     45 ****         3.4106   3.7917   1.3325 H              1 S1                 0.0000
     46 ****         1.8446   3.8923   2.1748 H              1 S1                 0.0000
     47 ****        -3.3216   0.7398  -1.7029 H              1 S1                 0.0000
     48 ****        -0.1179   2.8531  -3.1123 LP             1 S1                 0.0000
     49 ****        -1.4455   1.9759  -3.4794 LP             1 S1                 0.0000
     50 ****         0.4772   0.0836   0.4331 LP             1 S1                 0.0000
     51 ****         1.8540   0.3182  -0.4130 LP             1 S1                 0.0000
     52 ****         1.0832   2.1749   0.7710 LP             1 S1                 0.0000
     53 ****         2.5424   2.0664   0.0460 LP             1 S1                 0.0000
@<TRIPOS>BOND
    1    1    2 1     
    2    1   25 1     
    3    1   26 1     
    4    1   27 1     
    5    2    3 1     
    6    2   28 1     
    7    2   29 1     
    8    3    4 1     
    9    3    5 1     
   10    3   30 1     
   11    4   31 1     
   12    5   13 1     
   13    5    6 2     
   14    6    7 1     
   15    6   47 1     
   16    7   12 ar    
   17    7    8 ar    
   18    8    9 ar    
   19    8   32 1     
   20    9   10 ar    
   21    9   33 1     
   22   10   11 ar    
   23   10   34 1     
   24   11   12 ar    
   25   11   35 1     
   26   12   13 1     
   27   13   14 1     
   28   14   15 1     
   29   14   36 1     
   30   14   37 1     
   31   15   16 1     
   32   15   38 1     
   33   15   39 1     
   34   16   17 1     
   35   17   22 ar    
   36   17   18 ar    
   37   18   19 ar    
   38   18   40 1     
   39   19   20 ar    
   40   19   41 1     
   41   20   21 ar    
   42   20   42 1     
   43   21   22 ar    
   44   21   43 1     
   45   22   23 1     
   46   23   24 1     
   47   24   44 1     
   48   24   45 1     
   49   24   46 1     
   50    4   48 1     
   51    4   49 1     
   52   16   50 1     
   53   16   51 1     
   54   23   52 1     
   55   23   53 1     
@<TRIPOS>SUBSTRUCTURE
      1 S1             1
@<TRIPOS>SET
LONE_PAIRS      STATIC     ATOMS    <user>   **** ""
6 48 49 50 51 52 53
DONOR_HYDROGENS      STATIC     ATOMS    <user>   **** ""
2 31 47
ATOM$BLUE        STATIC     ATOMS    COLORGROUP SYSTEM
6 48 49 50 51 52 53
ATOM$RED        STATIC     ATOMS    COLORGROUP SYSTEM
2 31 47
