#       Name:                AV-unprocessed.smi:564
#       Creating user name   scv26
#       Creation time:       Thu Mar 26 23:44:40 2020


#       File generated by GOLD software.
#

@<TRIPOS>MOLECULE
AV-unprocessed.smi:564
    53    54     1
SMALL
NO_CHARGES


@<TRIPOS>ATOM
      1 ****        -0.4593   2.9604   2.1173 C.3            1 S1                 0.0000
      2 ****        -1.2416   2.0221   1.2432 C.2            1 S1                 0.0000
      3 ****        -1.6074   2.4203   0.0369 N.2            1 S1                 0.0000
      4 ****        -2.2918   1.3804  -0.4789 N.pl3          1 S1                 0.0000
      5 ****        -2.8502   1.4992  -1.8122 C.3            1 S1                 0.0000
      6 ****        -2.3485   0.3155   0.4005 C.2            1 S1                 0.0000
      7 ****        -3.0494  -0.9632   0.0693 C.3            1 S1                 0.0000
      8 ****        -1.6773   0.6952   1.5327 C.2            1 S1                 0.0000
      9 ****        -1.4420  -0.0909   2.7990 C.3            1 S1                 0.0000
     10 ****        -0.0696  -0.7582   2.7280 C.2            1 S1                 0.0000
     11 ****         0.8784  -0.2916   3.3584 O.2            1 S1                 0.0000
     12 ****         0.0332  -1.8267   1.9225 N.am           1 S1                 0.0000
     13 ****         1.2798  -2.5105   1.5909 C.3            1 S1                 0.0000
     14 ****         2.2166  -1.6446   0.7173 C.3            1 S1                 0.0000
     15 ****         1.5005  -0.9207  -0.3742 N.4            1 S1                 1.0000
     16 ****         1.0601  -1.8620  -1.4423 C.3            1 S1                 0.0000
     17 ****         0.1877  -1.1685  -2.4954 C.3            1 S1                 0.0000
     18 ****         0.9375   0.0074  -3.1202 C.3            1 S1                 0.0000
     19 ****         1.3872   0.9666  -2.0157 C.3            1 S1                 0.0000
     20 ****         2.2348   0.2605  -0.9334 C.3            1 S1                 0.0000
     21 ****         2.6139   1.3008   0.1411 C.3            1 S1                 0.0000
     22 ****         0.2511   2.4196   2.7426 H              1 S1                 0.0000
     23 ****        -1.1221   3.5211   2.7767 H              1 S1                 0.0000
     24 ****         0.1086   3.6796   1.5254 H              1 S1                 0.0000
     25 ****        -3.8014   0.9695  -1.8685 H              1 S1                 0.0000
     26 ****        -2.1596   1.0735  -2.5398 H              1 S1                 0.0000
     27 ****        -3.0228   2.5477  -2.0593 H              1 S1                 0.0000
     28 ****        -2.7121  -1.7763   0.7116 H              1 S1                 0.0000
     29 ****        -2.8641  -1.2611  -0.9624 H              1 S1                 0.0000
     30 ****        -4.1260  -0.8558   0.2014 H              1 S1                 0.0000
     31 ****        -1.4813   0.5540   3.6777 H              1 S1                 0.0000
     32 ****        -2.2061  -0.8541   2.9507 H              1 S1                 0.0000
     33 ****        -0.8041  -2.1517   1.4607 H              1 S1                 0.0000
     34 ****         1.7917  -2.8159   2.5050 H              1 S1                 0.0000
     35 ****         1.0240  -3.4329   1.0699 H              1 S1                 0.0000
     36 ****         2.6953  -0.9439   1.3958 H              1 S1                 0.0000
     37 ****         3.0233  -2.2499   0.3019 H              1 S1                 0.0000
     38 ****         1.9356  -2.3067  -1.9184 H              1 S1                 0.0000
     39 ****         0.4867  -2.6821  -1.0116 H              1 S1                 0.0000
     40 ****        -0.1020  -1.8800  -3.2692 H              1 S1                 0.0000
     41 ****        -0.7348  -0.8176  -2.0341 H              1 S1                 0.0000
     42 ****         1.8035  -0.3539  -3.6763 H              1 S1                 0.0000
     43 ****         0.2979   0.5272  -3.8342 H              1 S1                 0.0000
     44 ****         1.9542   1.7849  -2.4610 H              1 S1                 0.0000
     45 ****         0.5091   1.4204  -1.5555 H              1 S1                 0.0000
     46 ****         3.1531  -0.1018  -1.3987 H              1 S1                 0.0000
     47 ****         2.9637   2.2261  -0.3176 H              1 S1                 0.0000
     48 ****         3.4248   0.9620   0.7845 H              1 S1                 0.0000
     49 ****         1.7597   1.5510   0.7702 H              1 S1                 0.0000
     50 ****         0.6620  -0.5451   0.0459 H              1 S1                 0.0000
     51 ****        -1.4177   3.3007  -0.3977 LP             1 S1                 0.0000
     52 ****         0.7517   0.5266   3.9192 LP             1 S1                 0.0000
     53 ****         1.7756  -0.7306   3.3100 LP             1 S1                 0.0000
@<TRIPOS>BOND
    1    1    2 1     
    2    1   22 1     
    3    1   23 1     
    4    1   24 1     
    5    2    8 1     
    6    2    3 2     
    7    3    4 1     
    8    4    5 1     
    9    4    6 1     
   10    5   25 1     
   11    5   26 1     
   12    5   27 1     
   13    6    7 1     
   14    6    8 2     
   15    7   28 1     
   16    7   29 1     
   17    7   30 1     
   18    8    9 1     
   19    9   10 1     
   20    9   31 1     
   21    9   32 1     
   22   10   11 2     
   23   10   12 am    
   24   12   13 1     
   25   12   33 1     
   26   13   14 1     
   27   13   34 1     
   28   13   35 1     
   29   14   15 1     
   30   14   36 1     
   31   14   37 1     
   32   15   20 1     
   33   15   16 1     
   34   15   50 1     
   35   16   17 1     
   36   16   38 1     
   37   16   39 1     
   38   17   18 1     
   39   17   40 1     
   40   17   41 1     
   41   18   19 1     
   42   18   42 1     
   43   18   43 1     
   44   19   20 1     
   45   19   44 1     
   46   19   45 1     
   47   20   21 1     
   48   20   46 1     
   49   21   47 1     
   50   21   48 1     
   51   21   49 1     
   52    3   51 1     
   53   11   52 1     
   54   11   53 1     
@<TRIPOS>SUBSTRUCTURE
      1 S1             1
@<TRIPOS>SET
LONE_PAIRS      STATIC     ATOMS    <user>   **** ""
3 51 52 53
DONOR_HYDROGENS      STATIC     ATOMS    <user>   **** ""
2 33 50
ATOM$BLUE        STATIC     ATOMS    COLORGROUP SYSTEM
3 51 52 53
ATOM$RED        STATIC     ATOMS    COLORGROUP SYSTEM
2 33 50
