AV-unprocessed.smi:1930|AV-procd|sdf|7810|dock3
  -GOLD-   22720 9553D 1   1.00000     0.00000
 Structure written by MMmdl.
 42 43  0  0  0  0  0  0  0  0  2 V2000
  151.9734  139.6626  157.6752 C   0  0  0  0  0  0  0  0  0  0  0  0
  151.8054  139.5627  155.8464 S   0  0  0  0  0  0  0  0  0  0  0  0
  151.2387  140.8322  155.3659 O   0  0  0  0  0  0  0  0  0  0  0  0
  153.0782  139.0759  155.2926 O   0  0  0  0  0  0  0  0  0  0  0  0
  150.6108  138.3212  155.6087 N   0  0  0  0  0  0  0  0  0  0  0  0
  150.0715  138.0857  154.2497 C   0  0  0  0  0  0  0  0  0  0  0  0
  148.6462  138.6525  154.0990 C   0  0  0  0  0  0  0  0  0  0  0  0
  147.8004  138.0974  155.1644 N   0  0  0  0  0  0  0  0  0  0  0  0
  146.8579  137.1318  155.0317 C   0  0  0  0  0  0  0  0  0  0  0  0
  146.0811  136.8184  155.9343 O   0  0  0  0  0  0  0  0  0  0  0  0
  146.7996  136.5689  153.8130 N   0  0  0  0  0  0  0  0  0  0  0  0
  145.8560  135.5323  153.4035 C   0  0  0  0  0  0  0  0  0  0  0  0
  146.5352  134.3349  152.7086 C   0  0  0  0  0  0  0  0  0  0  0  0
  145.6699  133.6744  151.6492 C   0  0  0  0  0  0  0  0  0  0  0  0
  146.1484  132.5627  150.9212 C   0  0  0  0  0  0  0  0  0  0  0  0
  145.3254  131.9727  149.9396 C   0  0  0  0  0  0  0  0  0  0  0  0
  144.0417  132.5079  149.7079 C   0  0  0  0  0  0  0  0  0  0  0  0
  143.6173  133.5720  150.4244 N   0  3  0  0  0  0  0  0  0  0  0  0
  144.3744  134.1644  151.3736 C   0  0  0  0  0  0  0  0  0  0  0  0
  148.2772  138.5542  156.4714 C   0  0  0  0  0  0  0  0  0  0  0  0
  149.6877  137.9835  156.7163 C   0  0  0  0  0  0  0  0  0  0  0  0
  152.7132  140.4230  157.9245 H   0  0  0  0  0  0  0  0  0  0  0  0
  152.3045  138.7030  158.0689 H   0  0  0  0  0  0  0  0  0  0  0  0
  151.0181  139.9384  158.1190 H   0  0  0  0  0  0  0  0  0  0  0  0
  150.7313  138.5173  153.4976 H   0  0  0  0  0  0  0  0  0  0  0  0
  150.0585  137.0107  154.0667 H   0  0  0  0  0  0  0  0  0  0  0  0
  148.6589  139.7392  154.1819 H   0  0  0  0  0  0  0  0  0  0  0  0
  148.2779  138.4501  153.0936 H   0  0  0  0  0  0  0  0  0  0  0  0
  147.4633  136.8799  153.1186 H   0  0  0  0  0  0  0  0  0  0  0  0
  145.3471  135.1866  154.3038 H   0  0  0  0  0  0  0  0  0  0  0  0
  145.0850  135.9587  152.7597 H   0  0  0  0  0  0  0  0  0  0  0  0
  147.4692  134.6601  152.2490 H   0  0  0  0  0  0  0  0  0  0  0  0
  146.8142  133.5873  153.4523 H   0  0  0  0  0  0  0  0  0  0  0  0
  147.1356  132.1670  151.1112 H   0  0  0  0  0  0  0  0  0  0  0  0
  145.6738  131.1213  149.3732 H   0  0  0  0  0  0  0  0  0  0  0  0
  143.3465  132.1200  148.9776 H   0  0  0  0  0  0  0  0  0  0  0  0
  143.9260  135.0092  151.8765 H   0  0  0  0  0  0  0  0  0  0  0  0
  148.2944  139.6439  156.4909 H   0  0  0  0  0  0  0  0  0  0  0  0
  147.6132  138.2601  157.2855 H   0  0  0  0  0  0  0  0  0  0  0  0
  149.6328  136.8972  156.7980 H   0  0  0  0  0  0  0  0  0  0  0  0
  150.0824  138.3435  157.6660 H   0  0  0  0  0  0  0  0  0  0  0  0
  142.6842  133.9424  150.2425 H   0  0  0  0  0  0  0  0  0  0  0  0
  1  2  1  0  0  0  0
  1 22  1  0  0  0  0
  1 23  1  0  0  0  0
  1 24  1  0  0  0  0
  2  3  2  0  0  0  0
  2  4  2  0  0  0  0
  2  5  1  0  0  0  0
  5 21  1  0  0  0  0
  5  6  1  0  0  0  0
  6  7  1  0  0  0  0
  6 25  1  0  0  0  0
  6 26  1  0  0  0  0
  7  8  1  0  0  0  0
  7 27  1  0  0  0  0
  7 28  1  0  0  0  0
  8  9  1  0  0  0  0
  8 20  1  0  0  0  0
  9 10  2  0  0  0  0
  9 11  1  0  0  0  0
 11 12  1  0  0  0  0
 11 29  1  0  0  0  0
 12 13  1  0  0  0  0
 12 30  1  0  0  0  0
 12 31  1  0  0  0  0
 13 14  1  0  0  0  0
 13 32  1  0  0  0  0
 13 33  1  0  0  0  0
 14 19  1  0  0  0  0
 14 15  2  0  0  0  0
 15 16  1  0  0  0  0
 15 34  1  0  0  0  0
 16 17  2  0  0  0  0
 16 35  1  0  0  0  0
 17 18  1  0  0  0  0
 17 36  1  0  0  0  0
 18 19  2  0  0  0  0
 18 42  1  0  0  0  0
 19 37  1  0  0  0  0
 20 21  1  0  0  0  0
 20 38  1  0  0  0  0
 20 39  1  0  0  0  0
 21 40  1  0  0  0  0
 21 41  1  0  0  0  0
M  CHG  1  18   1
M  END
> <s_m_source_file>
AV-unprocessed.smi

> <i_m_source_file_index>
1930

> <i_lp_mmshare_version>
43012

> <i_f3d_flags>
0

> <s_epik_input>
W0NIM11TKD1PKSg9TylOMVtDSDJdW0NIMl1OKFtDSDJdW0NIMl0xKUMoPU8pW05IXVtDSDJdW0NIMl1jMltjSF1bY0hdW2NIXW5bY0hdMg==

> <s_epik_cmdline>
J2VwaWtfcHl0aG9uJywgJy1waCcsICc3LjAnLCAnLXRuJywgJzgnLCAnLW1hJywgJzIwMCcsICctbWV0YWxfYmluZGluZycsICctaW1hZScsICc8aW5maWxlLm1hZT4nLCAnLW9tYWUnLCAnPG91dGZpbGUubWFlPic=

> <r_epik_Ionization_Penalty>
2.21237

> <r_epik_Ionization_Penalty_Charging>
2.21233

> <r_epik_Ionization_Penalty_Neutral>
3.86464e-05

> <r_epik_State_Penalty>
2.35665

> <r_epik_Charging_Adjusted_Penalty>
4.56898

> <i_epik_Tot_Q>
1

> <i_epik_Tot_abs_Q>
1

> <r_epik_Metal_State_Penalty>
2.37073

> <b_epik_Metal_Only>
0

> <s_lp_Force_Field>
OPLS_2005

> <r_lp_Energy>
33.224

> <b_lp_Chiralities_Consistent>
1

> <s_lp_Variant>
AV-unprocessed.smi:1930-2

> <Gold.Version>
5.8.1

> <Gold.Id.Protein>
6NUR|6NUR_protein|mol2

> <Gold.PLP.Fitness>
42.7660

> <Gold.PLP.PLP>
-29.9499

> <Gold.PLP.part.hbond>
-4.0000

> <Gold.PLP.part.metal>
0.0000

> <Gold.PLP.part.buried>
-3.8334

> <Gold.PLP.part.nonpolar>
-22.2546

> <Gold.PLP.part.repulsive>
0.0516

> <Gold.PLP.ligand.clash>
0.0000

> <Gold.PLP.ligand.torsion>
1.5719

> <Gold.PLP.Chemscore.Hbond>
4.6094

> <Gold.PLP.Chemscore.CHOScore>
0.0000

> <Gold.PLP.Chemscore.Metal>
0.0000

> <Gold.Chemscore.Hbonds>
donor molecule, donor type, donor heavy atom, donor atom, acceptor molecule, acceptor atom, score
      L1  H    11    29       P1  7948  0.81
      L1  H    18    42       P1 10186  2.00
      P1  H  7989  7998       L1     3  0.74
      P1  H  7997  8010       L1     4  1.00

> <Gold.PLP.Chemscore.Internal.Correction>
2.1316

> <Gold.Rescore>
     Score         DG    S(hbond)    S(metal)    S(lipo)     H(rot)  DE(clash)    DE(int)     intcor
     20.04     -21.76       3.65        0.00      67.24       1.47       0.20       1.53       ----

> <Gold.Chemscore.Fitness>
20.0351

> <Gold.Chemscore.DG>
-21.7635

> <Gold.Chemscore.ZeroCoef>
-5.4800

> <Gold.Chemscore.Hbond>
3.6476

> <Gold.Chemscore.Metal>
0.0000

> <Gold.Chemscore.Lipo>
67.2399

> <Gold.Chemscore.Internal_Hbond>
0.0000

> <Gold.Chemscore.DEClash>
0.2010

> <Gold.Chemscore.DEInternal>
1.5274

> <Gold.Chemscore.Rot>
1.4714

> <Gold.Chemscore.Internal.Correction>
   9.000000E+99

> <Gold.Chemscore.Hbonds>
donor molecule, donor type, donor heavy atom, donor atom, acceptor molecule, acceptor atom, score
      L1  H    11    29       P1  7948  0.76
      L1  H    18    42       P1 10186  0.98
      P1  H  7989  7998       L1     3  0.37
      P1  H  7997  8010       L1     4  0.33

> <Gold.Chemscore.Hbond.Weighted>
-12.1831

> <Gold.Chemscore.Metal.Weighted>
-0.0000

> <Gold.Chemscore.Lipo.Weighted>
-7.8671

> <Gold.Chemscore.Internal_Hbond.Weighted>
0.0000

> <Gold.Chemscore.DEClash.Weighted>
0.2010

> <Gold.Chemscore.DEInternal.Weighted>
1.5274

> <Gold.Chemscore.Rot.Weighted>
3.7667

> <Gold.Chemscore.Internal.Correction.Weighted>
   9.000000E+99

> <Gold.Protein.RotatedTorsions>
[ 6907 6896 6895 6894 ] final   61.10 input  -60.11 | X-H torsion
[ 7974 7965 7964 7962 ] final   -9.87 input  175.53 | X-H torsion
[ 8008 7997 7996 7995 ] final   79.75 input   59.86 | X-H torsion
[ 10167 10162 10161 10158 ] final  -13.42 input  -65.29 | X-H torsion
[ 10718 10713 10712 10709 ] final -123.52 input   66.30 | X-H torsion
[ 10763 10752 10751 10750 ] final -100.38 input  -60.55 | X-H torsion
[ 11005 11000 10999 10996 ] final   63.47 input  -57.11 | X-H torsion

> <Gold.Protein.ActiveResidues>
 VAL166  LYS551  ARG553  GLY616  TRP617  ASP618  TYR619  PRO620  LYS621  CYS622 
 ASP623  PHE694  ASN695  SER759  ASP760  ASP761  ALA762  ILE779  LEU786  VAL792 
 PHE793  MET794  SER795  GLU796  ALA797  LYS798  CYS799  TRP800  GLU811  SER814 

> <Gold.Protein.RotatedAtoms>
  152.4060  134.6206  160.0049 H   0  0  0  0  0  0  0  0  0  0  0  0  # atno 6907 bound_to 6896
  151.6398  133.3321  159.3135 H   0  0  0  0  0  0  0  0  0  0  0  0  # atno 6908 bound_to 6896
  150.7955  134.7052  159.6617 H   0  0  0  0  0  0  0  0  0  0  0  0  # atno 6909 bound_to 6896
  146.2238  140.2680  142.8355 H   0  0  0  0  0  0  0  0  0  0  0  0  # atno 7974 bound_to 7965
  155.8741  140.3447  155.5841 H   0  0  0  0  0  0  0  0  0  0  0  0  # atno 8008 bound_to 7997
  155.7795  140.0856  157.2086 H   0  0  0  0  0  0  0  0  0  0  0  0  # atno 8009 bound_to 7997
  154.4019  140.1503  156.3022 H   0  0  0  0  0  0  0  0  0  0  0  0  # atno 8010 bound_to 7997
  140.7182  143.5428  150.9389 H   0  0  0  0  0  0  0  0  0  0  0  0  # atno 10167 bound_to 10162
  156.1509  130.6534  150.9912 H   0  0  0  0  0  0  0  0  0  0  0  0  # atno 10718 bound_to 10713
  154.7574  135.4937  153.9400 H   0  0  0  0  0  0  0  0  0  0  0  0  # atno 10763 bound_to 10752
  153.1211  135.6732  153.9341 H   0  0  0  0  0  0  0  0  0  0  0  0  # atno 10764 bound_to 10752
  153.9073  135.3103  155.3427 H   0  0  0  0  0  0  0  0  0  0  0  0  # atno 10765 bound_to 10752
  140.0023  134.6424  155.9911 H   0  0  0  0  0  0  0  0  0  0  0  0  # atno 11005 bound_to 11000
  144.9289  140.7953  143.5701 LP  0  0  0  0  0  0  0  0  0  0  0  0  # atno 17320 bound_to 7965
  145.2622  139.1988  143.4886 LP  0  0  0  0  0  0  0  0  0  0  0  0  # atno 17321 bound_to 7965
  139.9151  143.6673  152.3108 LP  0  0  0  0  0  0  0  0  0  0  0  0  # atno 17342 bound_to 10162
  139.7070  144.7626  151.1176 LP  0  0  0  0  0  0  0  0  0  0  0  0  # atno 17343 bound_to 10162
  157.6656  131.0872  150.7736 LP  0  0  0  0  0  0  0  0  0  0  0  0  # atno 17370 bound_to 10713
  156.7804  130.4857  149.5402 LP  0  0  0  0  0  0  0  0  0  0  0  0  # atno 17371 bound_to 10713
  141.1651  133.6537  156.4451 LP  0  0  0  0  0  0  0  0  0  0  0  0  # atno 17394 bound_to 11000
  140.4706  134.6757  157.5127 LP  0  0  0  0  0  0  0  0  0  0  0  0  # atno 17395 bound_to 11000

$$$$
