AV-unprocessed.smi:942|AV-procd|sdf|4227|dock1
  -GOLD-   22720 2133D 1   1.00000     0.00000
 Structure written by MMmdl.
 42 44  0  0  0  0  0  0  0  0  1 V2000
  153.7744  139.3633  158.4399 O   0  0  0  0  0  0  0  0  0  0  0  0
  152.7445  140.0370  158.4775 C   0  0  0  0  0  0  0  0  0  0  0  0
  152.6285  141.1644  159.1940 N   0  0  0  0  0  0  0  0  0  0  0  0
  153.6996  141.7923  159.9683 C   0  0  2  0  0  0  0  0  0  0  0  0
  154.1069  140.8999  161.1607 C   0  0  0  0  0  0  0  0  0  0  0  0
  153.7320  141.6675  162.4364 C   0  0  0  0  0  0  0  0  0  0  0  0
  152.7380  142.7370  161.9874 C   0  0  0  0  0  0  0  0  0  0  0  0
  153.2443  143.1283  160.5956 C   0  0  2  0  0  0  0  0  0  0  0  0
  152.3093  143.9005  159.7815 N   0  0  0  0  0  0  0  0  0  0  0  0
  152.3499  144.1512  158.4129 C   0  0  0  0  0  0  0  0  0  0  0  0
  151.2452  144.9171  158.1173 C   0  0  0  0  0  0  0  0  0  0  0  0
  150.5035  145.1366  159.2744 N   0  0  0  0  0  0  0  0  0  0  0  0
  151.1887  144.4982  160.2134 C   0  0  0  0  0  0  0  0  0  0  0  0
  151.5093  139.6152  157.6715 C   0  0  0  0  0  0  0  0  0  0  0  0
  151.1663  140.6572  156.5857 C   0  0  0  0  0  0  0  0  0  0  0  0
  149.9198  140.2406  155.7874 C   0  0  0  0  0  0  0  0  0  0  0  0
  148.7173  140.0021  156.7144 C   0  0  0  0  0  0  0  0  0  0  0  0
  149.0515  138.9728  157.8056 C   0  0  0  0  0  0  0  0  0  0  0  0
  150.2983  139.3912  158.6018 C   0  0  0  0  0  0  0  0  0  0  0  0
  151.7437  141.6505  159.1681 H   0  0  0  0  0  0  0  0  0  0  0  0
  154.5554  141.9766  159.3160 H   0  0  0  0  0  0  0  0  0  0  0  0
  153.5895  139.9396  161.1345 H   0  0  0  0  0  0  0  0  0  0  0  0
  155.1752  140.6822  161.1440 H   0  0  0  0  0  0  0  0  0  0  0  0
  153.3221  141.0167  163.2094 H   0  0  0  0  0  0  0  0  0  0  0  0
  154.6211  142.1473  162.8475 H   0  0  0  0  0  0  0  0  0  0  0  0
  151.7422  142.2960  161.9264 H   0  0  0  0  0  0  0  0  0  0  0  0
  152.6939  143.5820  162.6752 H   0  0  0  0  0  0  0  0  0  0  0  0
  154.1293  143.7520  160.7339 H   0  0  0  0  0  0  0  0  0  0  0  0
  153.1369  143.7820  157.7724 H   0  0  0  0  0  0  0  0  0  0  0  0
  150.9265  145.3190  157.1668 H   0  0  0  0  0  0  0  0  0  0  0  0
  150.8729  144.4723  161.2461 H   0  0  0  0  0  0  0  0  0  0  0  0
  151.7323  138.6696  157.1733 H   0  0  0  0  0  0  0  0  0  0  0  0
  150.9902  141.6328  157.0416 H   0  0  0  0  0  0  0  0  0  0  0  0
  152.0094  140.7823  155.9051 H   0  0  0  0  0  0  0  0  0  0  0  0
  149.6758  141.0074  155.0517 H   0  0  0  0  0  0  0  0  0  0  0  0
  150.1336  139.3303  155.2257 H   0  0  0  0  0  0  0  0  0  0  0  0
  148.4223  140.9436  157.1795 H   0  0  0  0  0  0  0  0  0  0  0  0
  147.8603  139.6624  156.1323 H   0  0  0  0  0  0  0  0  0  0  0  0
  148.2020  138.8570  158.4793 H   0  0  0  0  0  0  0  0  0  0  0  0
  149.2192  137.9962  157.3499 H   0  0  0  0  0  0  0  0  0  0  0  0
  150.5306  138.6255  159.3434 H   0  0  0  0  0  0  0  0  0  0  0  0
  150.0781  140.3033  159.1589 H   0  0  0  0  0  0  0  0  0  0  0  0
  1  2  2  0  0  0  0
  2  3  1  0  0  0  0
  2 14  1  0  0  0  0
  3  4  1  0  0  0  0
  3 20  1  0  0  0  0
  4  8  1  0  0  0  0
  4  5  1  0  0  0  0
  4 21  1  0  0  0  0
  5  6  1  0  0  0  0
  5 22  1  0  0  0  0
  5 23  1  0  0  0  0
  6  7  1  0  0  0  0
  6 24  1  0  0  0  0
  6 25  1  0  0  0  0
  7  8  1  0  0  0  0
  7 26  1  0  0  0  0
  7 27  1  0  0  0  0
  8  9  1  0  0  0  0
  8 28  1  0  0  0  0
  9 13  1  0  0  0  0
  9 10  1  0  0  0  0
 10 11  2  0  0  0  0
 10 29  1  0  0  0  0
 11 12  1  0  0  0  0
 11 30  1  0  0  0  0
 12 13  2  0  0  0  0
 13 31  1  0  0  0  0
 14 19  1  0  0  0  0
 14 15  1  0  0  0  0
 14 32  1  0  0  0  0
 15 16  1  0  0  0  0
 15 33  1  0  0  0  0
 15 34  1  0  0  0  0
 16 17  1  0  0  0  0
 16 35  1  0  0  0  0
 16 36  1  0  0  0  0
 17 18  1  0  0  0  0
 17 37  1  0  0  0  0
 17 38  1  0  0  0  0
 18 19  1  0  0  0  0
 18 39  1  0  0  0  0
 18 40  1  0  0  0  0
 19 41  1  0  0  0  0
 19 42  1  0  0  0  0
M  END
> <s_m_source_file>
AV-unprocessed.smi

> <i_m_source_file_index>
942

> <i_lp_mmshare_version>
43012

> <i_f3d_flags>
0

> <s_epik_input>
W0NIMl0xW0NIMl1bQ0gyXVtDSDJdW0NIMl1bQ0hdMUMoPU8pW05IXVtDQEBIXTJbQ0gyXVtDSDJdW0NIMl1bQ0BIXTJuM1tjSF1bY0hdbltjSF0z

> <s_epik_cmdline>
J2VwaWtfcHl0aG9uJywgJy1waCcsICc3LjAnLCAnLXRuJywgJzgnLCAnLW1hJywgJzIwMCcsICctbWV0YWxfYmluZGluZycsICctaW1hZScsICc8aW5maWxlLm1hZT4nLCAnLW9tYWUnLCAnPG91dGZpbGUubWFlPic=

> <r_lp_tautomer_probability>
1

> <r_epik_Ionization_Penalty>
0.778458

> <r_epik_Ionization_Penalty_Charging>
0.778458

> <r_epik_Ionization_Penalty_Neutral>
2.79355e-08

> <r_epik_State_Penalty>
0.807804

> <r_epik_Charging_Adjusted_Penalty>
1.58626

> <i_epik_Tot_Q>
0

> <i_epik_Tot_abs_Q>
0

> <r_epik_Metal_State_Penalty>
0.343007

> <b_epik_Metal_Only>
0

> <s_lp_Force_Field>
OPLS_2005

> <r_lp_Energy>
33.2669

> <b_lp_Chiralities_Consistent>
1

> <s_lp_Variant>
AV-unprocessed.smi:942-7

> <Gold.Version>
5.8.1

> <Gold.Id.Protein>
6NUR|6NUR_protein|mol2

> <Gold.PLP.Fitness>
46.5928

> <Gold.PLP.PLP>
-41.4234

> <Gold.PLP.part.hbond>
-1.0000

> <Gold.PLP.part.metal>
0.0000

> <Gold.PLP.part.buried>
-5.7095

> <Gold.PLP.part.nonpolar>
-35.6079

> <Gold.PLP.part.repulsive>
0.2911

> <Gold.PLP.ligand.clash>
0.0000

> <Gold.PLP.ligand.torsion>
0.4137

> <Gold.PLP.Chemscore.Hbond>
1.0000

> <Gold.PLP.Chemscore.CHOScore>
0.9915

> <Gold.PLP.Chemscore.Metal>
0.0000

> <Gold.Chemscore.Hbonds>
donor molecule, donor type, donor heavy atom, donor atom, acceptor molecule, acceptor atom, score
      P1  H  7997  8010       L1     1  1.00
      L1  C    11    30       P1  8028  0.95

> <Gold.PLP.Chemscore.Internal.Correction>
0.0222

> <Gold.Rescore>
     Score         DG    S(hbond)    S(metal)    S(lipo)     H(rot)  DE(clash)    DE(int)     intcor
     16.86     -17.05       0.93        0.00     103.87       1.44       0.03       0.17       ----

> <Gold.Chemscore.Fitness>
16.8561

> <Gold.Chemscore.DG>
-17.0507

> <Gold.Chemscore.ZeroCoef>
-5.4800

> <Gold.Chemscore.Hbond>
0.9290

> <Gold.Chemscore.Metal>
0.0000

> <Gold.Chemscore.Lipo>
103.8723

> <Gold.Chemscore.Internal_Hbond>
0.0000

> <Gold.Chemscore.DEClash>
0.0270

> <Gold.Chemscore.DEInternal>
0.1676

> <Gold.Chemscore.Rot>
1.4395

> <Gold.Chemscore.Internal.Correction>
   9.000000E+99

> <Gold.Chemscore.Hbonds>
donor molecule, donor type, donor heavy atom, donor atom, acceptor molecule, acceptor atom, score
      P1  H  7997  8010       L1     1  0.70

> <Gold.Chemscore.Hbond.Weighted>
-3.1028

> <Gold.Chemscore.Metal.Weighted>
-0.0000

> <Gold.Chemscore.Lipo.Weighted>
-12.1531

> <Gold.Chemscore.Internal_Hbond.Weighted>
0.0000

> <Gold.Chemscore.DEClash.Weighted>
0.0270

> <Gold.Chemscore.DEInternal.Weighted>
0.1676

> <Gold.Chemscore.Rot.Weighted>
3.6852

> <Gold.Chemscore.Internal.Correction.Weighted>
   9.000000E+99

> <Gold.Protein.RotatedTorsions>
[ 6907 6896 6895 6894 ] final -140.73 input  -60.11 | X-H torsion
[ 7974 7965 7964 7962 ] final  -56.37 input  175.53 | X-H torsion
[ 8008 7997 7996 7995 ] final   17.60 input   59.86 | X-H torsion
[ 10167 10162 10161 10158 ] final  -28.61 input  -65.29 | X-H torsion
[ 10718 10713 10712 10709 ] final -114.37 input   66.30 | X-H torsion
[ 10763 10752 10751 10750 ] final  154.84 input  -60.55 | X-H torsion
[ 11005 11000 10999 10996 ] final -119.67 input  -57.11 | X-H torsion

> <Gold.Protein.ActiveResidues>
 VAL166  LYS551  ARG553  GLY616  TRP617  ASP618  TYR619  PRO620  LYS621  CYS622 
 ASP623  PHE694  ASN695  SER759  ASP760  ASP761  ALA762  ILE779  LEU786  VAL792 
 PHE793  MET794  SER795  GLU796  ALA797  LYS798  CYS799  TRP800  GLU811  SER814 

> <Gold.Protein.RotatedAtoms>
  151.0645  133.5516  159.2631 H   0  0  0  0  0  0  0  0  0  0  0  0  # atno 6907 bound_to 6896
  151.2479  135.0611  159.9060 H   0  0  0  0  0  0  0  0  0  0  0  0  # atno 6908 bound_to 6896
  152.5402  134.0410  159.8121 H   0  0  0  0  0  0  0  0  0  0  0  0  # atno 6909 bound_to 6896
  145.8635  140.8268  142.9925 H   0  0  0  0  0  0  0  0  0  0  0  0  # atno 7974 bound_to 7965
  154.8938  140.2990  155.5356 H   0  0  0  0  0  0  0  0  0  0  0  0  # atno 8008 bound_to 7997
  156.3020  140.2419  156.3891 H   0  0  0  0  0  0  0  0  0  0  0  0  # atno 8009 bound_to 7997
  154.8591  140.0406  157.1643 H   0  0  0  0  0  0  0  0  0  0  0  0  # atno 8010 bound_to 7997
  140.7268  143.3996  151.1288 H   0  0  0  0  0  0  0  0  0  0  0  0  # atno 10167 bound_to 10162
  156.0826  130.6023  150.8766 H   0  0  0  0  0  0  0  0  0  0  0  0  # atno 10718 bound_to 10713
  154.1587  135.2811  155.3115 H   0  0  0  0  0  0  0  0  0  0  0  0  # atno 10763 bound_to 10752
  154.6163  135.5482  153.7530 H   0  0  0  0  0  0  0  0  0  0  0  0  # atno 10764 bound_to 10752
  153.0199  135.6428  154.1730 H   0  0  0  0  0  0  0  0  0  0  0  0  # atno 10765 bound_to 10752
  141.0198  134.0140  157.3298 H   0  0  0  0  0  0  0  0  0  0  0  0  # atno 11005 bound_to 11000
  144.6726  140.1131  143.7454 LP  0  0  0  0  0  0  0  0  0  0  0  0  # atno 17320 bound_to 7965
  145.9220  139.2552  143.1375 LP  0  0  0  0  0  0  0  0  0  0  0  0  # atno 17321 bound_to 7965
  139.7614  143.8630  152.3101 LP  0  0  0  0  0  0  0  0  0  0  0  0  # atno 17342 bound_to 10162
  139.8517  144.7161  150.9205 LP  0  0  0  0  0  0  0  0  0  0  0  0  # atno 17343 bound_to 10162
  157.5948  131.0943  150.9059 LP  0  0  0  0  0  0  0  0  0  0  0  0  # atno 17370 bound_to 10713
  156.9228  130.5321  149.5279 LP  0  0  0  0  0  0  0  0  0  0  0  0  # atno 17371 bound_to 10713
  139.9139  135.0194  156.7804 LP  0  0  0  0  0  0  0  0  0  0  0  0  # atno 17394 bound_to 11000
  140.6592  133.9661  155.7795 LP  0  0  0  0  0  0  0  0  0  0  0  0  # atno 17395 bound_to 11000

$$$$
