AV-unprocessed.smi:3185|AV-procd|sdf|12172|dock2
  -GOLD-   2272018 13D 1   1.00000     0.00000
 Structure written by MMmdl.
 37 38  0  0  0  0  0  0  0  0  1 V2000
  151.4181  136.5702  154.6755 N   0  0  0  0  0  0  0  0  0  0  0  0
  151.4964  137.6968  154.9267 C   0  0  0  0  0  0  0  0  0  0  0  0
  151.5950  139.1287  155.2463 C   0  0  0  0  0  0  0  0  0  0  0  0
  150.2402  139.8435  155.1637 C   0  0  0  0  0  0  0  0  0  0  0  0
  150.2721  141.2613  155.7494 C   0  0  0  0  0  0  0  0  0  0  0  0
  150.3524  141.1894  157.2010 N   0  0  0  0  0  0  0  0  0  0  0  0
  151.5281  141.8816  157.7219 C   0  0  1  0  0  0  0  0  0  0  0  0
  151.2127  143.3789  157.9431 C   0  0  0  0  0  0  0  0  0  0  0  0
  152.3901  144.1158  158.6000 C   0  0  0  0  0  0  0  0  0  0  0  0
  152.7982  143.4483  159.9204 C   0  0  0  0  0  0  0  0  0  0  0  0
  153.1325  141.9656  159.7044 C   0  0  0  0  0  0  0  0  0  0  0  0
  151.9551  141.2100  159.0538 C   0  0  2  0  0  0  0  0  0  0  0  0
  152.2814  139.7990  158.8809 N   0  0  0  0  0  0  0  0  0  0  0  0
  151.6054  138.7041  159.3786 C   0  0  0  0  0  0  0  0  0  0  0  0
  152.2710  137.5875  158.9613 C   0  0  0  0  0  0  0  0  0  0  0  0
  153.3590  138.1058  158.2055 C   0  0  0  0  0  0  0  0  0  0  0  0
  153.3629  139.4278  158.1583 N   0  0  0  0  0  0  0  0  0  0  0  0
  152.0161  139.2204  156.2477 H   0  0  0  0  0  0  0  0  0  0  0  0
  152.3086  139.5729  154.5521 H   0  0  0  0  0  0  0  0  0  0  0  0
  149.8949  139.8737  154.1293 H   0  0  0  0  0  0  0  0  0  0  0  0
  149.5028  139.2558  155.7111 H   0  0  0  0  0  0  0  0  0  0  0  0
  151.1489  141.7859  155.3679 H   0  0  0  0  0  0  0  0  0  0  0  0
  149.3926  141.8207  155.4314 H   0  0  0  0  0  0  0  0  0  0  0  0
  150.4113  140.2168  157.4679 H   0  0  0  0  0  0  0  0  0  0  0  0
  152.3486  141.7870  157.0087 H   0  0  0  0  0  0  0  0  0  0  0  0
  150.9778  143.8690  156.9988 H   0  0  0  0  0  0  0  0  0  0  0  0
  150.3279  143.4822  158.5729 H   0  0  0  0  0  0  0  0  0  0  0  0
  153.2403  144.1267  157.9172 H   0  0  0  0  0  0  0  0  0  0  0  0
  152.1234  145.1579  158.7780 H   0  0  0  0  0  0  0  0  0  0  0  0
  153.6588  143.9645  160.3472 H   0  0  0  0  0  0  0  0  0  0  0  0
  151.9889  143.5414  160.6457 H   0  0  0  0  0  0  0  0  0  0  0  0
  154.0210  141.8883  159.0762 H   0  0  0  0  0  0  0  0  0  0  0  0
  153.3887  141.5055  160.6593 H   0  0  0  0  0  0  0  0  0  0  0  0
  151.1117  141.2596  159.7453 H   0  0  0  0  0  0  0  0  0  0  0  0
  150.7146  138.8090  159.9804 H   0  0  0  0  0  0  0  0  0  0  0  0
  152.0193  136.5573  159.1657 H   0  0  0  0  0  0  0  0  0  0  0  0
  154.1403  137.5645  157.6928 H   0  0  0  0  0  0  0  0  0  0  0  0
  1  2  3  0  0  0  0
  2  3  1  0  0  0  0
  3  4  1  0  0  0  0
  3 18  1  0  0  0  0
  3 19  1  0  0  0  0
  4  5  1  0  0  0  0
  4 20  1  0  0  0  0
  4 21  1  0  0  0  0
  5  6  1  0  0  0  0
  5 22  1  0  0  0  0
  5 23  1  0  0  0  0
  6  7  1  0  0  0  0
  6 24  1  0  0  0  0
  7 12  1  0  0  0  0
  7  8  1  0  0  0  0
  7 25  1  0  0  0  0
  8  9  1  0  0  0  0
  8 26  1  0  0  0  0
  8 27  1  0  0  0  0
  9 10  1  0  0  0  0
  9 28  1  0  0  0  0
  9 29  1  0  0  0  0
 10 11  1  0  0  0  0
 10 30  1  0  0  0  0
 10 31  1  0  0  0  0
 11 12  1  0  0  0  0
 11 32  1  0  0  0  0
 11 33  1  0  0  0  0
 12 13  1  0  0  0  0
 12 34  1  0  0  0  0
 13 17  1  0  0  0  0
 13 14  1  0  0  0  0
 14 15  2  0  0  0  0
 14 35  1  0  0  0  0
 15 16  1  0  0  0  0
 15 36  1  0  0  0  0
 16 17  2  0  0  0  0
 16 37  1  0  0  0  0
M  END
> <s_m_source_file>
AV-unprocessed.smi

> <i_m_source_file_index>
3185

> <i_lp_mmshare_version>
43012

> <i_f3d_flags>
0

> <s_epik_input>
TiNDW0NIMl1bQ0gyXVtDSDJdW05IXVtDQEBIXTFbQ0gyXVtDSDJdW0NIMl1bQ0gyXVtDQEhdMW4yW2NIXVtjSF1bY0hdbjI=

> <s_epik_cmdline>
J2VwaWtfcHl0aG9uJywgJy1waCcsICc3LjAnLCAnLXRuJywgJzgnLCAnLW1hJywgJzIwMCcsICctbWV0YWxfYmluZGluZycsICctaW1hZScsICc8aW5maWxlLm1hZT4nLCAnLW9tYWUnLCAnPG91dGZpbGUubWFlPic=

> <r_lp_tautomer_probability>
1

> <r_epik_Ionization_Penalty>
2.21326

> <r_epik_Ionization_Penalty_Charging>
0

> <r_epik_Ionization_Penalty_Neutral>
2.21326

> <r_epik_State_Penalty>
2.35651

> <r_epik_Charging_Adjusted_Penalty>
2.35651

> <i_epik_Tot_Q>
0

> <i_epik_Tot_abs_Q>
0

> <r_epik_Metal_State_Penalty>
2.3555

> <b_epik_Metal_Only>
0

> <s_lp_Force_Field>
OPLS_2005

> <r_lp_Energy>
16.6477

> <b_lp_Chiralities_Consistent>
1

> <s_lp_Variant>
AV-unprocessed.smi:3185-8

> <Gold.Version>
5.8.1

> <Gold.Id.Protein>
6NUR|6NUR_protein|mol2

> <Gold.PLP.Fitness>
42.6859

> <Gold.PLP.PLP>
-38.2928

> <Gold.PLP.part.hbond>
-2.0000

> <Gold.PLP.part.metal>
0.0000

> <Gold.PLP.part.buried>
-3.0733

> <Gold.PLP.part.nonpolar>
-32.3093

> <Gold.PLP.part.repulsive>
0.7414

> <Gold.PLP.ligand.clash>
0.0000

> <Gold.PLP.ligand.torsion>
0.8266

> <Gold.PLP.Chemscore.Hbond>
2.0000

> <Gold.PLP.Chemscore.CHOScore>
0.0000

> <Gold.PLP.Chemscore.Metal>
0.0000

> <Gold.Chemscore.Hbonds>
donor molecule, donor type, donor heavy atom, donor atom, acceptor molecule, acceptor atom, score
      P1  H  7997  8009       L1    17  1.00
      P1  H 10752 10763       L1     1  1.00

> <Gold.PLP.Chemscore.Internal.Correction>
0.0463

> <Gold.Rescore>
     Score         DG    S(hbond)    S(metal)    S(lipo)     H(rot)  DE(clash)    DE(int)     intcor
     18.56     -19.49       1.95        0.00     103.61       1.81       0.09       0.84       ----

> <Gold.Chemscore.Fitness>
18.5560

> <Gold.Chemscore.DG>
-19.4879

> <Gold.Chemscore.ZeroCoef>
-5.4800

> <Gold.Chemscore.Hbond>
1.9528

> <Gold.Chemscore.Metal>
0.0000

> <Gold.Chemscore.Lipo>
103.6057

> <Gold.Chemscore.Internal_Hbond>
0.0000

> <Gold.Chemscore.DEClash>
0.0920

> <Gold.Chemscore.DEInternal>
0.8399

> <Gold.Chemscore.Rot>
1.8110

> <Gold.Chemscore.Internal.Correction>
   9.000000E+99

> <Gold.Chemscore.Hbonds>
donor molecule, donor type, donor heavy atom, donor atom, acceptor molecule, acceptor atom, score
      P1  H  7997  8009       L1    17  0.80
      P1  H 10752 10763       L1     1  0.97

> <Gold.Chemscore.Hbond.Weighted>
-6.5222

> <Gold.Chemscore.Metal.Weighted>
-0.0000

> <Gold.Chemscore.Lipo.Weighted>
-12.1219

> <Gold.Chemscore.Internal_Hbond.Weighted>
0.0000

> <Gold.Chemscore.DEClash.Weighted>
0.0920

> <Gold.Chemscore.DEInternal.Weighted>
0.8399

> <Gold.Chemscore.Rot.Weighted>
4.6362

> <Gold.Chemscore.Internal.Correction.Weighted>
   9.000000E+99

> <Gold.Protein.RotatedTorsions>
[ 6907 6896 6895 6894 ] final  126.04 input  -60.11 | X-H torsion
[ 7974 7965 7964 7962 ] final  174.73 input  175.53 | X-H torsion
[ 8008 7997 7996 7995 ] final  170.41 input   59.86 | X-H torsion
[ 10167 10162 10161 10158 ] final  -28.57 input  -65.29 | X-H torsion
[ 10718 10713 10712 10709 ] final  129.32 input   66.30 | X-H torsion
[ 10763 10752 10751 10750 ] final   49.91 input  -60.55 | X-H torsion
[ 11005 11000 10999 10996 ] final -139.38 input  -57.11 | X-H torsion

> <Gold.Protein.ActiveResidues>
 VAL166  LYS551  ARG553  GLY616  TRP617  ASP618  TYR619  PRO620  LYS621  CYS622 
 ASP623  PHE694  ASN695  SER759  ASP760  ASP761  ALA762  ILE779  LEU786  VAL792 
 PHE793  MET794  SER795  GLU796  ALA797  LYS798  CYS799  TRP800  GLU811  SER814 

> <Gold.Protein.RotatedAtoms>
  152.3938  133.6718  159.6259 H   0  0  0  0  0  0  0  0  0  0  0  0  # atno 6907 bound_to 6896
  150.7841  133.8908  159.3321 H   0  0  0  0  0  0  0  0  0  0  0  0  # atno 6908 bound_to 6896
  151.6689  135.0980  160.0245 H   0  0  0  0  0  0  0  0  0  0  0  0  # atno 6909 bound_to 6896
  144.7216  139.9840  143.6439 H   0  0  0  0  0  0  0  0  0  0  0  0  # atno 7974 bound_to 7965
  156.1368  140.1539  156.8982 H   0  0  0  0  0  0  0  0  0  0  0  0  # atno 8008 bound_to 7997
  154.4954  140.0839  156.7724 H   0  0  0  0  0  0  0  0  0  0  0  0  # atno 8009 bound_to 7997
  155.4153  140.3420  155.4269 H   0  0  0  0  0  0  0  0  0  0  0  0  # atno 8010 bound_to 7997
  140.7268  143.3999  151.1283 H   0  0  0  0  0  0  0  0  0  0  0  0  # atno 10167 bound_to 10162
  157.5165  131.1097  150.9217 H   0  0  0  0  0  0  0  0  0  0  0  0  # atno 10718 bound_to 10713
  152.9785  135.5896  154.4166 H   0  0  0  0  0  0  0  0  0  0  0  0  # atno 10763 bound_to 10752
  154.3795  135.2767  155.2221 H   0  0  0  0  0  0  0  0  0  0  0  0  # atno 10764 bound_to 10752
  154.4141  135.6074  153.6025 H   0  0  0  0  0  0  0  0  0  0  0  0  # atno 10765 bound_to 10752
  140.8525  134.2268  157.4752 H   0  0  0  0  0  0  0  0  0  0  0  0  # atno 11005 bound_to 11000
  146.0465  139.3470  143.0666 LP  0  0  0  0  0  0  0  0  0  0  0  0  # atno 17320 bound_to 7965
  145.8269  140.9650  143.0869 LP  0  0  0  0  0  0  0  0  0  0  0  0  # atno 17321 bound_to 7965
  139.7617  143.8626  152.3101 LP  0  0  0  0  0  0  0  0  0  0  0  0  # atno 17342 bound_to 10162
  139.8514  144.7162  150.9210 LP  0  0  0  0  0  0  0  0  0  0  0  0  # atno 17343 bound_to 10162
  156.9841  130.5538  149.5298 LP  0  0  0  0  0  0  0  0  0  0  0  0  # atno 17370 bound_to 10713
  156.0323  130.5414  150.8567 LP  0  0  0  0  0  0  0  0  0  0  0  0  # atno 17371 bound_to 10713
  139.8704  134.9690  156.4652 LP  0  0  0  0  0  0  0  0  0  0  0  0  # atno 17394 bound_to 11000
  140.8774  133.7943  155.9429 LP  0  0  0  0  0  0  0  0  0  0  0  0  # atno 17395 bound_to 11000

$$$$
