AV-unprocessed.smi:657|AV-procd|sdf|3228|dock3
  -GOLD-   22720 0173D 1   1.00000     0.00000
 Structure written by MMmdl.
 46 47  0  0  0  0  0  0  0  0  3 V2000
  145.7905  137.8823  154.2527 C   0  0  0  0  0  0  0  0  0  0  0  0
  146.9729  138.7650  153.7996 C   0  0  0  0  0  0  0  0  0  0  0  0
  146.8141  139.0382  152.2888 C   0  0  0  0  0  0  0  0  0  0  0  0
  148.3147  138.1665  154.1242 N   0  3  2  0  0  0  0  0  0  0  0  0
  148.4062  137.5244  155.4717 C   0  0  0  0  0  0  0  0  0  0  0  0
  149.7216  136.7483  155.6516 C   0  0  0  0  0  0  0  0  0  0  0  0
  150.9417  137.6402  155.4173 C   0  0  0  0  0  0  0  0  0  0  0  0
  150.8321  138.3049  154.0393 C   0  0  0  0  0  0  0  0  0  0  0  0
  149.4934  139.0514  153.8254 C   0  0  2  0  0  0  0  0  0  0  0  0
  149.4616  140.4225  154.5494 C   0  0  0  0  0  0  0  0  0  0  0  0
  149.3663  141.4561  153.8794 O   0  0  0  0  0  0  0  0  0  0  0  0
  149.5647  140.2659  155.8971 N   0  5  0  0  0  0  0  0  0  0  0  0
  149.7571  141.3716  156.8324 C   0  0  0  0  0  0  0  0  0  0  0  0
  151.2585  141.5771  157.1223 C   0  0  0  0  0  0  0  0  0  0  0  0
  151.5440  142.6677  158.1295 C   0  0  0  0  0  0  0  0  0  0  0  0
  151.4012  144.0767  157.9635 C   0  0  0  0  0  0  0  0  0  0  0  0
  151.7252  144.7612  159.0486 N   0  0  0  0  0  0  0  0  0  0  0  0
  152.0789  143.8184  159.9458 N   0  0  0  0  0  0  0  0  0  0  0  0
  152.5007  144.2166  161.2717 C   0  0  0  0  0  0  0  0  0  0  0  0
  151.9773  142.5480  159.4214 C   0  0  0  0  0  0  0  0  0  0  0  0
  144.8431  138.2769  153.8844 H   0  0  0  0  0  0  0  0  0  0  0  0
  145.6957  137.8471  155.3378 H   0  0  0  0  0  0  0  0  0  0  0  0
  145.8870  136.8617  153.8805 H   0  0  0  0  0  0  0  0  0  0  0  0
  146.8741  139.7141  154.3276 H   0  0  0  0  0  0  0  0  0  0  0  0
  145.8075  139.3874  152.0572 H   0  0  0  0  0  0  0  0  0  0  0  0
  146.9921  138.1364  151.7023 H   0  0  0  0  0  0  0  0  0  0  0  0
  147.4889  139.8131  151.9287 H   0  0  0  0  0  0  0  0  0  0  0  0
  148.2856  138.2693  156.2583 H   0  0  0  0  0  0  0  0  0  0  0  0
  147.6081  136.7983  155.6108 H   0  0  0  0  0  0  0  0  0  0  0  0
  149.7649  136.3182  156.6527 H   0  0  0  0  0  0  0  0  0  0  0  0
  149.7458  135.9091  154.9553 H   0  0  0  0  0  0  0  0  0  0  0  0
  151.0167  138.3887  156.2055 H   0  0  0  0  0  0  0  0  0  0  0  0
  151.8548  137.0471  155.4734 H   0  0  0  0  0  0  0  0  0  0  0  0
  151.6728  138.9840  153.8887 H   0  0  0  0  0  0  0  0  0  0  0  0
  150.9319  137.5361  153.2718 H   0  0  0  0  0  0  0  0  0  0  0  0
  149.4759  139.2303  152.7495 H   0  0  0  0  0  0  0  0  0  0  0  0
  149.3579  142.3003  156.4229 H   0  0  0  0  0  0  0  0  0  0  0  0
  149.2282  141.2107  157.7725 H   0  0  0  0  0  0  0  0  0  0  0  0
  151.6942  140.6318  157.4485 H   0  0  0  0  0  0  0  0  0  0  0  0
  151.7562  141.8071  156.1799 H   0  0  0  0  0  0  0  0  0  0  0  0
  151.0753  144.6172  157.0870 H   0  0  0  0  0  0  0  0  0  0  0  0
  152.5159  143.3502  161.9337 H   0  0  0  0  0  0  0  0  0  0  0  0
  151.8106  144.9578  161.6763 H   0  0  0  0  0  0  0  0  0  0  0  0
  153.5017  144.6461  161.2243 H   0  0  0  0  0  0  0  0  0  0  0  0
  152.2204  141.6706  160.0023 H   0  0  0  0  0  0  0  0  0  0  0  0
  148.4101  137.3973  153.4778 H   0  0  0  0  0  0  0  0  0  0  0  0
  1  2  1  0  0  0  0
  1 21  1  0  0  0  0
  1 22  1  0  0  0  0
  1 23  1  0  0  0  0
  2  3  1  0  0  0  0
  2  4  1  0  0  0  0
  2 24  1  0  0  0  0
  3 25  1  0  0  0  0
  3 26  1  0  0  0  0
  3 27  1  0  0  0  0
  4  9  1  0  0  0  0
  4  5  1  0  0  0  0
  4 46  1  0  0  0  0
  5  6  1  0  0  0  0
  5 28  1  0  0  0  0
  5 29  1  0  0  0  0
  6  7  1  0  0  0  0
  6 30  1  0  0  0  0
  6 31  1  0  0  0  0
  7  8  1  0  0  0  0
  7 32  1  0  0  0  0
  7 33  1  0  0  0  0
  8  9  1  0  0  0  0
  8 34  1  0  0  0  0
  8 35  1  0  0  0  0
  9 10  1  0  0  0  0
  9 36  1  0  0  0  0
 10 11  2  0  0  0  0
 10 12  1  0  0  0  0
 12 13  1  0  0  0  0
 13 14  1  0  0  0  0
 13 37  1  0  0  0  0
 13 38  1  0  0  0  0
 14 15  1  0  0  0  0
 14 39  1  0  0  0  0
 14 40  1  0  0  0  0
 15 20  2  0  0  0  0
 15 16  1  0  0  0  0
 16 17  2  0  0  0  0
 16 41  1  0  0  0  0
 17 18  1  0  0  0  0
 18 19  1  0  0  0  0
 18 20  1  0  0  0  0
 19 42  1  0  0  0  0
 19 43  1  0  0  0  0
 19 44  1  0  0  0  0
 20 45  1  0  0  0  0
M  CHG  1   4   1
M  CHG  1  12  -1
M  END
> <s_m_source_file>
AV-unprocessed.smi

> <i_m_source_file_index>
657

> <i_lp_mmshare_version>
43012

> <i_f3d_flags>
0

> <s_epik_input>
W0NIM11bQ0hdKFtDSDNdKU4xW0NIMl1bQ0gyXVtDSDJdW0NIMl1bQ0BIXTFDKD1PKVtOSF1bQ0gyXVtDSDJdYzJbY0hdbm4oW0NIM10pW2NIXTI=

> <s_epik_cmdline>
J2VwaWtfcHl0aG9uJywgJy1waCcsICc3LjAnLCAnLXRuJywgJzgnLCAnLW1hJywgJzIwMCcsICctbWV0YWxfYmluZGluZycsICctaW1hZScsICc8aW5maWxlLm1hZT4nLCAnLW9tYWUnLCAnPG91dGZpbGUubWFlPic=

> <r_lp_tautomer_probability>
1

> <r_epik_Ionization_Penalty>
6.1622

> <r_epik_Ionization_Penalty_Charging>
6.16146

> <r_epik_Ionization_Penalty_Neutral>
0.00073675

> <r_epik_State_Penalty>
6.18018

> <r_epik_Charging_Adjusted_Penalty>
12.3416

> <i_epik_Tot_Q>
0

> <i_epik_Tot_abs_Q>
2

> <r_epik_Metal_State_Penalty>
2.12232

> <b_epik_Metal_Only>
1

> <s_lp_Force_Field>
OPLS_2005

> <r_lp_Energy>
13.854

> <b_lp_Chiralities_Consistent>
1

> <s_lp_Variant>
AV-unprocessed.smi:657-9

> <Gold.Version>
5.8.1

> <Gold.Id.Protein>
6NUR|6NUR_protein|mol2

> <Gold.PLP.Fitness>
46.1621

> <Gold.PLP.PLP>
-35.7114

> <Gold.PLP.part.hbond>
-3.0000

> <Gold.PLP.part.metal>
0.0000

> <Gold.PLP.part.buried>
-3.2700

> <Gold.PLP.part.nonpolar>
-30.4318

> <Gold.PLP.part.repulsive>
0.5586

> <Gold.PLP.ligand.clash>
0.0000

> <Gold.PLP.ligand.torsion>
0.5155

> <Gold.PLP.Chemscore.Hbond>
2.7534

> <Gold.PLP.Chemscore.CHOScore>
1.0000

> <Gold.PLP.Chemscore.Metal>
0.0000

> <Gold.Chemscore.Hbonds>
donor molecule, donor type, donor heavy atom, donor atom, acceptor molecule, acceptor atom, score
      L1  H     4    46       P1  7948  1.85
      P1  H  8011  8017       L1    11  0.74
      L1  C    16    41       P1  8028  0.88

> <Gold.PLP.Chemscore.Internal.Correction>
0.2216

> <Gold.Rescore>
     Score         DG    S(hbond)    S(metal)    S(lipo)     H(rot)  DE(clash)    DE(int)     intcor
     14.84     -18.53       1.72        0.00      96.99       1.57       1.34       2.36       ----

> <Gold.Chemscore.Fitness>
14.8351

> <Gold.Chemscore.DG>
-18.5335

> <Gold.Chemscore.ZeroCoef>
-5.4800

> <Gold.Chemscore.Hbond>
1.7170

> <Gold.Chemscore.Metal>
0.0000

> <Gold.Chemscore.Lipo>
96.9938

> <Gold.Chemscore.Internal_Hbond>
0.0000

> <Gold.Chemscore.DEClash>
1.3350

> <Gold.Chemscore.DEInternal>
2.3633

> <Gold.Chemscore.Rot>
1.5741

> <Gold.Chemscore.Internal.Correction>
   9.000000E+99

> <Gold.Chemscore.Hbonds>
donor molecule, donor type, donor heavy atom, donor atom, acceptor molecule, acceptor atom, score
      L1  H     4    46       P1  7948  0.88
      P1  H  8011  8017       L1    11  0.74

> <Gold.Chemscore.Hbond.Weighted>
-5.7348

> <Gold.Chemscore.Metal.Weighted>
-0.0000

> <Gold.Chemscore.Lipo.Weighted>
-11.3483

> <Gold.Chemscore.Internal_Hbond.Weighted>
0.0000

> <Gold.Chemscore.DEClash.Weighted>
1.3350

> <Gold.Chemscore.DEInternal.Weighted>
2.3633

> <Gold.Chemscore.Rot.Weighted>
4.0297

> <Gold.Chemscore.Internal.Correction.Weighted>
   9.000000E+99

> <Gold.Protein.RotatedTorsions>
[ 6907 6896 6895 6894 ] final -135.29 input  -60.11 | X-H torsion
[ 7974 7965 7964 7962 ] final   15.63 input  175.53 | X-H torsion
[ 8008 7997 7996 7995 ] final   73.93 input   59.86 | X-H torsion
[ 10167 10162 10161 10158 ] final  -58.85 input  -65.29 | X-H torsion
[ 10718 10713 10712 10709 ] final  152.17 input   66.30 | X-H torsion
[ 10763 10752 10751 10750 ] final -121.13 input  -60.55 | X-H torsion
[ 11005 11000 10999 10996 ] final  -54.91 input  -57.11 | X-H torsion

> <Gold.Protein.ActiveResidues>
 VAL166  LYS551  ARG553  GLY616  TRP617  ASP618  TYR619  PRO620  LYS621  CYS622 
 ASP623  PHE694  ASN695  SER759  ASP760  ASP761  ALA762  ILE779  LEU786  VAL792 
 PHE793  MET794  SER795  GLU796  ALA797  LYS798  CYS799  TRP800  GLU811  SER814 

> <Gold.Protein.RotatedAtoms>
  150.9961  133.6101  159.2701 H   0  0  0  0  0  0  0  0  0  0  0  0  # atno 6907 bound_to 6896
  151.3305  135.0839  159.9346 H   0  0  0  0  0  0  0  0  0  0  0  0  # atno 6908 bound_to 6896
  152.5260  133.9592  159.7763 H   0  0  0  0  0  0  0  0  0  0  0  0  # atno 6909 bound_to 6896
  146.2273  139.8866  142.8562 H   0  0  0  0  0  0  0  0  0  0  0  0  # atno 7974 bound_to 7965
  155.7909  140.3479  155.5349 H   0  0  0  0  0  0  0  0  0  0  0  0  # atno 8008 bound_to 7997
  155.8635  140.0975  157.1618 H   0  0  0  0  0  0  0  0  0  0  0  0  # atno 8009 bound_to 7997
  154.4013  140.1354  156.3977 H   0  0  0  0  0  0  0  0  0  0  0  0  # atno 8010 bound_to 7997
  140.6172  143.2406  151.5569 H   0  0  0  0  0  0  0  0  0  0  0  0  # atno 10167 bound_to 10162
  157.2612  131.0798  151.1664 H   0  0  0  0  0  0  0  0  0  0  0  0  # atno 10718 bound_to 10713
  154.8661  135.4179  154.2570 H   0  0  0  0  0  0  0  0  0  0  0  0  # atno 10763 bound_to 10752
  153.3505  135.6998  153.6798 H   0  0  0  0  0  0  0  0  0  0  0  0  # atno 10764 bound_to 10752
  153.5739  135.3586  155.2821 H   0  0  0  0  0  0  0  0  0  0  0  0  # atno 10765 bound_to 10752
  141.1048  133.6614  156.4390 H   0  0  0  0  0  0  0  0  0  0  0  0  # atno 11005 bound_to 11000
  145.2459  141.0026  143.3909 LP  0  0  0  0  0  0  0  0  0  0  0  0  # atno 17320 bound_to 7965
  144.9414  139.4185  143.6447 LP  0  0  0  0  0  0  0  0  0  0  0  0  # atno 17321 bound_to 7965
  139.5408  144.2653  152.1347 LP  0  0  0  0  0  0  0  0  0  0  0  0  # atno 17342 bound_to 10162
  140.1865  144.4794  150.6501 LP  0  0  0  0  0  0  0  0  0  0  0  0  # atno 17343 bound_to 10162
  157.3173  130.6919  149.6249 LP  0  0  0  0  0  0  0  0  0  0  0  0  # atno 17370 bound_to 10713
  155.9664  130.4346  150.5055 LP  0  0  0  0  0  0  0  0  0  0  0  0  # atno 17371 bound_to 10713
  140.4929  134.6558  157.5218 LP  0  0  0  0  0  0  0  0  0  0  0  0  # atno 17394 bound_to 11000
  139.9914  134.6979  155.9683 LP  0  0  0  0  0  0  0  0  0  0  0  0  # atno 17395 bound_to 11000

$$$$
