AV-unprocessed.smi:2499|AV-procd|sdf|9840|dock4
  -GOLD-   2272013463D 1   1.00000     0.00000
 Structure written by MMmdl.
 26 27  0  0  0  0  0  0  0  0  2 V2000
  152.7808  141.5376  160.3338 C   0  0  0  0  0  0  0  0  0  0  0  0
  152.9057  142.4905  159.1372 C   0  0  1  0  0  0  0  0  0  0  0  0
  151.9319  142.0936  158.1240 N   0  0  0  0  0  0  0  0  0  0  0  0
  151.8961  140.9221  157.4716 C   0  0  0  0  0  0  0  0  0  0  0  0
  152.7401  140.0559  157.7123 O   0  0  0  0  0  0  0  0  0  0  0  0
  150.8837  140.8275  156.5802 N   0  5  0  0  0  0  0  0  0  0  0  0
  150.8473  139.7997  155.7170 C   0  0  0  0  0  0  0  0  0  0  0  0
  150.3134  139.8119  154.4944 N   0  0  0  0  0  0  0  0  0  0  0  0
  150.5163  138.5410  153.9793 C   0  0  0  0  0  0  0  0  0  0  0  0
  151.1811  137.8070  154.9231 C   0  0  0  0  0  0  0  0  0  0  0  0
  151.3984  138.5908  156.0224 O   0  0  0  0  0  0  0  0  0  0  0  0
  152.7632  143.9372  159.5814 C   0  0  0  0  0  0  0  0  0  0  0  0
  151.4061  144.5685  159.7876 C   0  0  0  0  0  0  0  0  0  0  0  0
  152.2706  144.9985  158.6255 C   0  0  0  0  0  0  0  0  0  0  0  0
  153.5299  141.7608  161.0940 H   0  0  0  0  0  0  0  0  0  0  0  0
  152.9242  140.5009  160.0274 H   0  0  0  0  0  0  0  0  0  0  0  0
  151.7987  141.6143  160.8018 H   0  0  0  0  0  0  0  0  0  0  0  0
  153.9076  142.3598  158.7240 H   0  0  0  0  0  0  0  0  0  0  0  0
  151.2183  142.7690  157.8931 H   0  0  0  0  0  0  0  0  0  0  0  0
  150.1769  138.2635  152.9925 H   0  0  0  0  0  0  0  0  0  0  0  0
  151.5460  136.7920  154.9684 H   0  0  0  0  0  0  0  0  0  0  0  0
  153.5444  144.2574  160.2685 H   0  0  0  0  0  0  0  0  0  0  0  0
  150.5259  143.9700  159.5613 H   0  0  0  0  0  0  0  0  0  0  0  0
  151.2975  145.2599  160.6204 H   0  0  0  0  0  0  0  0  0  0  0  0
  152.7374  145.9798  158.6812 H   0  0  0  0  0  0  0  0  0  0  0  0
  151.9652  144.6828  157.6300 H   0  0  0  0  0  0  0  0  0  0  0  0
  1  2  1  0  0  0  0
  1 15  1  0  0  0  0
  1 16  1  0  0  0  0
  1 17  1  0  0  0  0
  2  3  1  0  0  0  0
  2 12  1  0  0  0  0
  2 18  1  0  0  0  0
  3 19  1  0  0  0  0
  3  4  1  0  0  0  0
  4  6  1  0  0  0  0
  4  5  2  0  0  0  0
  6  7  1  0  0  0  0
  7 11  1  0  0  0  0
  7  8  2  0  0  0  0
  8  9  1  0  0  0  0
  9 20  1  0  0  0  0
  9 10  2  0  0  0  0
 10 21  1  0  0  0  0
 10 11  1  0  0  0  0
 12 14  1  0  0  0  0
 12 13  1  0  0  0  0
 12 22  1  0  0  0  0
 13 14  1  0  0  0  0
 13 23  1  0  0  0  0
 13 24  1  0  0  0  0
 14 25  1  0  0  0  0
 14 26  1  0  0  0  0
M  CHG  1   6  -1
M  END
> <s_m_source_file>
AV-unprocessed.smi

> <i_m_source_file_index>
2499

> <i_lp_mmshare_version>
43012

> <i_f3d_flags>
0

> <s_epik_input>
W0NIMl0xW0NIMl1bQ0hdMVtDQEhdKFtDSDNdKVtOSF1DKD1PKVtOSF1jMm5bY0hdW2NIXW8y

> <s_epik_cmdline>
J2VwaWtfcHl0aG9uJywgJy1waCcsICc3LjAnLCAnLXRuJywgJzgnLCAnLW1hJywgJzIwMCcsICctbWV0YWxfYmluZGluZycsICctaW1hZScsICc8aW5maWxlLm1hZT4nLCAnLW9tYWUnLCAnPG91dGZpbGUubWFlPic=

> <r_lp_tautomer_probability>
0.107061

> <r_epik_Ionization_Penalty>
11.2144

> <r_epik_Ionization_Penalty_Charging>
7.87172

> <r_epik_Ionization_Penalty_Neutral>
3.3427

> <r_epik_State_Penalty>
5.96777

> <r_epik_Charging_Adjusted_Penalty>
13.8395

> <i_epik_Tot_Q>
-1

> <i_epik_Tot_abs_Q>
1

> <r_epik_Metal_State_Penalty>
1.88989

> <b_epik_Metal_Only>
1

> <s_lp_Force_Field>
OPLS_2005

> <r_lp_Energy>
7.96156

> <b_lp_Chiralities_Consistent>
1

> <s_lp_Variant>
AV-unprocessed.smi:2499-10

> <Gold.Version>
5.8.1

> <Gold.Id.Protein>
6NUR|6NUR_protein|mol2

> <Gold.PLP.Fitness>
42.2354

> <Gold.PLP.PLP>
-31.0649

> <Gold.PLP.part.hbond>
-2.0000

> <Gold.PLP.part.metal>
0.0000

> <Gold.PLP.part.buried>
-4.0142

> <Gold.PLP.part.nonpolar>
-25.4187

> <Gold.PLP.part.repulsive>
0.2024

> <Gold.PLP.ligand.clash>
0.0000

> <Gold.PLP.ligand.torsion>
0.7499

> <Gold.PLP.Chemscore.Hbond>
2.0000

> <Gold.PLP.Chemscore.CHOScore>
1.8575

> <Gold.PLP.Chemscore.Metal>
0.0000

> <Gold.Chemscore.Hbonds>
donor molecule, donor type, donor heavy atom, donor atom, acceptor molecule, acceptor atom, score
      P1  H  7989  7998       L1     8  1.00
      P1  H  7997  8009       L1     5  1.00
      L1  C     9    20       P1  7948  0.88
      L1  C     9    20       P1  7949  0.02
      L1  C     9    20       P1  7957  0.73

> <Gold.PLP.Chemscore.Internal.Correction>
1.0978

> <Gold.Rescore>
     Score         DG    S(hbond)    S(metal)    S(lipo)     H(rot)  DE(clash)    DE(int)     intcor
     14.66     -17.14       1.84        0.00      75.20       1.28       0.00       2.48       ----

> <Gold.Chemscore.Fitness>
14.6619

> <Gold.Chemscore.DG>
-17.1423

> <Gold.Chemscore.ZeroCoef>
-5.4800

> <Gold.Chemscore.Hbond>
1.8368

> <Gold.Chemscore.Metal>
0.0000

> <Gold.Chemscore.Lipo>
75.2001

> <Gold.Chemscore.Internal_Hbond>
0.0000

> <Gold.Chemscore.DEClash>
0.0021

> <Gold.Chemscore.DEInternal>
2.4783

> <Gold.Chemscore.Rot>
1.2778

> <Gold.Chemscore.Internal.Correction>
   9.000000E+99

> <Gold.Chemscore.Hbonds>
donor molecule, donor type, donor heavy atom, donor atom, acceptor molecule, acceptor atom, score
      P1  H  7989  7998       L1     8  0.12
      P1  H  7997  8009       L1     5  0.96

> <Gold.Chemscore.Hbond.Weighted>
-6.1350

> <Gold.Chemscore.Metal.Weighted>
-0.0000

> <Gold.Chemscore.Lipo.Weighted>
-8.7984

> <Gold.Chemscore.Internal_Hbond.Weighted>
0.0000

> <Gold.Chemscore.DEClash.Weighted>
0.0021

> <Gold.Chemscore.DEInternal.Weighted>
2.4783

> <Gold.Chemscore.Rot.Weighted>
3.2711

> <Gold.Chemscore.Internal.Correction.Weighted>
   9.000000E+99

> <Gold.Protein.RotatedTorsions>
[ 6907 6896 6895 6894 ] final   57.01 input  -60.11 | X-H torsion
[ 7974 7965 7964 7962 ] final    7.32 input  175.53 | X-H torsion
[ 8008 7997 7996 7995 ] final  165.93 input   59.86 | X-H torsion
[ 10167 10162 10161 10158 ] final  -10.75 input  -65.29 | X-H torsion
[ 10718 10713 10712 10709 ] final  -28.90 input   66.30 | X-H torsion
[ 10763 10752 10751 10750 ] final  132.40 input  -60.55 | X-H torsion
[ 11005 11000 10999 10996 ] final  174.74 input  -57.11 | X-H torsion

> <Gold.Protein.ActiveResidues>
 VAL166  LYS551  ARG553  GLY616  TRP617  ASP618  TYR619  PRO620  LYS621  CYS622 
 ASP623  PHE694  ASN695  SER759  ASP760  ASP761  ALA762  ILE779  LEU786  VAL792 
 PHE793  MET794  SER795  GLU796  ALA797  LYS798  CYS799  TRP800  GLU811  SER814 

> <Gold.Protein.RotatedAtoms>
  152.3691  134.6761  160.0181 H   0  0  0  0  0  0  0  0  0  0  0  0  # atno 6907 bound_to 6896
  151.7059  133.3306  159.3286 H   0  0  0  0  0  0  0  0  0  0  0  0  # atno 6908 bound_to 6896
  150.7660  134.6509  159.6332 H   0  0  0  0  0  0  0  0  0  0  0  0  # atno 6909 bound_to 6896
  146.2427  140.0100  142.8407 H   0  0  0  0  0  0  0  0  0  0  0  0  # atno 7974 bound_to 7965
  156.1760  140.1657  156.8362 H   0  0  0  0  0  0  0  0  0  0  0  0  # atno 8008 bound_to 7997
  154.5307  140.0757  156.8374 H   0  0  0  0  0  0  0  0  0  0  0  0  # atno 8009 bound_to 7997
  155.3412  140.3385  155.4241 H   0  0  0  0  0  0  0  0  0  0  0  0  # atno 8010 bound_to 7997
  140.7121  143.5714  150.9088 H   0  0  0  0  0  0  0  0  0  0  0  0  # atno 10167 bound_to 10162
  156.4193  130.4423  149.7196 H   0  0  0  0  0  0  0  0  0  0  0  0  # atno 10718 bound_to 10713
  153.7900  135.3156  155.3377 H   0  0  0  0  0  0  0  0  0  0  0  0  # atno 10763 bound_to 10752
  154.8129  135.4655  154.0568 H   0  0  0  0  0  0  0  0  0  0  0  0  # atno 10764 bound_to 10752
  153.1883  135.6904  153.8473 H   0  0  0  0  0  0  0  0  0  0  0  0  # atno 10765 bound_to 10752
  140.3546  134.7166  157.4290 H   0  0  0  0  0  0  0  0  0  0  0  0  # atno 11005 bound_to 11000
  145.1336  140.9532  143.4530 LP  0  0  0  0  0  0  0  0  0  0  0  0  # atno 17320 bound_to 7965
  145.0363  139.3297  143.5999 LP  0  0  0  0  0  0  0  0  0  0  0  0  # atno 17321 bound_to 7965
  139.9440  143.6348  152.3046 LP  0  0  0  0  0  0  0  0  0  0  0  0  # atno 17342 bound_to 10162
  139.6843  144.7653  151.1551 LP  0  0  0  0  0  0  0  0  0  0  0  0  # atno 17343 bound_to 10162
  156.4143  130.7737  151.2752 LP  0  0  0  0  0  0  0  0  0  0  0  0  # atno 17370 bound_to 10713
  157.7508  131.0202  150.3698 LP  0  0  0  0  0  0  0  0  0  0  0  0  # atno 17371 bound_to 10713
  140.0676  134.5908  155.8678 LP  0  0  0  0  0  0  0  0  0  0  0  0  # atno 17394 bound_to 11000
  141.2002  133.6611  156.5885 LP  0  0  0  0  0  0  0  0  0  0  0  0  # atno 17395 bound_to 11000

$$$$
