AV-unprocessed.smi:2271|AV-procd|sdf|9160|dock5
  -GOLD-   2272012373D 1   1.00000     0.00000
 Structure written by MMmdl.
 46 47  0  0  0  0  0  0  0  0  2 V2000
  153.9888  141.7666  160.3978 C   0  0  0  0  0  0  0  0  0  0  0  0
  153.0156  142.7935  159.8581 C   0  0  0  0  0  0  0  0  0  0  0  0
  152.8542  144.0426  160.4891 C   0  0  0  0  0  0  0  0  0  0  0  0
  151.9360  144.9518  159.9339 C   0  0  0  0  0  0  0  0  0  0  0  0
  151.2226  144.5780  158.7788 C   0  0  0  0  0  0  0  0  0  0  0  0
  151.4445  143.3048  158.2069 C   0  0  0  0  0  0  0  0  0  0  0  0
  150.6717  143.0207  157.0495 N   0  0  0  0  0  0  0  0  0  0  0  0
  150.7643  141.9582  156.2306 C   0  0  0  0  0  0  0  0  0  0  0  0
  151.5977  141.0564  156.3251 O   0  0  0  0  0  0  0  0  0  0  0  0
  149.8172  141.9915  155.2812 N   0  0  0  0  0  0  0  0  0  0  0  0
  149.6354  140.9904  154.2335 C   0  0  0  0  0  0  0  0  0  0  0  0
  149.9360  139.5565  154.7211 C   0  0  2  0  0  0  0  0  0  0  0  0
  151.1649  138.9244  154.0360 C   0  0  0  0  0  0  0  0  0  0  0  0
  151.3930  137.4765  154.4985 C   0  0  0  0  0  0  0  0  0  0  0  0
  150.1885  136.6419  154.2632 N   0  3  1  0  0  0  0  0  0  0  0  0
  150.4277  135.2071  154.5623 C   0  0  0  0  0  0  0  0  0  0  0  0
  149.1489  134.3616  154.4433 C   0  0  0  0  0  0  0  0  0  0  0  0
  148.7489  134.2824  153.0916 O   0  0  0  0  0  0  0  0  0  0  0  0
  149.0001  137.2000  154.9593 C   0  0  0  0  0  0  0  0  0  0  0  0
  148.7188  138.6403  154.5008 C   0  0  0  0  0  0  0  0  0  0  0  0
  152.3317  142.4346  158.7505 N   0  0  0  0  0  0  0  0  0  0  0  0
  154.4015  142.0783  161.3575 H   0  0  0  0  0  0  0  0  0  0  0  0
  154.8148  141.6272  159.6998 H   0  0  0  0  0  0  0  0  0  0  0  0
  153.4917  140.8061  160.5384 H   0  0  0  0  0  0  0  0  0  0  0  0
  153.4173  144.2998  161.3743 H   0  0  0  0  0  0  0  0  0  0  0  0
  151.7805  145.9204  160.3857 H   0  0  0  0  0  0  0  0  0  0  0  0
  150.5135  145.2650  158.3401 H   0  0  0  0  0  0  0  0  0  0  0  0
  149.9525  143.6945  156.8326 H   0  0  0  0  0  0  0  0  0  0  0  0
  149.1755  142.7709  155.2793 H   0  0  0  0  0  0  0  0  0  0  0  0
  148.5974  141.0535  153.9051 H   0  0  0  0  0  0  0  0  0  0  0  0
  150.2412  141.2305  153.3578 H   0  0  0  0  0  0  0  0  0  0  0  0
  150.1327  139.6010  155.7936 H   0  0  0  0  0  0  0  0  0  0  0  0
  151.0361  138.9466  152.9528 H   0  0  0  0  0  0  0  0  0  0  0  0
  152.0627  139.5034  154.2519 H   0  0  0  0  0  0  0  0  0  0  0  0
  152.2421  137.0608  153.9546 H   0  0  0  0  0  0  0  0  0  0  0  0
  151.6527  137.4549  155.5581 H   0  0  0  0  0  0  0  0  0  0  0  0
  151.1699  134.8016  153.8730 H   0  0  0  0  0  0  0  0  0  0  0  0
  150.8562  135.1099  155.5608 H   0  0  0  0  0  0  0  0  0  0  0  0
  149.3410  133.3501  154.8017 H   0  0  0  0  0  0  0  0  0  0  0  0
  148.3333  134.7595  155.0458 H   0  0  0  0  0  0  0  0  0  0  0  0
  149.1607  134.9864  152.6132 H   0  0  0  0  0  0  0  0  0  0  0  0
  148.1209  136.5888  154.7594 H   0  0  0  0  0  0  0  0  0  0  0  0
  149.1622  137.1743  156.0381 H   0  0  0  0  0  0  0  0  0  0  0  0
  147.8557  139.0319  155.0404 H   0  0  0  0  0  0  0  0  0  0  0  0
  148.4451  138.6369  153.4445 H   0  0  0  0  0  0  0  0  0  0  0  0
  150.0028  136.6926  153.2713 H   0  0  0  0  0  0  0  0  0  0  0  0
  1  2  1  0  0  0  0
  1 22  1  0  0  0  0
  1 23  1  0  0  0  0
  1 24  1  0  0  0  0
  2 21  1  0  0  0  0
  2  3  2  0  0  0  0
  3  4  1  0  0  0  0
  3 25  1  0  0  0  0
  4  5  2  0  0  0  0
  4 26  1  0  0  0  0
  5  6  1  0  0  0  0
  5 27  1  0  0  0  0
  6  7  1  0  0  0  0
  6 21  2  0  0  0  0
  7  8  1  0  0  0  0
  7 28  1  0  0  0  0
  8  9  2  0  0  0  0
  8 10  1  0  0  0  0
 10 11  1  0  0  0  0
 10 29  1  0  0  0  0
 11 12  1  0  0  0  0
 11 30  1  0  0  0  0
 11 31  1  0  0  0  0
 12 20  1  0  0  0  0
 12 13  1  0  0  0  0
 12 32  1  0  0  0  0
 13 14  1  0  0  0  0
 13 33  1  0  0  0  0
 13 34  1  0  0  0  0
 14 15  1  0  0  0  0
 14 35  1  0  0  0  0
 14 36  1  0  0  0  0
 15 16  1  0  0  0  0
 15 19  1  0  0  0  0
 15 46  1  0  0  0  0
 16 17  1  0  0  0  0
 16 37  1  0  0  0  0
 16 38  1  0  0  0  0
 17 18  1  0  0  0  0
 17 39  1  0  0  0  0
 17 40  1  0  0  0  0
 18 41  1  0  0  0  0
 19 20  1  0  0  0  0
 19 42  1  0  0  0  0
 19 43  1  0  0  0  0
 20 44  1  0  0  0  0
 20 45  1  0  0  0  0
M  CHG  1  15   1
M  END
> <s_m_source_file>
AV-unprocessed.smi

> <i_m_source_file_index>
2271

> <i_lp_mmshare_version>
43012

> <i_f3d_flags>
0

> <s_epik_input>
W0NIM11jMVtjSF1bY0hdW2NIXWMobjEpW05IXUMoPU8pW05IXVtDSDJdW0NIXTJbQ0gyXVtDSDJdTihbQ0gyXVtDSDJdMilbQ0gyXVtDSDJdW09IXQ==

> <s_epik_cmdline>
J2VwaWtfcHl0aG9uJywgJy1waCcsICc3LjAnLCAnLXRuJywgJzgnLCAnLW1hJywgJzIwMCcsICctbWV0YWxfYmluZGluZycsICctaW1hZScsICc8aW5maWxlLm1hZT4nLCAnLW9tYWUnLCAnPG91dGZpbGUubWFlPic=

> <r_epik_Ionization_Penalty>
0.00184663

> <r_epik_Ionization_Penalty_Charging>
0.00177223

> <r_epik_Ionization_Penalty_Neutral>
7.44064e-05

> <r_epik_State_Penalty>
0.00120075

> <r_epik_Charging_Adjusted_Penalty>
0.00297297

> <i_epik_Tot_Q>
1

> <i_epik_Tot_abs_Q>
1

> <r_epik_Metal_State_Penalty>
-0

> <b_epik_Metal_Only>
0

> <s_lp_Force_Field>
OPLS_2005

> <r_lp_Energy>
18.6881

> <b_lp_Chiralities_Consistent>
1

> <s_lp_Variant>
AV-unprocessed.smi:2271-1

> <Gold.Version>
5.8.1

> <Gold.Id.Protein>
6NUR|6NUR_protein|mol2

> <Gold.PLP.Fitness>
56.7121

> <Gold.PLP.PLP>
-43.9511

> <Gold.PLP.part.hbond>
-4.0000

> <Gold.PLP.part.metal>
0.0000

> <Gold.PLP.part.buried>
-6.4759

> <Gold.PLP.part.nonpolar>
-34.4435

> <Gold.PLP.part.repulsive>
0.2422

> <Gold.PLP.ligand.clash>
0.0000

> <Gold.PLP.ligand.torsion>
0.9846

> <Gold.PLP.Chemscore.Hbond>
4.8960

> <Gold.PLP.Chemscore.CHOScore>
0.0000

> <Gold.PLP.Chemscore.Metal>
0.0000

> <Gold.Chemscore.Hbonds>
donor molecule, donor type, donor heavy atom, donor atom, acceptor molecule, acceptor atom, score
      L1  H     7    28       P1  8028  1.00
      L1  H    10    29       P1  8028  0.96
      L1  H    15    46       P1  7948  1.50
      L1  H    18    41       P1  7948  0.13

> <Gold.PLP.Chemscore.Internal.Correction>
0.0422

> <Gold.Rescore>
     Score         DG    S(hbond)    S(metal)    S(lipo)     H(rot)  DE(clash)    DE(int)     intcor
     20.32     -24.21       3.94        0.00      99.90       2.39       0.18       3.71       ----

> <Gold.Chemscore.Fitness>
20.3219

> <Gold.Chemscore.DG>
-24.2141

> <Gold.Chemscore.ZeroCoef>
-5.4800

> <Gold.Chemscore.Hbond>
3.9439

> <Gold.Chemscore.Metal>
0.0000

> <Gold.Chemscore.Lipo>
99.9039

> <Gold.Chemscore.Internal_Hbond>
0.0000

> <Gold.Chemscore.DEClash>
0.1845

> <Gold.Chemscore.DEInternal>
3.7077

> <Gold.Chemscore.Rot>
2.3935

> <Gold.Chemscore.Internal.Correction>
   9.000000E+99

> <Gold.Chemscore.Hbonds>
donor molecule, donor type, donor heavy atom, donor atom, acceptor molecule, acceptor atom, score
      L1  H     7    28       P1  8028  0.98
      L1  H    10    29       P1  8028  0.89
      L1  H    15    46       P1  7948  0.09

> <Gold.Chemscore.Hbond.Weighted>
-13.1728

> <Gold.Chemscore.Metal.Weighted>
-0.0000

> <Gold.Chemscore.Lipo.Weighted>
-11.6888

> <Gold.Chemscore.Internal_Hbond.Weighted>
0.0000

> <Gold.Chemscore.DEClash.Weighted>
0.1845

> <Gold.Chemscore.DEInternal.Weighted>
3.7077

> <Gold.Chemscore.Rot.Weighted>
6.1274

> <Gold.Chemscore.Internal.Correction.Weighted>
   9.000000E+99

> <Gold.Protein.RotatedTorsions>
[ 6907 6896 6895 6894 ] final  -87.32 input  -60.11 | X-H torsion
[ 7974 7965 7964 7962 ] final   58.49 input  175.53 | X-H torsion
[ 8008 7997 7996 7995 ] final -168.29 input   59.86 | X-H torsion
[ 10167 10162 10161 10158 ] final  -81.58 input  -65.29 | X-H torsion
[ 10718 10713 10712 10709 ] final   86.58 input   66.30 | X-H torsion
[ 10763 10752 10751 10750 ] final  105.83 input  -60.55 | X-H torsion
[ 11005 11000 10999 10996 ] final -126.57 input  -57.11 | X-H torsion

> <Gold.Protein.ActiveResidues>
 VAL166  LYS551  ARG553  GLY616  TRP617  ASP618  TYR619  PRO620  LYS621  CYS622 
 ASP623  PHE694  ASN695  SER759  ASP760  ASP761  ALA762  ILE779  LEU786  VAL792 
 PHE793  MET794  SER795  GLU796  ALA797  LYS798  CYS799  TRP800  GLU811  SER814 

> <Gold.Protein.RotatedAtoms>
  150.6866  134.2915  159.4668 H   0  0  0  0  0  0  0  0  0  0  0  0  # atno 6907 bound_to 6896
  152.0819  134.9462  160.0582 H   0  0  0  0  0  0  0  0  0  0  0  0  # atno 6908 bound_to 6896
  152.0812  133.4119  159.4539 H   0  0  0  0  0  0  0  0  0  0  0  0  # atno 6909 bound_to 6896
  145.9176  139.3703  143.0498 H   0  0  0  0  0  0  0  0  0  0  0  0  # atno 7974 bound_to 7965
  155.8894  140.1022  157.1429 H   0  0  0  0  0  0  0  0  0  0  0  0  # atno 8008 bound_to 7997
  154.4013  140.1313  156.4360 H   0  0  0  0  0  0  0  0  0  0  0  0  # atno 8009 bound_to 7997
  155.7551  140.3464  155.5172 H   0  0  0  0  0  0  0  0  0  0  0  0  # atno 8010 bound_to 7997
  140.4399  143.2518  151.8640 H   0  0  0  0  0  0  0  0  0  0  0  0  # atno 10167 bound_to 10162
  157.6930  131.0221  150.2995 H   0  0  0  0  0  0  0  0  0  0  0  0  # atno 10718 bound_to 10713
  153.3847  135.3897  155.1882 H   0  0  0  0  0  0  0  0  0  0  0  0  # atno 10763 bound_to 10752
  154.8712  135.3734  154.4812 H   0  0  0  0  0  0  0  0  0  0  0  0  # atno 10764 bound_to 10752
  153.5293  135.7086  153.5753 H   0  0  0  0  0  0  0  0  0  0  0  0  # atno 10765 bound_to 10752
  140.9670  134.0857  157.3909 H   0  0  0  0  0  0  0  0  0  0  0  0  # atno 11005 bound_to 11000
  145.8592  140.9485  143.0709 LP  0  0  0  0  0  0  0  0  0  0  0  0  # atno 17320 bound_to 7965
  144.6749  140.0508  143.7479 LP  0  0  0  0  0  0  0  0  0  0  0  0  # atno 17321 bound_to 7965
  139.4789  144.5241  151.8760 LP  0  0  0  0  0  0  0  0  0  0  0  0  # atno 17342 bound_to 10162
  140.4330  144.2089  150.5888 LP  0  0  0  0  0  0  0  0  0  0  0  0  # atno 17343 bound_to 10162
  156.3513  130.3831  149.7327 LP  0  0  0  0  0  0  0  0  0  0  0  0  # atno 17370 bound_to 10713
  156.4804  130.8038  151.3053 LP  0  0  0  0  0  0  0  0  0  0  0  0  # atno 17371 bound_to 10713
  139.8898  135.0108  156.6701 LP  0  0  0  0  0  0  0  0  0  0  0  0  # atno 17394 bound_to 11000
  140.7384  133.8999  155.8260 LP  0  0  0  0  0  0  0  0  0  0  0  0  # atno 17395 bound_to 11000

$$$$
