AV-unprocessed.smi:869|AV-procd|sdf|4004|dock4
  -GOLD-   22720 1483D 1   1.00000     0.00000
 Structure written by MMmdl.
 46 48  0  0  0  0  0  0  0  0  1 V2000
  154.7893  137.2383  158.2289 C   0  0  0  0  0  0  0  0  0  0  0  0
  154.2603  138.5399  158.0487 O   0  0  0  0  0  0  0  0  0  0  0  0
  152.9621  138.6793  158.6044 C   0  0  0  0  0  0  0  0  0  0  0  0
  152.6449  140.1471  158.6491 C   0  0  0  0  0  0  0  0  0  0  0  0
  153.3458  140.9943  159.4061 N   0  0  0  0  0  0  0  0  0  0  0  0
  152.7379  142.2077  159.1544 C   0  0  0  0  0  0  0  0  0  0  0  0
  153.0241  143.4995  159.6514 C   0  0  0  0  0  0  0  0  0  0  0  0
  152.2529  144.6078  159.2443 C   0  0  0  0  0  0  0  0  0  0  0  0
  151.1866  144.4406  158.3370 C   0  0  0  0  0  0  0  0  0  0  0  0
  150.8842  143.1617  157.8310 C   0  0  0  0  0  0  0  0  0  0  0  0
  151.6575  142.0588  158.2406 C   0  0  0  0  0  0  0  0  0  0  0  0
  151.6249  140.7002  157.9418 N   0  0  0  0  0  0  0  0  0  0  0  0
  150.6733  140.0532  157.0481 C   0  0  0  0  0  0  0  0  0  0  0  0
  150.6647  140.6826  155.6395 C   0  0  1  0  0  0  0  0  0  0  0  0
  151.5951  140.0615  154.7752 O   0  0  0  0  0  0  0  0  0  0  0  0
  149.2802  140.6819  154.9713 C   0  0  0  0  0  0  0  0  0  0  0  0
  148.2784  140.9832  155.9354 O   0  0  0  0  0  0  0  0  0  0  0  0
  147.2486  141.8228  155.5691 C   0  0  0  0  0  0  0  0  0  0  0  0
  146.3595  142.2254  156.5868 C   0  0  0  0  0  0  0  0  0  0  0  0
  145.2788  143.0823  156.3034 C   0  0  0  0  0  0  0  0  0  0  0  0
  145.0731  143.5501  154.9910 C   0  0  0  0  0  0  0  0  0  0  0  0
  143.9071  144.4689  154.6898 C   0  0  0  0  0  0  0  0  0  0  0  0
  145.9547  143.1539  153.9654 C   0  0  0  0  0  0  0  0  0  0  0  0
  147.0359  142.2968  154.2500 C   0  0  0  0  0  0  0  0  0  0  0  0
  155.7794  137.1805  157.7765 H   0  0  0  0  0  0  0  0  0  0  0  0
  154.1583  136.4854  157.7545 H   0  0  0  0  0  0  0  0  0  0  0  0
  154.8880  136.9968  159.2881 H   0  0  0  0  0  0  0  0  0  0  0  0
  152.2461  138.1350  157.9900 H   0  0  0  0  0  0  0  0  0  0  0  0
  152.9252  138.2745  159.6168 H   0  0  0  0  0  0  0  0  0  0  0  0
  153.8392  143.6371  160.3463 H   0  0  0  0  0  0  0  0  0  0  0  0
  152.4811  145.5908  159.6297 H   0  0  0  0  0  0  0  0  0  0  0  0
  150.6012  145.2948  158.0296 H   0  0  0  0  0  0  0  0  0  0  0  0
  150.0683  143.0300  157.1358 H   0  0  0  0  0  0  0  0  0  0  0  0
  150.8799  138.9842  157.0085 H   0  0  0  0  0  0  0  0  0  0  0  0
  149.6809  140.1419  157.4916 H   0  0  0  0  0  0  0  0  0  0  0  0
  150.9874  141.7209  155.7262 H   0  0  0  0  0  0  0  0  0  0  0  0
  151.7604  139.1867  155.0924 H   0  0  0  0  0  0  0  0  0  0  0  0
  149.2662  141.4468  154.1931 H   0  0  0  0  0  0  0  0  0  0  0  0
  149.0908  139.7187  154.4941 H   0  0  0  0  0  0  0  0  0  0  0  0
  146.5076  141.8730  157.5970 H   0  0  0  0  0  0  0  0  0  0  0  0
  144.6080  143.3790  157.0965 H   0  0  0  0  0  0  0  0  0  0  0  0
  143.9858  144.8958  153.6896 H   0  0  0  0  0  0  0  0  0  0  0  0
  143.8745  145.2899  155.4067 H   0  0  0  0  0  0  0  0  0  0  0  0
  142.9683  143.9184  154.7542 H   0  0  0  0  0  0  0  0  0  0  0  0
  145.8058  143.5049  152.9548 H   0  0  0  0  0  0  0  0  0  0  0  0
  147.6877  142.0167  153.4365 H   0  0  0  0  0  0  0  0  0  0  0  0
  1  2  1  0  0  0  0
  1 25  1  0  0  0  0
  1 26  1  0  0  0  0
  1 27  1  0  0  0  0
  2  3  1  0  0  0  0
  3  4  1  0  0  0  0
  3 28  1  0  0  0  0
  3 29  1  0  0  0  0
  4 12  1  0  0  0  0
  4  5  2  0  0  0  0
  5  6  1  0  0  0  0
  6 11  2  0  0  0  0
  6  7  1  0  0  0  0
  7  8  2  0  0  0  0
  7 30  1  0  0  0  0
  8  9  1  0  0  0  0
  8 31  1  0  0  0  0
  9 10  2  0  0  0  0
  9 32  1  0  0  0  0
 10 11  1  0  0  0  0
 10 33  1  0  0  0  0
 11 12  1  0  0  0  0
 12 13  1  0  0  0  0
 13 14  1  0  0  0  0
 13 34  1  0  0  0  0
 13 35  1  0  0  0  0
 14 15  1  0  0  0  0
 14 16  1  0  0  0  0
 14 36  1  0  0  0  0
 15 37  1  0  0  0  0
 16 17  1  0  0  0  0
 16 38  1  0  0  0  0
 16 39  1  0  0  0  0
 17 18  1  0  0  0  0
 18 24  1  0  0  0  0
 18 19  2  0  0  0  0
 19 20  1  0  0  0  0
 19 40  1  0  0  0  0
 20 21  2  0  0  0  0
 20 41  1  0  0  0  0
 21 22  1  0  0  0  0
 21 23  1  0  0  0  0
 22 42  1  0  0  0  0
 22 43  1  0  0  0  0
 22 44  1  0  0  0  0
 23 24  2  0  0  0  0
 23 45  1  0  0  0  0
 24 46  1  0  0  0  0
M  END
> <s_m_source_file>
AV-unprocessed.smi

> <i_m_source_file_index>
869

> <i_lp_mmshare_version>
43012

> <i_f3d_flags>
0

> <s_epik_input>
W2NIXTFbY0hdW2NIXVtjSF1jKGMxMiluKGMobjIpW0NIMl1PW0NIM10pW0NIMl1bQ0BIXShbT0hdKVtDSDJdT2MzW2NIXVtjSF1jKFtDSDNdKVtjSF1bY0hdMw==

> <s_epik_cmdline>
J2VwaWtfcHl0aG9uJywgJy1waCcsICc3LjAnLCAnLXRuJywgJzgnLCAnLW1hJywgJzIwMCcsICctbWV0YWxfYmluZGluZycsICctaW1hZScsICc8aW5maWxlLm1hZT4nLCAnLW9tYWUnLCAnPG91dGZpbGUubWFlPic=

> <r_lp_tautomer_probability>
1

> <r_epik_Ionization_Penalty>
0.0446698

> <r_epik_Ionization_Penalty_Charging>
0

> <r_epik_Ionization_Penalty_Neutral>
0.0446698

> <r_epik_State_Penalty>
0.0378721

> <r_epik_Charging_Adjusted_Penalty>
0.0378721

> <i_epik_Tot_Q>
0

> <i_epik_Tot_abs_Q>
0

> <r_epik_Metal_State_Penalty>
3.91074e-05

> <b_epik_Metal_Only>
0

> <s_lp_Force_Field>
OPLS_2005

> <r_lp_Energy>
18.5204

> <b_lp_Chiralities_Consistent>
1

> <s_lp_Variant>
AV-unprocessed.smi:869-2

> <Gold.Version>
5.8.1

> <Gold.Id.Protein>
6NUR|6NUR_protein|mol2

> <Gold.PLP.Fitness>
54.5316

> <Gold.PLP.PLP>
-50.4222

> <Gold.PLP.part.hbond>
-1.8832

> <Gold.PLP.part.metal>
0.0000

> <Gold.PLP.part.buried>
-6.5140

> <Gold.PLP.part.nonpolar>
-42.2836

> <Gold.PLP.part.repulsive>
0.0659

> <Gold.PLP.ligand.clash>
0.0000

> <Gold.PLP.ligand.torsion>
0.9763

> <Gold.PLP.Chemscore.Hbond>
2.0000

> <Gold.PLP.Chemscore.CHOScore>
0.0000

> <Gold.PLP.Chemscore.Metal>
0.0000

> <Gold.Chemscore.Hbonds>
donor molecule, donor type, donor heavy atom, donor atom, acceptor molecule, acceptor atom, score
      P1  H  7989  7998       L1    15  0.94
      P1  H  7997  8008       L1     2  0.98

> <Gold.PLP.Chemscore.Internal.Correction>
0.0620

> <Gold.Rescore>
     Score         DG    S(hbond)    S(metal)    S(lipo)     H(rot)  DE(clash)    DE(int)     intcor
     19.58     -20.49       1.82        0.00     127.99       2.36       0.04       0.87       ----

> <Gold.Chemscore.Fitness>
19.5811

> <Gold.Chemscore.DG>
-20.4914

> <Gold.Chemscore.ZeroCoef>
-5.4800

> <Gold.Chemscore.Hbond>
1.8188

> <Gold.Chemscore.Metal>
0.0000

> <Gold.Chemscore.Lipo>
127.9875

> <Gold.Chemscore.Internal_Hbond>
0.0000

> <Gold.Chemscore.DEClash>
0.0373

> <Gold.Chemscore.DEInternal>
0.8730

> <Gold.Chemscore.Rot>
2.3585

> <Gold.Chemscore.Internal.Correction>
   9.000000E+99

> <Gold.Chemscore.Hbonds>
donor molecule, donor type, donor heavy atom, donor atom, acceptor molecule, acceptor atom, score
      P1  H  7989  7998       L1    15  0.58
      P1  H  7997  8008       L1     2  0.89

> <Gold.Chemscore.Hbond.Weighted>
-6.0747

> <Gold.Chemscore.Metal.Weighted>
-0.0000

> <Gold.Chemscore.Lipo.Weighted>
-14.9745

> <Gold.Chemscore.Internal_Hbond.Weighted>
0.0000

> <Gold.Chemscore.DEClash.Weighted>
0.0373

> <Gold.Chemscore.DEInternal.Weighted>
0.8730

> <Gold.Chemscore.Rot.Weighted>
6.0378

> <Gold.Chemscore.Internal.Correction.Weighted>
   9.000000E+99

> <Gold.Protein.RotatedTorsions>
[ 6907 6896 6895 6894 ] final  -81.07 input  -60.11 | X-H torsion
[ 7974 7965 7964 7962 ] final   94.77 input  175.53 | X-H torsion
[ 8008 7997 7996 7995 ] final -115.02 input   59.86 | X-H torsion
[ 10167 10162 10161 10158 ] final  -49.78 input  -65.29 | X-H torsion
[ 10718 10713 10712 10709 ] final -163.33 input   66.30 | X-H torsion
[ 10763 10752 10751 10750 ] final -161.22 input  -60.55 | X-H torsion
[ 11005 11000 10999 10996 ] final  174.87 input  -57.11 | X-H torsion

> <Gold.Protein.ActiveResidues>
 VAL166  LYS551  ARG553  GLY616  TRP617  ASP618  TYR619  PRO620  LYS621  CYS622 
 ASP623  PHE694  ASN695  SER759  ASP760  ASP761  ALA762  ILE779  LEU786  VAL792 
 PHE793  MET794  SER795  GLU796  ALA797  LYS798  CYS799  TRP800  GLU811  SER814 

> <Gold.Protein.RotatedAtoms>
  150.6918  134.3874  159.5060 H   0  0  0  0  0  0  0  0  0  0  0  0  # atno 6907 bound_to 6896
  152.1667  134.8865  160.0546 H   0  0  0  0  0  0  0  0  0  0  0  0  # atno 6908 bound_to 6896
  151.9907  133.3755  159.4180 H   0  0  0  0  0  0  0  0  0  0  0  0  # atno 6909 bound_to 6896
  145.4611  139.2287  143.2987 H   0  0  0  0  0  0  0  0  0  0  0  0  # atno 7974 bound_to 7965
  155.0454  140.0392  157.2524 H   0  0  0  0  0  0  0  0  0  0  0  0  # atno 8008 bound_to 7997
  154.7182  140.2706  155.6542 H   0  0  0  0  0  0  0  0  0  0  0  0  # atno 8009 bound_to 7997
  156.2809  140.2708  156.1845 H   0  0  0  0  0  0  0  0  0  0  0  0  # atno 8010 bound_to 7997
  140.6669  143.2684  151.4264 H   0  0  0  0  0  0  0  0  0  0  0  0  # atno 10167 bound_to 10162
  156.6232  130.8899  151.2962 H   0  0  0  0  0  0  0  0  0  0  0  0  # atno 10718 bound_to 10713
  154.7323  135.3049  154.8871 H   0  0  0  0  0  0  0  0  0  0  0  0  # atno 10763 bound_to 10752
  153.9710  135.6741  153.4751 H   0  0  0  0  0  0  0  0  0  0  0  0  # atno 10764 bound_to 10752
  153.0929  135.4950  154.8646 H   0  0  0  0  0  0  0  0  0  0  0  0  # atno 10765 bound_to 10752
  140.3560  134.7154  157.4300 H   0  0  0  0  0  0  0  0  0  0  0  0  # atno 11005 bound_to 11000
  146.2450  140.5380  142.8917 LP  0  0  0  0  0  0  0  0  0  0  0  0  # atno 17320 bound_to 7965
  144.8002  140.6199  143.6483 LP  0  0  0  0  0  0  0  0  0  0  0  0  # atno 17321 bound_to 7965
  139.5921  144.1476  152.2101 LP  0  0  0  0  0  0  0  0  0  0  0  0  # atno 17342 bound_to 10162
  140.0834  144.5682  150.7106 LP  0  0  0  0  0  0  0  0  0  0  0  0  # atno 17343 bound_to 10162
  157.7222  130.9573  150.1484 LP  0  0  0  0  0  0  0  0  0  0  0  0  # atno 17370 bound_to 10713
  156.2295  130.3681  149.8462 LP  0  0  0  0  0  0  0  0  0  0  0  0  # atno 17371 bound_to 10713
  140.0665  134.5923  155.8690 LP  0  0  0  0  0  0  0  0  0  0  0  0  # atno 17394 bound_to 11000
  141.1998  133.6609  156.5864 LP  0  0  0  0  0  0  0  0  0  0  0  0  # atno 17395 bound_to 11000

$$$$
