AV-unprocessed.smi:3232|AV-procd|sdf|12344|dock3
  -GOLD-   2272018203D 1   1.00000     0.00000
 Structure written by MMmdl.
 40 41  0  0  0  0  0  0  0  0  2 V2000
  151.1508  138.1423  153.9579 C   0  0  0  0  0  0  0  0  0  0  0  0
  150.8707  139.4749  154.6642 C   0  0  0  0  0  0  0  0  0  0  0  0
  149.6826  140.1614  154.0997 N   0  3  1  0  0  0  0  0  0  0  0  0
  148.4499  139.3427  154.0174 C   0  0  0  0  0  0  0  0  0  0  0  0
  147.2686  140.3151  154.1425 C   0  0  0  0  0  0  0  0  0  0  0  0
  147.9033  141.7047  154.1366 C   0  0  0  0  0  0  0  0  0  0  0  0
  149.3110  141.4677  154.6975 C   0  0  1  0  0  0  0  0  0  0  0  0
  149.3693  141.4651  156.2479 C   0  0  0  0  0  0  0  0  0  0  0  0
  150.5696  142.1191  156.7605 N   0  0  0  0  0  0  0  0  0  0  0  0
  150.6990  142.6616  157.9828 C   0  0  0  0  0  0  0  0  0  0  0  0
  149.7785  142.6950  158.8005 O   0  0  0  0  0  0  0  0  0  0  0  0
  152.0730  143.2678  158.3178 C   0  0  1  0  0  0  0  0  0  0  0  0
  152.0675  144.8102  158.3235 C   0  0  0  0  0  0  0  0  0  0  0  0
  152.5839  142.7242  159.5708 N   0  0  0  0  0  0  0  0  0  0  0  0
  153.6358  141.9350  159.7989 C   0  0  0  0  0  0  0  0  0  0  0  0
  153.7884  141.5947  161.0706 N   0  0  0  0  0  0  0  0  0  0  0  0
  152.7192  142.2502  161.6120 C   0  0  0  0  0  0  0  0  0  0  0  0
  151.9594  142.9339  160.7565 N   0  0  0  0  0  0  0  0  0  0  0  0
  152.0543  137.6784  154.3542 H   0  0  0  0  0  0  0  0  0  0  0  0
  151.2953  138.2859  152.8866 H   0  0  0  0  0  0  0  0  0  0  0  0
  150.3328  137.4345  154.0953 H   0  0  0  0  0  0  0  0  0  0  0  0
  150.7423  139.3091  155.7347 H   0  0  0  0  0  0  0  0  0  0  0  0
  151.7407  140.1215  154.5430 H   0  0  0  0  0  0  0  0  0  0  0  0
  148.4288  138.8022  153.0705 H   0  0  0  0  0  0  0  0  0  0  0  0
  148.4126  138.6075  154.8228 H   0  0  0  0  0  0  0  0  0  0  0  0
  146.5401  140.1927  153.3403 H   0  0  0  0  0  0  0  0  0  0  0  0
  146.7505  140.1486  155.0879 H   0  0  0  0  0  0  0  0  0  0  0  0
  147.9813  142.0584  153.1075 H   0  0  0  0  0  0  0  0  0  0  0  0
  147.3155  142.4420  154.6819 H   0  0  0  0  0  0  0  0  0  0  0  0
  149.9938  142.2331  154.3259 H   0  0  0  0  0  0  0  0  0  0  0  0
  148.4672  141.9112  156.6700 H   0  0  0  0  0  0  0  0  0  0  0  0
  149.4013  140.4422  156.6224 H   0  0  0  0  0  0  0  0  0  0  0  0
  151.3736  142.1378  156.1497 H   0  0  0  0  0  0  0  0  0  0  0  0
  152.7567  142.9510  157.5286 H   0  0  0  0  0  0  0  0  0  0  0  0
  151.7376  145.2077  157.3630 H   0  0  0  0  0  0  0  0  0  0  0  0
  153.0681  145.2010  158.5102 H   0  0  0  0  0  0  0  0  0  0  0  0
  151.4077  145.2140  159.0926 H   0  0  0  0  0  0  0  0  0  0  0  0
  154.3014  141.5981  159.0178 H   0  0  0  0  0  0  0  0  0  0  0  0
  152.4903  142.2173  162.6671 H   0  0  0  0  0  0  0  0  0  0  0  0
  149.9170  140.3824  153.1423 H   0  0  0  0  0  0  0  0  0  0  0  0
  1  2  1  0  0  0  0
  1 19  1  0  0  0  0
  1 20  1  0  0  0  0
  1 21  1  0  0  0  0
  2  3  1  0  0  0  0
  2 22  1  0  0  0  0
  2 23  1  0  0  0  0
  3  7  1  0  0  0  0
  3  4  1  0  0  0  0
  3 40  1  0  0  0  0
  4  5  1  0  0  0  0
  4 24  1  0  0  0  0
  4 25  1  0  0  0  0
  5  6  1  0  0  0  0
  5 26  1  0  0  0  0
  5 27  1  0  0  0  0
  6  7  1  0  0  0  0
  6 28  1  0  0  0  0
  6 29  1  0  0  0  0
  7  8  1  0  0  0  0
  7 30  1  0  0  0  0
  8  9  1  0  0  0  0
  8 31  1  0  0  0  0
  8 32  1  0  0  0  0
  9 10  1  0  0  0  0
  9 33  1  0  0  0  0
 10 11  2  0  0  0  0
 10 12  1  0  0  0  0
 12 13  1  0  0  0  0
 12 14  1  0  0  0  0
 12 34  1  0  0  0  0
 13 35  1  0  0  0  0
 13 36  1  0  0  0  0
 13 37  1  0  0  0  0
 14 18  1  0  0  0  0
 14 15  1  0  0  0  0
 15 16  2  0  0  0  0
 15 38  1  0  0  0  0
 16 17  1  0  0  0  0
 17 18  2  0  0  0  0
 17 39  1  0  0  0  0
M  CHG  1   3   1
M  END
> <s_m_source_file>
AV-unprocessed.smi

> <i_m_source_file_index>
3232

> <i_lp_mmshare_version>
43012

> <i_f3d_flags>
0

> <s_epik_input>
W0NIM11bQ0gyXU4xW0NIMl1bQ0gyXVtDSDJdW0NASF0xW0NIMl1bTkhdQyg9TylbQ0BIXShbQ0gzXSluMltjSF1uW2NIXW4y

> <s_epik_cmdline>
J2VwaWtfcHl0aG9uJywgJy1waCcsICc3LjAnLCAnLXRuJywgJzgnLCAnLW1hJywgJzIwMCcsICctbWV0YWxfYmluZGluZycsICctaW1hZScsICc8aW5maWxlLm1hZT4nLCAnLW9tYWUnLCAnPG91dGZpbGUubWFlPic=

> <r_lp_tautomer_probability>
1

> <r_epik_Ionization_Penalty>
0.00177695

> <r_epik_Ionization_Penalty_Charging>
0.00176881

> <r_epik_Ionization_Penalty_Neutral>
8.13528e-06

> <r_epik_State_Penalty>
0.00119827

> <r_epik_Charging_Adjusted_Penalty>
0.00296709

> <i_epik_Tot_Q>
1

> <i_epik_Tot_abs_Q>
1

> <r_epik_Metal_State_Penalty>
-0

> <b_epik_Metal_Only>
0

> <s_lp_Force_Field>
OPLS_2005

> <r_lp_Energy>
36.9304

> <b_lp_Chiralities_Consistent>
1

> <s_lp_Variant>
AV-unprocessed.smi:3232-6

> <Gold.Version>
5.8.1

> <Gold.Id.Protein>
6NUR|6NUR_protein|mol2

> <Gold.PLP.Fitness>
43.9736

> <Gold.PLP.PLP>
-43.1328

> <Gold.PLP.part.hbond>
-1.5889

> <Gold.PLP.part.metal>
0.0000

> <Gold.PLP.part.buried>
-5.5083

> <Gold.PLP.part.nonpolar>
-36.2111

> <Gold.PLP.part.repulsive>
0.9265

> <Gold.PLP.ligand.clash>
0.0000

> <Gold.PLP.ligand.torsion>
0.9935

> <Gold.PLP.Chemscore.Hbond>
0.8938

> <Gold.PLP.Chemscore.CHOScore>
0.0000

> <Gold.PLP.Chemscore.Metal>
0.0000

> <Gold.Chemscore.Hbonds>
donor molecule, donor type, donor heavy atom, donor atom, acceptor molecule, acceptor atom, score
      L1  H     3    40       P1  7957  0.98

> <Gold.PLP.Chemscore.Internal.Correction>
0.1465

> <Gold.Rescore>
     Score         DG    S(hbond)    S(metal)    S(lipo)     H(rot)  DE(clash)    DE(int)     intcor
      9.43     -11.22       0.97        0.00      75.75       2.49       0.07       1.71       ----

> <Gold.Chemscore.Fitness>
9.4273

> <Gold.Chemscore.DG>
-11.2159

> <Gold.Chemscore.ZeroCoef>
-5.4800

> <Gold.Chemscore.Hbond>
0.9709

> <Gold.Chemscore.Metal>
0.0000

> <Gold.Chemscore.Lipo>
75.7502

> <Gold.Chemscore.Internal_Hbond>
0.0000

> <Gold.Chemscore.DEClash>
0.0738

> <Gold.Chemscore.DEInternal>
1.7148

> <Gold.Chemscore.Rot>
2.4882

> <Gold.Chemscore.Internal.Correction>
   9.000000E+99

> <Gold.Chemscore.Hbonds>
donor molecule, donor type, donor heavy atom, donor atom, acceptor molecule, acceptor atom, score
      L1  H     3    40       P1  7957  0.87

> <Gold.Chemscore.Hbond.Weighted>
-3.2429

> <Gold.Chemscore.Metal.Weighted>
-0.0000

> <Gold.Chemscore.Lipo.Weighted>
-8.8628

> <Gold.Chemscore.Internal_Hbond.Weighted>
0.0000

> <Gold.Chemscore.DEClash.Weighted>
0.0738

> <Gold.Chemscore.DEInternal.Weighted>
1.7148

> <Gold.Chemscore.Rot.Weighted>
6.3697

> <Gold.Chemscore.Internal.Correction.Weighted>
   9.000000E+99

> <Gold.Protein.RotatedTorsions>
[ 6907 6896 6895 6894 ] final  -13.17 input  -60.11 | X-H torsion
[ 7974 7965 7964 7962 ] final  102.95 input  175.53 | X-H torsion
[ 8008 7997 7996 7995 ] final -152.93 input   59.86 | X-H torsion
[ 10167 10162 10161 10158 ] final  -50.63 input  -65.29 | X-H torsion
[ 10718 10713 10712 10709 ] final   82.16 input   66.30 | X-H torsion
[ 10763 10752 10751 10750 ] final -170.45 input  -60.55 | X-H torsion
[ 11005 11000 10999 10996 ] final   59.08 input  -57.11 | X-H torsion

> <Gold.Protein.ActiveResidues>
 VAL166  LYS551  ARG553  GLY616  TRP617  ASP618  TYR619  PRO620  LYS621  CYS622 
 ASP623  PHE694  ASN695  SER759  ASP760  ASP761  ALA762  ILE779  LEU786  VAL792 
 PHE793  MET794  SER795  GLU796  ALA797  LYS798  CYS799  TRP800  GLU811  SER814 

> <Gold.Protein.RotatedAtoms>
  151.3592  135.0900  159.9428 H   0  0  0  0  0  0  0  0  0  0  0  0  # atno 6907 bound_to 6896
  152.5166  133.9276  159.7575 H   0  0  0  0  0  0  0  0  0  0  0  0  # atno 6908 bound_to 6896
  150.9666  133.6334  159.2774 H   0  0  0  0  0  0  0  0  0  0  0  0  # atno 6909 bound_to 6896
  145.3524  139.2436  143.3551 H   0  0  0  0  0  0  0  0  0  0  0  0  # atno 7974 bound_to 7965
  155.6629  140.0724  157.2547 H   0  0  0  0  0  0  0  0  0  0  0  0  # atno 8008 bound_to 7997
  154.4139  140.1713  156.1847 H   0  0  0  0  0  0  0  0  0  0  0  0  # atno 8009 bound_to 7997
  155.9682  140.3364  155.6554 H   0  0  0  0  0  0  0  0  0  0  0  0  # atno 8010 bound_to 7997
  140.6628  143.2650  151.4387 H   0  0  0  0  0  0  0  0  0  0  0  0  # atno 10167 bound_to 10162
  157.6851  131.0036  150.2334 H   0  0  0  0  0  0  0  0  0  0  0  0  # atno 10718 bound_to 10713
  154.6414  135.2899  155.0099 H   0  0  0  0  0  0  0  0  0  0  0  0  # atno 10763 bound_to 10752
  154.1224  135.6546  153.4909 H   0  0  0  0  0  0  0  0  0  0  0  0  # atno 10764 bound_to 10752
  153.0328  135.5291  154.7282 H   0  0  0  0  0  0  0  0  0  0  0  0  # atno 10765 bound_to 10752
  140.0330  134.5984  155.9481 H   0  0  0  0  0  0  0  0  0  0  0  0  # atno 11005 bound_to 11000
  146.2962  140.4142  142.8721 LP  0  0  0  0  0  0  0  0  0  0  0  0  # atno 17320 bound_to 7965
  144.8708  140.7269  143.6048 LP  0  0  0  0  0  0  0  0  0  0  0  0  # atno 17321 bound_to 7965
  139.5867  144.1589  152.2038 LP  0  0  0  0  0  0  0  0  0  0  0  0  # atno 17342 bound_to 10162
  140.0931  144.5604  150.7041 LP  0  0  0  0  0  0  0  0  0  0  0  0  # atno 17343 bound_to 10162
  156.2962  130.3752  149.7793 LP  0  0  0  0  0  0  0  0  0  0  0  0  # atno 17370 bound_to 10713
  156.5437  130.8311  151.3277 LP  0  0  0  0  0  0  0  0  0  0  0  0  # atno 17371 bound_to 10713
  141.1842  133.6552  156.5146 LP  0  0  0  0  0  0  0  0  0  0  0  0  # atno 17394 bound_to 11000
  140.4194  134.7201  157.4881 LP  0  0  0  0  0  0  0  0  0  0  0  0  # atno 17395 bound_to 11000

$$$$
