#       Name:                AV-unprocessed.smi:2247
#       Creating user name   scv26
#       Creation time:       Fri Mar 27 12:29:27 2020


#       File generated by GOLD software.
#

@<TRIPOS>MOLECULE
AV-unprocessed.smi:2247
    41    42     1
SMALL
NO_CHARGES


@<TRIPOS>ATOM
      1 ****        -3.5911  -2.1300   0.7434 C.3            1 S1                 0.0000
      2 ****        -2.8936  -1.4772  -0.4642 C.3            1 S1                 0.0000
      3 ****        -3.2793  -2.1655  -1.7834 C.3            1 S1                 0.0000
      4 ****        -1.4311  -1.4316  -0.3227 N.am           1 S1                 0.0000
      5 ****        -0.6904  -2.3972   0.4730 C.3            1 S1                 0.0000
      6 ****         0.7802  -2.1470   0.1254 C.3            1 S1                 0.0000
      7 ****         0.8450  -0.7708  -0.5561 C.3            1 S1                 0.0000
      8 ****         1.3409   0.2270   0.3901 N.am           1 S1                 0.0000
      9 ****         1.9163   1.3969   0.0757 C.2            1 S1                 0.0000
     10 ****         2.0683   1.7100  -1.1073 O.2            1 S1                 0.0000
     11 ****         2.2813   2.1290   1.1522 N.pl3          1 S1                -1.0000
     12 ****         2.8726   3.3219   0.9786 C.2            1 S1                 0.0000
     13 ****         2.2943   4.5173   1.1073 N.2            1 S1                 0.0000
     14 ****         3.2869   5.4486   0.8430 C.2            1 S1                 0.0000
     15 ****         4.4408   4.7663   0.5698 C.2            1 S1                 0.0000
     16 ****         4.1932   3.4243   0.6558 O.3            1 S1                 0.0000
     17 ****        -0.6266  -0.5118  -0.8739 C.2            1 S1                 0.0000
     18 ****        -0.9931   0.4253  -1.5828 O.2            1 S1                 0.0000
     19 ****        -4.6749  -2.0641   0.6447 H              1 S1                 0.0000
     20 ****        -3.3187  -1.6311   1.6740 H              1 S1                 0.0000
     21 ****        -3.3381  -3.1862   0.8388 H              1 S1                 0.0000
     22 ****        -3.2541  -0.4480  -0.5105 H              1 S1                 0.0000
     23 ****        -4.3607  -2.1688  -1.9220 H              1 S1                 0.0000
     24 ****        -2.9373  -3.2007  -1.8037 H              1 S1                 0.0000
     25 ****        -2.8415  -1.6534  -2.6411 H              1 S1                 0.0000
     26 ****        -0.8693  -2.2110   1.5328 H              1 S1                 0.0000
     27 ****        -0.9869  -3.4220   0.2465 H              1 S1                 0.0000
     28 ****         1.4259  -2.2239   1.0014 H              1 S1                 0.0000
     29 ****         1.1152  -2.9086  -0.5802 H              1 S1                 0.0000
     30 ****         1.4485  -0.8062  -1.4647 H              1 S1                 0.0000
     31 ****         1.2323   0.0160   1.3710 H              1 S1                 0.0000
     32 ****         3.0962   6.5110   0.8716 H              1 S1                 0.0000
     33 ****         5.4481   5.0610   0.3162 H              1 S1                 0.0000
     34 ****         1.7626   1.0918  -1.8314 LP             1 S1                 0.0000
     35 ****         2.4973   2.5822  -1.3425 LP             1 S1                 0.0000
     36 ****         2.1114   1.7831   2.0750 LP             1 S1                 0.0000
     37 ****         1.3411   4.7034   1.3454 LP             1 S1                 0.0000
     38 ****         4.3753   2.9777  -0.2202 LP             1 S1                 0.0000
     39 ****         4.7607   3.0083   1.3664 LP             1 S1                 0.0000
     40 ****        -1.9641   0.5463  -1.7890 LP             1 S1                 0.0000
     41 ****        -0.3198   1.0657  -1.9525 LP             1 S1                 0.0000
@<TRIPOS>BOND
    1    1    2 1     
    2    1   19 1     
    3    1   20 1     
    4    1   21 1     
    5    2    3 1     
    6    2    4 1     
    7    2   22 1     
    8    3   23 1     
    9    3   24 1     
   10    3   25 1     
   11    4   17 am    
   12    4    5 1     
   13    5    6 1     
   14    5   26 1     
   15    5   27 1     
   16    6    7 1     
   17    6   28 1     
   18    6   29 1     
   19    7    8 1     
   20    7   17 1     
   21    7   30 1     
   22    8    9 am    
   23    8   31 1     
   24    9   10 2     
   25    9   11 1     
   26   11   12 1     
   27   12   16 1     
   28   12   13 2     
   29   13   14 1     
   30   14   15 2     
   31   14   32 1     
   32   15   16 1     
   33   15   33 1     
   34   17   18 2     
   35   10   34 1     
   36   10   35 1     
   37   11   36 1     
   38   13   37 1     
   39   16   38 1     
   40   16   39 1     
   41   18   40 1     
   42   18   41 1     
@<TRIPOS>SUBSTRUCTURE
      1 S1             1
@<TRIPOS>SET
LONE_PAIRS      STATIC     ATOMS    <user>   **** ""
8 34 35 36 37 38 39 40 41
DONOR_HYDROGENS      STATIC     ATOMS    <user>   **** ""
1 31
ATOM$BLUE        STATIC     ATOMS    COLORGROUP SYSTEM
8 34 35 36 37 38 39 40 41
ATOM$RED        STATIC     ATOMS    COLORGROUP SYSTEM
1 31
