AV-unprocessed.smi:3156|AV-procd|sdf|12035|dock6
  -GOLD-   2272017453D 1   1.00000     0.00000
 Structure written by MMmdl.
 41 42  0  0  0  0  0  0  0  0  2 V2000
  148.6022  141.6366  154.0508 C   0  0  0  0  0  0  0  0  0  0  0  0
  148.7119  141.2263  155.5305 C   0  0  2  0  0  0  0  0  0  0  0  0
  149.8236  141.9798  156.1533 N   0  3  0  0  0  0  0  0  0  0  0  0
  150.1818  141.5447  157.5191 C   0  0  0  0  0  0  0  0  0  0  0  0
  151.3897  142.3319  158.0652 C   0  0  1  0  0  0  0  0  0  0  0  0
  151.3292  143.8293  157.7019 C   0  0  0  0  0  0  0  0  0  0  0  0
  152.5007  144.5874  158.3364 C   0  0  0  0  0  0  0  0  0  0  0  0
  152.5370  144.3115  159.8430 C   0  0  0  0  0  0  0  0  0  0  0  0
  152.5327  142.7979  160.1082 C   0  0  0  0  0  0  0  0  0  0  0  0
  151.3997  142.1989  159.4855 O   0  0  0  0  0  0  0  0  0  0  0  0
  148.9185  139.7010  155.7306 C   0  0  1  0  0  0  0  0  0  0  0  0
  147.7788  138.8619  155.1210 C   0  0  0  0  0  0  0  0  0  0  0  0
  150.2037  139.2466  155.2143 N   0  0  0  0  0  0  0  0  0  0  0  0
  150.4457  138.3116  154.2289 C   0  0  0  0  0  0  0  0  0  0  0  0
  151.7995  138.2157  154.0801 C   0  0  0  0  0  0  0  0  0  0  0  0
  152.3109  139.1448  155.0282 C   0  0  0  0  0  0  0  0  0  0  0  0
  151.3546  139.7603  155.7047 N   0  0  0  0  0  0  0  0  0  0  0  0
  147.7368  141.1841  153.5661 H   0  0  0  0  0  0  0  0  0  0  0  0
  149.4900  141.3415  153.4903 H   0  0  0  0  0  0  0  0  0  0  0  0
  148.4920  142.7172  153.9534 H   0  0  0  0  0  0  0  0  0  0  0  0
  147.7737  141.5107  156.0110 H   0  0  0  0  0  0  0  0  0  0  0  0
  150.6386  141.8864  155.5640 H   0  0  0  0  0  0  0  0  0  0  0  0
  149.3127  141.6662  158.1671 H   0  0  0  0  0  0  0  0  0  0  0  0
  150.4054  140.4770  157.4999 H   0  0  0  0  0  0  0  0  0  0  0  0
  152.3159  141.9045  157.6752 H   0  0  0  0  0  0  0  0  0  0  0  0
  151.3472  143.9568  156.6190 H   0  0  0  0  0  0  0  0  0  0  0  0
  150.3887  144.2570  158.0524 H   0  0  0  0  0  0  0  0  0  0  0  0
  153.4381  144.2658  157.8807 H   0  0  0  0  0  0  0  0  0  0  0  0
  152.4102  145.6574  158.1470 H   0  0  0  0  0  0  0  0  0  0  0  0
  153.4181  144.7720  160.2906 H   0  0  0  0  0  0  0  0  0  0  0  0
  151.6684  144.7669  160.3203 H   0  0  0  0  0  0  0  0  0  0  0  0
  153.4504  142.3354  159.7415 H   0  0  0  0  0  0  0  0  0  0  0  0
  152.4876  142.6061  161.1804 H   0  0  0  0  0  0  0  0  0  0  0  0
  148.9303  139.5042  156.8039 H   0  0  0  0  0  0  0  0  0  0  0  0
  146.8213  139.0841  155.5922 H   0  0  0  0  0  0  0  0  0  0  0  0
  147.9635  137.7955  155.2554 H   0  0  0  0  0  0  0  0  0  0  0  0
  147.6722  139.0472  154.0516 H   0  0  0  0  0  0  0  0  0  0  0  0
  149.6434  137.7968  153.7209 H   0  0  0  0  0  0  0  0  0  0  0  0
  152.3422  137.5799  153.3966 H   0  0  0  0  0  0  0  0  0  0  0  0
  153.3409  139.3890  155.2428 H   0  0  0  0  0  0  0  0  0  0  0  0
  149.5646  142.9554  156.1888 H   0  0  0  0  0  0  0  0  0  0  0  0
  1  2  1  0  0  0  0
  1 18  1  0  0  0  0
  1 19  1  0  0  0  0
  1 20  1  0  0  0  0
  2  3  1  0  0  0  0
  2 11  1  0  0  0  0
  2 21  1  0  0  0  0
  3  4  1  0  0  0  0
  3 22  1  0  0  0  0
  3 41  1  0  0  0  0
  4  5  1  0  0  0  0
  4 23  1  0  0  0  0
  4 24  1  0  0  0  0
  5 10  1  0  0  0  0
  5  6  1  0  0  0  0
  5 25  1  0  0  0  0
  6  7  1  0  0  0  0
  6 26  1  0  0  0  0
  6 27  1  0  0  0  0
  7  8  1  0  0  0  0
  7 28  1  0  0  0  0
  7 29  1  0  0  0  0
  8  9  1  0  0  0  0
  8 30  1  0  0  0  0
  8 31  1  0  0  0  0
  9 10  1  0  0  0  0
  9 32  1  0  0  0  0
  9 33  1  0  0  0  0
 11 12  1  0  0  0  0
 11 13  1  0  0  0  0
 11 34  1  0  0  0  0
 12 35  1  0  0  0  0
 12 36  1  0  0  0  0
 12 37  1  0  0  0  0
 13 17  1  0  0  0  0
 13 14  1  0  0  0  0
 14 15  2  0  0  0  0
 14 38  1  0  0  0  0
 15 16  1  0  0  0  0
 15 39  1  0  0  0  0
 16 17  2  0  0  0  0
 16 40  1  0  0  0  0
M  CHG  1   3   1
M  END
> <s_m_source_file>
AV-unprocessed.smi

> <i_m_source_file_index>
3156

> <i_lp_mmshare_version>
43012

> <i_f3d_flags>
0

> <s_epik_input>
bjFbY0hdW2NIXVtjSF1uMVtDQEBIXShbQ0gzXSlbQ0BIXShbQ0gzXSlbTkhdW0NIMl1bQ0BASF0yW0NIMl1bQ0gyXVtDSDJdW0NIMl1PMg==

> <s_epik_cmdline>
J2VwaWtfcHl0aG9uJywgJy1waCcsICc3LjAnLCAnLXRuJywgJzgnLCAnLW1hJywgJzIwMCcsICctbWV0YWxfYmluZGluZycsICctaW1hZScsICc8aW5maWxlLm1hZT4nLCAnLW9tYWUnLCAnPG91dGZpbGUubWFlPic=

> <r_lp_tautomer_probability>
1

> <r_epik_Ionization_Penalty>
0.00658015

> <r_epik_Ionization_Penalty_Charging>
0.00656881

> <r_epik_Ionization_Penalty_Neutral>
1.13431e-05

> <r_epik_State_Penalty>
0.0048654

> <r_epik_Charging_Adjusted_Penalty>
0.0114342

> <i_epik_Tot_Q>
1

> <i_epik_Tot_abs_Q>
1

> <r_epik_Metal_State_Penalty>
-0

> <b_epik_Metal_Only>
0

> <s_lp_Force_Field>
OPLS_2005

> <r_lp_Energy>
21.7915

> <b_lp_Chiralities_Consistent>
1

> <s_lp_Variant>
AV-unprocessed.smi:3156-7

> <Gold.Version>
5.8.1

> <Gold.Id.Protein>
6NUR|6NUR_protein|mol2

> <Gold.PLP.Fitness>
46.4598

> <Gold.PLP.PLP>
-37.9658

> <Gold.PLP.part.hbond>
-1.3742

> <Gold.PLP.part.metal>
0.0000

> <Gold.PLP.part.buried>
-3.9562

> <Gold.PLP.part.nonpolar>
-33.0286

> <Gold.PLP.part.repulsive>
0.0898

> <Gold.PLP.ligand.clash>
0.0000

> <Gold.PLP.ligand.torsion>
0.2943

> <Gold.PLP.Chemscore.Hbond>
2.0000

> <Gold.PLP.Chemscore.CHOScore>
0.9995

> <Gold.PLP.Chemscore.Metal>
0.0000

> <Gold.Chemscore.Hbonds>
donor molecule, donor type, donor heavy atom, donor atom, acceptor molecule, acceptor atom, score
      L1  H     3    41       P1  8028  2.00
      L1  C    14    38       P1  7948  1.00

> <Gold.PLP.Chemscore.Internal.Correction>
0.0842

> <Gold.Rescore>
     Score         DG    S(hbond)    S(metal)    S(lipo)     H(rot)  DE(clash)    DE(int)     intcor
     14.09     -17.24       0.99        0.00     107.00       1.59       0.01       3.14       ----

> <Gold.Chemscore.Fitness>
14.0901

> <Gold.Chemscore.DG>
-17.2419

> <Gold.Chemscore.ZeroCoef>
-5.4800

> <Gold.Chemscore.Hbond>
0.9948

> <Gold.Chemscore.Metal>
0.0000

> <Gold.Chemscore.Lipo>
107.0048

> <Gold.Chemscore.Internal_Hbond>
0.0000

> <Gold.Chemscore.DEClash>
0.0140

> <Gold.Chemscore.DEInternal>
3.1377

> <Gold.Chemscore.Rot>
1.5938

> <Gold.Chemscore.Internal.Correction>
   9.000000E+99

> <Gold.Chemscore.Hbonds>
donor molecule, donor type, donor heavy atom, donor atom, acceptor molecule, acceptor atom, score
      L1  H     3    41       P1  8028  0.98

> <Gold.Chemscore.Hbond.Weighted>
-3.3226

> <Gold.Chemscore.Metal.Weighted>
-0.0000

> <Gold.Chemscore.Lipo.Weighted>
-12.5196

> <Gold.Chemscore.Internal_Hbond.Weighted>
0.0000

> <Gold.Chemscore.DEClash.Weighted>
0.0140

> <Gold.Chemscore.DEInternal.Weighted>
3.1377

> <Gold.Chemscore.Rot.Weighted>
4.0802

> <Gold.Chemscore.Internal.Correction.Weighted>
   9.000000E+99

> <Gold.Protein.RotatedTorsions>
[ 6907 6896 6895 6894 ] final  -84.99 input  -60.11 | X-H torsion
[ 7974 7965 7964 7962 ] final  -77.86 input  175.53 | X-H torsion
[ 8008 7997 7996 7995 ] final   22.10 input   59.86 | X-H torsion
[ 10167 10162 10161 10158 ] final -102.55 input  -65.29 | X-H torsion
[ 10718 10713 10712 10709 ] final  -63.18 input   66.30 | X-H torsion
[ 10763 10752 10751 10750 ] final  -71.30 input  -60.55 | X-H torsion
[ 11005 11000 10999 10996 ] final -124.08 input  -57.11 | X-H torsion

> <Gold.Protein.ActiveResidues>
 VAL166  LYS551  ARG553  GLY616  TRP617  ASP618  TYR619  PRO620  LYS621  CYS622 
 ASP623  PHE694  ASN695  SER759  ASP760  ASP761  ALA762  ILE779  LEU786  VAL792 
 PHE793  MET794  SER795  GLU796  ALA797  LYS798  CYS799  TRP800  GLU811  SER814 

> <Gold.Protein.RotatedAtoms>
  150.6873  134.3273  159.4811 H   0  0  0  0  0  0  0  0  0  0  0  0  # atno 6907 bound_to 6896
  152.1141  134.9250  160.0575 H   0  0  0  0  0  0  0  0  0  0  0  0  # atno 6908 bound_to 6896
  152.0481  133.3972  159.4402 H   0  0  0  0  0  0  0  0  0  0  0  0  # atno 6909 bound_to 6896
  145.5941  140.9423  143.1276 H   0  0  0  0  0  0  0  0  0  0  0  0  # atno 7974 bound_to 7965
  154.9606  140.3077  155.5032 H   0  0  0  0  0  0  0  0  0  0  0  0  # atno 8008 bound_to 7997
  156.2977  140.2302  156.4630 H   0  0  0  0  0  0  0  0  0  0  0  0  # atno 8009 bound_to 7997
  154.7968  140.0436  157.1231 H   0  0  0  0  0  0  0  0  0  0  0  0  # atno 8010 bound_to 7997
  140.2295  143.3617  152.0899 H   0  0  0  0  0  0  0  0  0  0  0  0  # atno 10167 bound_to 10162
  156.0807  130.4218  150.1241 H   0  0  0  0  0  0  0  0  0  0  0  0  # atno 10718 bound_to 10713
  154.4298  135.5966  153.6061 H   0  0  0  0  0  0  0  0  0  0  0  0  # atno 10763 bound_to 10752
  152.9798  135.5972  154.3853 H   0  0  0  0  0  0  0  0  0  0  0  0  # atno 10764 bound_to 10752
  154.3689  135.2841  155.2256 H   0  0  0  0  0  0  0  0  0  0  0  0  # atno 10765 bound_to 10752
  140.9869  134.0594  157.3700 H   0  0  0  0  0  0  0  0  0  0  0  0  # atno 11005 bound_to 11000
  144.7338  139.7645  143.7337 LP  0  0  0  0  0  0  0  0  0  0  0  0  # atno 17320 bound_to 7965
  146.1625  139.4745  142.9979 LP  0  0  0  0  0  0  0  0  0  0  0  0  # atno 17321 bound_to 7965
  139.5115  144.6902  151.5781 LP  0  0  0  0  0  0  0  0  0  0  0  0  # atno 17342 bound_to 10162
  140.6196  143.9284  150.6515 LP  0  0  0  0  0  0  0  0  0  0  0  0  # atno 17343 bound_to 10162
  156.9273  130.9702  151.3539 LP  0  0  0  0  0  0  0  0  0  0  0  0  # atno 17370 bound_to 10713
  157.5922  130.8452  149.8676 LP  0  0  0  0  0  0  0  0  0  0  0  0  # atno 17371 bound_to 10713
  139.8974  135.0150  156.7101 LP  0  0  0  0  0  0  0  0  0  0  0  0  # atno 17394 bound_to 11000
  140.7101  133.9231  155.8079 LP  0  0  0  0  0  0  0  0  0  0  0  0  # atno 17395 bound_to 11000

$$$$
