AV-unprocessed.smi:3068|AV-procd|sdf|11705|dock3
  -GOLD-   2272017103D 1   1.00000     0.00000
 Structure written by MMmdl.
 40 42  0  0  0  0  0  0  0  0  2 V2000
  150.8639  142.4836  156.7803 N   0  0  0  0  0  0  0  0  0  0  0  0
  151.0202  141.4725  156.2394 C   0  0  0  0  0  0  0  0  0  0  0  0
  151.2176  140.2002  155.5567 C   0  0  0  0  0  0  0  0  0  0  0  0
  152.4975  139.8257  155.3272 N   0  0  0  0  0  0  0  0  0  0  0  0
  152.6939  138.6507  154.6926 C   0  0  0  0  0  0  0  0  0  0  0  0
  151.6142  137.8447  154.2824 C   0  0  0  0  0  0  0  0  0  0  0  0
  150.3342  138.2108  154.5060 N   0  0  0  0  0  0  0  0  0  0  0  0
  150.1223  139.3892  155.1443 C   0  0  0  0  0  0  0  0  0  0  0  0
  148.7934  139.7838  155.3880 N   0  0  0  0  0  0  0  0  0  0  0  0
  147.7041  138.8188  155.4777 C   0  0  0  0  0  0  0  0  0  0  0  0
  147.4741  138.0680  154.1551 C   0  0  1  0  0  0  0  0  0  0  0  0
  147.0450  136.6099  154.3985 C   0  0  0  0  0  0  0  0  0  0  0  0
  146.7596  135.9297  153.1143 N   0  3  1  0  0  0  0  0  0  0  0  0
  146.3830  134.5055  153.2996 C   0  0  0  0  0  0  0  0  0  0  0  0
  146.1866  133.8051  151.9459 C   0  0  0  0  0  0  0  0  0  0  0  0
  145.1467  134.5452  151.0947 C   0  0  0  0  0  0  0  0  0  0  0  0
  145.5453  136.0193  150.9417 C   0  0  0  0  0  0  0  0  0  0  0  0
  145.7582  136.6868  152.3148 C   0  0  2  0  0  0  0  0  0  0  0  0
  146.2087  138.1529  152.1616 C   0  0  0  0  0  0  0  0  0  0  0  0
  146.4320  138.7267  153.4432 O   0  0  0  0  0  0  0  0  0  0  0  0
  153.7159  138.3528  154.5105 H   0  0  0  0  0  0  0  0  0  0  0  0
  151.7776  136.9058  153.7745 H   0  0  0  0  0  0  0  0  0  0  0  0
  148.5643  140.7677  155.4027 H   0  0  0  0  0  0  0  0  0  0  0  0
  147.9093  138.1144  156.2846 H   0  0  0  0  0  0  0  0  0  0  0  0
  146.7963  139.3501  155.7645 H   0  0  0  0  0  0  0  0  0  0  0  0
  148.3897  138.0785  153.5612 H   0  0  0  0  0  0  0  0  0  0  0  0
  147.8358  136.0741  154.9250 H   0  0  0  0  0  0  0  0  0  0  0  0
  146.1581  136.5787  155.0336 H   0  0  0  0  0  0  0  0  0  0  0  0
  147.1623  133.9930  153.8651 H   0  0  0  0  0  0  0  0  0  0  0  0
  145.4678  134.4426  153.8907 H   0  0  0  0  0  0  0  0  0  0  0  0
  147.1373  133.7646  151.4125 H   0  0  0  0  0  0  0  0  0  0  0  0
  145.8744  132.7719  152.1018 H   0  0  0  0  0  0  0  0  0  0  0  0
  145.0582  134.0749  150.1149 H   0  0  0  0  0  0  0  0  0  0  0  0
  144.1653  134.4745  151.5656 H   0  0  0  0  0  0  0  0  0  0  0  0
  146.4601  136.0880  150.3509 H   0  0  0  0  0  0  0  0  0  0  0  0
  144.7759  136.5516  150.3811 H   0  0  0  0  0  0  0  0  0  0  0  0
  144.8120  136.6745  152.8593 H   0  0  0  0  0  0  0  0  0  0  0  0
  147.1141  138.2271  151.5568 H   0  0  0  0  0  0  0  0  0  0  0  0
  145.4387  138.7321  151.6513 H   0  0  0  0  0  0  0  0  0  0  0  0
  147.6193  135.9368  152.5843 H   0  0  0  0  0  0  0  0  0  0  0  0
  1  2  3  0  0  0  0
  2  3  1  0  0  0  0
  3  8  1  0  0  0  0
  3  4  2  0  0  0  0
  4  5  1  0  0  0  0
  5  6  2  0  0  0  0
  5 21  1  0  0  0  0
  6  7  1  0  0  0  0
  6 22  1  0  0  0  0
  7  8  2  0  0  0  0
  8  9  1  0  0  0  0
  9 10  1  0  0  0  0
  9 23  1  0  0  0  0
 10 11  1  0  0  0  0
 10 24  1  0  0  0  0
 10 25  1  0  0  0  0
 11 20  1  0  0  0  0
 11 12  1  0  0  0  0
 11 26  1  0  0  0  0
 12 13  1  0  0  0  0
 12 27  1  0  0  0  0
 12 28  1  0  0  0  0
 13 18  1  0  0  0  0
 13 14  1  0  0  0  0
 13 40  1  0  0  0  0
 14 15  1  0  0  0  0
 14 29  1  0  0  0  0
 14 30  1  0  0  0  0
 15 16  1  0  0  0  0
 15 31  1  0  0  0  0
 15 32  1  0  0  0  0
 16 17  1  0  0  0  0
 16 33  1  0  0  0  0
 16 34  1  0  0  0  0
 17 18  1  0  0  0  0
 17 35  1  0  0  0  0
 17 36  1  0  0  0  0
 18 19  1  0  0  0  0
 18 37  1  0  0  0  0
 19 20  1  0  0  0  0
 19 38  1  0  0  0  0
 19 39  1  0  0  0  0
M  CHG  1  13   1
M  END
> <s_m_source_file>
AV-unprocessed.smi

> <i_m_source_file_index>
3068

> <i_lp_mmshare_version>
43012

> <i_f3d_flags>
0

> <s_epik_input>
TiNDYzFuW2NIXVtjSF1uYzFbTkhdW0NIMl1bQ0BIXShbQ0gyXTIpT1tDSDJdW0NAQEhdKE4yMylbQ0gyXVtDSDJdW0NIMl1bQ0gyXTM=

> <s_epik_cmdline>
J2VwaWtfcHl0aG9uJywgJy1waCcsICc3LjAnLCAnLXRuJywgJzgnLCAnLW1hJywgJzIwMCcsICctbWV0YWxfYmluZGluZycsICctaW1hZScsICc8aW5maWxlLm1hZT4nLCAnLW9tYWUnLCAnPG91dGZpbGUubWFlPic=

> <r_epik_Ionization_Penalty>
0.0804321

> <r_epik_Ionization_Penalty_Charging>
0.0803403

> <r_epik_Ionization_Penalty_Neutral>
9.17277e-05

> <r_epik_State_Penalty>
0.0711481

> <r_epik_Charging_Adjusted_Penalty>
0.151488

> <i_epik_Tot_Q>
1

> <i_epik_Tot_abs_Q>
1

> <r_epik_Metal_State_Penalty>
0.0711481

> <b_epik_Metal_Only>
0

> <s_lp_Force_Field>
OPLS_2005

> <r_lp_Energy>
36.4506

> <b_lp_Chiralities_Consistent>
1

> <s_lp_Variant>
AV-unprocessed.smi:3068-8

> <Gold.Version>
5.8.1

> <Gold.Id.Protein>
6NUR|6NUR_protein|mol2

> <Gold.PLP.Fitness>
42.4679

> <Gold.PLP.PLP>
-31.8317

> <Gold.PLP.part.hbond>
-2.9461

> <Gold.PLP.part.metal>
0.0000

> <Gold.PLP.part.buried>
-3.4561

> <Gold.PLP.part.nonpolar>
-26.8415

> <Gold.PLP.part.repulsive>
0.5575

> <Gold.PLP.ligand.clash>
0.0000

> <Gold.PLP.ligand.torsion>
0.6153

> <Gold.PLP.Chemscore.Hbond>
2.9588

> <Gold.PLP.Chemscore.CHOScore>
0.9947

> <Gold.PLP.Chemscore.Metal>
0.0000

> <Gold.Chemscore.Hbonds>
donor molecule, donor type, donor heavy atom, donor atom, acceptor molecule, acceptor atom, score
      L1  H    13    40       P1  7948  2.00
      P1  H  7997  8009       L1     4  0.96
      L1  C     6    22       P1  7949  0.99

> <Gold.PLP.Chemscore.Internal.Correction>
0.0063

> <Gold.Rescore>
     Score         DG    S(hbond)    S(metal)    S(lipo)     H(rot)  DE(clash)    DE(int)     intcor
     13.51     -15.60       1.97        0.00      59.21       1.32       0.04       2.05       ----

> <Gold.Chemscore.Fitness>
13.5099

> <Gold.Chemscore.DG>
-15.5951

> <Gold.Chemscore.ZeroCoef>
-5.4800

> <Gold.Chemscore.Hbond>
1.9655

> <Gold.Chemscore.Metal>
0.0000

> <Gold.Chemscore.Lipo>
59.2104

> <Gold.Chemscore.Internal_Hbond>
0.0000

> <Gold.Chemscore.DEClash>
0.0354

> <Gold.Chemscore.DEInternal>
2.0499

> <Gold.Chemscore.Rot>
1.3193

> <Gold.Chemscore.Internal.Correction>
   9.000000E+99

> <Gold.Chemscore.Hbonds>
donor molecule, donor type, donor heavy atom, donor atom, acceptor molecule, acceptor atom, score
      L1  H    13    40       P1  7948  0.93
      P1  H  7997  8009       L1     4  0.23

> <Gold.Chemscore.Hbond.Weighted>
-6.5649

> <Gold.Chemscore.Metal.Weighted>
-0.0000

> <Gold.Chemscore.Lipo.Weighted>
-6.9276

> <Gold.Chemscore.Internal_Hbond.Weighted>
0.0000

> <Gold.Chemscore.DEClash.Weighted>
0.0354

> <Gold.Chemscore.DEInternal.Weighted>
2.0499

> <Gold.Chemscore.Rot.Weighted>
3.3774

> <Gold.Chemscore.Internal.Correction.Weighted>
   9.000000E+99

> <Gold.Protein.RotatedTorsions>
[ 6907 6896 6895 6894 ] final -178.97 input  -60.11 | X-H torsion
[ 7974 7965 7964 7962 ] final  -42.58 input  175.53 | X-H torsion
[ 8008 7997 7996 7995 ] final -140.41 input   59.86 | X-H torsion
[ 10167 10162 10161 10158 ] final   61.34 input  -65.29 | X-H torsion
[ 10718 10713 10712 10709 ] final  -52.20 input   66.30 | X-H torsion
[ 10763 10752 10751 10750 ] final  170.32 input  -60.55 | X-H torsion
[ 11005 11000 10999 10996 ] final  130.18 input  -57.11 | X-H torsion

> <Gold.Protein.ActiveResidues>
 VAL166  LYS551  ARG553  GLY616  TRP617  ASP618  TYR619  PRO620  LYS621  CYS622 
 ASP623  PHE694  ASN695  SER759  ASP760  ASP761  ALA762  ILE779  LEU786  VAL792 
 PHE793  MET794  SER795  GLU796  ALA797  LYS798  CYS799  TRP800  GLU811  SER814 

> <Gold.Protein.RotatedAtoms>
  151.6458  133.3323  159.3140 H   0  0  0  0  0  0  0  0  0  0  0  0  # atno 6907 bound_to 6896
  150.7985  134.7065  159.6589 H   0  0  0  0  0  0  0  0  0  0  0  0  # atno 6908 bound_to 6896
  152.4075  134.6187  160.0096 H   0  0  0  0  0  0  0  0  0  0  0  0  # atno 6909 bound_to 6896
  146.0102  140.6973  142.9228 H   0  0  0  0  0  0  0  0  0  0  0  0  # atno 7974 bound_to 7965
  155.4608  140.0545  157.2991 H   0  0  0  0  0  0  0  0  0  0  0  0  # atno 8008 bound_to 7997
  154.4738  140.2052  155.9883 H   0  0  0  0  0  0  0  0  0  0  0  0  # atno 8009 bound_to 7997
  156.1099  140.3206  155.8062 H   0  0  0  0  0  0  0  0  0  0  0  0  # atno 8010 bound_to 7997
  140.1558  144.4418  150.6735 H   0  0  0  0  0  0  0  0  0  0  0  0  # atno 10167 bound_to 10162
  156.1642  130.4149  149.9746 H   0  0  0  0  0  0  0  0  0  0  0  0  # atno 10718 bound_to 10713
  154.3960  135.2754  155.2126 H   0  0  0  0  0  0  0  0  0  0  0  0  # atno 10763 bound_to 10752
  154.4172  135.6008  153.5991 H   0  0  0  0  0  0  0  0  0  0  0  0  # atno 10764 bound_to 10752
  152.9831  135.5964  154.4221 H   0  0  0  0  0  0  0  0  0  0  0  0  # atno 10765 bound_to 10752
  139.9657  134.9591  156.9256 H   0  0  0  0  0  0  0  0  0  0  0  0  # atno 11005 bound_to 11000
  144.6950  140.3385  143.7203 LP  0  0  0  0  0  0  0  0  0  0  0  0  # atno 17320 bound_to 7965
  145.7353  139.1748  143.2407 LP  0  0  0  0  0  0  0  0  0  0  0  0  # atno 17321 bound_to 7965
  140.6674  143.2273  151.5710 LP  0  0  0  0  0  0  0  0  0  0  0  0  # atno 17342 bound_to 10162
  139.5404  144.2663  152.1339 LP  0  0  0  0  0  0  0  0  0  0  0  0  # atno 17343 bound_to 10162
  156.7566  130.9135  151.3640 LP  0  0  0  0  0  0  0  0  0  0  0  0  # atno 17370 bound_to 10713
  157.6755  130.9091  150.0141 LP  0  0  0  0  0  0  0  0  0  0  0  0  # atno 17371 bound_to 10713
  140.5401  134.0728  155.7339 LP  0  0  0  0  0  0  0  0  0  0  0  0  # atno 17394 bound_to 11000
  141.1337  133.9259  157.2481 LP  0  0  0  0  0  0  0  0  0  0  0  0  # atno 17395 bound_to 11000

$$$$
