#       Name:                AV-unprocessed.smi:1720
#       Creating user name   scv26
#       Creation time:       Fri Mar 27 08:14:27 2020


#       File generated by GOLD software.
#

@<TRIPOS>MOLECULE
AV-unprocessed.smi:1720
    37    38     1
SMALL
NO_CHARGES


@<TRIPOS>ATOM
      1 ****        -1.8715  -1.3224  -2.1181 C.3            1 S1                 0.0000
      2 ****        -1.3598  -0.5558  -0.8898 C.3            1 S1                 0.0000
      3 ****         0.0988  -0.4794  -0.9577 N.am           1 S1                 0.0000
      4 ****         0.8376   0.6244  -0.7732 C.2            1 S1                 0.0000
      5 ****         0.3635   1.7295  -0.5096 O.2            1 S1                 0.0000
      6 ****         2.1473   0.3600  -0.9080 N.am           1 S1                 0.0000
      7 ****         3.2268   1.2707  -0.7825 C.2            1 S1                 0.0000
      8 ****         4.5988   0.9222  -0.9102 C.2            1 S1                 0.0000
      9 ****         5.3834   1.9772  -0.7437 N.2            1 S1                 0.0000
     10 ****         4.5252   2.9964  -0.5129 N.pl3          1 S1                 0.0000
     11 ****         3.2022   2.6134  -0.5282 C.2            1 S1                 0.0000
     12 ****        -1.8057  -1.2198   0.4295 C.3            1 S1                 0.0000
     13 ****        -1.3385  -0.5096   1.7027 C.3            1 S1                 0.0000
     14 ****        -2.3709  -0.9679   2.7060 C.3            1 S1                 0.0000
     15 ****        -3.6421  -0.9591   1.8634 C.3            1 S1                 0.0000
     16 ****        -3.2288  -1.2317   0.5269 O.3            1 S1                 0.0000
     17 ****         4.8539   3.9372  -0.3476 H              1 S1                 0.0000
     18 ****        -2.9611  -1.3612  -2.1321 H              1 S1                 0.0000
     19 ****        -1.5021  -2.3485  -2.1300 H              1 S1                 0.0000
     20 ****        -1.5506  -0.8413  -3.0427 H              1 S1                 0.0000
     21 ****        -1.7869   0.4479  -0.9303 H              1 S1                 0.0000
     22 ****         0.5831  -1.3400  -1.1675 H              1 S1                 0.0000
     23 ****         2.3997  -0.5943  -1.1192 H              1 S1                 0.0000
     24 ****         5.0425  -0.0415  -1.1131 H              1 S1                 0.0000
     25 ****         2.3960   3.3124  -0.3620 H              1 S1                 0.0000
     26 ****        -1.4659  -2.2567   0.4608 H              1 S1                 0.0000
     27 ****        -0.3193  -0.7715   1.9882 H              1 S1                 0.0000
     28 ****        -1.3929   0.5735   1.5827 H              1 S1                 0.0000
     29 ****        -2.1451  -1.9820   3.0389 H              1 S1                 0.0000
     30 ****        -2.4358  -0.3241   3.5837 H              1 S1                 0.0000
     31 ****        -4.3761  -1.6863   2.2105 H              1 S1                 0.0000
     32 ****        -4.1067   0.0273   1.8857 H              1 S1                 0.0000
     33 ****        -0.6264   1.8409  -0.4218 LP             1 S1                 0.0000
     34 ****         0.9683   2.5158  -0.3833 LP             1 S1                 0.0000
     35 ****         6.3822   2.0117  -0.7804 LP             1 S1                 0.0000
     36 ****        -3.5694  -2.1316   0.2546 LP             1 S1                 0.0000
     37 ****        -3.6058  -0.5342  -0.0825 LP             1 S1                 0.0000
@<TRIPOS>BOND
    1    1    2 1     
    2    1   18 1     
    3    1   19 1     
    4    1   20 1     
    5    2    3 1     
    6    2   12 1     
    7    2   21 1     
    8    3    4 am    
    9    3   22 1     
   10    4    5 2     
   11    4    6 am    
   12    6    7 1     
   13    6   23 1     
   14    7   11 2     
   15    7    8 1     
   16    8    9 2     
   17    8   24 1     
   18    9   10 1     
   19   10   17 1     
   20   10   11 1     
   21   11   25 1     
   22   12   16 1     
   23   12   13 1     
   24   12   26 1     
   25   13   14 1     
   26   13   27 1     
   27   13   28 1     
   28   14   15 1     
   29   14   29 1     
   30   14   30 1     
   31   15   16 1     
   32   15   31 1     
   33   15   32 1     
   34    5   33 1     
   35    5   34 1     
   36    9   35 1     
   37   16   36 1     
   38   16   37 1     
@<TRIPOS>SUBSTRUCTURE
      1 S1             1
@<TRIPOS>SET
LONE_PAIRS      STATIC     ATOMS    <user>   **** ""
5 33 34 35 36 37
DONOR_HYDROGENS      STATIC     ATOMS    <user>   **** ""
3 22 23 17
ATOM$BLUE        STATIC     ATOMS    COLORGROUP SYSTEM
5 33 34 35 36 37
ATOM$RED        STATIC     ATOMS    COLORGROUP SYSTEM
3 22 23 17
