#       Name:                AV-unprocessed.smi:12
#       Creating user name   scv26
#       Creation time:       Thu Mar 26 15:18:33 2020


#       File generated by GOLD software.
#

@<TRIPOS>MOLECULE
AV-unprocessed.smi:12
    52    55     1
SMALL
NO_CHARGES


@<TRIPOS>ATOM
      1 ****        -3.3566   5.8704  -0.6050 C.3            1 S1                 0.0000
      2 ****        -3.2266   4.3924  -0.9275 C.2            1 S1                 0.0000
      3 ****        -2.8457   3.4910   0.0081 C.2            1 S1                 0.0000
      4 ****        -2.7381   2.1724  -0.3352 N.pl3          1 S1                 0.0000
      5 ****        -3.0473   1.7635  -1.6524 C.2            1 S1                 0.0000
      6 ****        -3.4197   2.5644  -2.6019 N.2            1 S1                 0.0000
      7 ****        -3.5267   3.9376  -2.3085 C.2            1 S1                 0.0000
      8 ****        -3.8652   4.7373  -3.1799 O.2            1 S1                 0.0000
      9 ****        -2.9026   0.4117  -1.7435 O.3            1 S1                 0.0000
     10 ****        -2.4608  -0.1077  -0.4809 C.3            1 S1                 0.0000
     11 ****        -1.0385  -0.6741  -0.5180 C.3            1 S1                 0.0000
     12 ****        -0.3244  -0.2547  -1.6681 O.3            1 S1                 0.0000
     13 ****        -0.4081  -0.0890   0.7548 C.3            1 S1                 0.0000
     14 ****         1.1236   0.0340   0.7805 C.3            1 S1                 0.0000
     15 ****         1.7052  -1.2599   0.7784 O.3            1 S1                 0.0000
     16 ****         3.0462  -1.3939   0.7848 C.2            1 S1                 0.0000
     17 ****         3.8269  -0.4399   0.7847 O.2            1 S1                 0.0000
     18 ****         3.4891  -2.8181   0.7947 C.ar           1 S1                 0.0000
     19 ****         4.8726  -3.1121   0.8133 C.ar           1 S1                 0.0000
     20 ****         5.3228  -4.4465   0.8273 C.ar           1 S1                 0.0000
     21 ****         4.3946  -5.5038   0.8221 C.ar           1 S1                 0.0000
     22 ****         3.0156  -5.2248   0.8025 C.ar           1 S1                 0.0000
     23 ****         2.5633  -3.8907   0.7884 C.ar           1 S1                 0.0000
     24 ****        -1.0234   1.1847   0.8803 O.3            1 S1                 0.0000
     25 ****        -2.3626   1.0520   0.5268 C.3            1 S1                 0.0000
     26 ****        -3.1119   6.0713   0.4384 H              1 S1                 0.0000
     27 ****        -4.3765   6.2126  -0.7835 H              1 S1                 0.0000
     28 ****        -2.6815   6.4578  -1.2281 H              1 S1                 0.0000
     29 ****        -2.6209   3.7981   1.0191 H              1 S1                 0.0000
     30 ****        -3.1706  -0.8414  -0.0969 H              1 S1                 0.0000
     31 ****        -1.0394  -1.7644  -0.4979 H              1 S1                 0.0000
     32 ****         0.5520  -0.6055  -1.6234 H              1 S1                 0.0000
     33 ****        -0.7295  -0.6844   1.6117 H              1 S1                 0.0000
     34 ****         1.4828   0.6171  -0.0684 H              1 S1                 0.0000
     35 ****         1.4321   0.5610   1.6844 H              1 S1                 0.0000
     36 ****         5.6042  -2.3169   0.8182 H              1 S1                 0.0000
     37 ****         6.3817  -4.6586   0.8431 H              1 S1                 0.0000
     38 ****         4.7398  -6.5271   0.8337 H              1 S1                 0.0000
     39 ****         2.3026  -6.0359   0.7992 H              1 S1                 0.0000
     40 ****         1.4980  -3.7117   0.7736 H              1 S1                 0.0000
     41 ****        -3.0750   1.0323   1.3522 H              1 S1                 0.0000
     42 ****        -3.6252   2.2167  -3.5167 LP             1 S1                 0.0000
     43 ****        -3.9418   5.7105  -2.9630 LP             1 S1                 0.0000
     44 ****        -4.0638   4.4142  -4.1052 LP             1 S1                 0.0000
     45 ****        -2.2266   0.1954  -2.4480 LP             1 S1                 0.0000
     46 ****        -3.7803  -0.0020  -1.9856 LP             1 S1                 0.0000
     47 ****        -0.2865   0.7442  -1.6955 LP             1 S1                 0.0000
     48 ****        -0.7814  -0.5935  -2.4906 LP             1 S1                 0.0000
     49 ****         3.4733   0.4955   0.7796 LP             1 S1                 0.0000
     50 ****         4.8137  -0.6014   0.7896 LP             1 S1                 0.0000
     51 ****        -0.5751   1.8396   0.2719 LP             1 S1                 0.0000
     52 ****        -0.9519   1.5045   1.8250 LP             1 S1                 0.0000
@<TRIPOS>BOND
    1    1    2 1     
    2    1   26 1     
    3    1   27 1     
    4    1   28 1     
    5    2    7 1     
    6    2    3 2     
    7    3    4 1     
    8    3   29 1     
    9    4   25 1     
   10    4    5 1     
   11    5    6 2     
   12    5    9 1     
   13    6    7 1     
   14    7    8 2     
   15    9   10 1     
   16   10   25 1     
   17   10   11 1     
   18   10   30 1     
   19   11   12 1     
   20   11   13 1     
   21   11   31 1     
   22   12   32 1     
   23   13   14 1     
   24   13   24 1     
   25   13   33 1     
   26   14   15 1     
   27   14   34 1     
   28   14   35 1     
   29   15   16 1     
   30   16   17 2     
   31   16   18 1     
   32   18   23 ar    
   33   18   19 ar    
   34   19   20 ar    
   35   19   36 1     
   36   20   21 ar    
   37   20   37 1     
   38   21   22 ar    
   39   21   38 1     
   40   22   23 ar    
   41   22   39 1     
   42   23   40 1     
   43   24   25 1     
   44   25   41 1     
   45    6   42 1     
   46    8   43 1     
   47    8   44 1     
   48    9   45 1     
   49    9   46 1     
   50   12   47 1     
   51   12   48 1     
   52   17   49 1     
   53   17   50 1     
   54   24   51 1     
   55   24   52 1     
@<TRIPOS>SUBSTRUCTURE
      1 S1             1
@<TRIPOS>SET
LONE_PAIRS      STATIC     ATOMS    <user>   **** ""
11 42 43 44 45 46 47 48 49 50 51 52
DONOR_HYDROGENS      STATIC     ATOMS    <user>   **** ""
1 32
ATOM$BLUE        STATIC     ATOMS    COLORGROUP SYSTEM
11 42 43 44 45 46 47 48 49 50 51 52
ATOM$RED        STATIC     ATOMS    COLORGROUP SYSTEM
1 32
