AV-unprocessed.smi:26|AV-procd|sdf|186|dock6
  -GOLD-   2262015453D 1   1.00000     0.00000
 Structure written by MMmdl.
 58 61  0  0  0  0  0  0  0  0  1 V2000
  148.2445  141.7934  156.9822 C   0  0  0  0  0  0  0  0  0  0  0  0
  148.9945  140.5782  157.4284 C   0  0  0  0  0  0  0  0  0  0  0  0
  148.5027  139.4238  157.9595 C   0  0  0  0  0  0  0  0  0  0  0  0
  149.5904  138.5548  158.2417 C   0  0  0  0  0  0  0  0  0  0  0  0
  149.5508  137.1996  158.8505 C   0  0  0  0  0  0  0  0  0  0  0  0
  150.4603  136.7450  159.5464 O   0  0  0  0  0  0  0  0  0  0  0  0
  148.2829  136.3723  158.5653 C   0  0  0  0  0  0  0  0  0  0  0  0
  147.9436  135.4554  159.6471 N   0  0  0  0  0  0  0  0  0  0  0  0
  147.6391  136.0129  160.9145 C   0  0  0  0  0  0  0  0  0  0  0  0
  147.6535  137.2286  161.1157 O   0  0  0  0  0  0  0  0  0  0  0  0
  147.3267  135.0328  161.9489 C   0  0  0  0  0  0  0  0  0  0  0  0
  147.0258  135.4499  163.1905 F   0  0  0  0  0  0  0  0  0  0  0  0
  147.3389  133.7092  161.6820 C   0  0  0  0  0  0  0  0  0  0  0  0
  147.6416  133.1922  160.4337 N   0  0  0  0  0  0  0  0  0  0  0  0
  147.6643  131.7000  160.1898 C   0  0  1  0  0  0  0  0  0  0  0  0
  147.4736  130.9442  161.5099 C   0  0  0  0  0  0  0  0  0  0  0  0
  145.9872  130.6588  161.4979 C   0  0  0  0  0  0  0  0  0  0  0  0
  145.7273  130.4496  160.0109 C   0  0  0  0  0  0  0  0  0  0  0  0
  146.5994  131.3608  159.3482 O   0  0  0  0  0  0  0  0  0  0  0  0
  147.9727  134.0660  159.3749 C   0  0  0  0  0  0  0  0  0  0  0  0
  148.2883  133.6268  158.2667 O   0  0  0  0  0  0  0  0  0  0  0  0
  150.7432  139.1990  157.8529 C   0  0  0  0  0  0  0  0  0  0  0  0
  152.1678  138.7204  157.9183 C   0  0  0  0  0  0  0  0  0  0  0  0
  150.3819  140.4613  157.3590 N   0  0  0  0  0  0  0  0  0  0  0  0
  151.2801  141.5116  156.8523 C   0  0  1  0  0  0  0  0  0  0  0  0
  150.8268  142.0178  155.4676 C   0  0  0  0  0  0  0  0  0  0  0  0
  151.5702  142.5855  157.9059 C   0  0  0  0  0  0  0  0  0  0  0  0
  151.4818  143.9480  157.5405 C   0  0  0  0  0  0  0  0  0  0  0  0
  151.7302  144.9629  158.4843 C   0  0  0  0  0  0  0  0  0  0  0  0
  152.0650  144.6258  159.8087 C   0  0  0  0  0  0  0  0  0  0  0  0
  152.1481  143.2731  160.1870 C   0  0  0  0  0  0  0  0  0  0  0  0
  151.8990  142.2578  159.2432 C   0  0  0  0  0  0  0  0  0  0  0  0
  147.1726  141.6660  157.1357 H   0  0  0  0  0  0  0  0  0  0  0  0
  148.4053  141.9849  155.9210 H   0  0  0  0  0  0  0  0  0  0  0  0
  148.5561  142.6740  157.5446 H   0  0  0  0  0  0  0  0  0  0  0  0
  147.4550  139.2293  158.1365 H   0  0  0  0  0  0  0  0  0  0  0  0
  147.4218  137.0195  158.3923 H   0  0  0  0  0  0  0  0  0  0  0  0
  148.3957  135.7907  157.6490 H   0  0  0  0  0  0  0  0  0  0  0  0
  147.1060  133.0331  162.4909 H   0  0  0  0  0  0  0  0  0  0  0  0
  148.6082  131.4822  159.6880 H   0  0  0  0  0  0  0  0  0  0  0  0
  148.0414  130.0141  161.4631 H   0  0  0  0  0  0  0  0  0  0  0  0
  147.8099  131.5207  162.3726 H   0  0  0  0  0  0  0  0  0  0  0  0
  145.7118  129.7957  162.1041 H   0  0  0  0  0  0  0  0  0  0  0  0
  145.4326  131.5244  161.8621 H   0  0  0  0  0  0  0  0  0  0  0  0
  145.9933  129.4328  159.7189 H   0  0  0  0  0  0  0  0  0  0  0  0
  144.6861  130.6207  159.7373 H   0  0  0  0  0  0  0  0  0  0  0  0
  152.2635  137.7379  157.4563 H   0  0  0  0  0  0  0  0  0  0  0  0
  152.4949  138.6364  158.9546 H   0  0  0  0  0  0  0  0  0  0  0  0
  152.8720  139.3681  157.4069 H   0  0  0  0  0  0  0  0  0  0  0  0
  152.2575  141.0673  156.6767 H   0  0  0  0  0  0  0  0  0  0  0  0
  151.5762  142.6736  155.0240 H   0  0  0  0  0  0  0  0  0  0  0  0
  149.8864  142.5657  155.5037 H   0  0  0  0  0  0  0  0  0  0  0  0
  150.6880  141.1820  154.7812 H   0  0  0  0  0  0  0  0  0  0  0  0
  151.2229  144.2213  156.5279 H   0  0  0  0  0  0  0  0  0  0  0  0
  151.6630  146.0003  158.1917 H   0  0  0  0  0  0  0  0  0  0  0  0
  152.2557  145.4035  160.5333 H   0  0  0  0  0  0  0  0  0  0  0  0
  152.4027  143.0127  161.2039 H   0  0  0  0  0  0  0  0  0  0  0  0
  151.9705  141.2303  159.5653 H   0  0  0  0  0  0  0  0  0  0  0  0
  1  2  1  0  0  0  0
  1 33  1  0  0  0  0
  1 34  1  0  0  0  0
  1 35  1  0  0  0  0
  2 24  1  0  0  0  0
  2  3  2  0  0  0  0
  3  4  1  0  0  0  0
  3 36  1  0  0  0  0
  4  5  1  0  0  0  0
  4 22  2  0  0  0  0
  5  6  2  0  0  0  0
  5  7  1  0  0  0  0
  7  8  1  0  0  0  0
  7 37  1  0  0  0  0
  7 38  1  0  0  0  0
  8 20  1  0  0  0  0
  8  9  1  0  0  0  0
  9 10  2  0  0  0  0
  9 11  1  0  0  0  0
 11 12  1  0  0  0  0
 11 13  2  0  0  0  0
 13 14  1  0  0  0  0
 13 39  1  0  0  0  0
 14 15  1  0  0  0  0
 14 20  1  0  0  0  0
 15 19  1  0  0  0  0
 15 16  1  0  0  0  0
 15 40  1  0  0  0  0
 16 17  1  0  0  0  0
 16 41  1  0  0  0  0
 16 42  1  0  0  0  0
 17 18  1  0  0  0  0
 17 43  1  0  0  0  0
 17 44  1  0  0  0  0
 18 19  1  0  0  0  0
 18 45  1  0  0  0  0
 18 46  1  0  0  0  0
 20 21  2  0  0  0  0
 22 23  1  0  0  0  0
 22 24  1  0  0  0  0
 23 47  1  0  0  0  0
 23 48  1  0  0  0  0
 23 49  1  0  0  0  0
 24 25  1  0  0  0  0
 25 26  1  0  0  0  0
 25 27  1  0  0  0  0
 25 50  1  0  0  0  0
 26 51  1  0  0  0  0
 26 52  1  0  0  0  0
 26 53  1  0  0  0  0
 27 32  1  0  0  0  0
 27 28  2  0  0  0  0
 28 29  1  0  0  0  0
 28 54  1  0  0  0  0
 29 30  2  0  0  0  0
 29 55  1  0  0  0  0
 30 31  1  0  0  0  0
 30 56  1  0  0  0  0
 31 32  2  0  0  0  0
 31 57  1  0  0  0  0
 32 58  1  0  0  0  0
M  END
> <s_m_source_file>
AV-unprocessed.smi

> <i_m_source_file_index>
26

> <i_lp_mmshare_version>
43012

> <i_f3d_flags>
0

> <s_epik_input>
W2NIXTFbY0hdW2NIXVtjSF1bY0hdYzFbQ0BASF0oW0NIM10pbjJjKFtDSDNdKWMoW2NIXWMyW0NIM10pQyg9TylbQ0gyXW4zYyg9TyljKEYpW2NIXW4oYzM9TylbQ0BASF00W0NIMl1bQ0gyXVtDSDJdTzQ=

> <s_epik_cmdline>
J2VwaWtfcHl0aG9uJywgJy1waCcsICc3LjAnLCAnLXRuJywgJzgnLCAnLW1hJywgJzIwMCcsICctbWV0YWxfYmluZGluZycsICctaW1hZScsICc8aW5maWxlLm1hZT4nLCAnLW9tYWUnLCAnPG91dGZpbGUubWFlPic=

> <r_lp_tautomer_probability>
1

> <r_epik_Ionization_Penalty>
5.02402e-09

> <r_epik_Ionization_Penalty_Charging>
5.01743e-09

> <r_epik_Ionization_Penalty_Neutral>
6.58831e-12

> <r_epik_State_Penalty>
-0

> <r_epik_Charging_Adjusted_Penalty>
5.01743e-09

> <i_epik_Tot_Q>
0

> <i_epik_Tot_abs_Q>
0

> <r_epik_Metal_State_Penalty>
-0

> <b_epik_Metal_Only>
0

> <s_epik_Chemistry_Notes>
This compound contains an acetal/aminal-like group ( X-CH(R)-Y where X, Y are N, S, or O) that may be acid/base labile, releasing an aldehyde.

> <s_lp_Force_Field>
OPLS_2005

> <r_lp_Energy>
50.594

> <b_lp_Chiralities_Consistent>
1

> <s_lp_Variant>
AV-unprocessed.smi:26-4

> <Gold.Version>
5.8.1

> <Gold.Id.Protein>
6NUR|6NUR_protein|mol2

> <Gold.PLP.Fitness>
58.5454

> <Gold.PLP.PLP>
-52.8038

> <Gold.PLP.part.hbond>
-3.0000

> <Gold.PLP.part.metal>
0.0000

> <Gold.PLP.part.buried>
-4.5968

> <Gold.PLP.part.nonpolar>
-45.4746

> <Gold.PLP.part.repulsive>
0.0000

> <Gold.PLP.ligand.clash>
0.0000

> <Gold.PLP.ligand.torsion>
1.4654

> <Gold.PLP.Chemscore.Hbond>
2.7760

> <Gold.PLP.Chemscore.CHOScore>
0.0000

> <Gold.PLP.Chemscore.Metal>
0.0000

> <Gold.Chemscore.Hbonds>
donor molecule, donor type, donor heavy atom, donor atom, acceptor molecule, acceptor atom, score
      P1  H  6896  6909       L1     6  1.00
      P1  H  6931  6943       L1    10  0.90
      P1  H  6934  6947       L1    10  0.88

> <Gold.PLP.Chemscore.Internal.Correction>
0.3444

> <Gold.Rescore>
     Score         DG    S(hbond)    S(metal)    S(lipo)     H(rot)  DE(clash)    DE(int)     intcor
     20.72     -24.98       2.71        0.00     129.49       1.84       1.94       2.32       ----

> <Gold.Chemscore.Fitness>
20.7152

> <Gold.Chemscore.DG>
-24.9762

> <Gold.Chemscore.ZeroCoef>
-5.4800

> <Gold.Chemscore.Hbond>
2.7084

> <Gold.Chemscore.Metal>
0.0000

> <Gold.Chemscore.Lipo>
129.4893

> <Gold.Chemscore.Internal_Hbond>
0.0000

> <Gold.Chemscore.DEClash>
1.9447

> <Gold.Chemscore.DEInternal>
2.3162

> <Gold.Chemscore.Rot>
1.8359

> <Gold.Chemscore.Internal.Correction>
   9.000000E+99

> <Gold.Chemscore.Hbonds>
donor molecule, donor type, donor heavy atom, donor atom, acceptor molecule, acceptor atom, score
      P1  H  6896  6909       L1     6  0.98
      P1  H  6931  6943       L1    10  0.88
      P1  H  6934  6947       L1    10  0.86

> <Gold.Chemscore.Hbond.Weighted>
-9.0459

> <Gold.Chemscore.Metal.Weighted>
-0.0000

> <Gold.Chemscore.Lipo.Weighted>
-15.1502

> <Gold.Chemscore.Internal_Hbond.Weighted>
0.0000

> <Gold.Chemscore.DEClash.Weighted>
1.9447

> <Gold.Chemscore.DEInternal.Weighted>
2.3162

> <Gold.Chemscore.Rot.Weighted>
4.7000

> <Gold.Chemscore.Internal.Correction.Weighted>
   9.000000E+99

> <Gold.Protein.RotatedTorsions>
[ 6907 6896 6895 6894 ] final  109.81 input  -60.11 | X-H torsion
[ 7974 7965 7964 7962 ] final  106.42 input  175.53 | X-H torsion
[ 8008 7997 7996 7995 ] final  158.02 input   59.86 | X-H torsion
[ 10167 10162 10161 10158 ] final  144.32 input  -65.29 | X-H torsion
[ 10718 10713 10712 10709 ] final  161.13 input   66.30 | X-H torsion
[ 10763 10752 10751 10750 ] final -118.06 input  -60.55 | X-H torsion
[ 11005 11000 10999 10996 ] final -146.65 input  -57.11 | X-H torsion

> <Gold.Protein.ActiveResidues>
 VAL166  LYS551  ARG553  GLY616  TRP617  ASP618  TYR619  PRO620  LYS621  CYS622 
 ASP623  PHE694  ASN695  SER759  ASP760  ASP761  ALA762  ILE779  LEU786  VAL792 
 PHE793  MET794  SER795  GLU796  ALA797  LYS798  CYS799  TRP800  GLU811  SER814 

> <Gold.Protein.RotatedAtoms>
  152.5050  133.8891  159.7384 H   0  0  0  0  0  0  0  0  0  0  0  0  # atno 6907 bound_to 6896
  150.9334  133.6731  159.2812 H   0  0  0  0  0  0  0  0  0  0  0  0  # atno 6908 bound_to 6896
  151.4067  135.0984  159.9625 H   0  0  0  0  0  0  0  0  0  0  0  0  # atno 6909 bound_to 6896
  145.3069  139.2552  143.3784 H   0  0  0  0  0  0  0  0  0  0  0  0  # atno 7974 bound_to 7965
  156.2328  140.1869  156.7198 H   0  0  0  0  0  0  0  0  0  0  0  0  # atno 8008 bound_to 7997
  154.6053  140.0630  156.9450 H   0  0  0  0  0  0  0  0  0  0  0  0  # atno 8009 bound_to 7997
  155.2106  140.3299  155.4332 H   0  0  0  0  0  0  0  0  0  0  0  0  # atno 8010 bound_to 7997
  139.4949  144.5980  151.6541 H   0  0  0  0  0  0  0  0  0  0  0  0  # atno 10167 bound_to 10162
  157.1408  131.0540  151.2327 H   0  0  0  0  0  0  0  0  0  0  0  0  # atno 10718 bound_to 10713
  154.8575  135.4287  154.2078 H   0  0  0  0  0  0  0  0  0  0  0  0  # atno 10763 bound_to 10752
  153.3110  135.6976  153.7121 H   0  0  0  0  0  0  0  0  0  0  0  0  # atno 10764 bound_to 10752
  153.6214  135.3501  155.2986 H   0  0  0  0  0  0  0  0  0  0  0  0  # atno 10765 bound_to 10752
  140.7798  134.3092  157.5049 H   0  0  0  0  0  0  0  0  0  0  0  0  # atno 11005 bound_to 11000
  146.3132  140.3596  142.8663 LP  0  0  0  0  0  0  0  0  0  0  0  0  # atno 17320 bound_to 7965
  144.9048  140.7686  143.5844 LP  0  0  0  0  0  0  0  0  0  0  0  0  # atno 17321 bound_to 7965
  140.5623  144.0248  150.6175 LP  0  0  0  0  0  0  0  0  0  0  0  0  # atno 17342 bound_to 10162
  140.3338  143.3061  152.0659 LP  0  0  0  0  0  0  0  0  0  0  0  0  # atno 17343 bound_to 10162
  157.4309  130.7490  149.6989 LP  0  0  0  0  0  0  0  0  0  0  0  0  # atno 17370 bound_to 10713
  155.9789  130.4046  150.3620 LP  0  0  0  0  0  0  0  0  0  0  0  0  # atno 17371 bound_to 10713
  139.8744  134.9311  156.3520 LP  0  0  0  0  0  0  0  0  0  0  0  0  # atno 17394 bound_to 11000
  140.9494  133.7461  156.0251 LP  0  0  0  0  0  0  0  0  0  0  0  0  # atno 17395 bound_to 11000

$$$$
