AV-unprocessed.smi:2738|AV-procd|sdf|10548|dock5
  -GOLD-   2272015 03D 1   1.00000     0.00000
 Structure written by MMmdl.
 32 33  0  0  0  0  0  0  0  0  1 V2000
  154.8844  140.5297  160.9092 C   0  0  0  0  0  0  0  0  0  0  0  0
  153.5477  140.0185  160.3573 C   0  0  0  0  0  0  0  0  0  0  0  0
  152.8502  141.0611  159.6088 N   0  0  0  0  0  0  0  0  0  0  0  0
  152.4656  141.0033  158.3119 C   0  0  0  0  0  0  0  0  0  0  0  0
  152.6427  140.0556  157.5466 O   0  0  0  0  0  0  0  0  0  0  0  0
  151.8686  142.1768  157.9977 N   0  0  0  0  0  0  0  0  0  0  0  0
  151.3143  142.5493  156.6978 C   0  0  0  0  0  0  0  0  0  0  0  0
  150.1635  141.6128  156.2812 C   0  0  2  0  0  0  0  0  0  0  0  0
  150.6824  140.3210  155.6359 C   0  0  0  0  0  0  0  0  0  0  0  0
  149.3633  142.2653  155.3166 O   0  0  0  0  0  0  0  0  0  0  0  0
  151.8971  143.0206  159.1173 C   0  0  0  0  0  0  0  0  0  0  0  0
  151.4365  144.3368  159.2959 C   0  0  0  0  0  0  0  0  0  0  0  0
  151.6271  144.9208  160.5702 C   0  0  0  0  0  0  0  0  0  0  0  0
  152.2604  144.1975  161.6143 C   0  0  0  0  0  0  0  0  0  0  0  0
  152.7174  142.8749  161.4061 C   0  0  0  0  0  0  0  0  0  0  0  0
  152.5137  142.3181  160.1314 C   0  0  0  0  0  0  0  0  0  0  0  0
  155.3989  139.7457  161.4649 H   0  0  0  0  0  0  0  0  0  0  0  0
  154.7360  141.3729  161.5843 H   0  0  0  0  0  0  0  0  0  0  0  0
  155.5448  140.8553  160.1050 H   0  0  0  0  0  0  0  0  0  0  0  0
  153.7187  139.1525  159.7161 H   0  0  0  0  0  0  0  0  0  0  0  0
  152.9151  139.6687  161.1736 H   0  0  0  0  0  0  0  0  0  0  0  0
  150.9950  143.5931  156.6919 H   0  0  0  0  0  0  0  0  0  0  0  0
  152.1218  142.4883  155.9674 H   0  0  0  0  0  0  0  0  0  0  0  0
  149.5466  141.3543  157.1430 H   0  0  0  0  0  0  0  0  0  0  0  0
  151.2929  139.7519  156.3373 H   0  0  0  0  0  0  0  0  0  0  0  0
  151.2941  140.5322  154.7578 H   0  0  0  0  0  0  0  0  0  0  0  0
  149.8588  139.6785  155.3226 H   0  0  0  0  0  0  0  0  0  0  0  0
  149.3769  143.1942  155.4917 H   0  0  0  0  0  0  0  0  0  0  0  0
  150.9598  144.8844  158.4964 H   0  0  0  0  0  0  0  0  0  0  0  0
  151.2881  145.9304  160.7498 H   0  0  0  0  0  0  0  0  0  0  0  0
  152.3972  144.6629  162.5793 H   0  0  0  0  0  0  0  0  0  0  0  0
  153.2042  142.3213  162.1953 H   0  0  0  0  0  0  0  0  0  0  0  0
  1  2  1  0  0  0  0
  1 17  1  0  0  0  0
  1 18  1  0  0  0  0
  1 19  1  0  0  0  0
  2  3  1  0  0  0  0
  2 20  1  0  0  0  0
  2 21  1  0  0  0  0
  3 16  1  0  0  0  0
  3  4  1  0  0  0  0
  4  5  2  0  0  0  0
  4  6  1  0  0  0  0
  6  7  1  0  0  0  0
  6 11  1  0  0  0  0
  7  8  1  0  0  0  0
  7 22  1  0  0  0  0
  7 23  1  0  0  0  0
  8  9  1  0  0  0  0
  8 10  1  0  0  0  0
  8 24  1  0  0  0  0
  9 25  1  0  0  0  0
  9 26  1  0  0  0  0
  9 27  1  0  0  0  0
 10 28  1  0  0  0  0
 11 16  2  0  0  0  0
 11 12  1  0  0  0  0
 12 13  2  0  0  0  0
 12 29  1  0  0  0  0
 13 14  1  0  0  0  0
 13 30  1  0  0  0  0
 14 15  2  0  0  0  0
 14 31  1  0  0  0  0
 15 16  1  0  0  0  0
 15 32  1  0  0  0  0
M  END
> <s_m_source_file>
AV-unprocessed.smi

> <i_m_source_file_index>
2738

> <i_lp_mmshare_version>
43012

> <i_f3d_flags>
0

> <s_epik_input>
W2NIXTFbY0hdW2NIXVtjSF1jKGMxMiluKFtDSDJdW0NIM10pYyg9TyluMltDSDJdW0NASF0oW0NIM10pW09IXQ==

> <s_epik_cmdline>
J2VwaWtfcHl0aG9uJywgJy1waCcsICc3LjAnLCAnLXRuJywgJzgnLCAnLW1hJywgJzIwMCcsICctbWV0YWxfYmluZGluZycsICctaW1hZScsICc8aW5maWxlLm1hZT4nLCAnLW9tYWUnLCAnPG91dGZpbGUubWFlPic=

> <r_lp_tautomer_probability>
1

> <r_epik_Ionization_Penalty>
5.28302e-08

> <r_epik_Ionization_Penalty_Charging>
2.52071e-09

> <r_epik_Ionization_Penalty_Neutral>
5.03095e-08

> <r_epik_State_Penalty>
-0

> <r_epik_Charging_Adjusted_Penalty>
2.52071e-09

> <i_epik_Tot_Q>
0

> <i_epik_Tot_abs_Q>
0

> <r_epik_Metal_State_Penalty>
-0

> <b_epik_Metal_Only>
0

> <s_lp_Force_Field>
OPLS_2005

> <r_lp_Energy>
38.1008

> <b_lp_Chiralities_Consistent>
1

> <s_lp_Variant>
AV-unprocessed.smi:2738-1

> <Gold.Version>
5.8.1

> <Gold.Id.Protein>
6NUR|6NUR_protein|mol2

> <Gold.PLP.Fitness>
46.2071

> <Gold.PLP.PLP>
-40.6683

> <Gold.PLP.part.hbond>
-2.0000

> <Gold.PLP.part.metal>
0.0000

> <Gold.PLP.part.buried>
-5.1354

> <Gold.PLP.part.nonpolar>
-33.3229

> <Gold.PLP.part.repulsive>
0.0000

> <Gold.PLP.ligand.clash>
0.0000

> <Gold.PLP.ligand.torsion>
0.2352

> <Gold.PLP.Chemscore.Hbond>
2.0000

> <Gold.PLP.Chemscore.CHOScore>
0.0000

> <Gold.PLP.Chemscore.Metal>
0.0000

> <Gold.Chemscore.Hbonds>
donor molecule, donor type, donor heavy atom, donor atom, acceptor molecule, acceptor atom, score
      L1  H    10    28       P1  8028  1.00
      P1  H  7997  8009       L1     5  1.00

> <Gold.PLP.Chemscore.Internal.Correction>
0.0092

> <Gold.Rescore>
     Score         DG    S(hbond)    S(metal)    S(lipo)     H(rot)  DE(clash)    DE(int)     intcor
     17.77     -19.62       1.90        0.00     106.14       1.81       0.21       1.64       ----

> <Gold.Chemscore.Fitness>
17.7705

> <Gold.Chemscore.DG>
-19.6192

> <Gold.Chemscore.ZeroCoef>
-5.4800

> <Gold.Chemscore.Hbond>
1.9033

> <Gold.Chemscore.Metal>
0.0000

> <Gold.Chemscore.Lipo>
106.1382

> <Gold.Chemscore.Internal_Hbond>
0.0000

> <Gold.Chemscore.DEClash>
0.2108

> <Gold.Chemscore.DEInternal>
1.6379

> <Gold.Chemscore.Rot>
1.8109

> <Gold.Chemscore.Internal.Correction>
   9.000000E+99

> <Gold.Chemscore.Hbonds>
donor molecule, donor type, donor heavy atom, donor atom, acceptor molecule, acceptor atom, score
      L1  H    10    28       P1  8028  0.99
      P1  H  7997  8009       L1     5  0.72

> <Gold.Chemscore.Hbond.Weighted>
-6.3569

> <Gold.Chemscore.Metal.Weighted>
-0.0000

> <Gold.Chemscore.Lipo.Weighted>
-12.4182

> <Gold.Chemscore.Internal_Hbond.Weighted>
0.0000

> <Gold.Chemscore.DEClash.Weighted>
0.2108

> <Gold.Chemscore.DEInternal.Weighted>
1.6379

> <Gold.Chemscore.Rot.Weighted>
4.6358

> <Gold.Chemscore.Internal.Correction.Weighted>
   9.000000E+99

> <Gold.Protein.RotatedTorsions>
[ 6907 6896 6895 6894 ] final -157.32 input  -60.11 | X-H torsion
[ 7974 7965 7964 7962 ] final  -24.60 input  175.53 | X-H torsion
[ 8008 7997 7996 7995 ] final  167.00 input   59.86 | X-H torsion
[ 10167 10162 10161 10158 ] final  -77.57 input  -65.29 | X-H torsion
[ 10718 10713 10712 10709 ] final  -38.06 input   66.30 | X-H torsion
[ 10763 10752 10751 10750 ] final  -14.69 input  -60.55 | X-H torsion
[ 11005 11000 10999 10996 ] final  111.98 input  -57.11 | X-H torsion

> <Gold.Protein.ActiveResidues>
 VAL166  LYS551  ARG553  GLY616  TRP617  ASP618  TYR619  PRO620  LYS621  CYS622 
 ASP623  PHE694  ASN695  SER759  ASP760  ASP761  ALA762  ILE779  LEU786  VAL792 
 PHE793  MET794  SER795  GLU796  ALA797  LYS798  CYS799  TRP800  GLU811  SER814 

> <Gold.Protein.RotatedAtoms>
  151.3011  133.4122  159.2639 H   0  0  0  0  0  0  0  0  0  0  0  0  # atno 6907 bound_to 6896
  151.0194  134.9458  159.8061 H   0  0  0  0  0  0  0  0  0  0  0  0  # atno 6908 bound_to 6896
  152.5320  134.2975  159.9118 H   0  0  0  0  0  0  0  0  0  0  0  0  # atno 6909 bound_to 6896
  146.1544  140.4774  142.8597 H   0  0  0  0  0  0  0  0  0  0  0  0  # atno 7974 bound_to 7965
  156.1671  140.1628  156.8512 H   0  0  0  0  0  0  0  0  0  0  0  0  # atno 8008 bound_to 7997
  154.5218  140.0776  156.8221 H   0  0  0  0  0  0  0  0  0  0  0  0  # atno 8009 bound_to 7997
  155.3589  140.3394  155.4242 H   0  0  0  0  0  0  0  0  0  0  0  0  # atno 8010 bound_to 7997
  140.4759  143.2414  151.8134 H   0  0  0  0  0  0  0  0  0  0  0  0  # atno 10167 bound_to 10162
  156.3080  130.4249  149.8077 H   0  0  0  0  0  0  0  0  0  0  0  0  # atno 10718 bound_to 10713
  153.5320  135.7014  153.5678 H   0  0  0  0  0  0  0  0  0  0  0  0  # atno 10763 bound_to 10752
  153.3682  135.3952  155.1769 H   0  0  0  0  0  0  0  0  0  0  0  0  # atno 10764 bound_to 10752
  154.8683  135.3805  154.4818 H   0  0  0  0  0  0  0  0  0  0  0  0  # atno 10765 bound_to 10752
  139.8916  134.9520  156.6515 H   0  0  0  0  0  0  0  0  0  0  0  0  # atno 11005 bound_to 11000
  144.7945  140.6095  143.6519 LP  0  0  0  0  0  0  0  0  0  0  0  0  # atno 17320 bound_to 7965
  145.4744  139.1500  143.3796 LP  0  0  0  0  0  0  0  0  0  0  0  0  # atno 17321 bound_to 7965
  139.4825  144.4834  151.9277 LP  0  0  0  0  0  0  0  0  0  0  0  0  # atno 17342 bound_to 10162
  140.3919  144.2604  150.5899 LP  0  0  0  0  0  0  0  0  0  0  0  0  # atno 17343 bound_to 10162
  156.5431  130.8309  151.3275 LP  0  0  0  0  0  0  0  0  0  0  0  0  # atno 17370 bound_to 10713
  157.7384  130.9813  150.2252 LP  0  0  0  0  0  0  0  0  0  0  0  0  # atno 17371 bound_to 10713
  140.7516  133.8892  155.8351 LP  0  0  0  0  0  0  0  0  0  0  0  0  # atno 17394 bound_to 11000
  140.9995  134.1169  157.4330 LP  0  0  0  0  0  0  0  0  0  0  0  0  # atno 17395 bound_to 11000

$$$$
