#       Name:                AV-unprocessed.smi:2899
#       Creating user name   scv26
#       Creation time:       Fri Mar 27 16:02:16 2020


#       File generated by GOLD software.
#

@<TRIPOS>MOLECULE
AV-unprocessed.smi:2899
    34    36     1
SMALL
NO_CHARGES


@<TRIPOS>ATOM
      1 ****        -3.7678  -1.6072  -0.1682 C.3            1 S1                 0.0000
      2 ****        -3.0591  -0.2819  -0.3500 C.ar           1 S1                 0.0000
      3 ****        -3.7627   0.9403  -0.3413 C.ar           1 S1                 0.0000
      4 ****        -2.9876   2.1039  -0.5208 C.ar           1 S1                 0.0000
      5 ****        -1.6481   2.0482  -0.6891 N.ar           1 S1                 0.0000
      6 ****        -1.0841   0.8378  -0.6790 C.ar           1 S1                 0.0000
      7 ****         0.2878   0.8211  -0.8510 N.pl3          1 S1                 0.0000
      8 ****         1.1227  -0.3696  -0.7396 C.3            1 S1                 0.0000
      9 ****         2.5817  -0.1213  -1.1293 C.3            1 S1                 0.0000
     10 ****         3.3300  -0.6457   0.1050 C.3            1 S1                 0.0000
     11 ****         3.2172   0.3265   1.2864 C.3            1 S1                 0.0000
     12 ****         1.7624   0.1322   1.7095 C.3            1 S1                 0.0000
     13 ****         1.2717  -0.9145   0.6945 C.3            1 S1                 0.0000
     14 ****         2.4565  -1.6768   0.5354 O.3            1 S1                 0.0000
     15 ****        -1.7197  -0.3296  -0.5196 N.ar           1 S1                 0.0000
     16 ****        -4.8471  -1.4702  -0.0961 H              1 S1                 0.0000
     17 ****        -3.4243  -2.0986   0.7425 H              1 S1                 0.0000
     18 ****        -3.5638  -2.2656  -1.0129 H              1 S1                 0.0000
     19 ****        -4.8331   0.9872  -0.2059 H              1 S1                 0.0000
     20 ****        -3.4435   3.0828  -0.5294 H              1 S1                 0.0000
     21 ****         0.7474   1.7141  -0.9523 H              1 S1                 0.0000
     22 ****         0.7161  -1.1506  -1.3838 H              1 S1                 0.0000
     23 ****         2.8387  -0.7003  -2.0170 H              1 S1                 0.0000
     24 ****         2.8121   0.9259  -1.3311 H              1 S1                 0.0000
     25 ****         4.3488  -0.9747  -0.1010 H              1 S1                 0.0000
     26 ****         3.8916   0.0386   2.0936 H              1 S1                 0.0000
     27 ****         3.4424   1.3549   1.0018 H              1 S1                 0.0000
     28 ****         1.7140  -0.2674   2.7230 H              1 S1                 0.0000
     29 ****         1.1837   1.0558   1.6857 H              1 S1                 0.0000
     30 ****         0.4152  -1.4942   1.0396 H              1 S1                 0.0000
     31 ****        -1.1030   2.8769  -0.8156 LP             1 S1                 0.0000
     32 ****         2.7567  -2.0869   1.3967 LP             1 S1                 0.0000
     33 ****         2.3519  -2.3920  -0.1557 LP             1 S1                 0.0000
     34 ****        -1.2248  -1.1986  -0.5258 LP             1 S1                 0.0000
@<TRIPOS>BOND
    1    1    2 1     
    2    1   16 1     
    3    1   17 1     
    4    1   18 1     
    5    2   15 ar    
    6    2    3 ar    
    7    3    4 ar    
    8    3   19 1     
    9    4    5 ar    
   10    4   20 1     
   11    5    6 ar    
   12    6    7 1     
   13    6   15 ar    
   14    7    8 1     
   15    7   21 1     
   16    8   13 1     
   17    8    9 1     
   18    8   22 1     
   19    9   10 1     
   20    9   23 1     
   21    9   24 1     
   22   10   14 1     
   23   10   11 1     
   24   10   25 1     
   25   11   12 1     
   26   11   26 1     
   27   11   27 1     
   28   12   13 1     
   29   12   28 1     
   30   12   29 1     
   31   13   14 1     
   32   13   30 1     
   33    5   31 1     
   34   14   32 1     
   35   14   33 1     
   36   15   34 1     
@<TRIPOS>SUBSTRUCTURE
      1 S1             1
@<TRIPOS>SET
LONE_PAIRS      STATIC     ATOMS    <user>   **** ""
4 31 32 33 34
DONOR_HYDROGENS      STATIC     ATOMS    <user>   **** ""
1 21
ATOM$BLUE        STATIC     ATOMS    COLORGROUP SYSTEM
4 31 32 33 34
ATOM$RED        STATIC     ATOMS    COLORGROUP SYSTEM
1 21
