AV-unprocessed.smi:2173|AV-procd|sdf|8841|dock8
  -GOLD-   2272012 33D 1   1.00000     0.00000
 Structure written by MMmdl.
 36 37  0  0  0  0  0  0  0  0  2 V2000
  143.8235  136.0381  151.8809 O   0  0  0  0  0  0  0  0  0  0  0  0
  145.0032  135.7672  151.6564 C   0  0  0  0  0  0  0  0  0  0  0  0
  146.0162  136.5946  151.9559 N   0  0  0  0  0  0  0  0  0  0  0  0
  145.8791  137.8979  152.5998 C   0  0  0  0  0  0  0  0  0  0  0  0
  146.7977  138.9845  151.9999 C   0  0  0  0  0  0  0  0  0  0  0  0
  147.7818  139.5800  152.9933 C   0  0  0  0  0  0  0  0  0  0  0  0
  147.6801  140.9147  153.4415 C   0  0  0  0  0  0  0  0  0  0  0  0
  148.6388  141.4111  154.3495 C   0  0  0  0  0  0  0  0  0  0  0  0
  149.6784  140.5650  154.7883 C   0  0  0  0  0  0  0  0  0  0  0  0
  149.7319  139.2403  154.3093 C   0  0  0  0  0  0  0  0  0  0  0  0
  148.7942  138.8019  153.4415 N   0  3  0  0  0  0  0  0  0  0  0  0
  145.3842  134.4193  151.0313 C   0  0  1  0  0  0  0  0  0  0  0  0
  146.2007  133.5613  152.0250 C   0  0  0  0  0  0  0  0  0  0  0  0
  146.3789  132.1345  151.5374 C   0  0  0  0  0  0  0  0  0  0  0  0
  145.6404  131.5922  150.5541 C   0  0  0  0  0  0  0  0  0  0  0  0
  144.5411  132.3427  149.8231 C   0  0  0  0  0  0  0  0  0  0  0  0
  144.1432  133.6454  150.5431 C   0  0  0  0  0  0  0  0  0  0  0  0
  146.9537  136.2949  151.7295 H   0  0  0  0  0  0  0  0  0  0  0  0
  144.8396  138.2044  152.4811 H   0  0  0  0  0  0  0  0  0  0  0  0
  146.0511  137.8057  153.6732 H   0  0  0  0  0  0  0  0  0  0  0  0
  147.3514  138.5688  151.1573 H   0  0  0  0  0  0  0  0  0  0  0  0
  146.1906  139.7910  151.5864 H   0  0  0  0  0  0  0  0  0  0  0  0
  146.8810  141.5523  153.0918 H   0  0  0  0  0  0  0  0  0  0  0  0
  148.5787  142.4301  154.7031 H   0  0  0  0  0  0  0  0  0  0  0  0
  150.4239  140.9269  155.4814 H   0  0  0  0  0  0  0  0  0  0  0  0
  150.4909  138.5245  154.5891 H   0  0  0  0  0  0  0  0  0  0  0  0
  146.0116  134.6147  150.1592 H   0  0  0  0  0  0  0  0  0  0  0  0
  147.1872  134.0030  152.1698 H   0  0  0  0  0  0  0  0  0  0  0  0
  145.7220  133.5242  153.0047 H   0  0  0  0  0  0  0  0  0  0  0  0
  147.1361  131.5418  152.0297 H   0  0  0  0  0  0  0  0  0  0  0  0
  145.8254  130.5746  150.2427 H   0  0  0  0  0  0  0  0  0  0  0  0
  144.8954  132.5621  148.8156 H   0  0  0  0  0  0  0  0  0  0  0  0
  143.6703  131.6948  149.7198 H   0  0  0  0  0  0  0  0  0  0  0  0
  143.5074  133.4003  151.3955 H   0  0  0  0  0  0  0  0  0  0  0  0
  143.5387  134.2621  149.8764 H   0  0  0  0  0  0  0  0  0  0  0  0
  148.8539  137.8408  153.1039 H   0  0  0  0  0  0  0  0  0  0  0  0
  1  2  2  0  0  0  0
  2  3  1  0  0  0  0
  2 12  1  0  0  0  0
  3  4  1  0  0  0  0
  3 18  1  0  0  0  0
  4  5  1  0  0  0  0
  4 19  1  0  0  0  0
  4 20  1  0  0  0  0
  5  6  1  0  0  0  0
  5 21  1  0  0  0  0
  5 22  1  0  0  0  0
  6 11  1  0  0  0  0
  6  7  2  0  0  0  0
  7  8  1  0  0  0  0
  7 23  1  0  0  0  0
  8  9  2  0  0  0  0
  8 24  1  0  0  0  0
  9 10  1  0  0  0  0
  9 25  1  0  0  0  0
 10 11  2  0  0  0  0
 10 26  1  0  0  0  0
 11 36  1  0  0  0  0
 12 17  1  0  0  0  0
 12 13  1  0  0  0  0
 12 27  1  0  0  0  0
 13 14  1  0  0  0  0
 13 28  1  0  0  0  0
 13 29  1  0  0  0  0
 14 15  2  0  0  0  0
 14 30  1  0  0  0  0
 15 16  1  0  0  0  0
 15 31  1  0  0  0  0
 16 17  1  0  0  0  0
 16 32  1  0  0  0  0
 16 33  1  0  0  0  0
 17 34  1  0  0  0  0
 17 35  1  0  0  0  0
M  CHG  1  11   1
M  END
> <s_m_source_file>
AV-unprocessed.smi

> <i_m_source_file_index>
2173

> <i_lp_mmshare_version>
43012

> <i_f3d_flags>
0

> <s_epik_input>
W0NIMl0xW0NIMl1bQ0hdPVtDSF1bQ0gyXVtDQEhdMUMoPU8pW05IXVtDSDJdW0NIMl1jMltjSF1bY0hdW2NIXVtjSF1uMg==

> <s_epik_cmdline>
J2VwaWtfcHl0aG9uJywgJy1waCcsICc3LjAnLCAnLXRuJywgJzgnLCAnLW1hJywgJzIwMCcsICctbWV0YWxfYmluZGluZycsICctaW1hZScsICc8aW5maWxlLm1hZT4nLCAnLW9tYWUnLCAnPG91dGZpbGUubWFlPic=

> <r_epik_Ionization_Penalty>
1.84586

> <r_epik_Ionization_Penalty_Charging>
1.84586

> <r_epik_Ionization_Penalty_Neutral>
1.53635e-08

> <r_epik_State_Penalty>
1.96297

> <r_epik_Charging_Adjusted_Penalty>
3.80883

> <i_epik_Tot_Q>
1

> <i_epik_Tot_abs_Q>
1

> <r_epik_Metal_State_Penalty>
1.98887

> <b_epik_Metal_Only>
0

> <s_lp_Force_Field>
OPLS_2005

> <r_lp_Energy>
13.9489

> <b_lp_Chiralities_Consistent>
1

> <s_lp_Variant>
AV-unprocessed.smi:2173-4

> <Gold.Version>
5.8.1

> <Gold.Id.Protein>
6NUR|6NUR_protein|mol2

> <Gold.PLP.Fitness>
45.0075

> <Gold.PLP.PLP>
-37.3595

> <Gold.PLP.part.hbond>
-3.0000

> <Gold.PLP.part.metal>
0.0000

> <Gold.PLP.part.buried>
0.1977

> <Gold.PLP.part.nonpolar>
-35.8874

> <Gold.PLP.part.repulsive>
0.2942

> <Gold.PLP.ligand.clash>
0.0000

> <Gold.PLP.ligand.torsion>
0.6874

> <Gold.PLP.Chemscore.Hbond>
3.0000

> <Gold.PLP.Chemscore.CHOScore>
0.0000

> <Gold.PLP.Chemscore.Metal>
0.0000

> <Gold.Chemscore.Hbonds>
donor molecule, donor type, donor heavy atom, donor atom, acceptor molecule, acceptor atom, score
      L1  H     3    18       P1  7948  1.00
      L1  H    11    36       P1  7948  2.00

> <Gold.PLP.Chemscore.Internal.Correction>
0.0229

> <Gold.Rescore>
     Score         DG    S(hbond)    S(metal)    S(lipo)     H(rot)  DE(clash)    DE(int)     intcor
     17.93     -20.06       1.98        0.00     100.33       1.48       1.48       0.64       ----

> <Gold.Chemscore.Fitness>
17.9343

> <Gold.Chemscore.DG>
-20.0575

> <Gold.Chemscore.ZeroCoef>
-5.4800

> <Gold.Chemscore.Hbond>
1.9846

> <Gold.Chemscore.Metal>
0.0000

> <Gold.Chemscore.Lipo>
100.3269

> <Gold.Chemscore.Internal_Hbond>
0.0000

> <Gold.Chemscore.DEClash>
1.4821

> <Gold.Chemscore.DEInternal>
0.6412

> <Gold.Chemscore.Rot>
1.4801

> <Gold.Chemscore.Internal.Correction>
   9.000000E+99

> <Gold.Chemscore.Hbonds>
donor molecule, donor type, donor heavy atom, donor atom, acceptor molecule, acceptor atom, score
      L1  H     3    18       P1  7948  0.97
      L1  H    11    36       P1  7948  0.95

> <Gold.Chemscore.Hbond.Weighted>
-6.6284

> <Gold.Chemscore.Metal.Weighted>
-0.0000

> <Gold.Chemscore.Lipo.Weighted>
-11.7383

> <Gold.Chemscore.Internal_Hbond.Weighted>
0.0000

> <Gold.Chemscore.DEClash.Weighted>
1.4821

> <Gold.Chemscore.DEInternal.Weighted>
0.6412

> <Gold.Chemscore.Rot.Weighted>
3.7892

> <Gold.Chemscore.Internal.Correction.Weighted>
   9.000000E+99

> <Gold.Protein.RotatedTorsions>
[ 6907 6896 6895 6894 ] final  102.87 input  -60.11 | X-H torsion
[ 7974 7965 7964 7962 ] final  -39.85 input  175.53 | X-H torsion
[ 8008 7997 7996 7995 ] final  137.66 input   59.86 | X-H torsion
[ 10167 10162 10161 10158 ] final  106.47 input  -65.29 | X-H torsion
[ 10718 10713 10712 10709 ] final    6.93 input   66.30 | X-H torsion
[ 10763 10752 10751 10750 ] final   83.06 input  -60.55 | X-H torsion
[ 11005 11000 10999 10996 ] final   40.96 input  -57.11 | X-H torsion

> <Gold.Protein.ActiveResidues>
 VAL166  LYS551  ARG553  GLY616  TRP617  ASP618  TYR619  PRO620  LYS621  CYS622 
 ASP623  PHE694  ASN695  SER759  ASP760  ASP761  ALA762  ILE779  LEU786  VAL792 
 PHE793  MET794  SER795  GLU796  ALA797  LYS798  CYS799  TRP800  GLU811  SER814 

> <Gold.Protein.RotatedAtoms>
  152.5312  133.9910  159.7850 H   0  0  0  0  0  0  0  0  0  0  0  0  # atno 6907 bound_to 6896
  151.0146  133.5925  159.2685 H   0  0  0  0  0  0  0  0  0  0  0  0  # atno 6908 bound_to 6896
  151.2987  135.0769  159.9284 H   0  0  0  0  0  0  0  0  0  0  0  0  # atno 6909 bound_to 6896
  146.0358  140.6673  142.9110 H   0  0  0  0  0  0  0  0  0  0  0  0  # atno 7974 bound_to 7965
  156.3001  140.2413  156.3946 H   0  0  0  0  0  0  0  0  0  0  0  0  # atno 8008 bound_to 7997
  154.8582  140.0421  157.1668 H   0  0  0  0  0  0  0  0  0  0  0  0  # atno 8009 bound_to 7997
  154.8925  140.2965  155.5366 H   0  0  0  0  0  0  0  0  0  0  0  0  # atno 8010 bound_to 7997
  139.7007  144.7094  151.1191 H   0  0  0  0  0  0  0  0  0  0  0  0  # atno 10167 bound_to 10162
  156.9294  130.5820  149.5649 H   0  0  0  0  0  0  0  0  0  0  0  0  # atno 10718 bound_to 10713
  153.1258  135.4705  154.9269 H   0  0  0  0  0  0  0  0  0  0  0  0  # atno 10763 bound_to 10752
  154.7618  135.3133  154.8365 H   0  0  0  0  0  0  0  0  0  0  0  0  # atno 10764 bound_to 10752
  153.8919  135.6884  153.4814 H   0  0  0  0  0  0  0  0  0  0  0  0  # atno 10765 bound_to 10752
  140.1880  134.4021  155.8162 H   0  0  0  0  0  0  0  0  0  0  0  0  # atno 11005 bound_to 11000
  144.7051  140.3818  143.7124 LP  0  0  0  0  0  0  0  0  0  0  0  0  # atno 17320 bound_to 7965
  145.6966  139.1651  143.2617 LP  0  0  0  0  0  0  0  0  0  0  0  0  # atno 17321 bound_to 7965
  140.7709  143.5428  150.9293 LP  0  0  0  0  0  0  0  0  0  0  0  0  # atno 17342 bound_to 10162
  139.9110  143.6721  152.3115 LP  0  0  0  0  0  0  0  0  0  0  0  0  # atno 17343 bound_to 10162
  156.0454  130.5531  150.8869 LP  0  0  0  0  0  0  0  0  0  0  0  0  # atno 17370 bound_to 10713
  157.5857  131.0945  150.9200 LP  0  0  0  0  0  0  0  0  0  0  0  0  # atno 17371 bound_to 10713
  141.2225  133.7033  156.8047 LP  0  0  0  0  0  0  0  0  0  0  0  0  # atno 17394 bound_to 11000
  140.2191  134.8770  157.3358 LP  0  0  0  0  0  0  0  0  0  0  0  0  # atno 17395 bound_to 11000

$$$$
