AV-unprocessed.smi:91|AV-procd|sdf|836|dock3
  -GOLD-   2262017263D 1   1.00000     0.00000
 Structure written by MMmdl.
 60 63  0  0  0  0  0  0  0  0  1 V2000
  146.9373  130.7598  152.7330 C   0  0  0  0  0  0  0  0  0  0  0  0
  148.1596  131.2724  153.2333 O   0  0  0  0  0  0  0  0  0  0  0  0
  148.1198  132.6761  153.4321 C   0  0  0  0  0  0  0  0  0  0  0  0
  149.1956  133.0765  154.4500 C   0  0  1  0  0  0  0  0  0  0  0  0
  149.3682  134.6025  154.5405 C   0  0  0  0  0  0  0  0  0  0  0  0
  150.2862  134.9435  155.6224 N   0  0  0  0  0  0  0  0  0  0  0  0
  150.8245  136.1905  155.5790 C   0  0  0  0  0  0  0  0  0  0  0  0
  151.1560  136.6790  154.3548 N   0  0  0  0  0  0  0  0  0  0  0  0
  151.6927  137.8953  154.2285 C   0  0  0  0  0  0  0  0  0  0  0  0
  151.9779  138.7832  155.1812 N   0  0  0  0  0  0  0  0  0  0  0  0
  151.6485  138.3049  156.4143 C   0  0  0  0  0  0  0  0  0  0  0  0
  151.0765  137.0322  156.7061 C   0  0  0  0  0  0  0  0  0  0  0  0
  150.8801  136.9196  158.0796 N   0  0  0  0  0  0  0  0  0  0  0  0
  151.3133  138.0493  158.5668 C   0  0  0  0  0  0  0  0  0  0  0  0
  151.7836  138.9431  157.6338 N   0  0  0  0  0  0  0  0  0  0  0  0
  152.3083  140.2730  157.8886 C   0  0  0  0  0  0  0  0  0  0  0  0
  152.5152  140.5692  159.3952 C   0  0  1  0  0  0  0  0  0  0  0  0
  153.5603  139.6347  160.0523 C   0  0  0  0  0  0  0  0  0  0  0  0
  154.7779  139.6359  159.3350 O   0  0  0  0  0  0  0  0  0  0  0  0
  152.8254  142.0673  159.6402 C   0  0  2  0  0  0  0  0  0  0  0  0
  152.5688  142.5535  161.0558 C   0  0  0  0  0  0  0  0  0  0  0  0
  152.5002  144.0651  160.8695 C   0  0  0  0  0  0  0  0  0  0  0  0
  151.9562  144.2679  159.5700 O   0  0  0  0  0  0  0  0  0  0  0  0
  151.9413  143.0387  158.8509 C   0  0  0  0  0  0  0  0  0  0  0  0
  149.9036  134.3750  156.9093 C   0  0  0  0  0  0  0  0  0  0  0  0
  149.6972  132.8475  156.8083 C   0  0  0  0  0  0  0  0  0  0  0  0
  151.0349  132.0947  156.6465 C   0  0  0  0  0  0  0  0  0  0  0  0
  148.9820  132.3377  158.0691 C   0  0  0  0  0  0  0  0  0  0  0  0
  148.8071  132.5611  155.7238 O   0  0  0  0  0  0  0  0  0  0  0  0
  147.0190  129.6808  152.6020 H   0  0  0  0  0  0  0  0  0  0  0  0
  146.6928  131.1987  151.7649 H   0  0  0  0  0  0  0  0  0  0  0  0
  146.1155  130.9538  153.4234 H   0  0  0  0  0  0  0  0  0  0  0  0
  148.2694  133.2057  152.4897 H   0  0  0  0  0  0  0  0  0  0  0  0
  147.1355  132.9562  153.8108 H   0  0  0  0  0  0  0  0  0  0  0  0
  150.1347  132.6149  154.1450 H   0  0  0  0  0  0  0  0  0  0  0  0
  149.7177  134.9819  153.5801 H   0  0  0  0  0  0  0  0  0  0  0  0
  148.4070  135.0789  154.7375 H   0  0  0  0  0  0  0  0  0  0  0  0
  151.9250  138.2011  153.2192 H   0  0  0  0  0  0  0  0  0  0  0  0
  151.2902  138.2680  159.6246 H   0  0  0  0  0  0  0  0  0  0  0  0
  153.2508  140.3805  157.3503 H   0  0  0  0  0  0  0  0  0  0  0  0
  151.6177  140.9913  157.4462 H   0  0  0  0  0  0  0  0  0  0  0  0
  151.5667  140.3556  159.8904 H   0  0  0  0  0  0  0  0  0  0  0  0
  153.7595  139.9362  161.0804 H   0  0  0  0  0  0  0  0  0  0  0  0
  153.1891  138.6115  160.1110 H   0  0  0  0  0  0  0  0  0  0  0  0
  155.2517  138.8461  159.5466 H   0  0  0  0  0  0  0  0  0  0  0  0
  153.8682  142.2705  159.3901 H   0  0  0  0  0  0  0  0  0  0  0  0
  151.6120  142.1774  161.4215 H   0  0  0  0  0  0  0  0  0  0  0  0
  153.3454  142.2576  161.7614 H   0  0  0  0  0  0  0  0  0  0  0  0
  151.8986  144.5536  161.6362 H   0  0  0  0  0  0  0  0  0  0  0  0
  153.5012  144.4971  160.8974 H   0  0  0  0  0  0  0  0  0  0  0  0
  152.2882  143.1815  157.8272 H   0  0  0  0  0  0  0  0  0  0  0  0
  150.9119  142.6801  158.8104 H   0  0  0  0  0  0  0  0  0  0  0  0
  150.6637  134.5911  157.6612 H   0  0  0  0  0  0  0  0  0  0  0  0
  148.9780  134.8521  157.2346 H   0  0  0  0  0  0  0  0  0  0  0  0
  151.6573  132.2121  157.5344 H   0  0  0  0  0  0  0  0  0  0  0  0
  151.6197  132.4592  155.8026 H   0  0  0  0  0  0  0  0  0  0  0  0
  150.8699  131.0272  156.4989 H   0  0  0  0  0  0  0  0  0  0  0  0
  149.5746  132.5254  158.9651 H   0  0  0  0  0  0  0  0  0  0  0  0
  148.7978  131.2645  158.0114 H   0  0  0  0  0  0  0  0  0  0  0  0
  148.0174  132.8288  158.2021 H   0  0  0  0  0  0  0  0  0  0  0  0
  1  2  1  0  0  0  0
  1 30  1  0  0  0  0
  1 31  1  0  0  0  0
  1 32  1  0  0  0  0
  2  3  1  0  0  0  0
  3  4  1  0  0  0  0
  3 33  1  0  0  0  0
  3 34  1  0  0  0  0
  4 29  1  0  0  0  0
  4  5  1  0  0  0  0
  4 35  1  0  0  0  0
  5  6  1  0  0  0  0
  5 36  1  0  0  0  0
  5 37  1  0  0  0  0
  6  7  1  0  0  0  0
  6 25  1  0  0  0  0
  7 12  1  0  0  0  0
  7  8  2  0  0  0  0
  8  9  1  0  0  0  0
  9 10  2  0  0  0  0
  9 38  1  0  0  0  0
 10 11  1  0  0  0  0
 11 15  1  0  0  0  0
 11 12  2  0  0  0  0
 12 13  1  0  0  0  0
 13 14  2  0  0  0  0
 14 15  1  0  0  0  0
 14 39  1  0  0  0  0
 15 16  1  0  0  0  0
 16 17  1  0  0  0  0
 16 40  1  0  0  0  0
 16 41  1  0  0  0  0
 17 18  1  0  0  0  0
 17 20  1  0  0  0  0
 17 42  1  0  0  0  0
 18 19  1  0  0  0  0
 18 43  1  0  0  0  0
 18 44  1  0  0  0  0
 19 45  1  0  0  0  0
 20 24  1  0  0  0  0
 20 21  1  0  0  0  0
 20 46  1  0  0  0  0
 21 22  1  0  0  0  0
 21 47  1  0  0  0  0
 21 48  1  0  0  0  0
 22 23  1  0  0  0  0
 22 49  1  0  0  0  0
 22 50  1  0  0  0  0
 23 24  1  0  0  0  0
 24 51  1  0  0  0  0
 24 52  1  0  0  0  0
 25 26  1  0  0  0  0
 25 53  1  0  0  0  0
 25 54  1  0  0  0  0
 26 27  1  0  0  0  0
 26 28  1  0  0  0  0
 26 29  1  0  0  0  0
 27 55  1  0  0  0  0
 27 56  1  0  0  0  0
 27 57  1  0  0  0  0
 28 58  1  0  0  0  0
 28 59  1  0  0  0  0
 28 60  1  0  0  0  0
M  END
> <s_m_source_file>
AV-unprocessed.smi

> <i_m_source_file_index>
91

> <i_lp_mmshare_version>
43012

> <i_f3d_flags>
0

> <s_epik_input>
W0NIM11PW0NIMl1bQ0BASF0oTzEpW0NIMl1OKFtDSDJdQzEoW0NIM10pW0NIM10pYyhuW2NIXW4yKWMoYzIzKW5bY0hdbjNbQ0gyXVtDQEhdKFtDSDJdW09IXSlbQ0BASF00W0NIMl1bQ0gyXU9bQ0gyXTQ=

> <s_epik_cmdline>
J2VwaWtfcHl0aG9uJywgJy1waCcsICc3LjAnLCAnLXRuJywgJzgnLCAnLW1hJywgJzIwMCcsICctbWV0YWxfYmluZGluZycsICctaW1hZScsICc8aW5maWxlLm1hZT4nLCAnLW9tYWUnLCAnPG91dGZpbGUubWFlPic=

> <r_lp_tautomer_probability>
1

> <r_epik_Ionization_Penalty>
8.63591e-05

> <r_epik_Ionization_Penalty_Charging>
0

> <r_epik_Ionization_Penalty_Neutral>
8.63591e-05

> <r_epik_State_Penalty>
-0

> <r_epik_Charging_Adjusted_Penalty>
0

> <i_epik_Tot_Q>
0

> <i_epik_Tot_abs_Q>
0

> <r_epik_Metal_State_Penalty>
-0

> <b_epik_Metal_Only>
0

> <s_lp_Force_Field>
OPLS_2005

> <r_lp_Energy>
46.7978

> <b_lp_Chiralities_Consistent>
1

> <s_lp_Variant>
AV-unprocessed.smi:91-4

> <Gold.Version>
5.8.1

> <Gold.Id.Protein>
6NUR|6NUR_protein|mol2

> <Gold.PLP.Fitness>
47.1198

> <Gold.PLP.PLP>
-43.1013

> <Gold.PLP.part.hbond>
-2.1813

> <Gold.PLP.part.metal>
0.0000

> <Gold.PLP.part.buried>
-7.2173

> <Gold.PLP.part.nonpolar>
-35.6933

> <Gold.PLP.part.repulsive>
1.2960

> <Gold.PLP.ligand.clash>
0.0000

> <Gold.PLP.ligand.torsion>
0.8569

> <Gold.PLP.Chemscore.Hbond>
1.6741

> <Gold.PLP.Chemscore.CHOScore>
0.0467

> <Gold.PLP.Chemscore.Metal>
0.0000

> <Gold.Chemscore.Hbonds>
donor molecule, donor type, donor heavy atom, donor atom, acceptor molecule, acceptor atom, score
      P1  H  7997  8008       L1    19  0.81
      P1  H 10752 10764       L1     8  0.57
      L1  C     9    38       P1  7949  0.04

> <Gold.PLP.Chemscore.Internal.Correction>
0.5700

> <Gold.Rescore>
     Score         DG    S(hbond)    S(metal)    S(lipo)     H(rot)  DE(clash)    DE(int)     intcor
     11.23     -13.20       1.13        0.00     100.08       3.03       0.09       1.88       ----

> <Gold.Chemscore.Fitness>
11.2293

> <Gold.Chemscore.DG>
-13.2029

> <Gold.Chemscore.ZeroCoef>
-5.4800

> <Gold.Chemscore.Hbond>
1.1276

> <Gold.Chemscore.Metal>
0.0000

> <Gold.Chemscore.Lipo>
100.0822

> <Gold.Chemscore.Internal_Hbond>
0.0000

> <Gold.Chemscore.DEClash>
0.0920

> <Gold.Chemscore.DEInternal>
1.8815

> <Gold.Chemscore.Rot>
3.0284

> <Gold.Chemscore.Internal.Correction>
   9.000000E+99

> <Gold.Chemscore.Hbonds>
donor molecule, donor type, donor heavy atom, donor atom, acceptor molecule, acceptor atom, score
      P1  H  7997  8008       L1    19  0.31
      P1  H 10752 10764       L1     8  0.01

> <Gold.Chemscore.Hbond.Weighted>
-3.7660

> <Gold.Chemscore.Metal.Weighted>
-0.0000

> <Gold.Chemscore.Lipo.Weighted>
-11.7096

> <Gold.Chemscore.Internal_Hbond.Weighted>
0.0000

> <Gold.Chemscore.DEClash.Weighted>
0.0920

> <Gold.Chemscore.DEInternal.Weighted>
1.8815

> <Gold.Chemscore.Rot.Weighted>
7.7528

> <Gold.Chemscore.Internal.Correction.Weighted>
   9.000000E+99

> <Gold.Protein.RotatedTorsions>
[ 6907 6896 6895 6894 ] final -165.74 input  -60.11 | X-H torsion
[ 7974 7965 7964 7962 ] final -173.54 input  175.53 | X-H torsion
[ 8008 7997 7996 7995 ] final -138.13 input   59.86 | X-H torsion
[ 10167 10162 10161 10158 ] final   61.77 input  -65.29 | X-H torsion
[ 10718 10713 10712 10709 ] final   49.70 input   66.30 | X-H torsion
[ 10763 10752 10751 10750 ] final  -84.65 input  -60.55 | X-H torsion
[ 11005 11000 10999 10996 ] final  122.79 input  -57.11 | X-H torsion

> <Gold.Protein.ActiveResidues>
 VAL166  LYS551  ARG553  GLY616  TRP617  ASP618  TYR619  PRO620  LYS621  CYS622 
 ASP623  PHE694  ASN695  SER759  ASP760  ASP761  ALA762  ILE779  LEU786  VAL792 
 PHE793  MET794  SER795  GLU796  ALA797  LYS798  CYS799  TRP800  GLU811  SER814 

> <Gold.Protein.RotatedAtoms>
  151.4324  133.3666  159.2770 H   0  0  0  0  0  0  0  0  0  0  0  0  # atno 6907 bound_to 6896
  150.9215  134.8634  159.7503 H   0  0  0  0  0  0  0  0  0  0  0  0  # atno 6908 bound_to 6896
  152.4984  134.4263  159.9549 H   0  0  0  0  0  0  0  0  0  0  0  0  # atno 6909 bound_to 6896
  144.7137  140.1607  143.6376 H   0  0  0  0  0  0  0  0  0  0  0  0  # atno 7974 bound_to 7965
  155.4233  140.0520  157.3024 H   0  0  0  0  0  0  0  0  0  0  0  0  # atno 8008 bound_to 7997
  154.4893  140.2113  155.9544 H   0  0  0  0  0  0  0  0  0  0  0  0  # atno 8009 bound_to 7997
  156.1319  140.3170  155.8367 H   0  0  0  0  0  0  0  0  0  0  0  0  # atno 8010 bound_to 7997
  140.1512  144.4461  150.6758 H   0  0  0  0  0  0  0  0  0  0  0  0  # atno 10167 bound_to 10162
  157.4812  130.8316  149.8095 H   0  0  0  0  0  0  0  0  0  0  0  0  # atno 10718 bound_to 10713
  154.6019  135.5513  153.7383 H   0  0  0  0  0  0  0  0  0  0  0  0  # atno 10763 bound_to 10752
  153.0158  135.6368  154.1702 H   0  0  0  0  0  0  0  0  0  0  0  0  # atno 10764 bound_to 10752
  154.1641  135.2895  155.3080 H   0  0  0  0  0  0  0  0  0  0  0  0  # atno 10765 bound_to 10752
  139.9284  134.9641  156.8162 H   0  0  0  0  0  0  0  0  0  0  0  0  # atno 11005 bound_to 11000
  145.9033  139.2443  143.1481 LP  0  0  0  0  0  0  0  0  0  0  0  0  # atno 17320 bound_to 7965
  145.9789  140.8699  143.0124 LP  0  0  0  0  0  0  0  0  0  0  0  0  # atno 17321 bound_to 7965
  140.6701  143.2282  151.5646 LP  0  0  0  0  0  0  0  0  0  0  0  0  # atno 17342 bound_to 10162
  139.5425  144.2609  152.1378 LP  0  0  0  0  0  0  0  0  0  0  0  0  # atno 17343 bound_to 10162
  156.0123  130.3828  150.2225 LP  0  0  0  0  0  0  0  0  0  0  0  0  # atno 17370 bound_to 10713
  157.0411  131.0035  151.3283 LP  0  0  0  0  0  0  0  0  0  0  0  0  # atno 17371 bound_to 10713
  140.6272  133.9939  155.7645 LP  0  0  0  0  0  0  0  0  0  0  0  0  # atno 17394 bound_to 11000
  141.0856  133.9995  157.3318 LP  0  0  0  0  0  0  0  0  0  0  0  0  # atno 17395 bound_to 11000

$$$$
