#       Name:                AV-unprocessed.smi:1692
#       Creating user name   scv26
#       Creation time:       Fri Mar 27 07:54:07 2020


#       File generated by GOLD software.
#

@<TRIPOS>MOLECULE
AV-unprocessed.smi:1692
    51    52     1
SMALL
NO_CHARGES


@<TRIPOS>ATOM
      1 ****        -6.0907   1.0933   0.8576 C.3            1 S1                 0.0000
      2 ****        -4.6385   0.8954   0.4093 C.3            1 S1                 0.0000
      3 ****        -3.6318   1.3618   1.4808 C.3            1 S1                 0.0000
      4 ****        -2.2351   1.2387   0.9968 N.4            1 S1                 1.0000
      5 ****        -1.7171  -0.1553   1.0251 C.3            1 S1                 0.0000
      6 ****        -0.1807  -0.2107   1.0659 C.3            1 S1                 0.0000
      7 ****         0.3460  -1.6502   1.1868 C.3            1 S1                 0.0000
      8 ****         1.8034  -1.6893   1.2264 N.am           1 S1                 0.0000
      9 ****         2.6033  -1.5950   0.1541 C.2            1 S1                 0.0000
     10 ****         2.1811  -1.4546  -0.9943 O.2            1 S1                 0.0000
     11 ****         3.8993  -1.6717   0.5041 N.am           1 S1                 0.0000
     12 ****         5.0417  -1.6069  -0.3377 C.ar           1 S1                 0.0000
     13 ****         6.2820  -1.7397   0.3265 C.ar           1 S1                 0.0000
     14 ****         7.4761  -1.6895  -0.4185 C.ar           1 S1                 0.0000
     15 ****         7.3991  -1.5071  -1.8106 C.ar           1 S1                 0.0000
     16 ****         6.1245  -1.3826  -2.3935 C.ar           1 S1                 0.0000
     17 ****         4.9786  -1.4303  -1.6813 N.ar           1 S1                 0.0000
     18 ****        -2.0770   1.9381  -0.3043 C.3            1 S1                 0.0000
     19 ****        -3.1348   1.4786  -1.3311 C.3            1 S1                 0.0000
     20 ****        -3.0598   2.2846  -2.6324 C.3            1 S1                 0.0000
     21 ****        -4.4340   1.6564  -0.7763 O.3            1 S1                 0.0000
     22 ****        -6.3044   0.5203   1.7605 H              1 S1                 0.0000
     23 ****        -6.7852   0.7643   0.0841 H              1 S1                 0.0000
     24 ****        -6.3004   2.1423   1.0687 H              1 S1                 0.0000
     25 ****        -4.4897  -0.1628   0.1887 H              1 S1                 0.0000
     26 ****        -3.8169   2.4097   1.7219 H              1 S1                 0.0000
     27 ****        -3.7652   0.8075   2.4107 H              1 S1                 0.0000
     28 ****        -2.0915  -0.6519   1.9212 H              1 S1                 0.0000
     29 ****        -2.0974  -0.7284   0.1795 H              1 S1                 0.0000
     30 ****         0.2347   0.2452   0.1678 H              1 S1                 0.0000
     31 ****         0.1824   0.3799   1.9082 H              1 S1                 0.0000
     32 ****        -0.0295  -2.1088   2.1020 H              1 S1                 0.0000
     33 ****        -0.0197  -2.2624   0.3605 H              1 S1                 0.0000
     34 ****         2.2326  -1.8045   2.1330 H              1 S1                 0.0000
     35 ****         4.0926  -1.7921   1.4873 H              1 S1                 0.0000
     36 ****         6.3235  -1.8800   1.3968 H              1 S1                 0.0000
     37 ****         8.4336  -1.7895   0.0707 H              1 S1                 0.0000
     38 ****         8.2926  -1.4636  -2.4156 H              1 S1                 0.0000
     39 ****         6.0214  -1.2409  -3.4590 H              1 S1                 0.0000
     40 ****        -2.1926   3.0078  -0.1236 H              1 S1                 0.0000
     41 ****        -1.0717   1.8088  -0.7025 H              1 S1                 0.0000
     42 ****        -2.9920   0.4257  -1.5776 H              1 S1                 0.0000
     43 ****        -2.0843   2.1738  -3.1067 H              1 S1                 0.0000
     44 ****        -3.2253   3.3468  -2.4499 H              1 S1                 0.0000
     45 ****        -3.8143   1.9478  -3.3437 H              1 S1                 0.0000
     46 ****        -1.6682   1.7419   1.6644 H              1 S1                 0.0000
     47 ****         1.1966  -1.4056  -1.1626 LP             1 S1                 0.0000
     48 ****         2.8228  -1.3897  -1.7585 LP             1 S1                 0.0000
     49 ****         4.0942  -1.3364  -2.1385 LP             1 S1                 0.0000
     50 ****        -4.5587   2.6247  -0.5596 LP             1 S1                 0.0000
     51 ****        -5.1123   1.3770  -1.4559 LP             1 S1                 0.0000
@<TRIPOS>BOND
    1    1    2 1     
    2    1   22 1     
    3    1   23 1     
    4    1   24 1     
    5    2   21 1     
    6    2    3 1     
    7    2   25 1     
    8    3    4 1     
    9    3   26 1     
   10    3   27 1     
   11    4    5 1     
   12    4   18 1     
   13    4   46 1     
   14    5    6 1     
   15    5   28 1     
   16    5   29 1     
   17    6    7 1     
   18    6   30 1     
   19    6   31 1     
   20    7    8 1     
   21    7   32 1     
   22    7   33 1     
   23    8    9 am    
   24    8   34 1     
   25    9   10 2     
   26    9   11 am    
   27   11   12 1     
   28   11   35 1     
   29   12   17 ar    
   30   12   13 ar    
   31   13   14 ar    
   32   13   36 1     
   33   14   15 ar    
   34   14   37 1     
   35   15   16 ar    
   36   15   38 1     
   37   16   17 ar    
   38   16   39 1     
   39   18   19 1     
   40   18   40 1     
   41   18   41 1     
   42   19   20 1     
   43   19   21 1     
   44   19   42 1     
   45   20   43 1     
   46   20   44 1     
   47   20   45 1     
   48   10   47 1     
   49   10   48 1     
   50   17   49 1     
   51   21   50 1     
   52   21   51 1     
@<TRIPOS>SUBSTRUCTURE
      1 S1             1
@<TRIPOS>SET
LONE_PAIRS      STATIC     ATOMS    <user>   **** ""
5 47 48 49 50 51
DONOR_HYDROGENS      STATIC     ATOMS    <user>   **** ""
3 46 34 35
ATOM$BLUE        STATIC     ATOMS    COLORGROUP SYSTEM
5 47 48 49 50 51
ATOM$RED        STATIC     ATOMS    COLORGROUP SYSTEM
3 46 34 35
