AV-unprocessed.smi:329|AV-procd|sdf|2348|dock1
  -GOLD-   2262022263D 1   1.00000     0.00000
 Structure written by MMmdl.
 18 18  0  0  0  0  0  0  0  0  1 V2000
  150.4721  138.0198  153.7406 N   0  0  0  0  0  0  0  0  0  0  0  0
  151.2448  137.6778  154.7742 C   0  0  0  0  0  0  0  0  0  0  0  0
  151.2388  136.5397  155.2415 O   0  0  0  0  0  0  0  0  0  0  0  0
  152.1376  138.7839  155.3524 C   0  0  0  0  0  0  0  0  0  0  0  0
  151.4135  140.0172  155.6156 N   0  0  0  0  0  0  0  0  0  0  0  0
  151.4516  140.8090  156.7453 C   0  0  0  0  0  0  0  0  0  0  0  0
  150.6103  141.8628  156.5303 C   0  0  0  0  0  0  0  0  0  0  0  0
  150.3442  142.9213  157.4189 N   0  0  0  0  0  0  0  0  0  0  0  0
  150.0939  141.6243  155.2258 C   0  0  0  0  0  0  0  0  0  0  0  0
  150.5750  140.5181  154.6814 N   0  0  0  0  0  0  0  0  0  0  0  0
  149.8661  137.3300  153.3203 H   0  0  0  0  0  0  0  0  0  0  0  0
  150.4961  138.9631  153.3814 H   0  0  0  0  0  0  0  0  0  0  0  0
  152.6006  138.4346  156.2769 H   0  0  0  0  0  0  0  0  0  0  0  0
  152.9441  139.0008  154.6509 H   0  0  0  0  0  0  0  0  0  0  0  0
  152.0712  140.5598  157.5942 H   0  0  0  0  0  0  0  0  0  0  0  0
  150.7818  142.9769  158.3273 H   0  0  0  0  0  0  0  0  0  0  0  0
  149.6573  143.6321  157.2114 H   0  0  0  0  0  0  0  0  0  0  0  0
  149.3887  142.2173  154.6623 H   0  0  0  0  0  0  0  0  0  0  0  0
  1  2  1  0  0  0  0
  1 11  1  0  0  0  0
  1 12  1  0  0  0  0
  2  3  2  0  0  0  0
  2  4  1  0  0  0  0
  4  5  1  0  0  0  0
  4 13  1  0  0  0  0
  4 14  1  0  0  0  0
  5 10  1  0  0  0  0
  5  6  1  0  0  0  0
  6  7  2  0  0  0  0
  6 15  1  0  0  0  0
  7  8  1  0  0  0  0
  7  9  1  0  0  0  0
  8 16  1  0  0  0  0
  8 17  1  0  0  0  0
  9 10  2  0  0  0  0
  9 18  1  0  0  0  0
M  END
> <s_m_source_file>
AV-unprocessed.smi

> <i_m_source_file_index>
329

> <i_lp_mmshare_version>
43012

> <i_f3d_flags>
0

> <s_epik_input>
W05IMl1DKD1PKVtDSDJdbjFbY0hdYyhbTkgyXSlbY0hdbjE=

> <s_epik_cmdline>
J2VwaWtfcHl0aG9uJywgJy1waCcsICc3LjAnLCAnLXRuJywgJzgnLCAnLW1hJywgJzIwMCcsICctbWV0YWxfYmluZGluZycsICctaW1hZScsICc8aW5maWxlLm1hZT4nLCAnLW9tYWUnLCAnPG91dGZpbGUubWFlPic=

> <r_lp_tautomer_probability>
1

> <r_epik_Ionization_Penalty>
9.33273e-05

> <r_epik_Ionization_Penalty_Charging>
0

> <r_epik_Ionization_Penalty_Neutral>
9.33273e-05

> <r_epik_State_Penalty>
-0

> <r_epik_Charging_Adjusted_Penalty>
0

> <i_epik_Tot_Q>
0

> <i_epik_Tot_abs_Q>
0

> <r_epik_Metal_State_Penalty>
-0

> <b_epik_Metal_Only>
0

> <s_lp_Force_Field>
OPLS_2005

> <r_lp_Energy>
3.96238

> <b_lp_Chiralities_Consistent>
1

> <s_lp_Variant>
AV-unprocessed.smi:329-1

> <Gold.Version>
5.8.1

> <Gold.Id.Protein>
6NUR|6NUR_protein|mol2

> <Gold.PLP.Fitness>
33.1829

> <Gold.PLP.PLP>
-21.1357

> <Gold.PLP.part.hbond>
-4.7326

> <Gold.PLP.part.metal>
0.0000

> <Gold.PLP.part.buried>
-1.1523

> <Gold.PLP.part.nonpolar>
-14.2747

> <Gold.PLP.part.repulsive>
0.2996

> <Gold.PLP.ligand.clash>
0.0000

> <Gold.PLP.ligand.torsion>
0.2607

> <Gold.PLP.Chemscore.Hbond>
3.8640

> <Gold.PLP.Chemscore.CHOScore>
0.3252

> <Gold.PLP.Chemscore.Metal>
0.0000

> <Gold.Chemscore.Hbonds>
donor molecule, donor type, donor heavy atom, donor atom, acceptor molecule, acceptor atom, score
      L1  H     1    11       P1  7948  1.00
      L1  H     8    17       P1  8028  0.84
      P1  H  7989  7998       L1    10  1.00
      P1  H 10752 10764       L1     3  0.96
      L1  C     9    18       P1  8028  0.37

> <Gold.PLP.Chemscore.Internal.Correction>
0.0008

> <Gold.Rescore>
     Score         DG    S(hbond)    S(metal)    S(lipo)     H(rot)  DE(clash)    DE(int)     intcor
     11.18     -13.42       2.64        0.00      28.16       1.63       0.28       1.97       ----

> <Gold.Chemscore.Fitness>
11.1778

> <Gold.Chemscore.DG>
-13.4243

> <Gold.Chemscore.ZeroCoef>
-5.4800

> <Gold.Chemscore.Hbond>
2.6394

> <Gold.Chemscore.Metal>
0.0000

> <Gold.Chemscore.Lipo>
28.1602

> <Gold.Chemscore.Internal_Hbond>
0.0000

> <Gold.Chemscore.DEClash>
0.2759

> <Gold.Chemscore.DEInternal>
1.9706

> <Gold.Chemscore.Rot>
1.6274

> <Gold.Chemscore.Internal.Correction>
   9.000000E+99

> <Gold.Chemscore.Hbonds>
donor molecule, donor type, donor heavy atom, donor atom, acceptor molecule, acceptor atom, score
      L1  H     1    11       P1  7948  0.43
      L1  H     8    17       P1  8028  0.67
      P1  H  7989  7998       L1    10  0.21
      P1  H 10752 10764       L1     3  0.64

> <Gold.Chemscore.Hbond.Weighted>
-8.8157

> <Gold.Chemscore.Metal.Weighted>
-0.0000

> <Gold.Chemscore.Lipo.Weighted>
-3.2947

> <Gold.Chemscore.Internal_Hbond.Weighted>
0.0000

> <Gold.Chemscore.DEClash.Weighted>
0.2759

> <Gold.Chemscore.DEInternal.Weighted>
1.9706

> <Gold.Chemscore.Rot.Weighted>
4.1662

> <Gold.Chemscore.Internal.Correction.Weighted>
   9.000000E+99

> <Gold.Protein.RotatedTorsions>
[ 6907 6896 6895 6894 ] final  -48.72 input  -60.11 | X-H torsion
[ 7974 7965 7964 7962 ] final  -56.18 input  175.53 | X-H torsion
[ 8008 7997 7996 7995 ] final -130.05 input   59.86 | X-H torsion
[ 10167 10162 10161 10158 ] final  160.51 input  -65.29 | X-H torsion
[ 10718 10713 10712 10709 ] final  -46.46 input   66.30 | X-H torsion
[ 10763 10752 10751 10750 ] final  -56.18 input  -60.55 | X-H torsion
[ 11005 11000 10999 10996 ] final -154.98 input  -57.11 | X-H torsion

> <Gold.Protein.ActiveResidues>
 VAL166  LYS551  ARG553  GLY616  TRP617  ASP618  TYR619  PRO620  LYS621  CYS622 
 ASP623  PHE694  ASN695  SER759  ASP760  ASP761  ALA762  ILE779  LEU786  VAL792 
 PHE793  MET794  SER795  GLU796  ALA797  LYS798  CYS799  TRP800  GLU811  SER814 

> <Gold.Protein.RotatedAtoms>
  150.8877  134.8276  159.7270 H   0  0  0  0  0  0  0  0  0  0  0  0  # atno 6907 bound_to 6896
  152.4817  134.4697  159.9641 H   0  0  0  0  0  0  0  0  0  0  0  0  # atno 6908 bound_to 6896
  151.4764  133.3518  159.2867 H   0  0  0  0  0  0  0  0  0  0  0  0  # atno 6909 bound_to 6896
  145.8656  140.8253  142.9914 H   0  0  0  0  0  0  0  0  0  0  0  0  # atno 7974 bound_to 7965
  155.2893  140.0447  157.3022 H   0  0  0  0  0  0  0  0  0  0  0  0  # atno 8008 bound_to 7997
  154.5551  140.2329  155.8391 H   0  0  0  0  0  0  0  0  0  0  0  0  # atno 8009 bound_to 7997
  156.2000  140.3028  155.9514 H   0  0  0  0  0  0  0  0  0  0  0  0  # atno 8010 bound_to 7997
  139.4840  144.4626  151.8684 H   0  0  0  0  0  0  0  0  0  0  0  0  # atno 10167 bound_to 10162
  156.2181  130.4164  149.9028 H   0  0  0  0  0  0  0  0  0  0  0  0  # atno 10718 bound_to 10713
  154.2026  135.6408  153.5091 H   0  0  0  0  0  0  0  0  0  0  0  0  # atno 10763 bound_to 10752
  153.0008  135.5455  154.6299 H   0  0  0  0  0  0  0  0  0  0  0  0  # atno 10764 bound_to 10752
  154.5716  135.2917  155.0795 H   0  0  0  0  0  0  0  0  0  0  0  0  # atno 10765 bound_to 10752
  140.6915  134.4036  157.5219 H   0  0  0  0  0  0  0  0  0  0  0  0  # atno 11005 bound_to 11000
  144.6726  140.1162  143.7452 LP  0  0  0  0  0  0  0  0  0  0  0  0  # atno 17320 bound_to 7965
  145.9197  139.2538  143.1389 LP  0  0  0  0  0  0  0  0  0  0  0  0  # atno 17321 bound_to 7965
  140.4090  144.2394  150.5889 LP  0  0  0  0  0  0  0  0  0  0  0  0  # atno 17342 bound_to 10162
  140.4985  143.2325  151.8714 LP  0  0  0  0  0  0  0  0  0  0  0  0  # atno 17343 bound_to 10162
  156.6683  130.8810  151.3558 LP  0  0  0  0  0  0  0  0  0  0  0  0  # atno 17370 bound_to 10713
  157.7073  130.9400  150.0974 LP  0  0  0  0  0  0  0  0  0  0  0  0  # atno 17371 bound_to 10713
  139.8922  134.8760  156.2282 LP  0  0  0  0  0  0  0  0  0  0  0  0  # atno 17394 bound_to 11000
  141.0237  133.7027  156.1312 LP  0  0  0  0  0  0  0  0  0  0  0  0  # atno 17395 bound_to 11000

$$$$
