AV-unprocessed.smi:4|AV-procd|sdf|35|dock3
  -GOLD-   2262015153D 1   1.00000     0.00000
 Structure written by MMmdl.
 43 44  0  0  0  0  0  0  0  0  3 V2000
  148.8772  133.2579  153.3830 C   0  0  0  0  0  0  0  0  0  0  0  0
  149.1016  133.2483  154.9191 C   0  0  0  0  0  0  0  0  0  0  0  0
  147.6991  133.0439  155.5444 C   0  0  0  0  0  0  0  0  0  0  0  0
  150.0020  132.0161  155.1917 C   0  0  0  0  0  0  0  0  0  0  0  0
  149.7413  134.5047  155.4582 N   0  0  0  0  0  0  0  0  0  0  0  0
  150.0337  135.5828  154.5825 C   0  0  0  0  0  0  0  0  0  0  0  0
  150.6128  136.7341  154.9804 C   0  0  0  0  0  0  0  0  0  0  0  0
  150.9255  137.8675  154.0154 C   0  0  0  0  0  0  0  0  0  0  0  0
  149.6835  138.5140  153.5460 N   0  3  0  0  0  0  0  0  0  0  0  0
  148.9510  139.2461  154.5985 C   0  0  0  0  0  0  0  0  0  0  0  0
  148.6430  140.6842  154.1745 C   0  0  0  0  0  0  0  0  0  0  0  0
  149.7353  141.0939  153.3744 O   0  0  0  0  0  0  0  0  0  0  0  0
  147.2551  140.9743  153.5743 C   0  0  0  0  0  0  0  0  0  0  0  0
  147.1712  142.2454  154.4201 C   0  0  0  0  0  0  0  0  0  0  0  0
  148.2902  141.6788  155.2948 C   0  0  0  0  0  0  0  0  0  0  0  0
  150.9595  136.8594  156.3935 C   0  0  0  0  0  0  0  0  0  0  0  0
  151.4992  137.8876  156.8008 O   0  0  0  0  0  0  0  0  0  0  0  0
  150.6567  135.8179  157.2126 N   0  5  0  0  0  0  0  0  0  0  0  0
  150.0603  134.6624  156.7900 C   0  0  0  0  0  0  0  0  0  0  0  0
  149.8088  133.7670  157.5940 O   0  0  0  0  0  0  0  0  0  0  0  0
  148.4252  132.3247  153.0440 H   0  0  0  0  0  0  0  0  0  0  0  0
  149.8142  133.3619  152.8339 H   0  0  0  0  0  0  0  0  0  0  0  0
  148.1992  134.0539  153.0719 H   0  0  0  0  0  0  0  0  0  0  0  0
  147.0707  133.9224  155.3946 H   0  0  0  0  0  0  0  0  0  0  0  0
  147.7291  132.8414  156.6136 H   0  0  0  0  0  0  0  0  0  0  0  0
  147.1847  132.1964  155.0904 H   0  0  0  0  0  0  0  0  0  0  0  0
  149.6099  131.1237  154.7026 H   0  0  0  0  0  0  0  0  0  0  0  0
  150.0846  131.7644  156.2475 H   0  0  0  0  0  0  0  0  0  0  0  0
  151.0117  132.1759  154.8119 H   0  0  0  0  0  0  0  0  0  0  0  0
  149.7744  135.4620  153.5468 H   0  0  0  0  0  0  0  0  0  0  0  0
  151.5623  138.5999  154.5137 H   0  0  0  0  0  0  0  0  0  0  0  0
  151.4818  137.4869  153.1579 H   0  0  0  0  0  0  0  0  0  0  0  0
  149.9083  139.1586  152.8016 H   0  0  0  0  0  0  0  0  0  0  0  0
  148.0237  138.7107  154.8073 H   0  0  0  0  0  0  0  0  0  0  0  0
  149.5330  139.2289  155.5213 H   0  0  0  0  0  0  0  0  0  0  0  0
  149.8857  140.4096  152.7394 H   0  0  0  0  0  0  0  0  0  0  0  0
  147.2494  141.1529  152.4985 H   0  0  0  0  0  0  0  0  0  0  0  0
  146.5062  140.2323  153.8565 H   0  0  0  0  0  0  0  0  0  0  0  0
  147.4750  143.1381  153.8719 H   0  0  0  0  0  0  0  0  0  0  0  0
  146.2201  142.3881  154.9341 H   0  0  0  0  0  0  0  0  0  0  0  0
  147.9116  141.1917  156.1947 H   0  0  0  0  0  0  0  0  0  0  0  0
  149.0751  142.3971  155.5350 H   0  0  0  0  0  0  0  0  0  0  0  0
  149.0781  137.7939  153.1760 H   0  0  0  0  0  0  0  0  0  0  0  0
  1  2  1  0  0  0  0
  1 21  1  0  0  0  0
  1 22  1  0  0  0  0
  1 23  1  0  0  0  0
  2  3  1  0  0  0  0
  2  4  1  0  0  0  0
  2  5  1  0  0  0  0
  3 24  1  0  0  0  0
  3 25  1  0  0  0  0
  3 26  1  0  0  0  0
  4 27  1  0  0  0  0
  4 28  1  0  0  0  0
  4 29  1  0  0  0  0
  5 19  1  0  0  0  0
  5  6  1  0  0  0  0
  6  7  2  0  0  0  0
  6 30  1  0  0  0  0
  7  8  1  0  0  0  0
  7 16  1  0  0  0  0
  8  9  1  0  0  0  0
  8 31  1  0  0  0  0
  8 32  1  0  0  0  0
  9 10  1  0  0  0  0
  9 33  1  0  0  0  0
  9 43  1  0  0  0  0
 10 11  1  0  0  0  0
 10 34  1  0  0  0  0
 10 35  1  0  0  0  0
 11 15  1  0  0  0  0
 11 12  1  0  0  0  0
 11 13  1  0  0  0  0
 12 36  1  0  0  0  0
 13 14  1  0  0  0  0
 13 37  1  0  0  0  0
 13 38  1  0  0  0  0
 14 15  1  0  0  0  0
 14 39  1  0  0  0  0
 14 40  1  0  0  0  0
 15 41  1  0  0  0  0
 15 42  1  0  0  0  0
 16 17  2  0  0  0  0
 16 18  1  0  0  0  0
 18 19  1  0  0  0  0
 19 20  2  0  0  0  0
M  CHG  1   9   1
M  CHG  1  18  -1
M  END
> <s_m_source_file>
AV-unprocessed.smi

> <i_m_source_file_index>
4

> <i_lp_mmshare_version>
43012

> <i_f3d_flags>
0

> <s_epik_input>
W0NIM11DKFtDSDNdKShbQ0gzXSluMVtjSF1jKGMoPU8pW25IXWMxPU8pW0NIMl1bTkhdW0NIMl1DMihbT0hdKVtDSDJdW0NIMl1bQ0gyXTI=

> <s_epik_cmdline>
J2VwaWtfcHl0aG9uJywgJy1waCcsICc3LjAnLCAnLXRuJywgJzgnLCAnLW1hJywgJzIwMCcsICctbWV0YWxfYmluZGluZycsICctaW1hZScsICc8aW5maWxlLm1hZT4nLCAnLW9tYWUnLCAnPG91dGZpbGUubWFlPic=

> <r_lp_tautomer_probability>
0.999537

> <r_epik_Ionization_Penalty>
3.42736

> <r_epik_Ionization_Penalty_Charging>
0.0116785

> <r_epik_Ionization_Penalty_Neutral>
3.41568

> <r_epik_State_Penalty>
3.42726

> <r_epik_Charging_Adjusted_Penalty>
3.43893

> <i_epik_Tot_Q>
0

> <i_epik_Tot_abs_Q>
2

> <r_epik_Metal_State_Penalty>
0.176979

> <b_epik_Metal_Only>
1

> <s_lp_Force_Field>
OPLS_2005

> <r_lp_Energy>
29.0009

> <b_lp_Chiralities_Consistent>
1

> <s_lp_Variant>
AV-unprocessed.smi:4-3

> <Gold.Version>
5.8.1

> <Gold.Id.Protein>
6NUR|6NUR_protein|mol2

> <Gold.PLP.Fitness>
51.4614

> <Gold.PLP.PLP>
-34.6299

> <Gold.PLP.part.hbond>
-5.4286

> <Gold.PLP.part.metal>
0.0000

> <Gold.PLP.part.buried>
-2.8159

> <Gold.PLP.part.nonpolar>
-26.9017

> <Gold.PLP.part.repulsive>
0.0776

> <Gold.PLP.ligand.clash>
0.0000

> <Gold.PLP.ligand.torsion>
0.9535

> <Gold.PLP.Chemscore.Hbond>
5.7520

> <Gold.PLP.Chemscore.CHOScore>
0.4504

> <Gold.PLP.Chemscore.Metal>
0.0000

> <Gold.Chemscore.Hbonds>
donor molecule, donor type, donor heavy atom, donor atom, acceptor molecule, acceptor atom, score
      L1  H     9    33       P1  7957  1.00
      L1  H     9    43       P1  7948  1.73
      L1  H    12    36       P1  7957  0.82
      P1  H  6896  6907       L1    20  1.00
      P1  H  8011  8017       L1    12  0.90
      L1  C     6    30       P1  7948  0.46

> <Gold.PLP.Chemscore.Internal.Correction>
0.1314

> <Gold.Rescore>
     Score         DG    S(hbond)    S(metal)    S(lipo)     H(rot)  DE(clash)    DE(int)     intcor
     18.21     -20.57       3.89        0.00      72.06       2.47       0.03       2.32       ----

> <Gold.Chemscore.Fitness>
18.2098

> <Gold.Chemscore.DG>
-20.5667

> <Gold.Chemscore.ZeroCoef>
-5.4800

> <Gold.Chemscore.Hbond>
3.8853

> <Gold.Chemscore.Metal>
0.0000

> <Gold.Chemscore.Lipo>
72.0644

> <Gold.Chemscore.Internal_Hbond>
0.0000

> <Gold.Chemscore.DEClash>
0.0336

> <Gold.Chemscore.DEInternal>
2.3234

> <Gold.Chemscore.Rot>
2.4694

> <Gold.Chemscore.Internal.Correction>
   9.000000E+99

> <Gold.Chemscore.Hbonds>
donor molecule, donor type, donor heavy atom, donor atom, acceptor molecule, acceptor atom, score
      L1  H     9    33       P1  7957  0.91
      L1  H     9    43       P1  7948  0.80
      L1  H    12    36       P1  7957  0.81
      P1  H  6896  6907       L1    20  0.89
      P1  H  8011  8017       L1    12  0.17

> <Gold.Chemscore.Hbond.Weighted>
-12.9768

> <Gold.Chemscore.Metal.Weighted>
-0.0000

> <Gold.Chemscore.Lipo.Weighted>
-8.4315

> <Gold.Chemscore.Internal_Hbond.Weighted>
0.0000

> <Gold.Chemscore.DEClash.Weighted>
0.0336

> <Gold.Chemscore.DEInternal.Weighted>
2.3234

> <Gold.Chemscore.Rot.Weighted>
6.3216

> <Gold.Chemscore.Internal.Correction.Weighted>
   9.000000E+99

> <Gold.Protein.RotatedTorsions>
[ 6907 6896 6895 6894 ] final -115.02 input  -60.11 | X-H torsion
[ 7974 7965 7964 7962 ] final  162.12 input  175.53 | X-H torsion
[ 8008 7997 7996 7995 ] final   86.12 input   59.86 | X-H torsion
[ 10167 10162 10161 10158 ] final -144.23 input  -65.29 | X-H torsion
[ 10718 10713 10712 10709 ] final -173.38 input   66.30 | X-H torsion
[ 10763 10752 10751 10750 ] final   21.94 input  -60.55 | X-H torsion
[ 11005 11000 10999 10996 ] final   44.90 input  -57.11 | X-H torsion

> <Gold.Protein.ActiveResidues>
 VAL166  LYS551  ARG553  GLY616  TRP617  ASP618  TYR619  PRO620  LYS621  CYS622 
 ASP623  PHE694  ASN695  SER759  ASP760  ASP761  ALA762  ILE779  LEU786  VAL792 
 PHE793  MET794  SER795  GLU796  ALA797  LYS798  CYS799  TRP800  GLU811  SER814 

> <Gold.Protein.RotatedAtoms>
  150.7946  133.8718  159.3260 H   0  0  0  0  0  0  0  0  0  0  0  0  # atno 6907 bound_to 6896
  151.6547  135.0995  160.0177 H   0  0  0  0  0  0  0  0  0  0  0  0  # atno 6908 bound_to 6896
  152.4026  133.6801  159.6364 H   0  0  0  0  0  0  0  0  0  0  0  0  # atno 6909 bound_to 6896
  144.7652  139.7995  143.6318 H   0  0  0  0  0  0  0  0  0  0  0  0  # atno 7974 bound_to 7965
  155.9588  140.3395  155.6472 H   0  0  0  0  0  0  0  0  0  0  0  0  # atno 8008 bound_to 7997
  155.6825  140.0739  157.2497 H   0  0  0  0  0  0  0  0  0  0  0  0  # atno 8009 bound_to 7997
  154.4138  140.1671  156.1986 H   0  0  0  0  0  0  0  0  0  0  0  0  # atno 8010 bound_to 7997
  139.7918  143.7955  152.2650 H   0  0  0  0  0  0  0  0  0  0  0  0  # atno 10167 bound_to 10162
  156.7694  130.9443  151.3119 H   0  0  0  0  0  0  0  0  0  0  0  0  # atno 10718 bound_to 10713
  153.0954  135.6658  153.9772 H   0  0  0  0  0  0  0  0  0  0  0  0  # atno 10763 bound_to 10752
  153.9358  135.2999  155.3445 H   0  0  0  0  0  0  0  0  0  0  0  0  # atno 10764 bound_to 10752
  154.7373  135.5096  153.9136 H   0  0  0  0  0  0  0  0  0  0  0  0  # atno 10765 bound_to 10752
  140.1509  134.4463  155.8383 H   0  0  0  0  0  0  0  0  0  0  0  0  # atno 11005 bound_to 11000
  146.1753  139.4921  142.9901 LP  0  0  0  0  0  0  0  0  0  0  0  0  # atno 17320 bound_to 7965
  145.6493  141.0267  143.1769 LP  0  0  0  0  0  0  0  0  0  0  0  0  # atno 17321 bound_to 7965
  139.8049  144.7359  150.9775 LP  0  0  0  0  0  0  0  0  0  0  0  0  # atno 17342 bound_to 10162
  140.7820  143.4308  151.0697 LP  0  0  0  0  0  0  0  0  0  0  0  0  # atno 17343 bound_to 10162
  157.6698  130.9040  150.0014 LP  0  0  0  0  0  0  0  0  0  0  0  0  # atno 17370 bound_to 10713
  156.1287  130.3644  149.9766 LP  0  0  0  0  0  0  0  0  0  0  0  0  # atno 17371 bound_to 10713
  141.2199  133.6872  156.7419 LP  0  0  0  0  0  0  0  0  0  0  0  0  # atno 17394 bound_to 11000
  140.2606  134.8469  157.3755 LP  0  0  0  0  0  0  0  0  0  0  0  0  # atno 17395 bound_to 11000

$$$$
