#       Name:                AV-unprocessed.smi:1579
#       Creating user name   scv26
#       Creation time:       Fri Mar 27 06:58:03 2020


#       File generated by GOLD software.
#

@<TRIPOS>MOLECULE
AV-unprocessed.smi:1579
    53    54     1
SMALL
NO_CHARGES


@<TRIPOS>ATOM
      1 ****        -3.6877   3.3658   2.9804 C.3            1 S1                 0.0000
      2 ****        -3.2793   2.8414   1.6300 C.2            1 S1                 0.0000
      3 ****        -2.8135   1.6360   1.5915 N.2            1 S1                 0.0000
      4 ****        -2.4137   1.0578   0.4036 N.am           1 S1                 0.0000
      5 ****        -1.9182  -0.3164   0.5466 C.3            1 S1                 0.0000
      6 ****        -0.3749  -0.3827   0.5336 C.3            1 S1                 0.0000
      7 ****         0.0904  -0.1209   1.8433 O.3            1 S1                 0.0000
      8 ****         0.1258  -1.7868   0.1374 C.3            1 S1                 0.0000
      9 ****         1.6055  -1.8572   0.0231 N.4            1 S1                 1.0000
     10 ****         2.1275  -1.2668  -1.2385 C.3            1 S1                 0.0000
     11 ****         3.6665  -1.2463  -1.2476 C.3            1 S1                 0.0000
     12 ****         4.2696  -2.6438  -1.0169 C.3            1 S1                 0.0000
     13 ****         4.1352  -3.5610  -2.2452 C.3            1 S1                 0.0000
     14 ****         3.6601  -3.2589   0.2558 C.3            1 S1                 0.0000
     15 ****         2.1208  -3.2342   0.2358 C.3            1 S1                 0.0000
     16 ****        -2.4575   1.6718  -0.8134 C.2            1 S1                 0.0000
     17 ****        -2.0772   1.1187  -1.8468 O.2            1 S1                 0.0000
     18 ****        -2.9864   3.0366  -0.7634 C.2            1 S1                 0.0000
     19 ****        -3.0534   3.7153  -2.0173 C.1            1 S1                 0.0000
     20 ****        -3.1043   4.2831  -3.0247 N.1            1 S1                 0.0000
     21 ****        -3.3839   3.6157   0.3972 C.2            1 S1                 0.0000
     22 ****        -3.9386   5.0297   0.5036 C.3            1 S1                 0.0000
     23 ****        -4.7321   3.6783   2.9757 H              1 S1                 0.0000
     24 ****        -3.0780   4.2247   3.2619 H              1 S1                 0.0000
     25 ****        -3.5743   2.6123   3.7612 H              1 S1                 0.0000
     26 ****        -2.3164  -0.7867   1.4484 H              1 S1                 0.0000
     27 ****        -2.3210  -0.9119  -0.2750 H              1 S1                 0.0000
     28 ****         0.0271   0.3688  -0.1446 H              1 S1                 0.0000
     29 ****        -0.2345   0.7248   2.1143 H              1 S1                 0.0000
     30 ****        -0.2246  -2.5012   0.8844 H              1 S1                 0.0000
     31 ****        -0.3172  -2.0995  -0.8096 H              1 S1                 0.0000
     32 ****         1.7491  -1.8310  -2.0919 H              1 S1                 0.0000
     33 ****         1.7657  -0.2466  -1.3590 H              1 S1                 0.0000
     34 ****         4.0305  -0.8275  -2.1865 H              1 S1                 0.0000
     35 ****         4.0148  -0.5733  -0.4627 H              1 S1                 0.0000
     36 ****         5.3391  -2.5171  -0.8430 H              1 S1                 0.0000
     37 ****         3.0946  -3.7532  -2.5055 H              1 S1                 0.0000
     38 ****         4.6122  -4.5248  -2.0661 H              1 S1                 0.0000
     39 ****         4.6155  -3.1172  -3.1176 H              1 S1                 0.0000
     40 ****         4.0170  -4.2805   0.3908 H              1 S1                 0.0000
     41 ****         4.0105  -2.7002   1.1250 H              1 S1                 0.0000
     42 ****         1.7504  -3.6208   1.1861 H              1 S1                 0.0000
     43 ****         1.7357  -3.8944  -0.5426 H              1 S1                 0.0000
     44 ****        -3.9314   5.5493  -0.4540 H              1 S1                 0.0000
     45 ****        -3.3470   5.6236   1.2006 H              1 S1                 0.0000
     46 ****        -4.9695   5.0088   0.8582 H              1 S1                 0.0000
     47 ****         1.9707  -1.3018   0.7841 H              1 S1                 0.0000
     48 ****        -2.7413   1.1116   2.4399 LP             1 S1                 0.0000
     49 ****         1.0904  -0.1163   1.8512 LP             1 S1                 0.0000
     50 ****        -0.2446  -0.8267   2.4675 LP             1 S1                 0.0000
     51 ****        -1.7201   0.1853  -1.8120 LP             1 S1                 0.0000
     52 ****        -2.1257   1.6033  -2.7202 LP             1 S1                 0.0000
     53 ****        -3.1483   4.7736  -3.8950 LP             1 S1                 0.0000
@<TRIPOS>BOND
    1    1    2 1     
    2    1   23 1     
    3    1   24 1     
    4    1   25 1     
    5    2   21 1     
    6    2    3 2     
    7    3    4 1     
    8    4    5 1     
    9    4   16 am    
   10    5    6 1     
   11    5   26 1     
   12    5   27 1     
   13    6    7 1     
   14    6    8 1     
   15    6   28 1     
   16    7   29 1     
   17    8    9 1     
   18    8   30 1     
   19    8   31 1     
   20    9   15 1     
   21    9   10 1     
   22    9   47 1     
   23   10   11 1     
   24   10   32 1     
   25   10   33 1     
   26   11   12 1     
   27   11   34 1     
   28   11   35 1     
   29   12   13 1     
   30   12   14 1     
   31   12   36 1     
   32   13   37 1     
   33   13   38 1     
   34   13   39 1     
   35   14   15 1     
   36   14   40 1     
   37   14   41 1     
   38   15   42 1     
   39   15   43 1     
   40   16   17 2     
   41   16   18 1     
   42   18   19 1     
   43   18   21 2     
   44   19   20 3     
   45   21   22 1     
   46   22   44 1     
   47   22   45 1     
   48   22   46 1     
   49    3   48 1     
   50    7   49 1     
   51    7   50 1     
   52   17   51 1     
   53   17   52 1     
   54   20   53 1     
@<TRIPOS>SUBSTRUCTURE
      1 S1             1
@<TRIPOS>SET
LONE_PAIRS      STATIC     ATOMS    <user>   **** ""
6 48 49 50 51 52 53
DONOR_HYDROGENS      STATIC     ATOMS    <user>   **** ""
2 29 47
ATOM$BLUE        STATIC     ATOMS    COLORGROUP SYSTEM
6 48 49 50 51 52 53
ATOM$RED        STATIC     ATOMS    COLORGROUP SYSTEM
2 29 47
