AV-unprocessed.smi:1596|AV-procd|sdf|6417|dock1
  -GOLD-   22720 7 53D 1   1.00000     0.00000
 Structure written by MMmdl.
 49 50  0  0  0  0  0  0  0  0  2 V2000
  152.1764  144.6546  158.1688 C   0  0  0  0  0  0  0  0  0  0  0  0
  151.2524  143.8054  157.2831 C   0  0  0  0  0  0  0  0  0  0  0  0
  151.4568  142.3641  157.4493 N   0  0  0  0  0  0  0  0  0  0  0  0
  152.4486  141.8861  158.4129 C   0  0  0  0  0  0  0  0  0  0  0  0
  152.0705  142.1824  159.8719 C   0  0  0  0  0  0  0  0  0  0  0  0
  150.8321  141.4555  156.5597 C   0  0  0  0  0  0  0  0  0  0  0  0
  151.4236  140.2379  156.1377 C   0  0  0  0  0  0  0  0  0  0  0  0
  150.7330  139.3882  155.2493 C   0  0  0  0  0  0  0  0  0  0  0  0
  149.4489  139.7459  154.7901 C   0  0  0  0  0  0  0  0  0  0  0  0
  148.7962  138.8669  153.8838 N   0  0  0  0  0  0  0  0  0  0  0  0
  147.4776  138.7185  153.6683 C   0  0  0  0  0  0  0  0  0  0  0  0
  146.5874  139.3114  154.2774 O   0  0  0  0  0  0  0  0  0  0  0  0
  147.2410  137.8176  152.7039 N   0  0  0  0  0  0  0  0  0  0  0  0
  145.9189  137.4126  152.2348 C   0  0  2  0  0  0  0  0  0  0  0  0
  144.9955  137.1708  153.4428 C   0  0  0  0  0  0  0  0  0  0  0  0
  143.5995  136.6960  153.0026 C   0  0  0  0  0  0  0  0  0  0  0  0
  143.6651  135.4515  152.0972 C   0  0  2  0  0  0  0  0  0  0  0  0
  144.0711  134.3257  152.8503 O   0  0  0  0  0  0  0  0  0  0  0  0
  144.6225  135.6657  150.9098 C   0  0  0  0  0  0  0  0  0  0  0  0
  146.0133  136.1454  151.3603 C   0  0  0  0  0  0  0  0  0  0  0  0
  148.9025  140.9742  155.2294 C   0  0  0  0  0  0  0  0  0  0  0  0
  149.6008  141.7579  156.0789 N   0  3  0  0  0  0  0  0  0  0  0  0
  152.0093  145.7162  157.9863 H   0  0  0  0  0  0  0  0  0  0  0  0
  153.2278  144.4487  157.9676 H   0  0  0  0  0  0  0  0  0  0  0  0
  151.9962  144.4760  159.2279 H   0  0  0  0  0  0  0  0  0  0  0  0
  150.2158  144.0450  157.5215 H   0  0  0  0  0  0  0  0  0  0  0  0
  151.3770  144.0834  156.2361 H   0  0  0  0  0  0  0  0  0  0  0  0
  152.5621  140.8084  158.2921 H   0  0  0  0  0  0  0  0  0  0  0  0
  153.4286  142.3014  158.1795 H   0  0  0  0  0  0  0  0  0  0  0  0
  152.8556  141.8405  160.5463 H   0  0  0  0  0  0  0  0  0  0  0  0
  151.1524  141.6727  160.1604 H   0  0  0  0  0  0  0  0  0  0  0  0
  151.9299  143.2492  160.0457 H   0  0  0  0  0  0  0  0  0  0  0  0
  152.4034  139.9358  156.4741 H   0  0  0  0  0  0  0  0  0  0  0  0
  151.1899  138.4634  154.9282 H   0  0  0  0  0  0  0  0  0  0  0  0
  149.4026  138.2495  153.3637 H   0  0  0  0  0  0  0  0  0  0  0  0
  148.0323  137.3761  152.2589 H   0  0  0  0  0  0  0  0  0  0  0  0
  145.4930  138.2226  151.6391 H   0  0  0  0  0  0  0  0  0  0  0  0
  145.4396  136.4265  154.1055 H   0  0  0  0  0  0  0  0  0  0  0  0
  144.9006  138.0853  154.0293 H   0  0  0  0  0  0  0  0  0  0  0  0
  142.9786  136.4952  153.8764 H   0  0  0  0  0  0  0  0  0  0  0  0
  143.1072  137.5040  152.4600 H   0  0  0  0  0  0  0  0  0  0  0  0
  142.6665  135.2355  151.7161 H   0  0  0  0  0  0  0  0  0  0  0  0
  143.4707  133.6166  152.6772 H   0  0  0  0  0  0  0  0  0  0  0  0
  144.7130  134.7493  150.3255 H   0  0  0  0  0  0  0  0  0  0  0  0
  144.1939  136.4116  150.2393 H   0  0  0  0  0  0  0  0  0  0  0  0
  146.6298  136.3381  150.4817 H   0  0  0  0  0  0  0  0  0  0  0  0
  146.5118  135.3493  151.9150 H   0  0  0  0  0  0  0  0  0  0  0  0
  147.9446  141.3726  154.9311 H   0  0  0  0  0  0  0  0  0  0  0  0
  149.1739  142.6361  156.3747 H   0  0  0  0  0  0  0  0  0  0  0  0
  1  2  1  0  0  0  0
  1 23  1  0  0  0  0
  1 24  1  0  0  0  0
  1 25  1  0  0  0  0
  2  3  1  0  0  0  0
  2 26  1  0  0  0  0
  2 27  1  0  0  0  0
  3  4  1  0  0  0  0
  3  6  1  0  0  0  0
  4  5  1  0  0  0  0
  4 28  1  0  0  0  0
  4 29  1  0  0  0  0
  5 30  1  0  0  0  0
  5 31  1  0  0  0  0
  5 32  1  0  0  0  0
  6 22  1  0  0  0  0
  6  7  2  0  0  0  0
  7  8  1  0  0  0  0
  7 33  1  0  0  0  0
  8  9  2  0  0  0  0
  8 34  1  0  0  0  0
  9 10  1  0  0  0  0
  9 21  1  0  0  0  0
 10 11  1  0  0  0  0
 10 35  1  0  0  0  0
 11 12  2  0  0  0  0
 11 13  1  0  0  0  0
 13 14  1  0  0  0  0
 13 36  1  0  0  0  0
 14 20  1  0  0  0  0
 14 15  1  0  0  0  0
 14 37  1  0  0  0  0
 15 16  1  0  0  0  0
 15 38  1  0  0  0  0
 15 39  1  0  0  0  0
 16 17  1  0  0  0  0
 16 40  1  0  0  0  0
 16 41  1  0  0  0  0
 17 18  1  0  0  0  0
 17 19  1  0  0  0  0
 17 42  1  0  0  0  0
 18 43  1  0  0  0  0
 19 20  1  0  0  0  0
 19 44  1  0  0  0  0
 19 45  1  0  0  0  0
 20 46  1  0  0  0  0
 20 47  1  0  0  0  0
 21 22  2  0  0  0  0
 21 48  1  0  0  0  0
 22 49  1  0  0  0  0
M  CHG  1  22   1
M  END
> <s_m_source_file>
AV-unprocessed.smi

> <i_m_source_file_index>
1596

> <i_lp_mmshare_version>
43012

> <i_f3d_flags>
0

> <s_epik_input>
W0NIM11bQ0gyXU4oW0NIMl1bQ0gzXSljMVtjSF1bY0hdYyhbY0hdbjEpW05IXUMoPU8pW05IXVtDQEBIXTJbQ0gyXVtDSDJdW0NAQEhdKFtPSF0pW0NIMl1bQ0gyXTI=

> <s_epik_cmdline>
J2VwaWtfcHl0aG9uJywgJy1waCcsICc3LjAnLCAnLXRuJywgJzgnLCAnLW1hJywgJzIwMCcsICctbWV0YWxfYmluZGluZycsICctaW1hZScsICc8aW5maWxlLm1hZT4nLCAnLW9tYWUnLCAnPG91dGZpbGUubWFlPic=

> <r_lp_tautomer_probability>
0.999994

> <r_epik_Ionization_Penalty>
0.224167

> <r_epik_Ionization_Penalty_Charging>
0.224146

> <r_epik_Ionization_Penalty_Neutral>
2.1696e-05

> <r_epik_State_Penalty>
0.0144855

> <r_epik_Charging_Adjusted_Penalty>
0.238631

> <i_epik_Tot_Q>
1

> <i_epik_Tot_abs_Q>
1

> <r_epik_Metal_State_Penalty>
0.0446449

> <b_epik_Metal_Only>
0

> <s_lp_Force_Field>
OPLS_2005

> <r_lp_Energy>
23.6459

> <b_lp_Chiralities_Consistent>
1

> <s_lp_Variant>
AV-unprocessed.smi:1596-2

> <Gold.Version>
5.8.1

> <Gold.Id.Protein>
6NUR|6NUR_protein|mol2

> <Gold.PLP.Fitness>
47.0266

> <Gold.PLP.PLP>
-39.3533

> <Gold.PLP.part.hbond>
-2.9280

> <Gold.PLP.part.metal>
0.0000

> <Gold.PLP.part.buried>
-0.6299

> <Gold.PLP.part.nonpolar>
-36.8650

> <Gold.PLP.part.repulsive>
0.3714

> <Gold.PLP.ligand.clash>
0.0000

> <Gold.PLP.ligand.torsion>
0.7740

> <Gold.PLP.Chemscore.Hbond>
3.0000

> <Gold.PLP.Chemscore.CHOScore>
0.0000

> <Gold.PLP.Chemscore.Metal>
0.0000

> <Gold.Chemscore.Hbonds>
donor molecule, donor type, donor heavy atom, donor atom, acceptor molecule, acceptor atom, score
      L1  H    13    36       P1  7948  0.94
      L1  H    22    49       P1  8028  0.85

> <Gold.PLP.Chemscore.Internal.Correction>
0.2211

> <Gold.Rescore>
     Score         DG    S(hbond)    S(metal)    S(lipo)     H(rot)  DE(clash)    DE(int)     intcor
     14.16     -18.28       1.79        0.00      98.32       1.83       1.05       3.07       ----

> <Gold.Chemscore.Fitness>
14.1596

> <Gold.Chemscore.DG>
-18.2759

> <Gold.Chemscore.ZeroCoef>
-5.4800

> <Gold.Chemscore.Hbond>
1.7908

> <Gold.Chemscore.Metal>
0.0000

> <Gold.Chemscore.Lipo>
98.3222

> <Gold.Chemscore.Internal_Hbond>
0.0000

> <Gold.Chemscore.DEClash>
1.0486

> <Gold.Chemscore.DEInternal>
3.0677

> <Gold.Chemscore.Rot>
1.8317

> <Gold.Chemscore.Internal.Correction>
   9.000000E+99

> <Gold.Chemscore.Hbonds>
donor molecule, donor type, donor heavy atom, donor atom, acceptor molecule, acceptor atom, score
      L1  H    10    35       P1  7948  0.01
      L1  H    13    36       P1  7948  0.89
      L1  H    22    49       P1  8028  0.41

> <Gold.Chemscore.Hbond.Weighted>
-5.9813

> <Gold.Chemscore.Metal.Weighted>
-0.0000

> <Gold.Chemscore.Lipo.Weighted>
-11.5037

> <Gold.Chemscore.Internal_Hbond.Weighted>
0.0000

> <Gold.Chemscore.DEClash.Weighted>
1.0486

> <Gold.Chemscore.DEInternal.Weighted>
3.0677

> <Gold.Chemscore.Rot.Weighted>
4.6892

> <Gold.Chemscore.Internal.Correction.Weighted>
   9.000000E+99

> <Gold.Protein.RotatedTorsions>
[ 6907 6896 6895 6894 ] final   44.53 input  -60.11 | X-H torsion
[ 7974 7965 7964 7962 ] final  174.68 input  175.53 | X-H torsion
[ 8008 7997 7996 7995 ] final   27.15 input   59.86 | X-H torsion
[ 10167 10162 10161 10158 ] final  133.26 input  -65.29 | X-H torsion
[ 10718 10713 10712 10709 ] final  112.05 input   66.30 | X-H torsion
[ 10763 10752 10751 10750 ] final -134.10 input  -60.55 | X-H torsion
[ 11005 11000 10999 10996 ] final -173.90 input  -57.11 | X-H torsion

> <Gold.Protein.ActiveResidues>
 VAL166  LYS551  ARG553  GLY616  TRP617  ASP618  TYR619  PRO620  LYS621  CYS622 
 ASP623  PHE694  ASN695  SER759  ASP760  ASP761  ALA762  ILE779  LEU786  VAL792 
 PHE793  MET794  SER795  GLU796  ALA797  LYS798  CYS799  TRP800  GLU811  SER814 

> <Gold.Protein.RotatedAtoms>
  152.2336  134.8298  160.0470 H   0  0  0  0  0  0  0  0  0  0  0  0  # atno 6907 bound_to 6896
  151.9038  133.3539  159.3848 H   0  0  0  0  0  0  0  0  0  0  0  0  # atno 6908 bound_to 6896
  150.7032  134.4727  159.5477 H   0  0  0  0  0  0  0  0  0  0  0  0  # atno 6909 bound_to 6896
  144.7216  139.9833  143.6439 H   0  0  0  0  0  0  0  0  0  0  0  0  # atno 7974 bound_to 7965
  155.0384  140.3166  155.4733 H   0  0  0  0  0  0  0  0  0  0  0  0  # atno 8008 bound_to 7997
  156.2860  140.2167  156.5450 H   0  0  0  0  0  0  0  0  0  0  0  0  # atno 8009 bound_to 7997
  154.7311  140.0481  157.0715 H   0  0  0  0  0  0  0  0  0  0  0  0  # atno 8010 bound_to 7997
  139.5305  144.6624  151.4970 H   0  0  0  0  0  0  0  0  0  0  0  0  # atno 10167 bound_to 10162
  157.6413  131.0961  150.6838 H   0  0  0  0  0  0  0  0  0  0  0  0  # atno 10718 bound_to 10713
  154.8724  135.3745  154.4681 H   0  0  0  0  0  0  0  0  0  0  0  0  # atno 10763 bound_to 10752
  153.5344  135.7027  153.5672 H   0  0  0  0  0  0  0  0  0  0  0  0  # atno 10764 bound_to 10752
  153.3862  135.3984  155.1856 H   0  0  0  0  0  0  0  0  0  0  0  0  # atno 10765 bound_to 10752
  140.4805  134.6080  157.4917 H   0  0  0  0  0  0  0  0  0  0  0  0  # atno 11005 bound_to 11000
  146.0470  139.3475  143.0662 LP  0  0  0  0  0  0  0  0  0  0  0  0  # atno 17320 bound_to 7965
  145.8263  140.9653  143.0872 LP  0  0  0  0  0  0  0  0  0  0  0  0  # atno 17321 bound_to 7965
  140.6479  143.8757  150.6755 LP  0  0  0  0  0  0  0  0  0  0  0  0  # atno 17342 bound_to 10162
  140.2112  143.3882  152.1716 LP  0  0  0  0  0  0  0  0  0  0  0  0  # atno 17343 bound_to 10162
  156.7161  130.4666  149.5534 LP  0  0  0  0  0  0  0  0  0  0  0  0  # atno 17370 bound_to 10713
  156.1697  130.6428  151.0821 LP  0  0  0  0  0  0  0  0  0  0  0  0  # atno 17371 bound_to 10713
  139.9829  134.7108  155.9826 LP  0  0  0  0  0  0  0  0  0  0  0  0  # atno 17394 bound_to 11000
  141.1533  133.6545  156.4083 LP  0  0  0  0  0  0  0  0  0  0  0  0  # atno 17395 bound_to 11000

$$$$
