#       Name:                AV-unprocessed.smi:39
#       Creating user name   scv26
#       Creation time:       Thu Mar 26 16:19:15 2020


#       File generated by GOLD software.
#

@<TRIPOS>MOLECULE
AV-unprocessed.smi:39
    42    43     1
SMALL
NO_CHARGES


@<TRIPOS>ATOM
      1 ****        -3.5405   1.7696  -0.7043 C.3            1 S1                 0.0000
      2 ****        -2.9199   0.4112  -0.4219 C.2            1 S1                 0.0000
      3 ****        -1.5888   0.1773  -0.5549 C.2            1 S1                 0.0000
      4 ****        -0.9929  -1.0535  -0.3027 N.am           1 S1                 0.0000
      5 ****         0.4950  -1.2968  -0.4682 C.3            1 S1                 0.0000
      6 ****         1.1764  -1.4641   0.9008 C.3            1 S1                 0.0000
      7 ****         2.3345  -0.4847   0.8196 C.3            1 S1                 0.0000
      8 ****         2.7126   0.0192   2.1434 N.2            1 S1                 0.0000
      9 ****         3.9011   0.3262   2.3049 N.1            1 S1                 1.0000
     10 ****         4.9814   0.6814   2.3511 N.1            1 S1                -1.0000
     11 ****         1.7577   0.5962  -0.0984 C.3            1 S1                 0.0000
     12 ****         2.8139   1.4779  -0.7827 C.3            1 S1                 0.0000
     13 ****         2.2008   2.6319  -1.3157 O.3            1 S1                 0.0000
     14 ****         1.0961  -0.1942  -1.0802 O.3            1 S1                 0.0000
     15 ****        -1.8000  -2.1375   0.1000 C.2            1 S1                 0.0000
     16 ****        -1.3435  -3.2572   0.3285 O.2            1 S1                 0.0000
     17 ****        -3.1658  -1.8978   0.2370 N.am           1 S1                 0.0000
     18 ****        -3.8035  -0.6777   0.0038 C.2            1 S1                 0.0000
     19 ****        -5.0202  -0.5885   0.1606 O.2            1 S1                 0.0000
     20 ****         0.5832  -2.1656  -1.1233 H              1 S1                 0.0000
     21 ****         3.1703  -0.9818   0.3211 H              1 S1                 0.0000
     22 ****         1.0352   1.2016   0.4531 H              1 S1                 0.0000
     23 ****        -3.7442  -2.6722   0.5284 H              1 S1                 0.0000
     24 ****        -2.7908   2.5058  -0.9960 H              1 S1                 0.0000
     25 ****        -4.0511   2.1477   0.1822 H              1 S1                 0.0000
     26 ****        -4.2680   1.6948  -1.5132 H              1 S1                 0.0000
     27 ****        -0.9767   1.0061  -0.8767 H              1 S1                 0.0000
     28 ****         0.4842  -1.1877   1.6985 H              1 S1                 0.0000
     29 ****         1.4967  -2.4950   1.0543 H              1 S1                 0.0000
     30 ****         3.5584   1.8126  -0.0609 H              1 S1                 0.0000
     31 ****         3.3430   0.9312  -1.5639 H              1 S1                 0.0000
     32 ****         2.8658   3.1643  -1.7246 H              1 S1                 0.0000
     33 ****         2.0429   0.1105   2.8804 LP             1 S1                 0.0000
     34 ****         5.9306   0.9935   2.3917 LP             1 S1                 0.0000
     35 ****         1.7594   3.1485  -0.5820 LP             1 S1                 0.0000
     36 ****         1.5165   2.3668  -1.9950 LP             1 S1                 0.0000
     37 ****         0.3960   0.3568  -1.5344 LP             1 S1                 0.0000
     38 ****         1.7616  -0.5107  -1.7561 LP             1 S1                 0.0000
     39 ****        -0.3629  -3.4269   0.2307 LP             1 S1                 0.0000
     40 ****        -1.9532  -3.9974   0.6120 LP             1 S1                 0.0000
     41 ****        -5.4833   0.2820  -0.0058 LP             1 S1                 0.0000
     42 ****        -5.5463  -1.3865   0.4545 LP             1 S1                 0.0000
@<TRIPOS>BOND
    1    1    2 1     
    2    1   24 1     
    3    1   25 1     
    4    1   26 1     
    5    2   18 1     
    6    2    3 2     
    7    3    4 1     
    8    3   27 1     
    9    4    5 1     
   10    4   15 1     
   11    5   20 1     
   12    5   14 1     
   13    5    6 1     
   14    6    7 1     
   15    6   28 1     
   16    6   29 1     
   17    7   21 1     
   18    7    8 1     
   19    7   11 1     
   20    8    9 2     
   21    9   10 2     
   22   11   22 1     
   23   11   12 1     
   24   11   14 1     
   25   12   13 1     
   26   12   30 1     
   27   12   31 1     
   28   13   32 1     
   29   15   16 2     
   30   15   17 1     
   31   17   23 1     
   32   17   18 1     
   33   18   19 2     
   34    8   33 1     
   35   10   34 1     
   36   13   35 1     
   37   13   36 1     
   38   14   37 1     
   39   14   38 1     
   40   16   39 1     
   41   16   40 1     
   42   19   41 1     
   43   19   42 1     
@<TRIPOS>SUBSTRUCTURE
      1 S1             1
@<TRIPOS>SET
LONE_PAIRS      STATIC     ATOMS    <user>   **** ""
10 33 34 35 36 37 38 39 40 41 42
DONOR_HYDROGENS      STATIC     ATOMS    <user>   **** ""
2 32 23
ATOM$BLUE        STATIC     ATOMS    COLORGROUP SYSTEM
10 33 34 35 36 37 38 39 40 41 42
ATOM$RED        STATIC     ATOMS    COLORGROUP SYSTEM
2 32 23
