#       Name:                AV-unprocessed.smi:519
#       Creating user name   scv26
#       Creation time:       Thu Mar 26 23:27:08 2020


#       File generated by GOLD software.
#

@<TRIPOS>MOLECULE
AV-unprocessed.smi:519
    41    43     1
SMALL
NO_CHARGES


@<TRIPOS>ATOM
      1 ****        -1.7087   4.1242  -1.6895 O.3            1 S1                 0.0000
      2 ****        -0.6486   3.1916  -1.7304 C.3            1 S1                 0.0000
      3 ****        -1.1098   1.7696  -1.6843 C.2            1 S1                 0.0000
      4 ****        -2.4030   1.3384  -1.6424 N.pl3          1 S1                 1.0000
      5 ****        -2.4371  -0.0555  -1.5990 C.ar           1 S1                 0.0000
      6 ****        -3.5105  -0.9391  -1.5410 C.ar           1 S1                 0.0000
      7 ****        -3.1972  -2.3136  -1.5014 C.ar           1 S1                 0.0000
      8 ****        -1.8609  -2.7626  -1.5227 C.ar           1 S1                 0.0000
      9 ****        -0.7815  -1.8570  -1.5852 C.ar           1 S1                 0.0000
     10 ****        -1.0993  -0.4993  -1.6204 C.ar           1 S1                 0.0000
     11 ****        -0.3161   0.6605  -1.6712 N.pl3          1 S1                 0.0000
     12 ****         1.1500   0.5474  -1.6878 C.3            1 S1                 0.0000
     13 ****         1.7516   0.5713  -0.2748 C.3            1 S1                 0.0000
     14 ****         1.2205  -0.5060   0.4853 O.3            1 S1                 0.0000
     15 ****         1.6236  -0.6518   1.7958 C.ar           1 S1                 0.0000
     16 ****         2.5511   0.2084   2.4374 C.ar           1 S1                 0.0000
     17 ****         2.9148  -0.0072   3.7807 C.ar           1 S1                 0.0000
     18 ****         2.3607  -1.0821   4.4990 C.ar           1 S1                 0.0000
     19 ****         1.4401  -1.9414   3.8724 C.ar           1 S1                 0.0000
     20 ****         1.0724  -1.7266   2.5297 C.ar           1 S1                 0.0000
     21 ****        -0.0644  -2.7945   1.7871 Cl             1 S1                 0.0000
     22 ****        -1.3441   4.9956  -1.7230 H              1 S1                 0.0000
     23 ****        -0.0732   3.3515  -2.6425 H              1 S1                 0.0000
     24 ****         0.0181   3.3779  -0.8882 H              1 S1                 0.0000
     25 ****        -4.5347  -0.5965  -1.5224 H              1 S1                 0.0000
     26 ****        -3.9975  -3.0376  -1.4512 H              1 S1                 0.0000
     27 ****        -1.6581  -3.8231  -1.4861 H              1 S1                 0.0000
     28 ****         0.2380  -2.2128  -1.5912 H              1 S1                 0.0000
     29 ****         1.4347  -0.3606  -2.2195 H              1 S1                 0.0000
     30 ****         1.5405   1.3800  -2.2734 H              1 S1                 0.0000
     31 ****         2.8371   0.4866  -0.3414 H              1 S1                 0.0000
     32 ****         1.5160   1.5226   0.2046 H              1 S1                 0.0000
     33 ****         3.0000   1.0428   1.9205 H              1 S1                 0.0000
     34 ****         3.6213   0.6539   4.2607 H              1 S1                 0.0000
     35 ****         2.6412  -1.2475   5.5288 H              1 S1                 0.0000
     36 ****         1.0152  -2.7671   4.4242 H              1 S1                 0.0000
     37 ****        -3.2007   1.9612  -1.6382 H              1 S1                 0.0000
     38 ****        -2.2274   4.0081  -0.8424 LP             1 S1                 0.0000
     39 ****        -2.3137   3.9815  -2.4729 LP             1 S1                 0.0000
     40 ****         1.4612  -1.3508   0.0073 LP             1 S1                 0.0000
     41 ****         0.2262  -0.3992   0.4930 LP             1 S1                 0.0000
@<TRIPOS>BOND
    1    1    2 1     
    2    1   22 1     
    3    2    3 1     
    4    2   23 1     
    5    2   24 1     
    6    3   11 1     
    7    3    4 2     
    8    4    5 1     
    9    4   37 1     
   10    5   10 ar    
   11    5    6 ar    
   12    6    7 ar    
   13    6   25 1     
   14    7    8 ar    
   15    7   26 1     
   16    8    9 ar    
   17    8   27 1     
   18    9   10 ar    
   19    9   28 1     
   20   10   11 1     
   21   11   12 1     
   22   12   13 1     
   23   12   29 1     
   24   12   30 1     
   25   13   14 1     
   26   13   31 1     
   27   13   32 1     
   28   14   15 1     
   29   15   20 ar    
   30   15   16 ar    
   31   16   17 ar    
   32   16   33 1     
   33   17   18 ar    
   34   17   34 1     
   35   18   19 ar    
   36   18   35 1     
   37   19   20 ar    
   38   19   36 1     
   39   20   21 1     
   40    1   38 1     
   41    1   39 1     
   42   14   40 1     
   43   14   41 1     
@<TRIPOS>SUBSTRUCTURE
      1 S1             1
@<TRIPOS>SET
LONE_PAIRS      STATIC     ATOMS    <user>   **** ""
4 38 39 40 41
DONOR_HYDROGENS      STATIC     ATOMS    <user>   **** ""
2 22 37
ATOM$BLUE        STATIC     ATOMS    COLORGROUP SYSTEM
4 38 39 40 41
ATOM$RED        STATIC     ATOMS    COLORGROUP SYSTEM
2 22 37
