#       Name:                AV-unprocessed.smi:1586
#       Creating user name   scv26
#       Creation time:       Fri Mar 27 07:01:54 2020


#       File generated by GOLD software.
#

@<TRIPOS>MOLECULE
AV-unprocessed.smi:1586
    53    54     1
SMALL
NO_CHARGES


@<TRIPOS>ATOM
      1 ****        -4.6201  -1.4549   0.6112 C.3            1 S1                 0.0000
      2 ****        -3.6217  -0.3126   0.8474 C.3            1 S1                 0.0000
      3 ****        -2.2346  -0.7818   0.8133 N.3            1 S1                 0.0000
      4 ****        -1.7574  -1.2062  -0.5084 C.3            1 S1                 0.0000
      5 ****        -1.5797  -0.0184  -1.4785 C.3            1 S1                 0.0000
      6 ****        -0.6478   0.9764  -0.8969 N.4            1 S1                 1.0000
      7 ****        -0.2414   2.0617  -1.8368 C.3            1 S1                 0.0000
      8 ****        -1.2796   3.1947  -1.9497 C.3            1 S1                 0.0000
      9 ****         1.1674   2.6032  -1.5064 C.3            1 S1                 0.0000
     10 ****         2.1686   1.5382  -1.4817 N.am           1 S1                 0.0000
     11 ****         2.5742   0.8502  -0.4043 C.2            1 S1                 0.0000
     12 ****         2.1349   1.1369   0.7111 O.2            1 S1                 0.0000
     13 ****         3.4424  -0.1446  -0.6916 N.pl3          1 S1                -1.0000
     14 ****         3.8946  -0.9467   0.2846 C.2            1 S1                 0.0000
     15 ****         3.2376  -2.1045   0.7841 C.2            1 S1                 0.0000
     16 ****         4.0974  -2.5617   1.7420 C.2            1 S1                 0.0000
     17 ****         4.0533  -3.7252   2.6724 C.3            1 S1                 0.0000
     18 ****         5.1909  -1.7565   1.8177 O.3            1 S1                 0.0000
     19 ****         5.0563  -0.7286   0.8767 N.2            1 S1                 0.0000
     20 ****        -1.1289   1.4211   0.4353 C.3            1 S1                 0.0000
     21 ****        -1.2979   0.2017   1.3653 C.3            1 S1                 0.0000
     22 ****        -5.6404  -1.1077   0.7758 H              1 S1                 0.0000
     23 ****        -4.4413  -2.2855   1.2949 H              1 S1                 0.0000
     24 ****        -4.5721  -1.8373  -0.4081 H              1 S1                 0.0000
     25 ****        -3.7934   0.4914   0.1326 H              1 S1                 0.0000
     26 ****        -3.8190   0.1053   1.8354 H              1 S1                 0.0000
     27 ****        -0.7976  -1.7087  -0.3786 H              1 S1                 0.0000
     28 ****        -2.4266  -1.9507  -0.9379 H              1 S1                 0.0000
     29 ****        -1.1717  -0.3928  -2.4180 H              1 S1                 0.0000
     30 ****        -2.5361   0.4472  -1.7168 H              1 S1                 0.0000
     31 ****        -0.1592   1.6083  -2.8260 H              1 S1                 0.0000
     32 ****        -0.9997   3.8949  -2.7371 H              1 S1                 0.0000
     33 ****        -1.3598   3.7675  -1.0255 H              1 S1                 0.0000
     34 ****        -2.2692   2.8094  -2.1960 H              1 S1                 0.0000
     35 ****         1.4706   3.3210  -2.2690 H              1 S1                 0.0000
     36 ****         1.1643   3.1541  -0.5647 H              1 S1                 0.0000
     37 ****         2.5714   1.2750  -2.3697 H              1 S1                 0.0000
     38 ****         2.2890  -2.5280   0.4901 H              1 S1                 0.0000
     39 ****         3.4266  -4.5209   2.2693 H              1 S1                 0.0000
     40 ****         3.6458  -3.4298   3.6392 H              1 S1                 0.0000
     41 ****         5.0515  -4.1323   2.8352 H              1 S1                 0.0000
     42 ****        -0.4104   2.1109   0.8772 H              1 S1                 0.0000
     43 ****        -2.0687   1.9661   0.3455 H              1 S1                 0.0000
     44 ****        -1.6351   0.5198   2.3524 H              1 S1                 0.0000
     45 ****        -0.3306  -0.2809   1.5134 H              1 S1                 0.0000
     46 ****         0.2041   0.4620  -0.7191 H              1 S1                 0.0000
     47 ****        -2.2543  -1.5959   1.3937 LP             1 S1                 0.0000
     48 ****         1.4761   1.8824   0.8125 LP             1 S1                 0.0000
     49 ****         2.4372   0.6240   1.5145 LP             1 S1                 0.0000
     50 ****         3.7485  -0.2834  -1.6335 LP             1 S1                 0.0000
     51 ****         6.0146  -2.2880   1.6202 LP             1 S1                 0.0000
     52 ****         5.2584  -1.3658   2.7357 LP             1 S1                 0.0000
     53 ****         5.7015   0.0127   0.6918 LP             1 S1                 0.0000
@<TRIPOS>BOND
    1    1    2 1     
    2    1   22 1     
    3    1   23 1     
    4    1   24 1     
    5    2    3 1     
    6    2   25 1     
    7    2   26 1     
    8    3   21 1     
    9    3    4 1     
   10    4    5 1     
   11    4   27 1     
   12    4   28 1     
   13    5    6 1     
   14    5   29 1     
   15    5   30 1     
   16    6    7 1     
   17    6   20 1     
   18    6   46 1     
   19    7    8 1     
   20    7    9 1     
   21    7   31 1     
   22    8   32 1     
   23    8   33 1     
   24    8   34 1     
   25    9   10 1     
   26    9   35 1     
   27    9   36 1     
   28   10   11 am    
   29   10   37 1     
   30   11   12 2     
   31   11   13 1     
   32   13   14 1     
   33   14   19 2     
   34   14   15 1     
   35   15   16 2     
   36   15   38 1     
   37   16   17 1     
   38   16   18 1     
   39   17   39 1     
   40   17   40 1     
   41   17   41 1     
   42   18   19 1     
   43   20   21 1     
   44   20   42 1     
   45   20   43 1     
   46   21   44 1     
   47   21   45 1     
   48    3   47 1     
   49   12   48 1     
   50   12   49 1     
   51   13   50 1     
   52   18   51 1     
   53   18   52 1     
   54   19   53 1     
@<TRIPOS>SUBSTRUCTURE
      1 S1             1
@<TRIPOS>SET
LONE_PAIRS      STATIC     ATOMS    <user>   **** ""
7 47 48 49 50 51 52 53
DONOR_HYDROGENS      STATIC     ATOMS    <user>   **** ""
2 46 37
ATOM$BLUE        STATIC     ATOMS    COLORGROUP SYSTEM
7 47 48 49 50 51 52 53
ATOM$RED        STATIC     ATOMS    COLORGROUP SYSTEM
2 46 37
