AV-unprocessed.smi:3335|AV-procd|sdf|12846|dock5
  -GOLD-   2272019233D 1   1.00000     0.00000
 Structure written by MMmdl.
 46 47  0  0  0  0  0  0  0  0  1 V2000
  150.5588  143.3812  158.4587 C   0  0  0  0  0  0  0  0  0  0  0  0
  150.3936  142.0581  157.7687 C   0  0  0  0  0  0  0  0  0  0  0  0
  149.9782  141.8148  156.4294 C   0  0  0  0  0  0  0  0  0  0  0  0
  149.9452  140.5278  156.1282 N   0  0  0  0  0  0  0  0  0  0  0  0
  150.3293  139.8989  157.2624 N   0  0  0  0  0  0  0  0  0  0  0  0
  150.4467  138.4429  157.3085 C   0  0  1  0  0  0  0  0  0  0  0  0
  151.4613  137.9055  156.2792 C   0  0  0  0  0  0  0  0  0  0  0  0
  150.6836  137.8869  158.7392 C   0  0  2  0  0  0  0  0  0  0  0  0
  152.0088  138.3586  159.3633 C   0  0  0  0  0  0  0  0  0  0  0  0
  150.6873  136.4252  158.7253 N   0  0  0  0  0  0  0  0  0  0  0  0
  149.3521  135.8085  158.6633 C   0  0  2  0  0  0  0  0  0  0  0  0
  148.7239  135.9745  157.2666 C   0  0  0  0  0  0  0  0  0  0  0  0
  148.4253  136.4284  159.7282 C   0  0  0  0  0  0  0  0  0  0  0  0
  148.0243  137.5833  159.5708 O   0  0  0  0  0  0  0  0  0  0  0  0
  148.0683  135.6953  160.8059 N   0  0  0  0  0  0  0  0  0  0  0  0
  148.5007  134.3136  161.0103 C   0  0  0  0  0  0  0  0  0  0  0  0
  147.7025  133.7974  162.2075 C   0  0  0  0  0  0  0  0  0  0  0  0
  147.3604  135.0544  162.9938 C   0  0  0  0  0  0  0  0  0  0  0  0
  147.2383  136.1410  161.9255 C   0  0  0  0  0  0  0  0  0  0  0  0
  150.6109  140.8042  158.2651 C   0  0  0  0  0  0  0  0  0  0  0  0
  150.1083  144.1949  157.8900 H   0  0  0  0  0  0  0  0  0  0  0  0
  151.6104  143.6312  158.5993 H   0  0  0  0  0  0  0  0  0  0  0  0
  150.0926  143.3821  159.4441 H   0  0  0  0  0  0  0  0  0  0  0  0
  149.7049  142.5323  155.6698 H   0  0  0  0  0  0  0  0  0  0  0  0
  149.4759  138.0597  156.9904 H   0  0  0  0  0  0  0  0  0  0  0  0
  151.4589  136.8155  156.2630 H   0  0  0  0  0  0  0  0  0  0  0  0
  152.4794  138.2270  156.5017 H   0  0  0  0  0  0  0  0  0  0  0  0
  151.2179  138.2498  155.2738 H   0  0  0  0  0  0  0  0  0  0  0  0
  149.8730  138.2596  159.3671 H   0  0  0  0  0  0  0  0  0  0  0  0
  152.0683  139.4471  159.3747 H   0  0  0  0  0  0  0  0  0  0  0  0
  152.8737  137.9842  158.8150 H   0  0  0  0  0  0  0  0  0  0  0  0
  152.1035  138.0172  160.3943 H   0  0  0  0  0  0  0  0  0  0  0  0
  151.2378  136.0659  159.4923 H   0  0  0  0  0  0  0  0  0  0  0  0
  149.4726  134.7472  158.8782 H   0  0  0  0  0  0  0  0  0  0  0  0
  147.7128  135.5674  157.2344 H   0  0  0  0  0  0  0  0  0  0  0  0
  149.3004  135.4526  156.5029 H   0  0  0  0  0  0  0  0  0  0  0  0
  148.6664  137.0247  156.9773 H   0  0  0  0  0  0  0  0  0  0  0  0
  148.3315  133.6964  160.1264 H   0  0  0  0  0  0  0  0  0  0  0  0
  149.5693  134.3052  161.2305 H   0  0  0  0  0  0  0  0  0  0  0  0
  146.7837  133.3240  161.8587 H   0  0  0  0  0  0  0  0  0  0  0  0
  148.2527  133.0644  162.7982 H   0  0  0  0  0  0  0  0  0  0  0  0
  146.4557  134.9468  163.5930 H   0  0  0  0  0  0  0  0  0  0  0  0
  148.1823  135.2964  163.6691 H   0  0  0  0  0  0  0  0  0  0  0  0
  147.5545  137.1088  162.3165 H   0  0  0  0  0  0  0  0  0  0  0  0
  146.2038  136.2273  161.5899 H   0  0  0  0  0  0  0  0  0  0  0  0
  150.9455  140.4837  159.2409 H   0  0  0  0  0  0  0  0  0  0  0  0
  1  2  1  0  0  0  0
  1 21  1  0  0  0  0
  1 22  1  0  0  0  0
  1 23  1  0  0  0  0
  2 20  2  0  0  0  0
  2  3  1  0  0  0  0
  3  4  2  0  0  0  0
  3 24  1  0  0  0  0
  4  5  1  0  0  0  0
  5  6  1  0  0  0  0
  5 20  1  0  0  0  0
  6  7  1  0  0  0  0
  6  8  1  0  0  0  0
  6 25  1  0  0  0  0
  7 26  1  0  0  0  0
  7 27  1  0  0  0  0
  7 28  1  0  0  0  0
  8  9  1  0  0  0  0
  8 10  1  0  0  0  0
  8 29  1  0  0  0  0
  9 30  1  0  0  0  0
  9 31  1  0  0  0  0
  9 32  1  0  0  0  0
 10 11  1  0  0  0  0
 10 33  1  0  0  0  0
 11 12  1  0  0  0  0
 11 13  1  0  0  0  0
 11 34  1  0  0  0  0
 12 35  1  0  0  0  0
 12 36  1  0  0  0  0
 12 37  1  0  0  0  0
 13 14  2  0  0  0  0
 13 15  1  0  0  0  0
 15 19  1  0  0  0  0
 15 16  1  0  0  0  0
 16 17  1  0  0  0  0
 16 38  1  0  0  0  0
 16 39  1  0  0  0  0
 17 18  1  0  0  0  0
 17 40  1  0  0  0  0
 17 41  1  0  0  0  0
 18 19  1  0  0  0  0
 18 42  1  0  0  0  0
 18 43  1  0  0  0  0
 19 44  1  0  0  0  0
 19 45  1  0  0  0  0
 20 46  1  0  0  0  0
M  END
> <s_m_source_file>
AV-unprocessed.smi

> <i_m_source_file_index>
3335

> <i_lp_mmshare_version>
43012

> <i_f3d_flags>
0

> <s_epik_input>
W0NIM11jMVtjSF1ubihbY0hdMSlbQ0BIXShbQ0gzXSlbQ0BIXShbQ0gzXSlbTkhdW0NASF0oW0NIM10pQyg9TylOMltDSDJdW0NIMl1bQ0gyXVtDSDJdMg==

> <s_epik_cmdline>
J2VwaWtfcHl0aG9uJywgJy1waCcsICc3LjAnLCAnLXRuJywgJzgnLCAnLW1hJywgJzIwMCcsICctbWV0YWxfYmluZGluZycsICctaW1hZScsICc8aW5maWxlLm1hZT4nLCAnLW9tYWUnLCAnPG91dGZpbGUubWFlPic=

> <r_lp_tautomer_probability>
1

> <r_epik_Ionization_Penalty>
0.918803

> <r_epik_Ionization_Penalty_Charging>
0

> <r_epik_Ionization_Penalty_Neutral>
0.918803

> <r_epik_State_Penalty>
0.958258

> <r_epik_Charging_Adjusted_Penalty>
0.958258

> <i_epik_Tot_Q>
0

> <i_epik_Tot_abs_Q>
0

> <r_epik_Metal_State_Penalty>
0.956786

> <b_epik_Metal_Only>
0

> <s_lp_Force_Field>
OPLS_2005

> <r_lp_Energy>
40.4571

> <b_lp_Chiralities_Consistent>
1

> <s_lp_Variant>
AV-unprocessed.smi:3335-10

> <Gold.Version>
5.8.1

> <Gold.Id.Protein>
6NUR|6NUR_protein|mol2

> <Gold.PLP.Fitness>
37.7101

> <Gold.PLP.PLP>
-34.6091

> <Gold.PLP.part.hbond>
-3.0000

> <Gold.PLP.part.metal>
0.0000

> <Gold.PLP.part.buried>
-3.9965

> <Gold.PLP.part.nonpolar>
-28.2039

> <Gold.PLP.part.repulsive>
0.0383

> <Gold.PLP.ligand.clash>
0.0000

> <Gold.PLP.ligand.torsion>
0.5701

> <Gold.PLP.Chemscore.Hbond>
0.3520

> <Gold.PLP.Chemscore.CHOScore>
0.9980

> <Gold.PLP.Chemscore.Metal>
0.0000

> <Gold.Chemscore.Hbonds>
donor molecule, donor type, donor heavy atom, donor atom, acceptor molecule, acceptor atom, score
      P1  H  6934  6947       L1    14  0.41
      L1  C     3    24       P1  8028  1.00

> <Gold.PLP.Chemscore.Internal.Correction>
0.1911

> <Gold.Rescore>
     Score         DG    S(hbond)    S(metal)    S(lipo)     H(rot)  DE(clash)    DE(int)     intcor
     11.79     -13.98       0.92        0.00      81.76       1.62       0.04       2.15       ----

> <Gold.Chemscore.Fitness>
11.7870

> <Gold.Chemscore.DG>
-13.9767

> <Gold.Chemscore.ZeroCoef>
-5.4800

> <Gold.Chemscore.Hbond>
0.9218

> <Gold.Chemscore.Metal>
0.0000

> <Gold.Chemscore.Lipo>
81.7626

> <Gold.Chemscore.Internal_Hbond>
0.0000

> <Gold.Chemscore.DEClash>
0.0420

> <Gold.Chemscore.DEInternal>
2.1476

> <Gold.Chemscore.Rot>
1.6204

> <Gold.Chemscore.Internal.Correction>
   9.000000E+99

> <Gold.Chemscore.Hbonds>
donor molecule, donor type, donor heavy atom, donor atom, acceptor molecule, acceptor atom, score
      P1  H  6934  6947       L1    14  0.40

> <Gold.Chemscore.Hbond.Weighted>
-3.0786

> <Gold.Chemscore.Metal.Weighted>
-0.0000

> <Gold.Chemscore.Lipo.Weighted>
-9.5662

> <Gold.Chemscore.Internal_Hbond.Weighted>
0.0000

> <Gold.Chemscore.DEClash.Weighted>
0.0420

> <Gold.Chemscore.DEInternal.Weighted>
2.1476

> <Gold.Chemscore.Rot.Weighted>
4.1482

> <Gold.Chemscore.Internal.Correction.Weighted>
   9.000000E+99

> <Gold.Protein.RotatedTorsions>
[ 6907 6896 6895 6894 ] final -109.70 input  -60.11 | X-H torsion
[ 7974 7965 7964 7962 ] final  156.91 input  175.53 | X-H torsion
[ 8008 7997 7996 7995 ] final  -74.93 input   59.86 | X-H torsion
[ 10167 10162 10161 10158 ] final  -88.29 input  -65.29 | X-H torsion
[ 10718 10713 10712 10709 ] final -174.62 input   66.30 | X-H torsion
[ 10763 10752 10751 10750 ] final -130.02 input  -60.55 | X-H torsion
[ 11005 11000 10999 10996 ] final   72.38 input  -57.11 | X-H torsion

> <Gold.Protein.ActiveResidues>
 VAL166  LYS551  ARG553  GLY616  TRP617  ASP618  TYR619  PRO620  LYS621  CYS622 
 ASP623  PHE694  ASN695  SER759  ASP760  ASP761  ALA762  ILE779  LEU786  VAL792 
 PHE793  MET794  SER795  GLU796  ALA797  LYS798  CYS799  TRP800  GLU811  SER814 

> <Gold.Protein.RotatedAtoms>
  150.7578  133.9490  159.3479 H   0  0  0  0  0  0  0  0  0  0  0  0  # atno 6907 bound_to 6896
  151.7406  135.0853  160.0324 H   0  0  0  0  0  0  0  0  0  0  0  0  # atno 6908 bound_to 6896
  152.3531  133.6166  159.5995 H   0  0  0  0  0  0  0  0  0  0  0  0  # atno 6909 bound_to 6896
  144.7934  139.7269  143.6212 H   0  0  0  0  0  0  0  0  0  0  0  0  # atno 7974 bound_to 7965
  154.5372  140.0753  156.8449 H   0  0  0  0  0  0  0  0  0  0  0  0  # atno 8008 bound_to 7997
  155.3253  140.3398  155.4222 H   0  0  0  0  0  0  0  0  0  0  0  0  # atno 8009 bound_to 7997
  156.1840  140.1662  156.8207 H   0  0  0  0  0  0  0  0  0  0  0  0  # atno 8010 bound_to 7997
  140.3761  143.2771  151.9441 H   0  0  0  0  0  0  0  0  0  0  0  0  # atno 10167 bound_to 10162
  156.7878  130.9507  151.3120 H   0  0  0  0  0  0  0  0  0  0  0  0  # atno 10718 bound_to 10713
  154.8756  135.3876  154.4015 H   0  0  0  0  0  0  0  0  0  0  0  0  # atno 10763 bound_to 10752
  153.4739  135.7030  153.5982 H   0  0  0  0  0  0  0  0  0  0  0  0  # atno 10764 bound_to 10752
  153.4427  135.3852  155.2205 H   0  0  0  0  0  0  0  0  0  0  0  0  # atno 10765 bound_to 10752
  139.9494  134.7254  156.0900 H   0  0  0  0  0  0  0  0  0  0  0  0  # atno 11005 bound_to 11000
  146.2194  139.5609  142.9628 LP  0  0  0  0  0  0  0  0  0  0  0  0  # atno 17320 bound_to 7965
  145.5735  141.0391  143.2161 LP  0  0  0  0  0  0  0  0  0  0  0  0  # atno 17321 bound_to 7965
  139.4799  144.5862  151.7849 LP  0  0  0  0  0  0  0  0  0  0  0  0  # atno 17342 bound_to 10162
  140.4985  144.1205  150.5965 LP  0  0  0  0  0  0  0  0  0  0  0  0  # atno 17343 bound_to 10162
  157.6615  130.8970  149.9841 LP  0  0  0  0  0  0  0  0  0  0  0  0  # atno 17370 bound_to 10713
  156.1178  130.3647  149.9939 LP  0  0  0  0  0  0  0  0  0  0  0  0  # atno 17371 bound_to 10713
  141.1153  133.6630  156.3078 LP  0  0  0  0  0  0  0  0  0  0  0  0  # atno 17394 bound_to 11000
  140.5756  134.5797  157.5468 LP  0  0  0  0  0  0  0  0  0  0  0  0  # atno 17395 bound_to 11000

$$$$
