AV-unprocessed.smi:352|AV-procd|sdf|2401|dock3
  -GOLD-   2262022333D 1   1.00000     0.00000
 Structure written by MMmdl.
 45 46  0  0  0  0  0  0  0  0  2 V2000
  138.0099  136.8970  153.8213 C   0  0  0  0  0  0  0  0  0  0  0  0
  139.4605  137.1376  154.0628 C   0  0  0  0  0  0  0  0  0  0  0  0
  140.3278  138.0999  153.6286 C   0  0  0  0  0  0  0  0  0  0  0  0
  141.5574  137.7217  154.2424 C   0  0  0  0  0  0  0  0  0  0  0  0
  142.8002  138.3955  154.1223 N   0  0  0  0  0  0  0  0  0  0  0  0
  143.7375  138.5920  155.0647 C   0  0  0  0  0  0  0  0  0  0  0  0
  143.6554  138.2319  156.2382 O   0  0  0  0  0  0  0  0  0  0  0  0
  144.8007  139.2362  154.5619 N   0  0  0  0  0  0  0  0  0  0  0  0
  146.0037  139.6112  155.3067 C   0  0  0  0  0  0  0  0  0  0  0  0
  146.5168  141.0554  154.9901 C   0  0  0  0  0  0  0  0  0  0  0  0
  145.3306  141.9152  154.6157 N   0  3  0  0  0  0  0  0  0  0  0  0
  145.6329  143.2389  154.0111 C   0  0  0  0  0  0  0  0  0  0  0  0
  144.2924  142.0580  155.6704 C   0  0  0  0  0  0  0  0  0  0  0  0
  147.2524  141.6310  156.2382 C   0  0  0  0  0  0  0  0  0  0  0  0
  148.5560  140.8879  156.5893 C   0  0  0  0  0  0  0  0  0  0  0  0
  149.5241  140.8457  155.3999 C   0  0  0  0  0  0  0  0  0  0  0  0
  148.8525  140.2467  154.1576 C   0  0  0  0  0  0  0  0  0  0  0  0
  147.5530  141.0006  153.8189 C   0  0  0  0  0  0  0  0  0  0  0  0
  141.4442  136.6326  154.9798 N   0  0  0  0  0  0  0  0  0  0  0  0
  140.1023  136.2503  154.8696 O   0  0  0  0  0  0  0  0  0  0  0  0
  137.5397  137.7728  153.3736 H   0  0  0  0  0  0  0  0  0  0  0  0
  137.4923  136.6767  154.7551 H   0  0  0  0  0  0  0  0  0  0  0  0
  137.8662  136.0533  153.1461 H   0  0  0  0  0  0  0  0  0  0  0  0
  140.1005  138.9306  152.9776 H   0  0  0  0  0  0  0  0  0  0  0  0
  143.0029  138.7584  153.2026 H   0  0  0  0  0  0  0  0  0  0  0  0
  144.7674  139.5081  153.5902 H   0  0  0  0  0  0  0  0  0  0  0  0
  145.7551  139.5247  156.3637 H   0  0  0  0  0  0  0  0  0  0  0  0
  146.7779  138.8591  155.1634 H   0  0  0  0  0  0  0  0  0  0  0  0
  146.2768  143.8393  154.6536 H   0  0  0  0  0  0  0  0  0  0  0  0
  144.7161  143.8053  153.8432 H   0  0  0  0  0  0  0  0  0  0  0  0
  146.1020  143.1383  153.0330 H   0  0  0  0  0  0  0  0  0  0  0  0
  144.6417  142.6821  156.4932 H   0  0  0  0  0  0  0  0  0  0  0  0
  143.9711  141.1005  156.0761 H   0  0  0  0  0  0  0  0  0  0  0  0
  143.4010  142.5324  155.2588 H   0  0  0  0  0  0  0  0  0  0  0  0
  147.4952  142.6811  156.0751 H   0  0  0  0  0  0  0  0  0  0  0  0
  146.6042  141.6055  157.1142 H   0  0  0  0  0  0  0  0  0  0  0  0
  149.0393  141.3790  157.4344 H   0  0  0  0  0  0  0  0  0  0  0  0
  148.3347  139.8731  156.9203 H   0  0  0  0  0  0  0  0  0  0  0  0
  149.8685  141.8562  155.1763 H   0  0  0  0  0  0  0  0  0  0  0  0
  150.4113  140.2677  155.6603 H   0  0  0  0  0  0  0  0  0  0  0  0
  149.5381  140.3067  153.3118 H   0  0  0  0  0  0  0  0  0  0  0  0
  148.6644  139.1845  154.3067 H   0  0  0  0  0  0  0  0  0  0  0  0
  147.1028  140.5785  152.9206 H   0  0  0  0  0  0  0  0  0  0  0  0
  147.8744  142.0049  153.5461 H   0  0  0  0  0  0  0  0  0  0  0  0
  144.8767  141.4018  153.8737 H   0  0  0  0  0  0  0  0  0  0  0  0
  1  2  1  0  0  0  0
  1 21  1  0  0  0  0
  1 22  1  0  0  0  0
  1 23  1  0  0  0  0
  2 20  1  0  0  0  0
  2  3  2  0  0  0  0
  3  4  1  0  0  0  0
  3 24  1  0  0  0  0
  4  5  1  0  0  0  0
  4 19  2  0  0  0  0
  5  6  1  0  0  0  0
  5 25  1  0  0  0  0
  6  7  2  0  0  0  0
  6  8  1  0  0  0  0
  8  9  1  0  0  0  0
  8 26  1  0  0  0  0
  9 10  1  0  0  0  0
  9 27  1  0  0  0  0
  9 28  1  0  0  0  0
 10 18  1  0  0  0  0
 10 11  1  0  0  0  0
 10 14  1  0  0  0  0
 11 12  1  0  0  0  0
 11 13  1  0  0  0  0
 11 45  1  0  0  0  0
 12 29  1  0  0  0  0
 12 30  1  0  0  0  0
 12 31  1  0  0  0  0
 13 32  1  0  0  0  0
 13 33  1  0  0  0  0
 13 34  1  0  0  0  0
 14 15  1  0  0  0  0
 14 35  1  0  0  0  0
 14 36  1  0  0  0  0
 15 16  1  0  0  0  0
 15 37  1  0  0  0  0
 15 38  1  0  0  0  0
 16 17  1  0  0  0  0
 16 39  1  0  0  0  0
 16 40  1  0  0  0  0
 17 18  1  0  0  0  0
 17 41  1  0  0  0  0
 17 42  1  0  0  0  0
 18 43  1  0  0  0  0
 18 44  1  0  0  0  0
 19 20  1  0  0  0  0
M  CHG  1  11   1
M  END
> <s_m_source_file>
AV-unprocessed.smi

> <i_m_source_file_index>
352

> <i_lp_mmshare_version>
43012

> <i_f3d_flags>
0

> <s_epik_input>
W0NIM11jMVtjSF1jKG5vMSlbTkhdQyg9TylbTkhdW0NIMl1DMihOKFtDSDNdKVtDSDNdKVtDSDJdW0NIMl1bQ0gyXVtDSDJdW0NIMl0y

> <s_epik_cmdline>
J2VwaWtfcHl0aG9uJywgJy1waCcsICc3LjAnLCAnLXRuJywgJzgnLCAnLW1hJywgJzIwMCcsICctbWV0YWxfYmluZGluZycsICctaW1hZScsICc8aW5maWxlLm1hZT4nLCAnLW9tYWUnLCAnPG91dGZpbGUubWFlPic=

> <r_epik_Ionization_Penalty>
0.00254175

> <r_epik_Ionization_Penalty_Charging>
0.00251809

> <r_epik_Ionization_Penalty_Neutral>
2.36624e-05

> <r_epik_State_Penalty>
0.00174714

> <r_epik_Charging_Adjusted_Penalty>
0.00426523

> <i_epik_Tot_Q>
1

> <i_epik_Tot_abs_Q>
1

> <r_epik_Metal_State_Penalty>
-0

> <b_epik_Metal_Only>
0

> <s_lp_Force_Field>
OPLS_2005

> <r_lp_Energy>
33.762

> <b_lp_Chiralities_Consistent>
1

> <s_lp_Variant>
AV-unprocessed.smi:352-1

> <Gold.Version>
5.8.1

> <Gold.Id.Protein>
6NUR|6NUR_protein|mol2

> <Gold.PLP.Fitness>
39.8208

> <Gold.PLP.PLP>
-28.3941

> <Gold.PLP.part.hbond>
-4.3249

> <Gold.PLP.part.metal>
0.0000

> <Gold.PLP.part.buried>
-4.4787

> <Gold.PLP.part.nonpolar>
-21.2967

> <Gold.PLP.part.repulsive>
0.0704

> <Gold.PLP.ligand.clash>
0.0000

> <Gold.PLP.ligand.torsion>
1.0702

> <Gold.PLP.Chemscore.Hbond>
4.4865

> <Gold.PLP.Chemscore.CHOScore>
0.0000

> <Gold.PLP.Chemscore.Metal>
0.0000

> <Gold.Chemscore.Hbonds>
donor molecule, donor type, donor heavy atom, donor atom, acceptor molecule, acceptor atom, score
      L1  H     5    25       P1 10175  0.72
      L1  H     8    26       P1 10175  0.75
      L1  H    11    45       P1 10175  1.98
      P1  H 11000 11005       L1    20  1.00

> <Gold.PLP.Chemscore.Internal.Correction>
0.1076

> <Gold.Rescore>
     Score         DG    S(hbond)    S(metal)    S(lipo)     H(rot)  DE(clash)    DE(int)     intcor
     16.71     -18.10       2.87        0.00      59.88       1.55       0.02       1.37       ----

> <Gold.Chemscore.Fitness>
16.7058

> <Gold.Chemscore.DG>
-18.0980

> <Gold.Chemscore.ZeroCoef>
-5.4800

> <Gold.Chemscore.Hbond>
2.8655

> <Gold.Chemscore.Metal>
0.0000

> <Gold.Chemscore.Lipo>
59.8794

> <Gold.Chemscore.Internal_Hbond>
0.0000

> <Gold.Chemscore.DEClash>
0.0234

> <Gold.Chemscore.DEInternal>
1.3687

> <Gold.Chemscore.Rot>
1.5464

> <Gold.Chemscore.Internal.Correction>
   9.000000E+99

> <Gold.Chemscore.Hbonds>
donor molecule, donor type, donor heavy atom, donor atom, acceptor molecule, acceptor atom, score
      L1  H     5    25       P1 10175  0.71
      L1  H     8    26       P1 10175  0.76
      L1  H    11    45       P1 10175  0.32
      P1  H 11000 11005       L1    20  0.43

> <Gold.Chemscore.Hbond.Weighted>
-9.5709

> <Gold.Chemscore.Metal.Weighted>
-0.0000

> <Gold.Chemscore.Lipo.Weighted>
-7.0059

> <Gold.Chemscore.Internal_Hbond.Weighted>
0.0000

> <Gold.Chemscore.DEClash.Weighted>
0.0234

> <Gold.Chemscore.DEInternal.Weighted>
1.3687

> <Gold.Chemscore.Rot.Weighted>
3.9588

> <Gold.Chemscore.Internal.Correction.Weighted>
   9.000000E+99

> <Gold.Protein.RotatedTorsions>
[ 6907 6896 6895 6894 ] final   52.09 input  -60.11 | X-H torsion
[ 7974 7965 7964 7962 ] final   23.65 input  175.53 | X-H torsion
[ 8008 7997 7996 7995 ] final -105.82 input   59.86 | X-H torsion
[ 10167 10162 10161 10158 ] final   39.94 input  -65.29 | X-H torsion
[ 10718 10713 10712 10709 ] final   77.23 input   66.30 | X-H torsion
[ 10763 10752 10751 10750 ] final  -89.20 input  -60.55 | X-H torsion
[ 11005 11000 10999 10996 ] final   75.54 input  -57.11 | X-H torsion

> <Gold.Protein.ActiveResidues>
 VAL166  LYS551  ARG553  GLY616  TRP617  ASP618  TYR619  PRO620  LYS621  CYS622 
 ASP623  PHE694  ASN695  SER759  ASP760  ASP761  ALA762  ILE779  LEU786  VAL792 
 PHE793  MET794  SER795  GLU796  ALA797  LYS798  CYS799  TRP800  GLU811  SER814 

> <Gold.Protein.RotatedAtoms>
  152.3196  134.7397  160.0316 H   0  0  0  0  0  0  0  0  0  0  0  0  # atno 6907 bound_to 6896
  151.7850  133.3348  159.3490 H   0  0  0  0  0  0  0  0  0  0  0  0  # atno 6908 bound_to 6896
  150.7362  134.5826  159.5991 H   0  0  0  0  0  0  0  0  0  0  0  0  # atno 6909 bound_to 6896
  146.1974  139.7714  142.8787 H   0  0  0  0  0  0  0  0  0  0  0  0  # atno 7974 bound_to 7965
  154.9055  140.0411  157.1917 H   0  0  0  0  0  0  0  0  0  0  0  0  # atno 8008 bound_to 7997
  154.8400  140.2913  155.5644 H   0  0  0  0  0  0  0  0  0  0  0  0  # atno 8009 bound_to 7997
  156.2991  140.2484  156.3341 H   0  0  0  0  0  0  0  0  0  0  0  0  # atno 8010 bound_to 7997
  140.3791  144.2004  150.6131 H   0  0  0  0  0  0  0  0  0  0  0  0  # atno 10167 bound_to 10162
  157.6703  130.9811  150.1611 H   0  0  0  0  0  0  0  0  0  0  0  0  # atno 10718 bound_to 10713
  154.6527  135.5349  153.7921 H   0  0  0  0  0  0  0  0  0  0  0  0  # atno 10763 bound_to 10752
  153.0395  135.6486  154.0992 H   0  0  0  0  0  0  0  0  0  0  0  0  # atno 10764 bound_to 10752
  154.0908  135.2940  155.3252 H   0  0  0  0  0  0  0  0  0  0  0  0  # atno 10765 bound_to 10752
  139.9339  134.7526  156.1284 H   0  0  0  0  0  0  0  0  0  0  0  0  # atno 11005 bound_to 11000
  145.3598  141.0323  143.3291 LP  0  0  0  0  0  0  0  0  0  0  0  0  # atno 17320 bound_to 7965
  144.8610  139.5178  143.6812 LP  0  0  0  0  0  0  0  0  0  0  0  0  # atno 17321 bound_to 7965
  140.4956  143.2334  151.8755 LP  0  0  0  0  0  0  0  0  0  0  0  0  # atno 17342 bound_to 10162
  139.4797  144.5117  151.8923 LP  0  0  0  0  0  0  0  0  0  0  0  0  # atno 17343 bound_to 10162
  156.2387  130.3689  149.8362 LP  0  0  0  0  0  0  0  0  0  0  0  0  # atno 17370 bound_to 10713
  156.6168  130.8609  151.3466 LP  0  0  0  0  0  0  0  0  0  0  0  0  # atno 17371 bound_to 10713
  141.0942  133.6702  156.2609 LP  0  0  0  0  0  0  0  0  0  0  0  0  # atno 17394 bound_to 11000
  140.6128  134.5441  157.5536 LP  0  0  0  0  0  0  0  0  0  0  0  0  # atno 17395 bound_to 11000

$$$$
