AV-unprocessed.smi:36|AV-procd|sdf|289|dock1
  -GOLD-   2262016 73D 1   1.00000     0.00000
 Structure written by MMmdl.
 64 67  0  0  0  0  0  0  0  0  1 V2000
  152.6262  141.6579  167.5489 C   0  0  0  0  0  0  0  0  0  0  0  0
  153.7769  141.4021  166.5615 C   0  0  0  0  0  0  0  0  0  0  0  0
  153.2135  141.1646  165.1501 C   0  0  0  0  0  0  0  0  0  0  0  0
  154.7289  142.6095  166.5421 C   0  0  0  0  0  0  0  0  0  0  0  0
  154.7485  139.8506  167.1066 Si  0  0  0  0  0  0  0  0  0  0  0  0
  155.4216  140.0451  168.8723 C   0  0  0  0  0  0  0  0  0  0  0  0
  153.6568  138.2973  167.0096 C   0  0  0  0  0  0  0  0  0  0  0  0
  156.0671  139.6770  166.0586 O   0  0  0  0  0  0  0  0  0  0  0  0
  157.0455  138.6631  166.1685 C   0  0  0  0  0  0  0  0  0  0  0  0
  158.1144  138.8554  165.0838 C   0  0  2  0  0  0  0  0  0  0  0  0
  157.5220  139.5092  163.9656 O   0  0  0  0  0  0  0  0  0  0  0  0
  158.1538  139.0435  162.8227 C   0  0  2  0  0  0  0  0  0  0  0  0
  157.2624  139.2795  161.6508 N   0  0  0  0  0  0  0  0  0  0  0  0
  157.6105  139.3051  160.3499 C   0  0  0  0  0  0  0  0  0  0  0  0
  156.6151  139.5442  159.5000 N   0  0  0  0  0  0  0  0  0  0  0  0
  155.5209  139.6900  160.3467 C   0  0  0  0  0  0  0  0  0  0  0  0
  154.1033  139.9761  160.0377 C   0  0  0  0  0  0  0  0  0  0  0  0
  153.7756  140.1145  158.7888 N   0  0  0  0  0  0  0  0  0  0  0  0
  152.4594  140.3852  158.4389 C   0  0  0  0  0  0  0  0  0  0  0  0
  151.5907  139.6087  158.0320 O   0  0  0  0  0  0  0  0  0  0  0  0
  152.0922  141.8241  158.5996 C   0  0  0  0  0  0  0  0  0  0  0  0
  152.8996  142.6775  159.3811 C   0  0  0  0  0  0  0  0  0  0  0  0
  152.5469  144.0319  159.5412 C   0  0  0  0  0  0  0  0  0  0  0  0
  151.3859  144.5357  158.9231 C   0  0  0  0  0  0  0  0  0  0  0  0
  150.5774  143.6855  158.1441 C   0  0  0  0  0  0  0  0  0  0  0  0
  150.9288  142.3309  157.9829 C   0  0  0  0  0  0  0  0  0  0  0  0
  153.3619  140.0433  161.2246 N   0  0  0  0  0  0  0  0  0  0  0  0
  153.8677  139.8685  162.5222 C   0  0  0  0  0  0  0  0  0  0  0  0
  155.1165  139.6137  162.8095 N   0  0  0  0  0  0  0  0  0  0  0  0
  155.8957  139.5357  161.6640 C   0  0  0  0  0  0  0  0  0  0  0  0
  158.3582  137.5551  163.0586 C   0  0  0  0  0  0  0  0  0  0  0  0
  158.6957  137.5313  164.5410 C   0  0  1  0  0  0  0  0  0  0  0  0
  160.0979  137.5005  164.7227 O   0  0  0  0  0  0  0  0  0  0  0  0
  152.0491  142.5388  167.2651 H   0  0  0  0  0  0  0  0  0  0  0  0
  152.9993  141.8211  168.5603 H   0  0  0  0  0  0  0  0  0  0  0  0
  151.9381  140.8129  167.5844 H   0  0  0  0  0  0  0  0  0  0  0  0
  152.5236  140.3206  165.1332 H   0  0  0  0  0  0  0  0  0  0  0  0
  154.0100  140.9510  164.4360 H   0  0  0  0  0  0  0  0  0  0  0  0
  152.6711  142.0383  164.7872 H   0  0  0  0  0  0  0  0  0  0  0  0
  154.2157  143.5137  166.2130 H   0  0  0  0  0  0  0  0  0  0  0  0
  155.5667  142.4413  165.8646 H   0  0  0  0  0  0  0  0  0  0  0  0
  155.1408  142.8083  167.5316 H   0  0  0  0  0  0  0  0  0  0  0  0
  154.6174  140.1807  169.5952 H   0  0  0  0  0  0  0  0  0  0  0  0
  156.0840  140.9062  168.9568 H   0  0  0  0  0  0  0  0  0  0  0  0
  155.9902  139.1681  169.1811 H   0  0  0  0  0  0  0  0  0  0  0  0
  152.8068  138.3639  167.6883 H   0  0  0  0  0  0  0  0  0  0  0  0
  154.2132  137.3993  167.2771 H   0  0  0  0  0  0  0  0  0  0  0  0
  153.2591  138.1467  166.0064 H   0  0  0  0  0  0  0  0  0  0  0  0
  157.4929  138.7033  167.1619 H   0  0  0  0  0  0  0  0  0  0  0  0
  156.5755  137.6838  166.0694 H   0  0  0  0  0  0  0  0  0  0  0  0
  158.9117  139.5011  165.4532 H   0  0  0  0  0  0  0  0  0  0  0  0
  159.0751  139.5951  162.6290 H   0  0  0  0  0  0  0  0  0  0  0  0
  158.6254  139.1454  160.0162 H   0  0  0  0  0  0  0  0  0  0  0  0
  153.7900  142.2972  159.8610 H   0  0  0  0  0  0  0  0  0  0  0  0
  153.1664  144.6837  160.1395 H   0  0  0  0  0  0  0  0  0  0  0  0
  151.1152  145.5738  159.0476 H   0  0  0  0  0  0  0  0  0  0  0  0
  149.6866  144.0720  157.6715 H   0  0  0  0  0  0  0  0  0  0  0  0
  150.3016  141.6838  157.3867 H   0  0  0  0  0  0  0  0  0  0  0  0
  153.1164  139.9638  163.3073 H   0  0  0  0  0  0  0  0  0  0  0  0
  157.4191  137.0292  162.8794 H   0  0  0  0  0  0  0  0  0  0  0  0
  159.1286  137.1465  162.4033 H   0  0  0  0  0  0  0  0  0  0  0  0
  158.2616  136.6545  165.0233 H   0  0  0  0  0  0  0  0  0  0  0  0
  160.4872  137.0674  163.9784 H   0  0  0  0  0  0  0  0  0  0  0  0
  152.3742  140.2346  161.1371 H   0  0  0  0  0  0  0  0  0  0  0  0
  1  2  1  0  0  0  0
  1 34  1  0  0  0  0
  1 35  1  0  0  0  0
  1 36  1  0  0  0  0
  2  3  1  0  0  0  0
  2  4  1  0  0  0  0
  2  5  1  0  0  0  0
  3 37  1  0  0  0  0
  3 38  1  0  0  0  0
  3 39  1  0  0  0  0
  4 40  1  0  0  0  0
  4 41  1  0  0  0  0
  4 42  1  0  0  0  0
  5  6  1  0  0  0  0
  5  7  1  0  0  0  0
  5  8  1  0  0  0  0
  6 43  1  0  0  0  0
  6 44  1  0  0  0  0
  6 45  1  0  0  0  0
  7 46  1  0  0  0  0
  7 47  1  0  0  0  0
  7 48  1  0  0  0  0
  8  9  1  0  0  0  0
  9 10  1  0  0  0  0
  9 49  1  0  0  0  0
  9 50  1  0  0  0  0
 10 32  1  0  0  0  0
 10 11  1  0  0  0  0
 10 51  1  0  0  0  0
 11 12  1  0  0  0  0
 12 13  1  0  0  0  0
 12 31  1  0  0  0  0
 12 52  1  0  0  0  0
 13 30  1  0  0  0  0
 13 14  1  0  0  0  0
 14 15  2  0  0  0  0
 14 53  1  0  0  0  0
 15 16  1  0  0  0  0
 16 30  2  0  0  0  0
 16 17  1  0  0  0  0
 17 18  2  0  0  0  0
 17 27  1  0  0  0  0
 18 19  1  0  0  0  0
 19 20  2  0  0  0  0
 19 21  1  0  0  0  0
 21 26  1  0  0  0  0
 21 22  2  0  0  0  0
 22 23  1  0  0  0  0
 22 54  1  0  0  0  0
 23 24  2  0  0  0  0
 23 55  1  0  0  0  0
 24 25  1  0  0  0  0
 24 56  1  0  0  0  0
 25 26  2  0  0  0  0
 25 57  1  0  0  0  0
 26 58  1  0  0  0  0
 27 28  1  0  0  0  0
 27 64  1  0  0  0  0
 28 29  2  0  0  0  0
 28 59  1  0  0  0  0
 29 30  1  0  0  0  0
 31 32  1  0  0  0  0
 31 60  1  0  0  0  0
 31 61  1  0  0  0  0
 32 33  1  0  0  0  0
 32 62  1  0  0  0  0
 33 63  1  0  0  0  0
M  END
> <s_m_source_file>
AV-unprocessed.smi

> <i_m_source_file_index>
36

> <i_lp_mmshare_version>
43012

> <i_f3d_flags>
0

> <s_epik_input>
W0NIM11DKFtDSDNdKShbQ0gzXSlbU2ldKFtDSDNdKShbQ0gzXSlPW0NIMl1bQ0BASF0xT1tDQEhdKFtDSDJdW0NASF0xW09IXSluKFtjSF1uMiljKGMyMyluW2NIXW5jM1tOSF1DKD1PKWM0W2NIXVtjSF1bY0hdW2NIXVtjSF00

> <s_epik_cmdline>
J2VwaWtfcHl0aG9uJywgJy1waCcsICc3LjAnLCAnLXRuJywgJzgnLCAnLW1hJywgJzIwMCcsICctbWV0YWxfYmluZGluZycsICctaW1hZScsICc8aW5maWxlLm1hZT4nLCAnLW9tYWUnLCAnPG91dGZpbGUubWFlPic=

> <r_epik_Ionization_Penalty>
0.0850405

> <r_epik_Ionization_Penalty_Charging>
0.0850403

> <r_epik_Ionization_Penalty_Neutral>
1.47497e-07

> <r_epik_State_Penalty>
2.6133

> <r_epik_Charging_Adjusted_Penalty>
2.69834

> <i_epik_Tot_Q>
0

> <i_epik_Tot_abs_Q>
0

> <r_epik_Metal_State_Penalty>
2.92945

> <b_epik_Metal_Only>
0

> <s_epik_Chemistry_Notes>
This compound contains an acetal/aminal-like group ( X-CH(R)-Y where X, Y are N, S, or O) that may be acid/base labile, releasing an aldehyde.

> <s_lp_Force_Field>
OPLS_2005

> <r_lp_Energy>
44.9546

> <b_lp_Chiralities_Consistent>
1

> <s_lp_Variant>
AV-unprocessed.smi:36-11

> <Gold.Version>
5.8.1

> <Gold.Id.Protein>
6NUR|6NUR_protein|mol2

> <Gold.PLP.Fitness>
41.7726

> <Gold.PLP.PLP>
-42.3556

> <Gold.PLP.part.hbond>
-3.4914

> <Gold.PLP.part.metal>
0.0000

> <Gold.PLP.part.buried>
1.1230

> <Gold.PLP.part.nonpolar>
-39.5505

> <Gold.PLP.part.repulsive>
0.0727

> <Gold.PLP.ligand.clash>
0.0000

> <Gold.PLP.ligand.torsion>
1.9084

> <Gold.PLP.Chemscore.Hbond>
0.9600

> <Gold.PLP.Chemscore.CHOScore>
0.0000

> <Gold.PLP.Chemscore.Metal>
0.0000

> <Gold.Chemscore.Hbonds>
donor molecule, donor type, donor heavy atom, donor atom, acceptor molecule, acceptor atom, score
      P1  H  7997  8008       L1    18  0.98

> <Gold.PLP.Chemscore.Internal.Correction>
0.3538

> <Gold.Rescore>
     Score         DG    S(hbond)    S(metal)    S(lipo)     H(rot)  DE(clash)    DE(int)     intcor
      8.60     -13.91       0.88        0.00     105.98       2.70       1.65       3.66       ----

> <Gold.Chemscore.Fitness>
8.5999

> <Gold.Chemscore.DG>
-13.9072

> <Gold.Chemscore.ZeroCoef>
-5.4800

> <Gold.Chemscore.Hbond>
0.8834

> <Gold.Chemscore.Metal>
0.0000

> <Gold.Chemscore.Lipo>
105.9753

> <Gold.Chemscore.Internal_Hbond>
0.0000

> <Gold.Chemscore.DEClash>
1.6503

> <Gold.Chemscore.DEInternal>
3.6571

> <Gold.Chemscore.Rot>
2.7041

> <Gold.Chemscore.Internal.Correction>
   9.000000E+99

> <Gold.Chemscore.Hbonds>
donor molecule, donor type, donor heavy atom, donor atom, acceptor molecule, acceptor atom, score
      P1  H  7997  8008       L1    18  0.65

> <Gold.Chemscore.Hbond.Weighted>
-2.9506

> <Gold.Chemscore.Metal.Weighted>
-0.0000

> <Gold.Chemscore.Lipo.Weighted>
-12.3991

> <Gold.Chemscore.Internal_Hbond.Weighted>
0.0000

> <Gold.Chemscore.DEClash.Weighted>
1.6503

> <Gold.Chemscore.DEInternal.Weighted>
3.6571

> <Gold.Chemscore.Rot.Weighted>
6.9225

> <Gold.Chemscore.Internal.Correction.Weighted>
   9.000000E+99

> <Gold.Protein.RotatedTorsions>
[ 6907 6896 6895 6894 ] final -158.66 input  -60.11 | X-H torsion
[ 7974 7965 7964 7962 ] final   56.18 input  175.53 | X-H torsion
[ 8008 7997 7996 7995 ] final -103.74 input   59.86 | X-H torsion
[ 10167 10162 10161 10158 ] final   74.63 input  -65.29 | X-H torsion
[ 10718 10713 10712 10709 ] final   26.23 input   66.30 | X-H torsion
[ 10763 10752 10751 10750 ] final  133.15 input  -60.55 | X-H torsion
[ 11005 11000 10999 10996 ] final   18.55 input  -57.11 | X-H torsion

> <Gold.Protein.ActiveResidues>
 VAL166  LYS551  ARG553  GLY616  TRP617  ASP618  TYR619  PRO620  LYS621  CYS622 
 ASP623  PHE694  ASN695  SER759  ASP760  ASP761  ALA762  ILE779  LEU786  VAL792 
 PHE793  MET794  SER795  GLU796  ALA797  LYS798  CYS799  TRP800  GLU811  SER814 

> <Gold.Protein.RotatedAtoms>
  151.3215  133.4038  159.2654 H   0  0  0  0  0  0  0  0  0  0  0  0  # atno 6907 bound_to 6896
  151.0030  134.9338  159.7975 H   0  0  0  0  0  0  0  0  0  0  0  0  # atno 6908 bound_to 6896
  152.5280  134.3180  159.9190 H   0  0  0  0  0  0  0  0  0  0  0  0  # atno 6909 bound_to 6896
  145.9425  139.3901  143.0355 H   0  0  0  0  0  0  0  0  0  0  0  0  # atno 7974 bound_to 7965
  154.8753  140.0421  157.1749 H   0  0  0  0  0  0  0  0  0  0  0  0  # atno 8008 bound_to 7997
  154.8696  140.2956  155.5469 H   0  0  0  0  0  0  0  0  0  0  0  0  # atno 8009 bound_to 7997
  156.2999  140.2431  156.3682 H   0  0  0  0  0  0  0  0  0  0  0  0  # atno 8010 bound_to 7997
  140.0117  144.5609  150.7653 H   0  0  0  0  0  0  0  0  0  0  0  0  # atno 10167 bound_to 10162
  157.2040  130.6903  149.6200 H   0  0  0  0  0  0  0  0  0  0  0  0  # atno 10718 bound_to 10713
  153.8024  135.3140  155.3391 H   0  0  0  0  0  0  0  0  0  0  0  0  # atno 10763 bound_to 10752
  154.8084  135.4683  154.0454 H   0  0  0  0  0  0  0  0  0  0  0  0  # atno 10764 bound_to 10752
  153.1806  135.6893  153.8571 H   0  0  0  0  0  0  0  0  0  0  0  0  # atno 10765 bound_to 10752
  140.4236  134.1493  155.7674 H   0  0  0  0  0  0  0  0  0  0  0  0  # atno 11005 bound_to 11000
  145.8280  140.9645  143.0864 LP  0  0  0  0  0  0  0  0  0  0  0  0  # atno 17320 bound_to 7965
  144.6781  140.0127  143.7484 LP  0  0  0  0  0  0  0  0  0  0  0  0  # atno 17321 bound_to 7965
  140.7379  143.2771  151.3709 LP  0  0  0  0  0  0  0  0  0  0  0  0  # atno 17342 bound_to 10162
  139.6201  144.0925  152.2383 LP  0  0  0  0  0  0  0  0  0  0  0  0  # atno 17343 bound_to 10162
  155.9697  130.4573  150.5958 LP  0  0  0  0  0  0  0  0  0  0  0  0  # atno 17370 bound_to 10713
  157.3739  131.0770  151.1534 LP  0  0  0  0  0  0  0  0  0  0  0  0  # atno 17371 bound_to 10713
  141.1774  133.8485  157.1374 LP  0  0  0  0  0  0  0  0  0  0  0  0  # atno 17394 bound_to 11000
  140.0183  134.9957  157.0539 LP  0  0  0  0  0  0  0  0  0  0  0  0  # atno 17395 bound_to 11000

$$$$
