#       Name:                AV-unprocessed.smi:2329
#       Creating user name   scv26
#       Creation time:       Fri Mar 27 12:52:34 2020


#       File generated by GOLD software.
#

@<TRIPOS>MOLECULE
AV-unprocessed.smi:2329
    50    53     1
SMALL
NO_CHARGES


@<TRIPOS>ATOM
      1 ****        -5.8836   2.6991  -0.2726 C.3            1 S1                 0.0000
      2 ****        -5.1212   1.4079  -0.0620 C.ar           1 S1                 0.0000
      3 ****        -5.7949   0.1742   0.0313 C.ar           1 S1                 0.0000
      4 ****        -5.0267  -0.9874   0.2277 C.ar           1 S1                 0.0000
      5 ****        -3.6268  -0.8685   0.3227 C.ar           1 S1                 0.0000
      6 ****        -3.0292   0.4074   0.2174 C.ar           1 S1                 0.0000
      7 ****        -1.6138   0.4182   0.3228 N.am           1 S1                 0.0000
      8 ****        -0.7728   1.4636   0.1918 C.2            1 S1                 0.0000
      9 ****        -1.1208   2.6253  -0.0112 O.2            1 S1                 0.0000
     10 ****         0.5267   1.1328   0.2891 N.am           1 S1                 0.0000
     11 ****         1.6885   2.0312   0.1922 C.3            1 S1                 0.0000
     12 ****         1.9728   2.8392   1.4644 C.3            1 S1                 0.0000
     13 ****         1.1912   3.2541   2.6593 C.3            1 S1                 0.0000
     14 ****         2.2896   2.9780   3.7193 C.3            1 S1                 0.0000
     15 ****         3.3447   2.2673   3.0235 O.3            1 S1                 0.0000
     16 ****         2.6777   1.5984   1.9700 C.3            1 S1                 0.0000
     17 ****         3.0723   1.3377   0.4965 C.3            1 S1                 0.0000
     18 ****         3.2486  -0.1249   0.0725 C.3            1 S1                 0.0000
     19 ****         4.7371  -0.3555  -0.1672 C.3            1 S1                 0.0000
     20 ****         5.2232   0.9782  -0.7158 C.3            1 S1                 0.0000
     21 ****         4.3573   2.0251  -0.0106 C.3            1 S1                 0.0000
     22 ****        -3.7786   1.5219   0.0282 N.ar           1 S1                 0.0000
     23 ****        -6.9554   2.5176  -0.3546 H              1 S1                 0.0000
     24 ****        -5.5512   3.1911  -1.1871 H              1 S1                 0.0000
     25 ****        -5.7167   3.3784   0.5637 H              1 S1                 0.0000
     26 ****        -6.8707   0.1163  -0.0449 H              1 S1                 0.0000
     27 ****        -5.5023  -1.9539   0.3044 H              1 S1                 0.0000
     28 ****        -3.0215  -1.7509   0.4725 H              1 S1                 0.0000
     29 ****        -1.1833  -0.4800   0.4855 H              1 S1                 0.0000
     30 ****         0.7356   0.1531   0.4173 H              1 S1                 0.0000
     31 ****         1.7043   2.6290  -0.7204 H              1 S1                 0.0000
     32 ****         2.6758   3.6380   1.2063 H              1 S1                 0.0000
     33 ****         0.8892   4.3013   2.6269 H              1 S1                 0.0000
     34 ****         0.3101   2.6311   2.8164 H              1 S1                 0.0000
     35 ****         2.6874   3.8998   4.1445 H              1 S1                 0.0000
     36 ****         1.8968   2.3701   4.5352 H              1 S1                 0.0000
     37 ****         2.0072   0.8308   2.3693 H              1 S1                 0.0000
     38 ****         2.8577  -0.8248   0.8114 H              1 S1                 0.0000
     39 ****         2.7063  -0.3112  -0.8556 H              1 S1                 0.0000
     40 ****         5.2339  -0.5674   0.7806 H              1 S1                 0.0000
     41 ****         4.9327  -1.1883  -0.8433 H              1 S1                 0.0000
     42 ****         6.2901   1.1355  -0.5543 H              1 S1                 0.0000
     43 ****         5.0410   1.0174  -1.7906 H              1 S1                 0.0000
     44 ****         4.1412   2.8552  -0.6839 H              1 S1                 0.0000
     45 ****         4.9174   2.4439   0.8266 H              1 S1                 0.0000
     46 ****        -2.0920   2.8496  -0.0909 LP             1 S1                 0.0000
     47 ****        -0.4326   3.3457  -0.0966 LP             1 S1                 0.0000
     48 ****         3.7920   1.6122   3.6324 LP             1 S1                 0.0000
     49 ****         4.0247   2.9061   2.6636 LP             1 S1                 0.0000
     50 ****        -3.3416   2.4185  -0.0437 LP             1 S1                 0.0000
@<TRIPOS>BOND
    1    1    2 1     
    2    1   23 1     
    3    1   24 1     
    4    1   25 1     
    5    2   22 ar    
    6    2    3 ar    
    7    3    4 ar    
    8    3   26 1     
    9    4    5 ar    
   10    4   27 1     
   11    5    6 ar    
   12    5   28 1     
   13    6    7 1     
   14    6   22 ar    
   15    7    8 am    
   16    7   29 1     
   17    8    9 2     
   18    8   10 am    
   19   10   11 1     
   20   10   30 1     
   21   11   17 1     
   22   11   12 1     
   23   11   31 1     
   24   12   16 1     
   25   12   13 1     
   26   12   32 1     
   27   13   14 1     
   28   13   33 1     
   29   13   34 1     
   30   14   15 1     
   31   14   35 1     
   32   14   36 1     
   33   15   16 1     
   34   16   17 1     
   35   16   37 1     
   36   17   21 1     
   37   17   18 1     
   38   18   19 1     
   39   18   38 1     
   40   18   39 1     
   41   19   20 1     
   42   19   40 1     
   43   19   41 1     
   44   20   21 1     
   45   20   42 1     
   46   20   43 1     
   47   21   44 1     
   48   21   45 1     
   49    9   46 1     
   50    9   47 1     
   51   15   48 1     
   52   15   49 1     
   53   22   50 1     
@<TRIPOS>SUBSTRUCTURE
      1 S1             1
@<TRIPOS>SET
LONE_PAIRS      STATIC     ATOMS    <user>   **** ""
5 46 47 48 49 50
DONOR_HYDROGENS      STATIC     ATOMS    <user>   **** ""
2 29 30
ATOM$BLUE        STATIC     ATOMS    COLORGROUP SYSTEM
5 46 47 48 49 50
ATOM$RED        STATIC     ATOMS    COLORGROUP SYSTEM
2 29 30
