AV-unprocessed.smi:2001|AV-procd|sdf|8112|dock10
  -GOLD-   2272010343D 1   1.00000     0.00000
 Structure written by MMmdl.
 50 51  0  0  0  0  0  0  0  0  3 V2000
  152.4867  143.0700  161.6621 C   0  0  0  0  0  0  0  0  0  0  0  0
  153.2620  142.2669  160.7895 O   0  0  0  0  0  0  0  0  0  0  0  0
  152.6585  142.1142  159.5158 C   0  0  0  0  0  0  0  0  0  0  0  0
  151.7347  140.8872  159.5417 C   0  0  0  0  0  0  0  0  0  0  0  0
  151.7185  140.2048  158.2441 N   0  0  0  0  0  0  0  0  0  0  0  0
  151.9753  138.8463  158.3197 N   0  0  0  0  0  0  0  0  0  0  0  0
  151.9702  138.1174  157.2505 C   0  0  0  0  0  0  0  0  0  0  0  0
  152.2387  136.6456  157.3321 C   0  0  0  0  0  0  0  0  0  0  0  0
  152.7974  136.2677  158.3709 O   0  0  0  0  0  0  0  0  0  0  0  0
  151.8633  135.8441  156.2906 N   0  5  0  0  0  0  0  0  0  0  0  0
  150.5137  135.7627  155.7297 C   0  0  0  0  0  0  0  0  0  0  0  0
  150.4625  134.6555  154.6607 C   0  0  0  0  0  0  0  0  0  0  0  0
  149.0990  134.5184  154.0756 N   0  3  1  0  0  0  0  0  0  0  0  0
  148.8837  133.2812  153.2816 C   0  0  0  0  0  0  0  0  0  0  0  0
  148.6372  132.0615  154.1957 C   0  0  2  0  0  0  0  0  0  0  0  0
  148.2882  130.8034  153.3929 C   0  0  0  0  0  0  0  0  0  0  0  0
  147.5516  132.3421  155.0740 O   0  0  0  0  0  0  0  0  0  0  0  0
  147.8005  133.4590  155.9219 C   0  0  2  0  0  0  0  0  0  0  0  0
  146.6133  133.6048  156.8802 C   0  0  0  0  0  0  0  0  0  0  0  0
  147.9963  134.7132  155.0477 C   0  0  0  0  0  0  0  0  0  0  0  0
  151.7006  138.7189  155.9495 C   0  0  0  0  0  0  0  0  0  0  0  0
  151.4473  140.0445  155.8932 C   0  0  0  0  0  0  0  0  0  0  0  0
  151.4367  140.8830  157.0919 C   0  0  0  0  0  0  0  0  0  0  0  0
  151.1908  142.0888  157.0673 O   0  0  0  0  0  0  0  0  0  0  0  0
  152.9970  143.1687  162.6202 H   0  0  0  0  0  0  0  0  0  0  0  0
  151.5098  142.6212  161.8460 H   0  0  0  0  0  0  0  0  0  0  0  0
  152.3408  144.0708  161.2534 H   0  0  0  0  0  0  0  0  0  0  0  0
  152.0846  143.0080  159.2654 H   0  0  0  0  0  0  0  0  0  0  0  0
  153.4298  141.9933  158.7534 H   0  0  0  0  0  0  0  0  0  0  0  0
  152.0435  140.2021  160.3334 H   0  0  0  0  0  0  0  0  0  0  0  0
  150.7233  141.1996  159.8078 H   0  0  0  0  0  0  0  0  0  0  0  0
  149.7623  135.5489  156.4912 H   0  0  0  0  0  0  0  0  0  0  0  0
  150.2162  136.7066  155.2727 H   0  0  0  0  0  0  0  0  0  0  0  0
  151.1955  134.8640  153.8814 H   0  0  0  0  0  0  0  0  0  0  0  0
  150.7793  133.7161  155.1168 H   0  0  0  0  0  0  0  0  0  0  0  0
  148.0154  133.4390  152.6403 H   0  0  0  0  0  0  0  0  0  0  0  0
  149.7293  133.1042  152.6159 H   0  0  0  0  0  0  0  0  0  0  0  0
  149.5275  131.8494  154.7894 H   0  0  0  0  0  0  0  0  0  0  0  0
  149.0957  130.5368  152.7104 H   0  0  0  0  0  0  0  0  0  0  0  0
  147.3843  130.9503  152.8012 H   0  0  0  0  0  0  0  0  0  0  0  0
  148.1183  129.9536  154.0548 H   0  0  0  0  0  0  0  0  0  0  0  0
  148.6988  133.2705  156.5123 H   0  0  0  0  0  0  0  0  0  0  0  0
  146.7609  134.4426  157.5623 H   0  0  0  0  0  0  0  0  0  0  0  0
  146.4857  132.7052  157.4829 H   0  0  0  0  0  0  0  0  0  0  0  0
  145.6844  133.7756  156.3355 H   0  0  0  0  0  0  0  0  0  0  0  0
  148.1833  135.5974  155.6590 H   0  0  0  0  0  0  0  0  0  0  0  0
  147.0821  134.9171  154.4887 H   0  0  0  0  0  0  0  0  0  0  0  0
  151.6981  138.1346  155.0414 H   0  0  0  0  0  0  0  0  0  0  0  0
  151.2450  140.5007  154.9353 H   0  0  0  0  0  0  0  0  0  0  0  0
  149.0358  135.2949  153.4312 H   0  0  0  0  0  0  0  0  0  0  0  0
  1  2  1  0  0  0  0
  1 25  1  0  0  0  0
  1 26  1  0  0  0  0
  1 27  1  0  0  0  0
  2  3  1  0  0  0  0
  3  4  1  0  0  0  0
  3 28  1  0  0  0  0
  3 29  1  0  0  0  0
  4  5  1  0  0  0  0
  4 30  1  0  0  0  0
  4 31  1  0  0  0  0
  5 23  1  0  0  0  0
  5  6  1  0  0  0  0
  6  7  2  0  0  0  0
  7  8  1  0  0  0  0
  7 21  1  0  0  0  0
  8  9  2  0  0  0  0
  8 10  1  0  0  0  0
 10 11  1  0  0  0  0
 11 12  1  0  0  0  0
 11 32  1  0  0  0  0
 11 33  1  0  0  0  0
 12 13  1  0  0  0  0
 12 34  1  0  0  0  0
 12 35  1  0  0  0  0
 13 20  1  0  0  0  0
 13 14  1  0  0  0  0
 13 50  1  0  0  0  0
 14 15  1  0  0  0  0
 14 36  1  0  0  0  0
 14 37  1  0  0  0  0
 15 16  1  0  0  0  0
 15 17  1  0  0  0  0
 15 38  1  0  0  0  0
 16 39  1  0  0  0  0
 16 40  1  0  0  0  0
 16 41  1  0  0  0  0
 17 18  1  0  0  0  0
 18 19  1  0  0  0  0
 18 20  1  0  0  0  0
 18 42  1  0  0  0  0
 19 43  1  0  0  0  0
 19 44  1  0  0  0  0
 19 45  1  0  0  0  0
 20 46  1  0  0  0  0
 20 47  1  0  0  0  0
 21 22  2  0  0  0  0
 21 48  1  0  0  0  0
 22 23  1  0  0  0  0
 22 49  1  0  0  0  0
 23 24  2  0  0  0  0
M  CHG  1  10  -1
M  CHG  1  13   1
M  END
> <s_m_source_file>
AV-unprocessed.smi

> <i_m_source_file_index>
2001

> <i_lp_mmshare_version>
43012

> <i_f3d_flags>
0

> <s_epik_input>
W0NIM11PW0NIMl1bQ0gyXW4xbmMoW2NIXVtjSF1jMT1PKUMoPU8pW05IXVtDSDJdW0NIMl1OMltDSDJdW0NAQEhdKFtDSDNdKU9bQ0BASF0oW0NIM10pW0NIMl0y

> <s_epik_cmdline>
J2VwaWtfcHl0aG9uJywgJy1waCcsICc3LjAnLCAnLXRuJywgJzgnLCAnLW1hJywgJzIwMCcsICctbWV0YWxfYmluZGluZycsICctaW1hZScsICc8aW5maWxlLm1hZT4nLCAnLW9tYWUnLCAnPG91dGZpbGUubWFlPic=

> <r_lp_tautomer_probability>
1

> <r_epik_Ionization_Penalty>
6.90846

> <r_epik_Ionization_Penalty_Charging>
6.90846

> <r_epik_Ionization_Penalty_Neutral>
1.08445e-11

> <r_epik_State_Penalty>
7.54671

> <r_epik_Charging_Adjusted_Penalty>
14.4552

> <i_epik_Tot_Q>
0

> <i_epik_Tot_abs_Q>
2

> <r_epik_Metal_State_Penalty>
3.46181

> <b_epik_Metal_Only>
1

> <s_lp_Force_Field>
OPLS_2005

> <r_lp_Energy>
41.6735

> <b_lp_Chiralities_Consistent>
1

> <s_lp_Variant>
AV-unprocessed.smi:2001-11

> <Gold.Version>
5.8.1

> <Gold.Id.Protein>
6NUR|6NUR_protein|mol2

> <Gold.PLP.Fitness>
44.8875

> <Gold.PLP.PLP>
-34.1008

> <Gold.PLP.part.hbond>
-3.0000

> <Gold.PLP.part.metal>
0.0000

> <Gold.PLP.part.buried>
-4.6706

> <Gold.PLP.part.nonpolar>
-25.8859

> <Gold.PLP.part.repulsive>
0.0788

> <Gold.PLP.ligand.clash>
0.0000

> <Gold.PLP.ligand.torsion>
1.2860

> <Gold.PLP.Chemscore.Hbond>
4.3978

> <Gold.PLP.Chemscore.CHOScore>
0.0000

> <Gold.PLP.Chemscore.Metal>
0.0000

> <Gold.Chemscore.Hbonds>
donor molecule, donor type, donor heavy atom, donor atom, acceptor molecule, acceptor atom, score
      L1  H    13    50       P1  7948  2.00
      P1  H  6896  6908       L1     9  0.32
      P1  H 10752 10765       L1    10  2.00

> <Gold.PLP.Chemscore.Internal.Correction>
0.1652

> <Gold.Rescore>
     Score         DG    S(hbond)    S(metal)    S(lipo)     H(rot)  DE(clash)    DE(int)     intcor
     13.83     -15.88       2.02        0.00      75.53       2.02       0.01       2.04       ----

> <Gold.Chemscore.Fitness>
13.8312

> <Gold.Chemscore.DG>
-15.8819

> <Gold.Chemscore.ZeroCoef>
-5.4800

> <Gold.Chemscore.Hbond>
2.0152

> <Gold.Chemscore.Metal>
0.0000

> <Gold.Chemscore.Lipo>
75.5310

> <Gold.Chemscore.Internal_Hbond>
0.0000

> <Gold.Chemscore.DEClash>
0.0089

> <Gold.Chemscore.DEInternal>
2.0418

> <Gold.Chemscore.Rot>
2.0179

> <Gold.Chemscore.Internal.Correction>
   9.000000E+99

> <Gold.Chemscore.Hbonds>
donor molecule, donor type, donor heavy atom, donor atom, acceptor molecule, acceptor atom, score
      L1  H    13    50       P1  7948  0.50
      P1  H  6896  6908       L1     9  0.31
      P1  H 10752 10765       L1    10  0.59

> <Gold.Chemscore.Hbond.Weighted>
-6.7306

> <Gold.Chemscore.Metal.Weighted>
-0.0000

> <Gold.Chemscore.Lipo.Weighted>
-8.8371

> <Gold.Chemscore.Internal_Hbond.Weighted>
0.0000

> <Gold.Chemscore.DEClash.Weighted>
0.0089

> <Gold.Chemscore.DEInternal.Weighted>
2.0418

> <Gold.Chemscore.Rot.Weighted>
5.1659

> <Gold.Chemscore.Internal.Correction.Weighted>
   9.000000E+99

> <Gold.Protein.RotatedTorsions>
[ 6907 6896 6895 6894 ] final  -89.46 input  -60.11 | X-H torsion
[ 7974 7965 7964 7962 ] final   23.76 input  175.53 | X-H torsion
[ 8008 7997 7996 7995 ] final   58.70 input   59.86 | X-H torsion
[ 10167 10162 10161 10158 ] final  135.37 input  -65.29 | X-H torsion
[ 10718 10713 10712 10709 ] final -132.95 input   66.30 | X-H torsion
[ 10763 10752 10751 10750 ] final -161.68 input  -60.55 | X-H torsion
[ 11005 11000 10999 10996 ] final -103.64 input  -57.11 | X-H torsion

> <Gold.Protein.ActiveResidues>
 VAL166  LYS551  ARG553  GLY616  TRP617  ASP618  TYR619  PRO620  LYS621  CYS622 
 ASP623  PHE694  ASN695  SER759  ASP760  ASP761  ALA762  ILE779  LEU786  VAL792 
 PHE793  MET794  SER795  GLU796  ALA797  LYS798  CYS799  TRP800  GLU811  SER814 

> <Gold.Protein.RotatedAtoms>
  150.6874  134.2583  159.4538 H   0  0  0  0  0  0  0  0  0  0  0  0  # atno 6907 bound_to 6896
  152.0515  134.9648  160.0584 H   0  0  0  0  0  0  0  0  0  0  0  0  # atno 6908 bound_to 6896
  152.1111  133.4266  159.4668 H   0  0  0  0  0  0  0  0  0  0  0  0  # atno 6909 bound_to 6896
  146.1969  139.7700  142.8790 H   0  0  0  0  0  0  0  0  0  0  0  0  # atno 7974 bound_to 7965
  155.5542  140.3487  155.4476 H   0  0  0  0  0  0  0  0  0  0  0  0  # atno 8008 bound_to 7997
  156.0561  140.1329  157.0021 H   0  0  0  0  0  0  0  0  0  0  0  0  # atno 8009 bound_to 7997
  154.4457  140.0995  156.6433 H   0  0  0  0  0  0  0  0  0  0  0  0  # atno 8010 bound_to 7997
  139.5220  144.6520  151.5274 H   0  0  0  0  0  0  0  0  0  0  0  0  # atno 10167 bound_to 10162
  156.2399  130.7089  151.0946 H   0  0  0  0  0  0  0  0  0  0  0  0  # atno 10718 bound_to 10713
  154.7282  135.3040  154.8935 H   0  0  0  0  0  0  0  0  0  0  0  0  # atno 10763 bound_to 10752
  153.9786  135.6733  153.4753 H   0  0  0  0  0  0  0  0  0  0  0  0  # atno 10764 bound_to 10752
  153.0894  135.4967  154.8581 H   0  0  0  0  0  0  0  0  0  0  0  0  # atno 10765 bound_to 10752
  141.1136  133.8657  157.1512 H   0  0  0  0  0  0  0  0  0  0  0  0  # atno 11005 bound_to 11000
  145.3613  141.0326  143.3283 LP  0  0  0  0  0  0  0  0  0  0  0  0  # atno 17320 bound_to 7965
  144.8600  139.5191  143.6816 LP  0  0  0  0  0  0  0  0  0  0  0  0  # atno 17321 bound_to 7965
  140.6329  143.9041  150.6621 LP  0  0  0  0  0  0  0  0  0  0  0  0  # atno 17342 bound_to 10162
  140.2350  143.3706  152.1534 LP  0  0  0  0  0  0  0  0  0  0  0  0  # atno 17343 bound_to 10162
  157.7170  131.0704  150.6286 LP  0  0  0  0  0  0  0  0  0  0  0  0  # atno 17370 bound_to 10713
  156.6358  130.4445  149.5770 LP  0  0  0  0  0  0  0  0  0  0  0  0  # atno 17371 bound_to 10713
  140.0045  135.0014  157.0262 LP  0  0  0  0  0  0  0  0  0  0  0  0  # atno 17394 bound_to 11000
  140.4707  134.1390  155.7203 LP  0  0  0  0  0  0  0  0  0  0  0  0  # atno 17395 bound_to 11000

$$$$
