AV-unprocessed.smi:969|AV-procd|sdf|4290|dock1
  -GOLD-   22720 2193D 1   1.00000     0.00000
 Structure written by MMmdl.
 37 38  0  0  0  0  0  0  0  0  1 V2000
  146.6707  142.6565  154.2052 C   0  0  0  0  0  0  0  0  0  0  0  0
  147.8154  141.6968  153.8539 C   0  0  0  0  0  0  0  0  0  0  0  0
  147.2899  140.3130  153.4410 C   0  0  0  0  0  0  0  0  0  0  0  0
  148.7182  141.5805  154.9954 N   0  0  0  0  0  0  0  0  0  0  0  0
  149.8097  140.7990  155.0490 C   0  0  0  0  0  0  0  0  0  0  0  0
  150.1616  140.0569  154.1319 O   0  0  0  0  0  0  0  0  0  0  0  0
  150.5630  140.8267  156.3476 C   0  0  0  0  0  0  0  0  0  0  0  0
  150.0740  141.5189  157.4769 C   0  0  0  0  0  0  0  0  0  0  0  0
  150.8370  141.5269  158.6603 C   0  0  0  0  0  0  0  0  0  0  0  0
  152.0800  140.8513  158.6864 C   0  0  0  0  0  0  0  0  0  0  0  0
  152.8629  140.8477  159.8614 N   0  0  0  0  0  0  0  0  0  0  0  0
  153.0493  142.1475  160.5019 C   0  0  0  0  0  0  0  0  0  0  0  0
  153.6449  141.9712  161.9094 C   0  0  0  0  0  0  0  0  0  0  0  0
  154.8484  141.2148  161.8330 O   0  0  0  0  0  0  0  0  0  0  0  0
  154.6205  139.9100  161.3116 C   0  0  0  0  0  0  0  0  0  0  0  0
  154.0642  140.0147  159.8817 C   0  0  0  0  0  0  0  0  0  0  0  0
  152.5494  140.1914  157.5990 N   0  0  0  0  0  0  0  0  0  0  0  0
  151.8154  140.1872  156.4662 C   0  0  0  0  0  0  0  0  0  0  0  0
  145.9950  142.7863  153.3593 H   0  0  0  0  0  0  0  0  0  0  0  0
  147.0528  143.6422  154.4739 H   0  0  0  0  0  0  0  0  0  0  0  0
  146.0833  142.2852  155.0459 H   0  0  0  0  0  0  0  0  0  0  0  0
  148.3612  142.1260  153.0117 H   0  0  0  0  0  0  0  0  0  0  0  0
  146.6194  140.3894  152.5848 H   0  0  0  0  0  0  0  0  0  0  0  0
  146.7392  139.8385  154.2540 H   0  0  0  0  0  0  0  0  0  0  0  0
  148.1060  139.6469  153.1584 H   0  0  0  0  0  0  0  0  0  0  0  0
  148.4949  142.1357  155.8086 H   0  0  0  0  0  0  0  0  0  0  0  0
  149.1278  142.0398  157.4495 H   0  0  0  0  0  0  0  0  0  0  0  0
  150.4558  142.0377  159.5319 H   0  0  0  0  0  0  0  0  0  0  0  0
  153.7196  142.7488  159.8866 H   0  0  0  0  0  0  0  0  0  0  0  0
  152.1131  142.6983  160.5810 H   0  0  0  0  0  0  0  0  0  0  0  0
  153.8650  142.9444  162.3479 H   0  0  0  0  0  0  0  0  0  0  0  0
  152.9333  141.4773  162.5732 H   0  0  0  0  0  0  0  0  0  0  0  0
  155.5613  139.3591  161.3089 H   0  0  0  0  0  0  0  0  0  0  0  0
  153.9327  139.3626  161.9581 H   0  0  0  0  0  0  0  0  0  0  0  0
  153.8373  139.0149  159.5090 H   0  0  0  0  0  0  0  0  0  0  0  0
  154.8157  140.4479  159.2201 H   0  0  0  0  0  0  0  0  0  0  0  0
  152.2451  139.6493  155.6337 H   0  0  0  0  0  0  0  0  0  0  0  0
  1  2  1  0  0  0  0
  1 19  1  0  0  0  0
  1 20  1  0  0  0  0
  1 21  1  0  0  0  0
  2  3  1  0  0  0  0
  2  4  1  0  0  0  0
  2 22  1  0  0  0  0
  3 23  1  0  0  0  0
  3 24  1  0  0  0  0
  3 25  1  0  0  0  0
  4  5  1  0  0  0  0
  4 26  1  0  0  0  0
  5  6  2  0  0  0  0
  5  7  1  0  0  0  0
  7 18  1  0  0  0  0
  7  8  2  0  0  0  0
  8  9  1  0  0  0  0
  8 27  1  0  0  0  0
  9 10  2  0  0  0  0
  9 28  1  0  0  0  0
 10 11  1  0  0  0  0
 10 17  1  0  0  0  0
 11 16  1  0  0  0  0
 11 12  1  0  0  0  0
 12 13  1  0  0  0  0
 12 29  1  0  0  0  0
 12 30  1  0  0  0  0
 13 14  1  0  0  0  0
 13 31  1  0  0  0  0
 13 32  1  0  0  0  0
 14 15  1  0  0  0  0
 15 16  1  0  0  0  0
 15 33  1  0  0  0  0
 15 34  1  0  0  0  0
 16 35  1  0  0  0  0
 16 36  1  0  0  0  0
 17 18  2  0  0  0  0
 18 37  1  0  0  0  0
M  END
> <s_m_source_file>
AV-unprocessed.smi

> <i_m_source_file_index>
969

> <i_lp_mmshare_version>
43012

> <i_f3d_flags>
0

> <s_epik_input>
W0NIM11bQ0hdKFtDSDNdKVtOSF1DKD1PKWMxW2NIXVtjSF1jKG5bY0hdMSlOMltDSDJdW0NIMl1PW0NIMl1bQ0gyXTI=

> <s_epik_cmdline>
J2VwaWtfcHl0aG9uJywgJy1waCcsICc3LjAnLCAnLXRuJywgJzgnLCAnLW1hJywgJzIwMCcsICctbWV0YWxfYmluZGluZycsICctaW1hZScsICc8aW5maWxlLm1hZT4nLCAnLW9tYWUnLCAnPG91dGZpbGUubWFlPic=

> <r_lp_tautomer_probability>
1

> <r_epik_Ionization_Penalty>
1.69485e-05

> <r_epik_Ionization_Penalty_Charging>
0

> <r_epik_Ionization_Penalty_Neutral>
1.69485e-05

> <r_epik_State_Penalty>
-0

> <r_epik_Charging_Adjusted_Penalty>
0

> <i_epik_Tot_Q>
0

> <i_epik_Tot_abs_Q>
0

> <r_epik_Metal_State_Penalty>
-0

> <b_epik_Metal_Only>
0

> <s_lp_Force_Field>
OPLS_2005

> <r_lp_Energy>
18.964

> <b_lp_Chiralities_Consistent>
1

> <s_lp_Variant>
AV-unprocessed.smi:969-1

> <Gold.Version>
5.8.1

> <Gold.Id.Protein>
6NUR|6NUR_protein|mol2

> <Gold.PLP.Fitness>
43.9403

> <Gold.PLP.PLP>
-38.1661

> <Gold.PLP.part.hbond>
-3.4229

> <Gold.PLP.part.metal>
0.0000

> <Gold.PLP.part.buried>
-4.5257

> <Gold.PLP.part.nonpolar>
-30.0694

> <Gold.PLP.part.repulsive>
1.3305

> <Gold.PLP.ligand.clash>
0.0000

> <Gold.PLP.ligand.torsion>
0.2269

> <Gold.PLP.Chemscore.Hbond>
1.9600

> <Gold.PLP.Chemscore.CHOScore>
0.0000

> <Gold.PLP.Chemscore.Metal>
0.0000

> <Gold.Chemscore.Hbonds>
donor molecule, donor type, donor heavy atom, donor atom, acceptor molecule, acceptor atom, score
      P1  H  7989  7998       L1     6  0.99
      P1  H  7997  8009       L1    17  0.81

> <Gold.PLP.Chemscore.Internal.Correction>
0.3479

> <Gold.Rescore>
     Score         DG    S(hbond)    S(metal)    S(lipo)     H(rot)  DE(clash)    DE(int)     intcor
     15.53     -17.53       2.03        0.00      70.78       1.18       1.79       0.21       ----

> <Gold.Chemscore.Fitness>
15.5319

> <Gold.Chemscore.DG>
-17.5267

> <Gold.Chemscore.ZeroCoef>
-5.4800

> <Gold.Chemscore.Hbond>
2.0278

> <Gold.Chemscore.Metal>
0.0000

> <Gold.Chemscore.Lipo>
70.7845

> <Gold.Chemscore.Internal_Hbond>
0.0000

> <Gold.Chemscore.DEClash>
1.7881

> <Gold.Chemscore.DEInternal>
0.2067

> <Gold.Chemscore.Rot>
1.1750

> <Gold.Chemscore.Internal.Correction>
   9.000000E+99

> <Gold.Chemscore.Hbonds>
donor molecule, donor type, donor heavy atom, donor atom, acceptor molecule, acceptor atom, score
      P1  H  7989  7998       L1     6  0.37
      P1  H  7997  8009       L1    17  0.13

> <Gold.Chemscore.Hbond.Weighted>
-6.7729

> <Gold.Chemscore.Metal.Weighted>
-0.0000

> <Gold.Chemscore.Lipo.Weighted>
-8.2818

> <Gold.Chemscore.Internal_Hbond.Weighted>
0.0000

> <Gold.Chemscore.DEClash.Weighted>
1.7881

> <Gold.Chemscore.DEInternal.Weighted>
0.2067

> <Gold.Chemscore.Rot.Weighted>
3.0080

> <Gold.Chemscore.Internal.Correction.Weighted>
   9.000000E+99

> <Gold.Protein.RotatedTorsions>
[ 6907 6896 6895 6894 ] final  -29.49 input  -60.11 | X-H torsion
[ 7974 7965 7964 7962 ] final   54.05 input  175.53 | X-H torsion
[ 8008 7997 7996 7995 ] final  175.96 input   59.86 | X-H torsion
[ 10167 10162 10161 10158 ] final -103.85 input  -65.29 | X-H torsion
[ 10718 10713 10712 10709 ] final   -0.58 input   66.30 | X-H torsion
[ 10763 10752 10751 10750 ] final   22.07 input  -60.55 | X-H torsion
[ 11005 11000 10999 10996 ] final -112.43 input  -57.11 | X-H torsion

> <Gold.Protein.ActiveResidues>
 VAL166  LYS551  ARG553  GLY616  TRP617  ASP618  TYR619  PRO620  LYS621  CYS622 
 ASP623  PHE694  ASN695  SER759  ASP760  ASP761  ALA762  ILE779  LEU786  VAL792 
 PHE793  MET794  SER795  GLU796  ALA797  LYS798  CYS799  TRP800  GLU811  SER814 

> <Gold.Protein.RotatedAtoms>
  151.1185  135.0066  159.8527 H   0  0  0  0  0  0  0  0  0  0  0  0  # atno 6907 bound_to 6896
  152.5447  134.1751  159.8622 H   0  0  0  0  0  0  0  0  0  0  0  0  # atno 6908 bound_to 6896
  151.1807  133.4682  159.2627 H   0  0  0  0  0  0  0  0  0  0  0  0  # atno 6909 bound_to 6896
  145.9648  139.4093  143.0226 H   0  0  0  0  0  0  0  0  0  0  0  0  # atno 7974 bound_to 7965
  156.0816  140.1396  156.9705 H   0  0  0  0  0  0  0  0  0  0  0  0  # atno 8008 bound_to 7997
  154.4588  140.0951  156.6884 H   0  0  0  0  0  0  0  0  0  0  0  0  # atno 8009 bound_to 7997
  155.5066  140.3452  155.4383 H   0  0  0  0  0  0  0  0  0  0  0  0  # atno 8010 bound_to 7997
  140.2156  143.3714  152.1013 H   0  0  0  0  0  0  0  0  0  0  0  0  # atno 10167 bound_to 10162
  156.8183  130.5448  149.5700 H   0  0  0  0  0  0  0  0  0  0  0  0  # atno 10718 bound_to 10713
  153.0945  135.6656  153.9790 H   0  0  0  0  0  0  0  0  0  0  0  0  # atno 10763 bound_to 10752
  153.9378  135.2997  155.3445 H   0  0  0  0  0  0  0  0  0  0  0  0  # atno 10764 bound_to 10752
  154.7362  135.5100  153.9120 H   0  0  0  0  0  0  0  0  0  0  0  0  # atno 10765 bound_to 10752
  141.0675  133.9434  157.2550 H   0  0  0  0  0  0  0  0  0  0  0  0  # atno 11005 bound_to 11000
  145.7989  140.9780  143.1009 LP  0  0  0  0  0  0  0  0  0  0  0  0  # atno 17320 bound_to 7965
  144.6823  139.9776  143.7483 LP  0  0  0  0  0  0  0  0  0  0  0  0  # atno 17321 bound_to 7965
  139.5163  144.6976  151.5587 LP  0  0  0  0  0  0  0  0  0  0  0  0  # atno 17342 bound_to 10162
  140.6292  143.9109  150.6591 LP  0  0  0  0  0  0  0  0  0  0  0  0  # atno 17343 bound_to 10162
  156.1004  130.5964  150.9884 LP  0  0  0  0  0  0  0  0  0  0  0  0  # atno 17370 bound_to 10713
  157.6470  131.0902  150.8132 LP  0  0  0  0  0  0  0  0  0  0  0  0  # atno 17371 bound_to 10713
  139.9491  135.0179  156.8940 LP  0  0  0  0  0  0  0  0  0  0  0  0  # atno 17394 bound_to 11000
  140.5742  134.0414  155.7441 LP  0  0  0  0  0  0  0  0  0  0  0  0  # atno 17395 bound_to 11000

$$$$
