#       Name:                AV-unprocessed.smi:1762
#       Creating user name   scv26
#       Creation time:       Fri Mar 27 08:35:26 2020


#       File generated by GOLD software.
#

@<TRIPOS>MOLECULE
AV-unprocessed.smi:1762
    58    59     1
SMALL
NO_CHARGES


@<TRIPOS>ATOM
      1 ****        -1.5505   2.7275   1.2284 C.3            1 S1                 0.0000
      2 ****        -1.6926   1.9056  -0.0568 C.3            1 S1                 0.0000
      3 ****        -0.8891   0.5958   0.0044 C.3            1 S1                 0.0000
      4 ****        -0.9876  -0.1177  -1.2921 N.4            1 S1                 1.0000
      5 ****        -0.4692  -1.5207  -1.3278 C.3            1 S1                 0.0000
      6 ****         1.0605  -1.6348  -1.1016 C.2            1 S1                 0.0000
      7 ****         1.7824  -1.7122  -2.1015 O.2            1 S1                 0.0000
      8 ****         1.3987  -1.6366   0.2192 N.pl3          1 S1                -1.0000
      9 ****         2.7430  -1.9321   0.7176 C.3            1 S1                 0.0000
     10 ****         3.5868  -0.6456   0.8913 C.3            1 S1                 0.0000
     11 ****         3.1400   0.2965   2.0080 C.ar           1 S1                 0.0000
     12 ****         2.4652   1.5007   1.7043 C.ar           1 S1                 0.0000
     13 ****         2.1005   2.3563   2.7616 C.ar           1 S1                 0.0000
     14 ****         2.4269   1.9852   4.0794 C.ar           1 S1                 0.0000
     15 ****         3.1146   0.7728   4.2818 C.ar           1 S1                 0.0000
     16 ****         3.4734  -0.0523   3.2756 N.ar           1 S1                 0.0000
     17 ****        -1.3460  -2.5103  -0.4942 C.3            1 S1                 0.0000
     18 ****        -0.9227  -3.9824  -0.6769 C.3            1 S1                 0.0000
     19 ****        -2.8449  -2.3687  -0.8231 C.3            1 S1                 0.0000
     20 ****        -0.5038   0.7441  -2.3978 C.3            1 S1                 0.0000
     21 ****        -1.2759   2.0769  -2.4231 C.3            1 S1                 0.0000
     22 ****        -2.7183   1.9387  -2.9428 C.3            1 S1                 0.0000
     23 ****        -1.2222   2.7046  -1.1410 O.3            1 S1                 0.0000
     24 ****        -1.8890   2.1621   2.0970 H              1 S1                 0.0000
     25 ****        -2.1427   3.6412   1.1742 H              1 S1                 0.0000
     26 ****        -0.5130   3.0139   1.3987 H              1 S1                 0.0000
     27 ****        -2.7496   1.6790  -0.1972 H              1 S1                 0.0000
     28 ****         0.1537   0.8152   0.2272 H              1 S1                 0.0000
     29 ****        -1.2672  -0.0263   0.8147 H              1 S1                 0.0000
     30 ****        -0.6203  -1.8407  -2.3604 H              1 S1                 0.0000
     31 ****         2.7029  -2.4634   1.6687 H              1 S1                 0.0000
     32 ****         3.2785  -2.6036   0.0450 H              1 S1                 0.0000
     33 ****         4.6189  -0.9315   1.0967 H              1 S1                 0.0000
     34 ****         3.6202  -0.0961  -0.0506 H              1 S1                 0.0000
     35 ****         2.2355   1.7636   0.6823 H              1 S1                 0.0000
     36 ****         1.5840   3.2840   2.5656 H              1 S1                 0.0000
     37 ****         2.1628   2.6167   4.9148 H              1 S1                 0.0000
     38 ****         3.3886   0.4596   5.2784 H              1 S1                 0.0000
     39 ****        -1.2349  -2.2801   0.5656 H              1 S1                 0.0000
     40 ****        -0.9805  -4.2834  -1.7233 H              1 S1                 0.0000
     41 ****        -1.5676  -4.6494  -0.1044 H              1 S1                 0.0000
     42 ****         0.0967  -4.1613  -0.3355 H              1 S1                 0.0000
     43 ****        -3.0366  -2.5544  -1.8804 H              1 S1                 0.0000
     44 ****        -3.2225  -1.3747  -0.5835 H              1 S1                 0.0000
     45 ****        -3.4403  -3.0796  -0.2495 H              1 S1                 0.0000
     46 ****         0.5606   0.9427  -2.2632 H              1 S1                 0.0000
     47 ****        -0.6116   0.2336  -3.3557 H              1 S1                 0.0000
     48 ****        -0.7572   2.7468  -3.1095 H              1 S1                 0.0000
     49 ****        -2.7250   1.5752  -3.9706 H              1 S1                 0.0000
     50 ****        -3.2294   2.9015  -2.9318 H              1 S1                 0.0000
     51 ****        -3.3076   1.2397  -2.3499 H              1 S1                 0.0000
     52 ****        -1.9778  -0.2213  -1.4586 H              1 S1                 0.0000
     53 ****         1.3749  -1.7000  -3.0146 LP             1 S1                 0.0000
     54 ****         2.7742  -1.7871  -1.9975 LP             1 S1                 0.0000
     55 ****         0.6859  -1.4233   0.8874 LP             1 S1                 0.0000
     56 ****         3.9723  -0.8991   3.4601 LP             1 S1                 0.0000
     57 ****        -0.2706   2.9496  -0.9554 LP             1 S1                 0.0000
     58 ****        -1.7787   3.5345  -1.1786 LP             1 S1                 0.0000
@<TRIPOS>BOND
    1    1    2 1     
    2    1   24 1     
    3    1   25 1     
    4    1   26 1     
    5    2   23 1     
    6    2    3 1     
    7    2   27 1     
    8    3    4 1     
    9    3   28 1     
   10    3   29 1     
   11    4    5 1     
   12    4   20 1     
   13    4   52 1     
   14    5    6 1     
   15    5   17 1     
   16    5   30 1     
   17    6    7 2     
   18    6    8 1     
   19    8    9 1     
   20    9   10 1     
   21    9   31 1     
   22    9   32 1     
   23   10   11 1     
   24   10   33 1     
   25   10   34 1     
   26   11   16 ar    
   27   11   12 ar    
   28   12   13 ar    
   29   12   35 1     
   30   13   14 ar    
   31   13   36 1     
   32   14   15 ar    
   33   14   37 1     
   34   15   16 ar    
   35   15   38 1     
   36   17   18 1     
   37   17   19 1     
   38   17   39 1     
   39   18   40 1     
   40   18   41 1     
   41   18   42 1     
   42   19   43 1     
   43   19   44 1     
   44   19   45 1     
   45   20   21 1     
   46   20   46 1     
   47   20   47 1     
   48   21   22 1     
   49   21   23 1     
   50   21   48 1     
   51   22   49 1     
   52   22   50 1     
   53   22   51 1     
   54    7   53 1     
   55    7   54 1     
   56    8   55 1     
   57   16   56 1     
   58   23   57 1     
   59   23   58 1     
@<TRIPOS>SUBSTRUCTURE
      1 S1             1
@<TRIPOS>SET
LONE_PAIRS      STATIC     ATOMS    <user>   **** ""
6 53 54 55 56 57 58
DONOR_HYDROGENS      STATIC     ATOMS    <user>   **** ""
1 52
ATOM$BLUE        STATIC     ATOMS    COLORGROUP SYSTEM
6 53 54 55 56 57 58
ATOM$RED        STATIC     ATOMS    COLORGROUP SYSTEM
1 52
