AV-unprocessed.smi:598|AV-procd|sdf|3021|dock6
  -GOLD-   2262023533D 1   1.00000     0.00000
 Structure written by MMmdl.
 43 44  0  0  0  0  0  0  0  0  3 V2000
  146.3055  132.8395  150.8934 C   0  0  0  0  0  0  0  0  0  0  0  0
  146.7982  133.7602  152.0243 C   0  0  2  0  0  0  0  0  0  0  0  0
  147.7710  132.9878  152.9393 C   0  0  0  0  0  0  0  0  0  0  0  0
  148.3130  133.8608  154.0792 C   0  0  0  0  0  0  0  0  0  0  0  0
  147.1673  134.4696  154.9017 C   0  0  0  0  0  0  0  0  0  0  0  0
  146.1813  135.2564  154.0184 C   0  0  1  0  0  0  0  0  0  0  0  0
  146.8266  136.4740  153.5226 N   0  0  0  0  0  0  0  0  0  0  0  0
  146.6385  137.7185  153.9881 C   0  0  0  0  0  0  0  0  0  0  0  0
  145.9159  137.9819  154.9497 O   0  0  0  0  0  0  0  0  0  0  0  0
  147.3840  138.8338  153.2449 C   0  0  0  0  0  0  0  0  0  0  0  0
  148.3739  139.5029  154.1040 N   0  0  0  0  0  0  0  0  0  0  0  0
  149.4980  138.7390  154.4755 C   0  0  0  0  0  0  0  0  0  0  0  0
  150.4867  139.2423  155.2393 C   0  0  0  0  0  0  0  0  0  0  0  0
  151.6378  138.4442  155.6002 N   0  3  0  0  0  0  0  0  0  0  0  0
  151.7258  137.3044  155.1556 O   0  0  0  0  0  0  0  0  0  0  0  0
  152.4903  138.9284  156.3392 O   0  5  0  0  0  0  0  0  0  0  0  0
  150.3619  140.6175  155.6817 C   0  0  0  0  0  0  0  0  0  0  0  0
  149.2909  141.3550  155.3271 C   0  0  0  0  0  0  0  0  0  0  0  0
  148.2188  140.8063  154.4895 C   0  0  0  0  0  0  0  0  0  0  0  0
  147.2442  141.4794  154.1545 O   0  0  0  0  0  0  0  0  0  0  0  0
  145.6396  134.3757  152.8580 C   0  0  1  0  0  0  0  0  0  0  0  0
  144.6096  135.1329  151.9946 C   0  0  0  0  0  0  0  0  0  0  0  0
  145.6764  132.0371  151.2800 H   0  0  0  0  0  0  0  0  0  0  0  0
  147.1448  132.3798  150.3707 H   0  0  0  0  0  0  0  0  0  0  0  0
  145.7315  133.3874  150.1464 H   0  0  0  0  0  0  0  0  0  0  0  0
  147.3547  134.5738  151.5568 H   0  0  0  0  0  0  0  0  0  0  0  0
  147.2649  132.1181  153.3611 H   0  0  0  0  0  0  0  0  0  0  0  0
  148.6062  132.6010  152.3543 H   0  0  0  0  0  0  0  0  0  0  0  0
  148.9569  133.2652  154.7270 H   0  0  0  0  0  0  0  0  0  0  0  0
  148.9399  134.6533  153.6690 H   0  0  0  0  0  0  0  0  0  0  0  0
  146.6311  133.6693  155.4133 H   0  0  0  0  0  0  0  0  0  0  0  0
  147.5699  135.1128  155.6853 H   0  0  0  0  0  0  0  0  0  0  0  0
  145.3398  135.5355  154.6548 H   0  0  0  0  0  0  0  0  0  0  0  0
  147.4473  136.3595  152.7347 H   0  0  0  0  0  0  0  0  0  0  0  0
  147.8430  138.4083  152.3513 H   0  0  0  0  0  0  0  0  0  0  0  0
  146.6701  139.5713  152.8735 H   0  0  0  0  0  0  0  0  0  0  0  0
  149.4985  137.7301  154.0881 H   0  0  0  0  0  0  0  0  0  0  0  0
  151.1266  141.0666  156.2980 H   0  0  0  0  0  0  0  0  0  0  0  0
  149.2190  142.3780  155.6663 H   0  0  0  0  0  0  0  0  0  0  0  0
  145.1004  133.5477  153.3212 H   0  0  0  0  0  0  0  0  0  0  0  0
  145.0832  135.8976  151.3782 H   0  0  0  0  0  0  0  0  0  0  0  0
  143.8626  135.6237  152.6191 H   0  0  0  0  0  0  0  0  0  0  0  0
  144.0700  134.4590  151.3299 H   0  0  0  0  0  0  0  0  0  0  0  0
  1  2  1  0  0  0  0
  1 23  1  0  0  0  0
  1 24  1  0  0  0  0
  1 25  1  0  0  0  0
  2 21  1  0  0  0  0
  2  3  1  0  0  0  0
  2 26  1  0  0  0  0
  3  4  1  0  0  0  0
  3 27  1  0  0  0  0
  3 28  1  0  0  0  0
  4  5  1  0  0  0  0
  4 29  1  0  0  0  0
  4 30  1  0  0  0  0
  5  6  1  0  0  0  0
  5 31  1  0  0  0  0
  5 32  1  0  0  0  0
  6  7  1  0  0  0  0
  6 21  1  0  0  0  0
  6 33  1  0  0  0  0
  7  8  1  0  0  0  0
  7 34  1  0  0  0  0
  8  9  2  0  0  0  0
  8 10  1  0  0  0  0
 10 11  1  0  0  0  0
 10 35  1  0  0  0  0
 10 36  1  0  0  0  0
 11 19  1  0  0  0  0
 11 12  1  0  0  0  0
 12 13  2  0  0  0  0
 12 37  1  0  0  0  0
 13 14  1  0  0  0  0
 13 17  1  0  0  0  0
 14 15  2  0  0  0  0
 14 16  1  0  0  0  0
 17 18  2  0  0  0  0
 17 38  1  0  0  0  0
 18 19  1  0  0  0  0
 18 39  1  0  0  0  0
 19 20  2  0  0  0  0
 21 22  1  0  0  0  0
 21 40  1  0  0  0  0
 22 41  1  0  0  0  0
 22 42  1  0  0  0  0
 22 43  1  0  0  0  0
M  CHG  1  14   1
M  CHG  1  16  -1
M  END
> <s_m_source_file>
AV-unprocessed.smi

> <i_m_source_file_index>
598

> <i_lp_mmshare_version>
43012

> <i_f3d_flags>
0

> <s_epik_input>
W0NIM11bQ0BASF0xW0NIMl1bQ0gyXVtDSDJdW0NASF0oW0NASF0xW0NIM10pW05IXUMoPU8pW0NIMl1uMltjSF1jKFtOK10oPU8pW08tXSlbY0hdW2NIXWMyPU8=

> <s_epik_cmdline>
J2VwaWtfcHl0aG9uJywgJy1waCcsICc3LjAnLCAnLXRuJywgJzgnLCAnLW1hJywgJzIwMCcsICctbWV0YWxfYmluZGluZycsICctaW1hZScsICc8aW5maWxlLm1hZT4nLCAnLW9tYWUnLCAnPG91dGZpbGUubWFlPic=

> <r_lp_tautomer_probability>
1

> <r_epik_Ionization_Penalty>
1.91291e-08

> <r_epik_Ionization_Penalty_Charging>
8.21931e-11

> <r_epik_Ionization_Penalty_Neutral>
1.90469e-08

> <r_epik_State_Penalty>
-0

> <r_epik_Charging_Adjusted_Penalty>
8.21931e-11

> <i_epik_Tot_Q>
0

> <i_epik_Tot_abs_Q>
2

> <r_epik_Metal_State_Penalty>
-0

> <b_epik_Metal_Only>
0

> <s_lp_Force_Field>
OPLS_2005

> <r_lp_Energy>
23.6598

> <b_lp_Chiralities_Consistent>
1

> <s_lp_Variant>
AV-unprocessed.smi:598-1

> <Gold.Version>
5.8.1

> <Gold.Id.Protein>
6NUR|6NUR_protein|mol2

> <Gold.PLP.Fitness>
46.8753

> <Gold.PLP.PLP>
-35.7096

> <Gold.PLP.part.hbond>
-3.0000

> <Gold.PLP.part.metal>
0.0000

> <Gold.PLP.part.buried>
-0.5399

> <Gold.PLP.part.nonpolar>
-32.2157

> <Gold.PLP.part.repulsive>
0.3284

> <Gold.PLP.ligand.clash>
0.0000

> <Gold.PLP.ligand.torsion>
0.2797

> <Gold.PLP.Chemscore.Hbond>
2.9040

> <Gold.PLP.Chemscore.CHOScore>
1.0000

> <Gold.PLP.Chemscore.Metal>
0.0000

> <Gold.Chemscore.Hbonds>
donor molecule, donor type, donor heavy atom, donor atom, acceptor molecule, acceptor atom, score
      L1  H     7    34       P1  7948  1.00
      P1  H  7997  8008       L1    16  0.50
      P1  H 10752 10765       L1    15  0.49
      L1  C    12    37       P1  7948  0.55

> <Gold.PLP.Chemscore.Internal.Correction>
0.0130

> <Gold.Rescore>
     Score         DG    S(hbond)    S(metal)    S(lipo)     H(rot)  DE(clash)    DE(int)     intcor
     18.76     -19.13       2.74        0.00      72.05       1.54       0.08       0.29       ----

> <Gold.Chemscore.Fitness>
18.7645

> <Gold.Chemscore.DG>
-19.1329

> <Gold.Chemscore.ZeroCoef>
-5.4800

> <Gold.Chemscore.Hbond>
2.7436

> <Gold.Chemscore.Metal>
0.0000

> <Gold.Chemscore.Lipo>
72.0517

> <Gold.Chemscore.Internal_Hbond>
0.0000

> <Gold.Chemscore.DEClash>
0.0783

> <Gold.Chemscore.DEInternal>
0.2901

> <Gold.Chemscore.Rot>
1.5393

> <Gold.Chemscore.Internal.Correction>
   9.000000E+99

> <Gold.Chemscore.Hbonds>
donor molecule, donor type, donor heavy atom, donor atom, acceptor molecule, acceptor atom, score
      L1  H     7    34       P1  7948  0.99
      P1  H  7997  8008       L1    16  0.50
      P1  H 10752 10765       L1    15  0.49

> <Gold.Chemscore.Hbond.Weighted>
-9.1636

> <Gold.Chemscore.Metal.Weighted>
-0.0000

> <Gold.Chemscore.Lipo.Weighted>
-8.4301

> <Gold.Chemscore.Internal_Hbond.Weighted>
0.0000

> <Gold.Chemscore.DEClash.Weighted>
0.0783

> <Gold.Chemscore.DEInternal.Weighted>
0.2901

> <Gold.Chemscore.Rot.Weighted>
3.9407

> <Gold.Chemscore.Internal.Correction.Weighted>
   9.000000E+99

> <Gold.Protein.RotatedTorsions>
[ 6907 6896 6895 6894 ] final  152.71 input  -60.11 | X-H torsion
[ 7974 7965 7964 7962 ] final   64.64 input  175.53 | X-H torsion
[ 8008 7997 7996 7995 ] final  -32.60 input   59.86 | X-H torsion
[ 10167 10162 10161 10158 ] final -137.08 input  -65.29 | X-H torsion
[ 10718 10713 10712 10709 ] final   50.15 input   66.30 | X-H torsion
[ 10763 10752 10751 10750 ] final  162.06 input  -60.55 | X-H torsion
[ 11005 11000 10999 10996 ] final  -63.05 input  -57.11 | X-H torsion

> <Gold.Protein.ActiveResidues>
 VAL166  LYS551  ARG553  GLY616  TRP617  ASP618  TYR619  PRO620  LYS621  CYS622 
 ASP623  PHE694  ASN695  SER759  ASP760  ASP761  ALA762  ILE779  LEU786  VAL792 
 PHE793  MET794  SER795  GLU796  ALA797  LYS798  CYS799  TRP800  GLU811  SER814 

> <Gold.Protein.RotatedAtoms>
  152.0829  133.4162  159.4509 H   0  0  0  0  0  0  0  0  0  0  0  0  # atno 6907 bound_to 6896
  150.6862  134.2961  159.4696 H   0  0  0  0  0  0  0  0  0  0  0  0  # atno 6908 bound_to 6896
  152.0804  134.9474  160.0624 H   0  0  0  0  0  0  0  0  0  0  0  0  # atno 6909 bound_to 6896
  145.8478  139.3235  143.0893 H   0  0  0  0  0  0  0  0  0  0  0  0  # atno 7974 bound_to 7965
  154.4175  140.1733  156.1753 H   0  0  0  0  0  0  0  0  0  0  0  0  # atno 8008 bound_to 7997
  155.9727  140.3384  155.6566 H   0  0  0  0  0  0  0  0  0  0  0  0  # atno 8009 bound_to 7997
  155.6604  140.0700  157.2546 H   0  0  0  0  0  0  0  0  0  0  0  0  # atno 8010 bound_to 7997
  139.8613  143.7073  152.2649 H   0  0  0  0  0  0  0  0  0  0  0  0  # atno 10167 bound_to 10162
  157.4856  130.8343  149.8143 H   0  0  0  0  0  0  0  0  0  0  0  0  # atno 10718 bound_to 10713
  154.2725  135.2765  155.2732 H   0  0  0  0  0  0  0  0  0  0  0  0  # atno 10763 bound_to 10752
  154.5289  135.5735  153.6745 H   0  0  0  0  0  0  0  0  0  0  0  0  # atno 10764 bound_to 10752
  152.9942  135.6223  154.2881 H   0  0  0  0  0  0  0  0  0  0  0  0  # atno 10765 bound_to 10752
  141.1380  133.6647  156.5620 H   0  0  0  0  0  0  0  0  0  0  0  0  # atno 11005 bound_to 11000
  145.9392  140.8992  143.0316 LP  0  0  0  0  0  0  0  0  0  0  0  0  # atno 17320 bound_to 7965
  144.6730  140.1525  143.7429 LP  0  0  0  0  0  0  0  0  0  0  0  0  # atno 17321 bound_to 7965
  139.7370  144.7569  151.0711 LP  0  0  0  0  0  0  0  0  0  0  0  0  # atno 17342 bound_to 10162
  140.7774  143.5018  150.9762 LP  0  0  0  0  0  0  0  0  0  0  0  0  # atno 17343 bound_to 10162
  156.0145  130.3819  150.2155 LP  0  0  0  0  0  0  0  0  0  0  0  0  # atno 17370 bound_to 10713
  157.0343  131.0016  151.3303 LP  0  0  0  0  0  0  0  0  0  0  0  0  # atno 17371 bound_to 10713
  140.3980  134.7381  157.4762 LP  0  0  0  0  0  0  0  0  0  0  0  0  # atno 17394 bound_to 11000
  140.0517  134.6122  155.8854 LP  0  0  0  0  0  0  0  0  0  0  0  0  # atno 17395 bound_to 11000

$$$$
