AV-unprocessed.smi:3311|AV-procd|sdf|12726|dock3
  -GOLD-   2272019 63D 1   1.00000     0.00000
 Structure written by MMmdl.
 43 44  0  0  0  0  0  0  0  0  1 V2000
  152.4656  139.3938  159.2993 C   0  0  0  0  0  0  0  0  0  0  0  0
  152.2903  140.8723  158.9123 C   0  0  1  0  0  0  0  0  0  0  0  0
  150.9478  141.0466  158.3450 N   0  0  0  0  0  0  0  0  0  0  0  0
  150.7631  140.5596  156.9750 C   0  0  0  0  0  0  0  0  0  0  0  0
  149.6755  141.3457  156.2075 C   0  0  0  0  0  0  0  0  0  0  0  0
  150.1453  142.6749  156.0686 O   0  0  0  0  0  0  0  0  0  0  0  0
  149.5239  140.7551  154.7851 C   0  0  0  0  0  0  0  0  0  0  0  0
  148.3964  141.4158  153.9712 C   0  0  0  0  0  0  0  0  0  0  0  0
  147.0598  141.3582  154.7231 C   0  0  0  0  0  0  0  0  0  0  0  0
  147.1849  141.9993  156.1120 C   0  0  0  0  0  0  0  0  0  0  0  0
  148.3075  141.3444  156.9369 C   0  0  0  0  0  0  0  0  0  0  0  0
  152.5888  141.8083  160.1219 C   0  0  1  0  0  0  0  0  0  0  0  0
  153.9908  141.6746  160.7401 C   0  0  0  0  0  0  0  0  0  0  0  0
  152.2618  143.2066  159.8575 N   0  0  0  0  0  0  0  0  0  0  0  0
  152.7814  144.0529  158.8971 C   0  0  0  0  0  0  0  0  0  0  0  0
  152.1563  145.2592  159.0307 C   0  0  0  0  0  0  0  0  0  0  0  0
  151.2563  145.0539  160.1128 C   0  0  0  0  0  0  0  0  0  0  0  0
  151.3205  143.8274  160.6038 N   0  0  0  0  0  0  0  0  0  0  0  0
  153.4588  139.2101  159.7093 H   0  0  0  0  0  0  0  0  0  0  0  0
  152.3474  138.7456  158.4303 H   0  0  0  0  0  0  0  0  0  0  0  0
  151.7350  139.0794  160.0453 H   0  0  0  0  0  0  0  0  0  0  0  0
  153.0307  141.0763  158.1376 H   0  0  0  0  0  0  0  0  0  0  0  0
  150.2653  140.6004  158.9493 H   0  0  0  0  0  0  0  0  0  0  0  0
  151.6920  140.5911  156.4120 H   0  0  0  0  0  0  0  0  0  0  0  0
  150.4737  139.5088  157.0132 H   0  0  0  0  0  0  0  0  0  0  0  0
  149.4017  143.2412  155.9308 H   0  0  0  0  0  0  0  0  0  0  0  0
  150.4652  140.8363  154.2396 H   0  0  0  0  0  0  0  0  0  0  0  0
  149.3133  139.6873  154.8610 H   0  0  0  0  0  0  0  0  0  0  0  0
  148.6526  142.4538  153.7560 H   0  0  0  0  0  0  0  0  0  0  0  0
  148.2987  140.9191  153.0053 H   0  0  0  0  0  0  0  0  0  0  0  0
  146.2857  141.8661  154.1468 H   0  0  0  0  0  0  0  0  0  0  0  0
  146.7397  140.3203  154.8252 H   0  0  0  0  0  0  0  0  0  0  0  0
  147.3794  143.0672  156.0062 H   0  0  0  0  0  0  0  0  0  0  0  0
  146.2380  141.9125  156.6453 H   0  0  0  0  0  0  0  0  0  0  0  0
  148.0229  140.3154  157.1607 H   0  0  0  0  0  0  0  0  0  0  0  0
  148.3820  141.8539  157.8983 H   0  0  0  0  0  0  0  0  0  0  0  0
  151.9126  141.4754  160.9120 H   0  0  0  0  0  0  0  0  0  0  0  0
  154.2618  140.6285  160.8834 H   0  0  0  0  0  0  0  0  0  0  0  0
  154.0257  142.1583  161.7167 H   0  0  0  0  0  0  0  0  0  0  0  0
  154.7573  142.1474  160.1273 H   0  0  0  0  0  0  0  0  0  0  0  0
  153.5436  143.7288  158.2036 H   0  0  0  0  0  0  0  0  0  0  0  0
  152.3165  146.1511  158.4438 H   0  0  0  0  0  0  0  0  0  0  0  0
  150.5619  145.7548  160.5524 H   0  0  0  0  0  0  0  0  0  0  0  0
  1  2  1  0  0  0  0
  1 19  1  0  0  0  0
  1 20  1  0  0  0  0
  1 21  1  0  0  0  0
  2  3  1  0  0  0  0
  2 12  1  0  0  0  0
  2 22  1  0  0  0  0
  3  4  1  0  0  0  0
  3 23  1  0  0  0  0
  4  5  1  0  0  0  0
  4 24  1  0  0  0  0
  4 25  1  0  0  0  0
  5 11  1  0  0  0  0
  5  6  1  0  0  0  0
  5  7  1  0  0  0  0
  6 26  1  0  0  0  0
  7  8  1  0  0  0  0
  7 27  1  0  0  0  0
  7 28  1  0  0  0  0
  8  9  1  0  0  0  0
  8 29  1  0  0  0  0
  8 30  1  0  0  0  0
  9 10  1  0  0  0  0
  9 31  1  0  0  0  0
  9 32  1  0  0  0  0
 10 11  1  0  0  0  0
 10 33  1  0  0  0  0
 10 34  1  0  0  0  0
 11 35  1  0  0  0  0
 11 36  1  0  0  0  0
 12 13  1  0  0  0  0
 12 14  1  0  0  0  0
 12 37  1  0  0  0  0
 13 38  1  0  0  0  0
 13 39  1  0  0  0  0
 13 40  1  0  0  0  0
 14 18  1  0  0  0  0
 14 15  1  0  0  0  0
 15 16  2  0  0  0  0
 15 41  1  0  0  0  0
 16 17  1  0  0  0  0
 16 42  1  0  0  0  0
 17 18  2  0  0  0  0
 17 43  1  0  0  0  0
M  END
> <s_m_source_file>
AV-unprocessed.smi

> <i_m_source_file_index>
3311

> <i_lp_mmshare_version>
43012

> <i_f3d_flags>
0

> <s_epik_input>
bjFbY0hdW2NIXVtjSF1uMVtDQEBIXShbQ0gzXSlbQ0BIXShbQ0gzXSlbTkhdW0NIMl1DMihbT0hdKVtDSDJdW0NIMl1bQ0gyXVtDSDJdW0NIMl0y

> <s_epik_cmdline>
J2VwaWtfcHl0aG9uJywgJy1waCcsICc3LjAnLCAnLXRuJywgJzgnLCAnLW1hJywgJzIwMCcsICctbWV0YWxfYmluZGluZycsICctaW1hZScsICc8aW5maWxlLm1hZT4nLCAnLW9tYWUnLCAnPG91dGZpbGUubWFlPic=

> <r_lp_tautomer_probability>
1

> <r_epik_Ionization_Penalty>
2.222

> <r_epik_Ionization_Penalty_Charging>
0

> <r_epik_Ionization_Penalty_Neutral>
2.222

> <r_epik_State_Penalty>
2.36562

> <r_epik_Charging_Adjusted_Penalty>
2.36562

> <i_epik_Tot_Q>
0

> <i_epik_Tot_abs_Q>
0

> <r_epik_Metal_State_Penalty>
2.36435

> <b_epik_Metal_Only>
0

> <s_lp_Force_Field>
OPLS_2005

> <r_lp_Energy>
31.437

> <b_lp_Chiralities_Consistent>
1

> <s_lp_Variant>
AV-unprocessed.smi:3311-8

> <Gold.Version>
5.8.1

> <Gold.Id.Protein>
6NUR|6NUR_protein|mol2

> <Gold.PLP.Fitness>
45.4581

> <Gold.PLP.PLP>
-43.3440

> <Gold.PLP.part.hbond>
-0.6826

> <Gold.PLP.part.metal>
0.0000

> <Gold.PLP.part.buried>
-5.3202

> <Gold.PLP.part.nonpolar>
-37.2839

> <Gold.PLP.part.repulsive>
0.1091

> <Gold.PLP.ligand.clash>
0.0000

> <Gold.PLP.ligand.torsion>
0.4897

> <Gold.PLP.Chemscore.Hbond>
0.9440

> <Gold.PLP.Chemscore.CHOScore>
0.0000

> <Gold.PLP.Chemscore.Metal>
0.0000

> <Gold.Chemscore.Hbonds>
donor molecule, donor type, donor heavy atom, donor atom, acceptor molecule, acceptor atom, score
      L1  H     6    26       P1  8028  0.94

> <Gold.PLP.Chemscore.Internal.Correction>
0.2615

> <Gold.Rescore>
     Score         DG    S(hbond)    S(metal)    S(lipo)     H(rot)  DE(clash)    DE(int)     intcor
     15.87     -16.44       0.94        0.00     112.19       2.07       0.03       0.54       ----

> <Gold.Chemscore.Fitness>
15.8745

> <Gold.Chemscore.DG>
-16.4386

> <Gold.Chemscore.ZeroCoef>
-5.4800

> <Gold.Chemscore.Hbond>
0.9365

> <Gold.Chemscore.Metal>
0.0000

> <Gold.Chemscore.Lipo>
112.1901

> <Gold.Chemscore.Internal_Hbond>
0.0000

> <Gold.Chemscore.DEClash>
0.0282

> <Gold.Chemscore.DEInternal>
0.5359

> <Gold.Chemscore.Rot>
2.0686

> <Gold.Chemscore.Internal.Correction>
   9.000000E+99

> <Gold.Chemscore.Hbonds>
donor molecule, donor type, donor heavy atom, donor atom, acceptor molecule, acceptor atom, score
      L1  H     6    26       P1  8028  0.89

> <Gold.Chemscore.Hbond.Weighted>
-3.1280

> <Gold.Chemscore.Metal.Weighted>
-0.0000

> <Gold.Chemscore.Lipo.Weighted>
-13.1262

> <Gold.Chemscore.Internal_Hbond.Weighted>
0.0000

> <Gold.Chemscore.DEClash.Weighted>
0.0282

> <Gold.Chemscore.DEInternal.Weighted>
0.5359

> <Gold.Chemscore.Rot.Weighted>
5.2957

> <Gold.Chemscore.Internal.Correction.Weighted>
   9.000000E+99

> <Gold.Protein.RotatedTorsions>
[ 6907 6896 6895 6894 ] final   47.01 input  -60.11 | X-H torsion
[ 7974 7965 7964 7962 ] final  -44.71 input  175.53 | X-H torsion
[ 8008 7997 7996 7995 ] final   81.60 input   59.86 | X-H torsion
[ 10167 10162 10161 10158 ] final   33.78 input  -65.29 | X-H torsion
[ 10718 10713 10712 10709 ] final  145.24 input   66.30 | X-H torsion
[ 10763 10752 10751 10750 ] final  126.72 input  -60.55 | X-H torsion
[ 11005 11000 10999 10996 ] final -122.57 input  -57.11 | X-H torsion

> <Gold.Protein.ActiveResidues>
 VAL166  LYS551  ARG553  GLY616  TRP617  ASP618  TYR619  PRO620  LYS621  CYS622 
 ASP623  PHE694  ASN695  SER759  ASP760  ASP761  ALA762  ILE779  LEU786  VAL792 
 PHE793  MET794  SER795  GLU796  ALA797  LYS798  CYS799  TRP800  GLU811  SER814 

> <Gold.Protein.RotatedAtoms>
  152.2631  134.8013  160.0426 H   0  0  0  0  0  0  0  0  0  0  0  0  # atno 6907 bound_to 6896
  151.8652  133.3459  159.3725 H   0  0  0  0  0  0  0  0  0  0  0  0  # atno 6908 bound_to 6896
  150.7124  134.5094  159.5644 H   0  0  0  0  0  0  0  0  0  0  0  0  # atno 6909 bound_to 6896
  145.9893  140.7198  142.9324 H   0  0  0  0  0  0  0  0  0  0  0  0  # atno 7974 bound_to 7965
  155.8994  140.3434  155.6015 H   0  0  0  0  0  0  0  0  0  0  0  0  # atno 8008 bound_to 7997
  155.7518  140.0821  157.2216 H   0  0  0  0  0  0  0  0  0  0  0  0  # atno 8009 bound_to 7997
  154.4042  140.1552  156.2720 H   0  0  0  0  0  0  0  0  0  0  0  0  # atno 8010 bound_to 7997
  140.4375  144.1235  150.6168 H   0  0  0  0  0  0  0  0  0  0  0  0  # atno 10167 bound_to 10162
  157.3476  131.0945  151.1028 H   0  0  0  0  0  0  0  0  0  0  0  0  # atno 10718 bound_to 10713
  153.6979  135.3288  155.3218 H   0  0  0  0  0  0  0  0  0  0  0  0  # atno 10763 bound_to 10752
  154.8421  135.4447  154.1441 H   0  0  0  0  0  0  0  0  0  0  0  0  # atno 10764 bound_to 10752
  153.2500  135.6980  153.7767 H   0  0  0  0  0  0  0  0  0  0  0  0  # atno 10765 bound_to 10752
  140.9985  134.0437  157.3567 H   0  0  0  0  0  0  0  0  0  0  0  0  # atno 11005 bound_to 11000
  144.6884  140.3043  143.7258 LP  0  0  0  0  0  0  0  0  0  0  0  0  # atno 17320 bound_to 7965
  145.7653  139.1838  143.2243 LP  0  0  0  0  0  0  0  0  0  0  0  0  # atno 17321 bound_to 7965
  140.4356  143.2549  151.9539 LP  0  0  0  0  0  0  0  0  0  0  0  0  # atno 17342 bound_to 10162
  139.4788  144.5703  151.8099 LP  0  0  0  0  0  0  0  0  0  0  0  0  # atno 17343 bound_to 10162
  157.2216  130.6484  149.5813 LP  0  0  0  0  0  0  0  0  0  0  0  0  # atno 17370 bound_to 10713
  155.9716  130.4627  150.6156 LP  0  0  0  0  0  0  0  0  0  0  0  0  # atno 17371 bound_to 10713
  139.9026  135.0170  156.7342 LP  0  0  0  0  0  0  0  0  0  0  0  0  # atno 17394 bound_to 11000
  140.6927  133.9375  155.7976 LP  0  0  0  0  0  0  0  0  0  0  0  0  # atno 17395 bound_to 11000

$$$$
