AV-unprocessed.smi:2336|AV-procd|sdf|9330|dock2
  -GOLD-   2272012553D 1   1.00000     0.00000
 Structure written by MMmdl.
 50 51  0  0  0  0  0  0  0  0  2 V2000
  147.3464  139.0576  157.7077 C   0  0  0  0  0  0  0  0  0  0  0  0
  146.3909  138.9840  156.4996 C   0  0  0  0  0  0  0  0  0  0  0  0
  145.1160  138.2295  156.9237 C   0  0  0  0  0  0  0  0  0  0  0  0
  147.0763  138.3631  155.2462 C   0  0  1  0  0  0  0  0  0  0  0  0
  146.0944  138.2006  154.0489 C   0  0  0  0  0  0  0  0  0  0  0  0
  146.4089  137.0614  153.1903 N   0  0  0  0  0  0  0  0  0  0  0  0
  145.5589  136.0860  152.8369 C   0  0  0  0  0  0  0  0  0  0  0  0
  144.3916  136.0292  153.2217 O   0  0  0  0  0  0  0  0  0  0  0  0
  146.1540  135.1985  152.0224 N   0  0  0  0  0  0  0  0  0  0  0  0
  145.5922  134.0617  151.3783 C   0  0  0  0  0  0  0  0  0  0  0  0
  144.2912  134.0246  150.8200 C   0  0  0  0  0  0  0  0  0  0  0  0
  143.8613  132.8390  150.1902 C   0  0  0  0  0  0  0  0  0  0  0  0
  144.6279  131.7334  150.0821 N   0  0  0  0  0  0  0  0  0  0  0  0
  145.8722  131.7769  150.6033 C   0  0  0  0  0  0  0  0  0  0  0  0
  146.3996  132.9116  151.2520 C   0  0  0  0  0  0  0  0  0  0  0  0
  147.6608  132.8921  151.7473 F   0  0  0  0  0  0  0  0  0  0  0  0
  148.3216  139.1266  154.9155 N   0  3  0  0  0  0  0  0  0  0  0  0
  149.6040  138.5138  155.3466 C   0  0  0  0  0  0  0  0  0  0  0  0
  150.7932  139.2702  154.7199 C   0  0  0  0  0  0  0  0  0  0  0  0
  150.7710  140.6982  155.0435 N   0  0  0  0  0  0  0  0  0  0  0  0
  151.0829  140.9751  156.4418 C   0  0  0  0  0  0  0  0  0  0  0  0
  149.5040  141.2890  154.6082 C   0  0  0  0  0  0  0  0  0  0  0  0
  148.2861  140.5771  155.2321 C   0  0  0  0  0  0  0  0  0  0  0  0
  147.7230  138.0702  157.9765 H   0  0  0  0  0  0  0  0  0  0  0  0
  146.8411  139.4668  158.5832 H   0  0  0  0  0  0  0  0  0  0  0  0
  148.2042  139.7017  157.5140 H   0  0  0  0  0  0  0  0  0  0  0  0
  146.0898  140.0046  156.2611 H   0  0  0  0  0  0  0  0  0  0  0  0
  145.3160  137.1699  157.0862 H   0  0  0  0  0  0  0  0  0  0  0  0
  144.3227  138.3150  156.1822 H   0  0  0  0  0  0  0  0  0  0  0  0
  144.7123  138.6337  157.8526 H   0  0  0  0  0  0  0  0  0  0  0  0
  147.3893  137.3603  155.5418 H   0  0  0  0  0  0  0  0  0  0  0  0
  145.0861  138.0111  154.4129 H   0  0  0  0  0  0  0  0  0  0  0  0
  146.0329  139.1308  153.4819 H   0  0  0  0  0  0  0  0  0  0  0  0
  147.3537  137.0105  152.8376 H   0  0  0  0  0  0  0  0  0  0  0  0
  147.1439  135.3276  151.8711 H   0  0  0  0  0  0  0  0  0  0  0  0
  143.6248  134.8725  150.8493 H   0  0  0  0  0  0  0  0  0  0  0  0
  142.8750  132.7800  149.7544 H   0  0  0  0  0  0  0  0  0  0  0  0
  146.4667  130.8814  150.4979 H   0  0  0  0  0  0  0  0  0  0  0  0
  149.6930  138.5096  156.4304 H   0  0  0  0  0  0  0  0  0  0  0  0
  149.6399  137.4721  155.0292 H   0  0  0  0  0  0  0  0  0  0  0  0
  151.7372  138.8345  155.0498 H   0  0  0  0  0  0  0  0  0  0  0  0
  150.7646  139.1598  153.6350 H   0  0  0  0  0  0  0  0  0  0  0  0
  151.1156  142.0514  156.6140 H   0  0  0  0  0  0  0  0  0  0  0  0
  152.0630  140.5706  156.6965 H   0  0  0  0  0  0  0  0  0  0  0  0
  150.3542  140.5471  157.1293 H   0  0  0  0  0  0  0  0  0  0  0  0
  149.4912  142.3515  154.8544 H   0  0  0  0  0  0  0  0  0  0  0  0
  149.4463  141.2246  153.5208 H   0  0  0  0  0  0  0  0  0  0  0  0
  147.3755  141.0169  154.8243 H   0  0  0  0  0  0  0  0  0  0  0  0
  148.2600  140.7511  156.3056 H   0  0  0  0  0  0  0  0  0  0  0  0
  148.3538  139.1048  153.9062 H   0  0  0  0  0  0  0  0  0  0  0  0
  1  2  1  0  0  0  0
  1 24  1  0  0  0  0
  1 25  1  0  0  0  0
  1 26  1  0  0  0  0
  2  3  1  0  0  0  0
  2  4  1  0  0  0  0
  2 27  1  0  0  0  0
  3 28  1  0  0  0  0
  3 29  1  0  0  0  0
  3 30  1  0  0  0  0
  4  5  1  0  0  0  0
  4 17  1  0  0  0  0
  4 31  1  0  0  0  0
  5  6  1  0  0  0  0
  5 32  1  0  0  0  0
  5 33  1  0  0  0  0
  6  7  1  0  0  0  0
  6 34  1  0  0  0  0
  7  8  2  0  0  0  0
  7  9  1  0  0  0  0
  9 10  1  0  0  0  0
  9 35  1  0  0  0  0
 10 15  1  0  0  0  0
 10 11  2  0  0  0  0
 11 12  1  0  0  0  0
 11 36  1  0  0  0  0
 12 13  2  0  0  0  0
 12 37  1  0  0  0  0
 13 14  1  0  0  0  0
 14 15  2  0  0  0  0
 14 38  1  0  0  0  0
 15 16  1  0  0  0  0
 17 23  1  0  0  0  0
 17 18  1  0  0  0  0
 17 50  1  0  0  0  0
 18 19  1  0  0  0  0
 18 39  1  0  0  0  0
 18 40  1  0  0  0  0
 19 20  1  0  0  0  0
 19 41  1  0  0  0  0
 19 42  1  0  0  0  0
 20 21  1  0  0  0  0
 20 22  1  0  0  0  0
 21 43  1  0  0  0  0
 21 44  1  0  0  0  0
 21 45  1  0  0  0  0
 22 23  1  0  0  0  0
 22 46  1  0  0  0  0
 22 47  1  0  0  0  0
 23 48  1  0  0  0  0
 23 49  1  0  0  0  0
M  CHG  1  17   1
M  END
> <s_m_source_file>
AV-unprocessed.smi

> <i_m_source_file_index>
2336

> <i_lp_mmshare_version>
43012

> <i_f3d_flags>
0

> <s_epik_input>
W0NIMl0xW0NIMl1OKFtDSDNdKVtDSDJdW0NIMl1OMVtDQEhdKFtDSF0oW0NIM10pW0NIM10pW0NIMl1bTkhdQyg9TylbTkhdYzJbY0hdW2NIXW5bY0hdYzJG

> <s_epik_cmdline>
J2VwaWtfcHl0aG9uJywgJy1waCcsICc3LjAnLCAnLXRuJywgJzgnLCAnLW1hJywgJzIwMCcsICctbWV0YWxfYmluZGluZycsICctaW1hZScsICc8aW5maWxlLm1hZT4nLCAnLW9tYWUnLCAnPG91dGZpbGUubWFlPic=

> <r_epik_Ionization_Penalty>
0.204575

> <r_epik_Ionization_Penalty_Charging>
0.20006

> <r_epik_Ionization_Penalty_Neutral>
0.00451444

> <r_epik_State_Penalty>
1.43207

> <r_epik_Charging_Adjusted_Penalty>
1.63213

> <i_epik_Tot_Q>
1

> <i_epik_Tot_abs_Q>
1

> <r_epik_Metal_State_Penalty>
1.43277

> <b_epik_Metal_Only>
0

> <s_lp_Force_Field>
OPLS_2005

> <r_lp_Energy>
38.4551

> <b_lp_Chiralities_Consistent>
1

> <s_lp_Variant>
AV-unprocessed.smi:2336-4

> <Gold.Version>
5.8.1

> <Gold.Id.Protein>
6NUR|6NUR_protein|mol2

> <Gold.PLP.Fitness>
39.4812

> <Gold.PLP.PLP>
-30.4593

> <Gold.PLP.part.hbond>
-3.4223

> <Gold.PLP.part.metal>
0.0000

> <Gold.PLP.part.buried>
-2.2327

> <Gold.PLP.part.nonpolar>
-25.0860

> <Gold.PLP.part.repulsive>
0.3937

> <Gold.PLP.ligand.clash>
0.0000

> <Gold.PLP.ligand.torsion>
1.6890

> <Gold.PLP.Chemscore.Hbond>
2.1426

> <Gold.PLP.Chemscore.CHOScore>
1.8712

> <Gold.PLP.Chemscore.Metal>
0.0000

> <Gold.Chemscore.Hbonds>
donor molecule, donor type, donor heavy atom, donor atom, acceptor molecule, acceptor atom, score
      L1  H     6    34       P1  7948  1.00
      L1  H     9    35       P1  7948  1.00
      P1  H  7989  7998       L1    20  0.19
      L1  C    12    37       P1 10186  1.00
      L1  C    14    38       P1 10747  0.90

> <Gold.PLP.Chemscore.Internal.Correction>
0.3587

> <Gold.Rescore>
     Score         DG    S(hbond)    S(metal)    S(lipo)     H(rot)  DE(clash)    DE(int)     intcor
     14.37     -16.53       1.96        0.00      75.10       1.67       0.60       1.57       ----

> <Gold.Chemscore.Fitness>
14.3705

> <Gold.Chemscore.DG>
-16.5327

> <Gold.Chemscore.ZeroCoef>
-5.4800

> <Gold.Chemscore.Hbond>
1.9614

> <Gold.Chemscore.Metal>
0.0000

> <Gold.Chemscore.Lipo>
75.0998

> <Gold.Chemscore.Internal_Hbond>
0.0000

> <Gold.Chemscore.DEClash>
0.5963

> <Gold.Chemscore.DEInternal>
1.5659

> <Gold.Chemscore.Rot>
1.6739

> <Gold.Chemscore.Internal.Correction>
   9.000000E+99

> <Gold.Chemscore.Hbonds>
donor molecule, donor type, donor heavy atom, donor atom, acceptor molecule, acceptor atom, score
      L1  H     6    34       P1  7948  0.93
      L1  H     9    35       P1  7948  0.97

> <Gold.Chemscore.Hbond.Weighted>
-6.5511

> <Gold.Chemscore.Metal.Weighted>
-0.0000

> <Gold.Chemscore.Lipo.Weighted>
-8.7867

> <Gold.Chemscore.Internal_Hbond.Weighted>
0.0000

> <Gold.Chemscore.DEClash.Weighted>
0.5963

> <Gold.Chemscore.DEInternal.Weighted>
1.5659

> <Gold.Chemscore.Rot.Weighted>
4.2851

> <Gold.Chemscore.Internal.Correction.Weighted>
   9.000000E+99

> <Gold.Protein.RotatedTorsions>
[ 6907 6896 6895 6894 ] final   50.44 input  -60.11 | X-H torsion
[ 7974 7965 7964 7962 ] final   -3.04 input  175.53 | X-H torsion
[ 8008 7997 7996 7995 ] final  -30.33 input   59.86 | X-H torsion
[ 10167 10162 10161 10158 ] final   22.62 input  -65.29 | X-H torsion
[ 10718 10713 10712 10709 ] final  -11.93 input   66.30 | X-H torsion
[ 10763 10752 10751 10750 ] final -117.55 input  -60.55 | X-H torsion
[ 11005 11000 10999 10996 ] final   42.06 input  -57.11 | X-H torsion

> <Gold.Protein.ActiveResidues>
 VAL166  LYS551  ARG553  GLY616  TRP617  ASP618  TYR619  PRO620  LYS621  CYS622 
 ASP623  PHE694  ASN695  SER759  ASP760  ASP761  ALA762  ILE779  LEU786  VAL792 
 PHE793  MET794  SER795  GLU796  ALA797  LYS798  CYS799  TRP800  GLU811  SER814 

> <Gold.Protein.RotatedAtoms>
  152.3018  134.7602  160.0355 H   0  0  0  0  0  0  0  0  0  0  0  0  # atno 6907 bound_to 6896
  151.8113  133.3377  159.3564 H   0  0  0  0  0  0  0  0  0  0  0  0  # atno 6908 bound_to 6896
  150.7277  134.5591  159.5877 H   0  0  0  0  0  0  0  0  0  0  0  0  # atno 6909 bound_to 6896
  146.2395  140.1661  142.8332 H   0  0  0  0  0  0  0  0  0  0  0  0  # atno 7974 bound_to 7965
  154.4255  140.1794  156.1389 H   0  0  0  0  0  0  0  0  0  0  0  0  # atno 8008 bound_to 7997
  156.0008  140.3360  155.6818 H   0  0  0  0  0  0  0  0  0  0  0  0  # atno 8009 bound_to 7997
  155.6246  140.0663  157.2658 H   0  0  0  0  0  0  0  0  0  0  0  0  # atno 8010 bound_to 7997
  140.5334  143.9803  150.6478 H   0  0  0  0  0  0  0  0  0  0  0  0  # atno 10167 bound_to 10162
  156.6519  130.4957  149.6059 H   0  0  0  0  0  0  0  0  0  0  0  0  # atno 10718 bound_to 10713
  154.8558  135.4305  154.1998 H   0  0  0  0  0  0  0  0  0  0  0  0  # atno 10763 bound_to 10752
  153.3047  135.6971  153.7176 H   0  0  0  0  0  0  0  0  0  0  0  0  # atno 10764 bound_to 10752
  153.6292  135.3488  155.3010 H   0  0  0  0  0  0  0  0  0  0  0  0  # atno 10765 bound_to 10752
  140.1775  134.4145  155.8220 H   0  0  0  0  0  0  0  0  0  0  0  0  # atno 11005 bound_to 11000
  145.0049  140.8664  143.5259 LP  0  0  0  0  0  0  0  0  0  0  0  0  # atno 17320 bound_to 7965
  145.1686  139.2417  143.5354 LP  0  0  0  0  0  0  0  0  0  0  0  0  # atno 17321 bound_to 7965
  140.3184  143.3153  152.0809 LP  0  0  0  0  0  0  0  0  0  0  0  0  # atno 17342 bound_to 10162
  139.4962  144.6590  151.6507 LP  0  0  0  0  0  0  0  0  0  0  0  0  # atno 17343 bound_to 10162
  156.2078  130.6660  151.1237 LP  0  0  0  0  0  0  0  0  0  0  0  0  # atno 17370 bound_to 10713
  157.7138  131.0720  150.6403 LP  0  0  0  0  0  0  0  0  0  0  0  0  # atno 17371 bound_to 10713
  141.2221  133.6984  156.7872 LP  0  0  0  0  0  0  0  0  0  0  0  0  # atno 17394 bound_to 11000
  140.2306  134.8688  157.3472 LP  0  0  0  0  0  0  0  0  0  0  0  0  # atno 17395 bound_to 11000

$$$$
