AV-unprocessed.smi:2678|AV-procd|sdf|10366|dock4
  -GOLD-   2272014393D 1   1.00000     0.00000
 Structure written by MMmdl.
 46 47  0  0  0  0  0  0  0  0  1 V2000
  151.1328  140.2982  156.3508 C   0  0  0  0  0  0  0  0  0  0  0  0
  150.7738  141.7833  156.4942 C   0  0  0  0  0  0  0  0  0  0  0  0
  150.7832  142.2375  157.9600 C   0  0  0  0  0  0  0  0  0  0  0  0
  149.4548  142.0274  155.9160 N   0  0  0  0  0  0  0  0  0  0  0  0
  149.0232  141.5973  154.7193 C   0  0  0  0  0  0  0  0  0  0  0  0
  149.7162  140.9215  153.9590 O   0  0  0  0  0  0  0  0  0  0  0  0
  147.5889  142.0034  154.3305 C   0  0  2  0  0  0  0  0  0  0  0  0
  146.6755  142.2518  155.5547 C   0  0  0  0  0  0  0  0  0  0  0  0
  146.1612  140.9603  156.2186 C   0  0  0  0  0  0  0  0  0  0  0  0
  145.4983  140.0267  155.1942 C   0  0  0  0  0  0  0  0  0  0  0  0
  146.4603  139.6954  154.0408 C   0  0  1  0  0  0  0  0  0  0  0  0
  145.7958  138.8122  153.0800 N   0  0  0  0  0  0  0  0  0  0  0  0
  145.9252  137.4785  152.9506 C   0  0  0  0  0  0  0  0  0  0  0  0
  146.6819  136.8408  153.6789 O   0  0  0  0  0  0  0  0  0  0  0  0
  145.1751  136.9482  151.9642 N   0  0  0  0  0  0  0  0  0  0  0  0
  145.0189  135.5908  151.5755 C   0  0  0  0  0  0  0  0  0  0  0  0
  145.5868  134.4863  152.2559 C   0  0  0  0  0  0  0  0  0  0  0  0
  145.3359  133.1880  151.7711 C   0  0  0  0  0  0  0  0  0  0  0  0
  144.5244  133.0404  150.6297 C   0  0  0  0  0  0  0  0  0  0  0  0
  143.9682  134.0828  149.9776 N   0  0  0  0  0  0  0  0  0  0  0  0
  144.2127  135.3244  150.4483 C   0  0  0  0  0  0  0  0  0  0  0  0
  146.9409  140.9954  153.3542 C   0  0  0  0  0  0  0  0  0  0  0  0
  152.1199  140.0926  156.7660 H   0  0  0  0  0  0  0  0  0  0  0  0
  151.1484  139.9980  155.3025 H   0  0  0  0  0  0  0  0  0  0  0  0
  150.4147  139.6623  156.8697 H   0  0  0  0  0  0  0  0  0  0  0  0
  151.5335  142.3612  155.9656 H   0  0  0  0  0  0  0  0  0  0  0  0
  151.7619  142.0769  158.4128 H   0  0  0  0  0  0  0  0  0  0  0  0
  150.0488  141.6901  158.5520 H   0  0  0  0  0  0  0  0  0  0  0  0
  150.5534  143.3005  158.0423 H   0  0  0  0  0  0  0  0  0  0  0  0
  148.8155  142.5759  156.4727 H   0  0  0  0  0  0  0  0  0  0  0  0
  147.6688  142.9539  153.8001 H   0  0  0  0  0  0  0  0  0  0  0  0
  147.1945  142.8624  156.2951 H   0  0  0  0  0  0  0  0  0  0  0  0
  145.8173  142.8436  155.2339 H   0  0  0  0  0  0  0  0  0  0  0  0
  146.9787  140.4383  156.7156 H   0  0  0  0  0  0  0  0  0  0  0  0
  145.4461  141.2119  157.0023 H   0  0  0  0  0  0  0  0  0  0  0  0
  145.1771  139.1099  155.6898 H   0  0  0  0  0  0  0  0  0  0  0  0
  144.5964  140.4993  154.8023 H   0  0  0  0  0  0  0  0  0  0  0  0
  147.3099  139.1626  154.4687 H   0  0  0  0  0  0  0  0  0  0  0  0
  145.1598  139.2642  152.4389 H   0  0  0  0  0  0  0  0  0  0  0  0
  144.6589  137.6136  151.4069 H   0  0  0  0  0  0  0  0  0  0  0  0
  146.1946  134.6007  153.1393 H   0  0  0  0  0  0  0  0  0  0  0  0
  145.7538  132.3242  152.2664 H   0  0  0  0  0  0  0  0  0  0  0  0
  144.3122  132.0585  150.2331 H   0  0  0  0  0  0  0  0  0  0  0  0
  143.7484  136.1341  149.9037 H   0  0  0  0  0  0  0  0  0  0  0  0
  146.0903  141.4776  152.8703 H   0  0  0  0  0  0  0  0  0  0  0  0
  147.6416  140.7634  152.5510 H   0  0  0  0  0  0  0  0  0  0  0  0
  1  2  1  0  0  0  0
  1 23  1  0  0  0  0
  1 24  1  0  0  0  0
  1 25  1  0  0  0  0
  2  3  1  0  0  0  0
  2  4  1  0  0  0  0
  2 26  1  0  0  0  0
  3 27  1  0  0  0  0
  3 28  1  0  0  0  0
  3 29  1  0  0  0  0
  4  5  1  0  0  0  0
  4 30  1  0  0  0  0
  5  6  2  0  0  0  0
  5  7  1  0  0  0  0
  7 22  1  0  0  0  0
  7  8  1  0  0  0  0
  7 31  1  0  0  0  0
  8  9  1  0  0  0  0
  8 32  1  0  0  0  0
  8 33  1  0  0  0  0
  9 10  1  0  0  0  0
  9 34  1  0  0  0  0
  9 35  1  0  0  0  0
 10 11  1  0  0  0  0
 10 36  1  0  0  0  0
 10 37  1  0  0  0  0
 11 12  1  0  0  0  0
 11 22  1  0  0  0  0
 11 38  1  0  0  0  0
 12 13  1  0  0  0  0
 12 39  1  0  0  0  0
 13 14  2  0  0  0  0
 13 15  1  0  0  0  0
 15 16  1  0  0  0  0
 15 40  1  0  0  0  0
 16 21  1  0  0  0  0
 16 17  2  0  0  0  0
 17 18  1  0  0  0  0
 17 41  1  0  0  0  0
 18 19  2  0  0  0  0
 18 42  1  0  0  0  0
 19 20  1  0  0  0  0
 19 43  1  0  0  0  0
 20 21  2  0  0  0  0
 21 44  1  0  0  0  0
 22 45  1  0  0  0  0
 22 46  1  0  0  0  0
M  END
> <s_m_source_file>
AV-unprocessed.smi

> <i_m_source_file_index>
2678

> <i_lp_mmshare_version>
43012

> <i_f3d_flags>
0

> <s_epik_input>
W0NIM11bQ0hdKFtDSDNdKVtOSF1DKD1PKVtDQEBIXTFbQ0gyXVtDSDJdW0NIMl1bQ0BIXShbQ0gyXTEpW05IXUMoPU8pW05IXWMyW2NIXVtjSF1bY0hdbltjSF0y

> <s_epik_cmdline>
J2VwaWtfcHl0aG9uJywgJy1waCcsICc3LjAnLCAnLXRuJywgJzgnLCAnLW1hJywgJzIwMCcsICctbWV0YWxfYmluZGluZycsICctaW1hZScsICc8aW5maWxlLm1hZT4nLCAnLW9tYWUnLCAnPG91dGZpbGUubWFlPic=

> <r_epik_Ionization_Penalty>
0.00482944

> <r_epik_Ionization_Penalty_Charging>
0

> <r_epik_Ionization_Penalty_Neutral>
0.00482944

> <r_epik_State_Penalty>
0.00347168

> <r_epik_Charging_Adjusted_Penalty>
0.00347168

> <i_epik_Tot_Q>
0

> <i_epik_Tot_abs_Q>
0

> <r_epik_Metal_State_Penalty>
-0

> <b_epik_Metal_Only>
0

> <s_lp_Force_Field>
OPLS_2005

> <r_lp_Energy>
21.1553

> <b_lp_Chiralities_Consistent>
1

> <s_lp_Variant>
AV-unprocessed.smi:2678-1

> <Gold.Version>
5.8.1

> <Gold.Id.Protein>
6NUR|6NUR_protein|mol2

> <Gold.PLP.Fitness>
44.4352

> <Gold.PLP.PLP>
-34.1649

> <Gold.PLP.part.hbond>
-5.0000

> <Gold.PLP.part.metal>
0.0000

> <Gold.PLP.part.buried>
-4.6081

> <Gold.PLP.part.nonpolar>
-29.4655

> <Gold.PLP.part.repulsive>
3.9928

> <Gold.PLP.ligand.clash>
0.0000

> <Gold.PLP.ligand.torsion>
1.0971

> <Gold.PLP.Chemscore.Hbond>
3.1377

> <Gold.PLP.Chemscore.CHOScore>
1.0000

> <Gold.PLP.Chemscore.Metal>
0.0000

> <Gold.Chemscore.Hbonds>
donor molecule, donor type, donor heavy atom, donor atom, acceptor molecule, acceptor atom, score
      L1  H     4    30       P1  8028  0.05
      L1  H    12    39       P1 10175  0.80
      L1  H    15    40       P1 10171  1.00
      P1  H  7989  7998       L1     6  0.46
      P1  H  8011  8017       L1     6  0.40
      L1  C    21    44       P1 10171  1.00

> <Gold.PLP.Chemscore.Internal.Correction>
0.0514

> <Gold.Rescore>
     Score         DG    S(hbond)    S(metal)    S(lipo)     H(rot)  DE(clash)    DE(int)     intcor
     15.82     -18.59       2.54        0.00      71.60       1.46       0.63       2.14       ----

> <Gold.Chemscore.Fitness>
15.8196

> <Gold.Chemscore.DG>
-18.5924

> <Gold.Chemscore.ZeroCoef>
-5.4800

> <Gold.Chemscore.Hbond>
2.5369

> <Gold.Chemscore.Metal>
0.0000

> <Gold.Chemscore.Lipo>
71.6031

> <Gold.Chemscore.Internal_Hbond>
0.0000

> <Gold.Chemscore.DEClash>
0.6349

> <Gold.Chemscore.DEInternal>
2.1379

> <Gold.Chemscore.Rot>
1.4603

> <Gold.Chemscore.Internal.Correction>
   9.000000E+99

> <Gold.Chemscore.Hbonds>
donor molecule, donor type, donor heavy atom, donor atom, acceptor molecule, acceptor atom, score
      L1  H     4    30       P1  8028  0.06
      L1  H    12    39       P1 10175  0.79
      L1  H    15    40       P1 10171  0.93
      P1  H  7989  7998       L1     6  0.46
      P1  H  8011  8017       L1     6  0.06

> <Gold.Chemscore.Hbond.Weighted>
-8.4732

> <Gold.Chemscore.Metal.Weighted>
-0.0000

> <Gold.Chemscore.Lipo.Weighted>
-8.3776

> <Gold.Chemscore.Internal_Hbond.Weighted>
0.0000

> <Gold.Chemscore.DEClash.Weighted>
0.6349

> <Gold.Chemscore.DEInternal.Weighted>
2.1379

> <Gold.Chemscore.Rot.Weighted>
3.7383

> <Gold.Chemscore.Internal.Correction.Weighted>
   9.000000E+99

> <Gold.Protein.RotatedTorsions>
[ 6907 6896 6895 6894 ] final  -26.84 input  -60.11 | X-H torsion
[ 7974 7965 7964 7962 ] final -173.17 input  175.53 | X-H torsion
[ 8008 7997 7996 7995 ] final   47.16 input   59.86 | X-H torsion
[ 10167 10162 10161 10158 ] final  135.09 input  -65.29 | X-H torsion
[ 10718 10713 10712 10709 ] final -133.99 input   66.30 | X-H torsion
[ 10763 10752 10751 10750 ] final   -0.60 input  -60.55 | X-H torsion
[ 11005 11000 10999 10996 ] final  142.97 input  -57.11 | X-H torsion

> <Gold.Protein.ActiveResidues>
 VAL166  LYS551  ARG553  GLY616  TRP617  ASP618  TYR619  PRO620  LYS621  CYS622 
 ASP623  PHE694  ASN695  SER759  ASP760  ASP761  ALA762  ILE779  LEU786  VAL792 
 PHE793  MET794  SER795  GLU796  ALA797  LYS798  CYS799  TRP800  GLU811  SER814 

> <Gold.Protein.RotatedAtoms>
  151.1553  135.0247  159.8686 H   0  0  0  0  0  0  0  0  0  0  0  0  # atno 6907 bound_to 6896
  152.5452  134.1341  159.8461 H   0  0  0  0  0  0  0  0  0  0  0  0  # atno 6908 bound_to 6896
  151.1430  133.4912  159.2629 H   0  0  0  0  0  0  0  0  0  0  0  0  # atno 6909 bound_to 6896
  144.7140  140.1662  143.6371 H   0  0  0  0  0  0  0  0  0  0  0  0  # atno 7974 bound_to 7965
  155.3645  140.3420  155.4241 H   0  0  0  0  0  0  0  0  0  0  0  0  # atno 8008 bound_to 7997
  156.1696  140.1627  156.8506 H   0  0  0  0  0  0  0  0  0  0  0  0  # atno 8009 bound_to 7997
  154.5219  140.0765  156.8170 H   0  0  0  0  0  0  0  0  0  0  0  0  # atno 8010 bound_to 7997
  139.5231  144.6535  151.5233 H   0  0  0  0  0  0  0  0  0  0  0  0  # atno 10167 bound_to 10162
  156.2508  130.7152  151.1050 H   0  0  0  0  0  0  0  0  0  0  0  0  # atno 10718 bound_to 10713
  153.3340  135.6977  153.6924 H   0  0  0  0  0  0  0  0  0  0  0  0  # atno 10763 bound_to 10752
  153.5715  135.3515  155.2840 H   0  0  0  0  0  0  0  0  0  0  0  0  # atno 10764 bound_to 10752
  154.8623  135.4273  154.2536 H   0  0  0  0  0  0  0  0  0  0  0  0  # atno 10765 bound_to 10752
  140.0517  134.9252  157.1029 H   0  0  0  0  0  0  0  0  0  0  0  0  # atno 11005 bound_to 11000
  145.8985  139.2417  143.1507 LP  0  0  0  0  0  0  0  0  0  0  0  0  # atno 17320 bound_to 7965
  145.9833  140.8664  143.0103 LP  0  0  0  0  0  0  0  0  0  0  0  0  # atno 17321 bound_to 7965
  140.6350  143.9002  150.6639 LP  0  0  0  0  0  0  0  0  0  0  0  0  # atno 17342 bound_to 10162
  140.2318  143.3729  152.1559 LP  0  0  0  0  0  0  0  0  0  0  0  0  # atno 17343 bound_to 10162
  157.7213  131.0679  150.6122 LP  0  0  0  0  0  0  0  0  0  0  0  0  # atno 17370 bound_to 10713
  156.6202  130.4403  149.5825 LP  0  0  0  0  0  0  0  0  0  0  0  0  # atno 17371 bound_to 10713
  140.3907  134.2188  155.7166 LP  0  0  0  0  0  0  0  0  0  0  0  0  # atno 17394 bound_to 11000
  141.1933  133.8153  157.0803 LP  0  0  0  0  0  0  0  0  0  0  0  0  # atno 17395 bound_to 11000

$$$$
