AV-unprocessed.smi:2749|AV-procd|sdf|10587|dock4
  -GOLD-   2272015 33D 1   1.00000     0.00000
 Structure written by MMmdl.
 32 34  0  0  0  0  0  0  0  0  1 V2000
  151.5075  140.9122  157.4189 O   0  0  0  0  0  0  0  0  0  0  0  0
  150.9236  141.9872  157.2937 C   0  0  0  0  0  0  0  0  0  0  0  0
  150.9832  142.9318  158.2565 N   0  0  0  0  0  0  0  0  0  0  0  0
  151.6416  142.9418  159.5213 C   0  0  0  0  0  0  0  0  0  0  0  0
  152.6959  142.0077  159.6425 C   0  0  0  0  0  0  0  0  0  0  0  0
  153.4100  141.9167  160.8532 C   0  0  0  0  0  0  0  0  0  0  0  0
  153.0462  142.7610  161.9169 C   0  0  0  0  0  0  0  0  0  0  0  0
  153.7025  142.7098  163.1001 F   0  0  0  0  0  0  0  0  0  0  0  0
  151.9817  143.6592  161.7199 C   0  0  0  0  0  0  0  0  0  0  0  0
  151.2981  143.7476  160.5592 N   0  0  0  0  0  0  0  0  0  0  0  0
  150.2049  142.2999  156.2041 N   0  0  0  0  0  0  0  0  0  0  0  0
  149.9745  141.4197  155.0634 C   0  0  2  0  0  0  0  0  0  0  0  0
  148.6230  141.6926  154.3971 C   0  0  0  0  0  0  0  0  0  0  0  0
  147.9306  140.3278  154.5084 C   0  0  2  0  0  0  0  0  0  0  0  0
  147.5010  140.0166  155.9493 C   0  0  0  0  0  0  0  0  0  0  0  0
  148.8393  139.6957  156.6121 C   0  0  0  0  0  0  0  0  0  0  0  0
  149.8261  139.9350  155.4564 C   0  0  1  0  0  0  0  0  0  0  0  0
  149.0448  139.4626  154.3717 O   0  0  0  0  0  0  0  0  0  0  0  0
  150.5292  143.8010  158.0167 H   0  0  0  0  0  0  0  0  0  0  0  0
  152.9606  141.3644  158.8156 H   0  0  0  0  0  0  0  0  0  0  0  0
  154.2206  141.2115  160.9625 H   0  0  0  0  0  0  0  0  0  0  0  0
  151.6698  144.3236  162.5121 H   0  0  0  0  0  0  0  0  0  0  0  0
  149.7567  143.2051  156.1802 H   0  0  0  0  0  0  0  0  0  0  0  0
  150.7706  141.5366  154.3257 H   0  0  0  0  0  0  0  0  0  0  0  0
  148.0468  142.4858  154.8762 H   0  0  0  0  0  0  0  0  0  0  0  0
  148.7663  141.9658  153.3511 H   0  0  0  0  0  0  0  0  0  0  0  0
  147.1449  140.1701  153.7691 H   0  0  0  0  0  0  0  0  0  0  0  0
  146.9878  140.8571  156.4179 H   0  0  0  0  0  0  0  0  0  0  0  0
  146.8403  139.1498  155.9819 H   0  0  0  0  0  0  0  0  0  0  0  0
  149.0396  140.3073  157.4922 H   0  0  0  0  0  0  0  0  0  0  0  0
  148.8648  138.6502  156.9214 H   0  0  0  0  0  0  0  0  0  0  0  0
  150.7770  139.4157  155.5776 H   0  0  0  0  0  0  0  0  0  0  0  0
  1  2  2  0  0  0  0
  2  3  1  0  0  0  0
  2 11  1  0  0  0  0
  3  4  1  0  0  0  0
  3 19  1  0  0  0  0
  4 10  1  0  0  0  0
  4  5  2  0  0  0  0
  5  6  1  0  0  0  0
  5 20  1  0  0  0  0
  6  7  2  0  0  0  0
  6 21  1  0  0  0  0
  7  8  1  0  0  0  0
  7  9  1  0  0  0  0
  9 10  2  0  0  0  0
  9 22  1  0  0  0  0
 11 12  1  0  0  0  0
 11 23  1  0  0  0  0
 12 17  1  0  0  0  0
 12 13  1  0  0  0  0
 12 24  1  0  0  0  0
 13 14  1  0  0  0  0
 13 25  1  0  0  0  0
 13 26  1  0  0  0  0
 14 18  1  0  0  0  0
 14 15  1  0  0  0  0
 14 27  1  0  0  0  0
 15 16  1  0  0  0  0
 15 28  1  0  0  0  0
 15 29  1  0  0  0  0
 16 17  1  0  0  0  0
 16 30  1  0  0  0  0
 16 31  1  0  0  0  0
 17 18  1  0  0  0  0
 17 32  1  0  0  0  0
M  END
> <s_m_source_file>
AV-unprocessed.smi

> <i_m_source_file_index>
2749

> <i_lp_mmshare_version>
43012

> <i_f3d_flags>
0

> <s_epik_input>
W0NIMl0xW0NIMl1bQ0BIXShPMilbQ0BASF0oW0NIMl1bQ0BASF0xMilbTkhdQyg9TylbTkhdYzNbY0hdW2NIXWMoRilbY0hdbjM=

> <s_epik_cmdline>
J2VwaWtfcHl0aG9uJywgJy1waCcsICc3LjAnLCAnLXRuJywgJzgnLCAnLW1hJywgJzIwMCcsICctbWV0YWxfYmluZGluZycsICctaW1hZScsICc8aW5maWxlLm1hZT4nLCAnLW9tYWUnLCAnPG91dGZpbGUubWFlPic=

> <r_lp_tautomer_probability>
1

> <r_epik_Ionization_Penalty>
3.37159e-05

> <r_epik_Ionization_Penalty_Charging>
0

> <r_epik_Ionization_Penalty_Neutral>
3.37159e-05

> <r_epik_State_Penalty>
-0

> <r_epik_Charging_Adjusted_Penalty>
0

> <i_epik_Tot_Q>
0

> <i_epik_Tot_abs_Q>
0

> <r_epik_Metal_State_Penalty>
-0

> <b_epik_Metal_Only>
0

> <s_lp_Force_Field>
OPLS_2005

> <r_lp_Energy>
40.3406

> <b_lp_Chiralities_Consistent>
1

> <s_lp_Variant>
AV-unprocessed.smi:2749-3

> <Gold.Version>
5.8.1

> <Gold.Id.Protein>
6NUR|6NUR_protein|mol2

> <Gold.PLP.Fitness>
37.3318

> <Gold.PLP.PLP>
-35.2655

> <Gold.PLP.part.hbond>
-1.1819

> <Gold.PLP.part.metal>
0.0000

> <Gold.PLP.part.buried>
-2.9161

> <Gold.PLP.part.nonpolar>
-29.8380

> <Gold.PLP.part.repulsive>
0.3863

> <Gold.PLP.ligand.clash>
0.0399

> <Gold.PLP.ligand.torsion>
0.4565

> <Gold.PLP.Chemscore.Hbond>
1.0000

> <Gold.PLP.Chemscore.CHOScore>
0.0000

> <Gold.PLP.Chemscore.Metal>
0.0000

> <Gold.Chemscore.Hbonds>
donor molecule, donor type, donor heavy atom, donor atom, acceptor molecule, acceptor atom, score
      L1  H    11    23       P1  8028  1.00

> <Gold.PLP.Chemscore.Internal.Correction>
0.0193

> <Gold.Rescore>
     Score         DG    S(hbond)    S(metal)    S(lipo)     H(rot)  DE(clash)    DE(int)     intcor
     11.72     -15.15       1.00        0.00      76.01       1.00       0.21       3.23       ----

> <Gold.Chemscore.Fitness>
11.7155

> <Gold.Chemscore.DG>
-15.1493

> <Gold.Chemscore.ZeroCoef>
-5.4800

> <Gold.Chemscore.Hbond>
0.9989

> <Gold.Chemscore.Metal>
0.0000

> <Gold.Chemscore.Lipo>
76.0074

> <Gold.Chemscore.Internal_Hbond>
0.0000

> <Gold.Chemscore.DEClash>
0.2065

> <Gold.Chemscore.DEInternal>
3.2273

> <Gold.Chemscore.Rot>
1.0000

> <Gold.Chemscore.Internal.Correction>
   9.000000E+99

> <Gold.Chemscore.Hbonds>
donor molecule, donor type, donor heavy atom, donor atom, acceptor molecule, acceptor atom, score
      L1  H    11    23       P1  8028  1.00

> <Gold.Chemscore.Hbond.Weighted>
-3.3365

> <Gold.Chemscore.Metal.Weighted>
-0.0000

> <Gold.Chemscore.Lipo.Weighted>
-8.8929

> <Gold.Chemscore.Internal_Hbond.Weighted>
0.0000

> <Gold.Chemscore.DEClash.Weighted>
0.2065

> <Gold.Chemscore.DEInternal.Weighted>
3.2273

> <Gold.Chemscore.Rot.Weighted>
2.5600

> <Gold.Chemscore.Internal.Correction.Weighted>
   9.000000E+99

> <Gold.Protein.RotatedTorsions>
[ 6907 6896 6895 6894 ] final  135.85 input  -60.11 | X-H torsion
[ 7974 7965 7964 7962 ] final -133.34 input  175.53 | X-H torsion
[ 8008 7997 7996 7995 ] final -129.51 input   59.86 | X-H torsion
[ 10167 10162 10161 10158 ] final  106.97 input  -65.29 | X-H torsion
[ 10718 10713 10712 10709 ] final -163.20 input   66.30 | X-H torsion
[ 10763 10752 10751 10750 ] final   19.00 input  -60.55 | X-H torsion
[ 11005 11000 10999 10996 ] final   46.21 input  -57.11 | X-H torsion

> <Gold.Protein.ActiveResidues>
 VAL166  LYS551  ARG553  GLY616  TRP617  ASP618  TYR619  PRO620  LYS621  CYS622 
 ASP623  PHE694  ASN695  SER759  ASP760  ASP761  ALA762  ILE779  LEU786  VAL792 
 PHE793  MET794  SER795  GLU796  ALA797  LYS798  CYS799  TRP800  GLU811  SER814 

> <Gold.Protein.RotatedAtoms>
  152.2959  133.5607  159.5587 H   0  0  0  0  0  0  0  0  0  0  0  0  # atno 6907 bound_to 6896
  150.7256  134.0361  159.3759 H   0  0  0  0  0  0  0  0  0  0  0  0  # atno 6908 bound_to 6896
  151.8264  135.0636  160.0482 H   0  0  0  0  0  0  0  0  0  0  0  0  # atno 6909 bound_to 6896
  144.9202  140.7005  143.4970 H   0  0  0  0  0  0  0  0  0  0  0  0  # atno 7974 bound_to 7965
  155.2804  140.0444  157.3015 H   0  0  0  0  0  0  0  0  0  0  0  0  # atno 8008 bound_to 7997
  154.5600  140.2343  155.8318 H   0  0  0  0  0  0  0  0  0  0  0  0  # atno 8009 bound_to 7997
  156.2039  140.3018  155.9593 H   0  0  0  0  0  0  0  0  0  0  0  0  # atno 8010 bound_to 7997
  139.6965  144.7100  151.1258 H   0  0  0  0  0  0  0  0  0  0  0  0  # atno 10167 bound_to 10162
  156.6214  130.8891  151.2958 H   0  0  0  0  0  0  0  0  0  0  0  0  # atno 10718 bound_to 10713
  153.1200  135.6717  153.9352 H   0  0  0  0  0  0  0  0  0  0  0  0  # atno 10763 bound_to 10752
  153.8870  135.3051  155.3448 H   0  0  0  0  0  0  0  0  0  0  0  0  # atno 10764 bound_to 10752
  154.7613  135.4986  153.9548 H   0  0  0  0  0  0  0  0  0  0  0  0  # atno 10765 bound_to 10752
  140.1389  134.4608  155.8464 H   0  0  0  0  0  0  0  0  0  0  0  0  # atno 11005 bound_to 11000
  145.3308  139.1760  143.4537 LP  0  0  0  0  0  0  0  0  0  0  0  0  # atno 17320 bound_to 7965
  146.3201  140.3338  142.8642 LP  0  0  0  0  0  0  0  0  0  0  0  0  # atno 17321 bound_to 7965
  140.7698  143.5484  150.9232 LP  0  0  0  0  0  0  0  0  0  0  0  0  # atno 17342 bound_to 10162
  139.9164  143.6658  152.3105 LP  0  0  0  0  0  0  0  0  0  0  0  0  # atno 17343 bound_to 10162
  157.7226  130.9579  150.1503 LP  0  0  0  0  0  0  0  0  0  0  0  0  # atno 17370 bound_to 10713
  156.2309  130.3682  149.8446 LP  0  0  0  0  0  0  0  0  0  0  0  0  # atno 17371 bound_to 10713
  141.2183  133.6825  156.7210 LP  0  0  0  0  0  0  0  0  0  0  0  0  # atno 17394 bound_to 11000
  140.2747  134.8364  157.3879 LP  0  0  0  0  0  0  0  0  0  0  0  0  # atno 17395 bound_to 11000

$$$$
