AV-unprocessed.smi:2044|AV-procd|sdf|8306|dock2
  -GOLD-   2272010573D 1   1.00000     0.00000
 Structure written by MMmdl.
 39 40  0  0  0  0  0  0  0  0  3 V2000
  153.3514  141.9056  161.1803 C   0  0  0  0  0  0  0  0  0  0  0  0
  153.0743  141.1909  159.9026 C   0  0  0  0  0  0  0  0  0  0  0  0
  152.1507  141.3778  158.9131 C   0  0  0  0  0  0  0  0  0  0  0  0
  152.4516  140.3396  157.9917 C   0  0  0  0  0  0  0  0  0  0  0  0
  151.6996  140.1932  156.7962 N   0  0  0  0  0  0  0  0  0  0  0  0
  152.0951  139.7065  155.6058 C   0  0  0  0  0  0  0  0  0  0  0  0
  153.2499  139.2913  155.4535 O   0  0  0  0  0  0  0  0  0  0  0  0
  151.0987  139.7437  154.6791 N   0  5  0  0  0  0  0  0  0  0  0  0
  149.8040  139.0741  154.8111 C   0  0  0  0  0  0  0  0  0  0  0  0
  148.8119  139.5939  153.7367 C   0  0  2  0  0  0  0  0  0  0  0  0
  148.1786  140.9692  154.0669 C   0  0  0  0  0  0  0  0  0  0  0  0
  147.7925  138.5476  153.4122 N   0  3  0  0  0  0  0  0  0  0  0  0
  147.0559  137.9525  154.5626 C   0  0  0  0  0  0  0  0  0  0  0  0
  146.1760  136.7889  154.0795 C   0  0  0  0  0  0  0  0  0  0  0  0
  145.2721  137.2594  153.0871 O   0  0  0  0  0  0  0  0  0  0  0  0
  145.9511  137.7684  151.9454 C   0  0  0  0  0  0  0  0  0  0  0  0
  146.8387  138.9572  152.3515 C   0  0  0  0  0  0  0  0  0  0  0  0
  153.4686  139.5871  158.3851 N   0  0  0  0  0  0  0  0  0  0  0  0
  153.8724  140.1284  159.6114 O   0  0  0  0  0  0  0  0  0  0  0  0
  152.6622  142.7390  161.3183 H   0  0  0  0  0  0  0  0  0  0  0  0
  154.3666  142.3021  161.1887 H   0  0  0  0  0  0  0  0  0  0  0  0
  153.2433  141.2324  162.0307 H   0  0  0  0  0  0  0  0  0  0  0  0
  151.3836  142.1358  158.8583 H   0  0  0  0  0  0  0  0  0  0  0  0
  150.7397  140.5002  156.8457 H   0  0  0  0  0  0  0  0  0  0  0  0
  149.8890  137.9921  154.6979 H   0  0  0  0  0  0  0  0  0  0  0  0
  149.3728  139.2270  155.8009 H   0  0  0  0  0  0  0  0  0  0  0  0
  149.4078  139.7338  152.8328 H   0  0  0  0  0  0  0  0  0  0  0  0
  148.9319  141.7550  154.1444 H   0  0  0  0  0  0  0  0  0  0  0  0
  147.6207  140.9628  155.0049 H   0  0  0  0  0  0  0  0  0  0  0  0
  147.4912  141.2787  153.2797 H   0  0  0  0  0  0  0  0  0  0  0  0
  147.7505  137.5913  155.3212 H   0  0  0  0  0  0  0  0  0  0  0  0
  146.4242  138.7045  155.0368 H   0  0  0  0  0  0  0  0  0  0  0  0
  146.7860  135.9763  153.6812 H   0  0  0  0  0  0  0  0  0  0  0  0
  145.6038  136.3798  154.9122 H   0  0  0  0  0  0  0  0  0  0  0  0
  146.5463  136.9801  151.4813 H   0  0  0  0  0  0  0  0  0  0  0  0
  145.2133  138.0853  151.2082 H   0  0  0  0  0  0  0  0  0  0  0  0
  146.2222  139.7831  152.7086 H   0  0  0  0  0  0  0  0  0  0  0  0
  147.3810  139.3147  151.4753 H   0  0  0  0  0  0  0  0  0  0  0  0
  148.3287  137.7940  153.0055 H   0  0  0  0  0  0  0  0  0  0  0  0
  1  2  1  0  0  0  0
  1 20  1  0  0  0  0
  1 21  1  0  0  0  0
  1 22  1  0  0  0  0
  2 19  1  0  0  0  0
  2  3  2  0  0  0  0
  3  4  1  0  0  0  0
  3 23  1  0  0  0  0
  4  5  1  0  0  0  0
  4 18  2  0  0  0  0
  5  6  1  0  0  0  0
  5 24  1  0  0  0  0
  6  7  2  0  0  0  0
  6  8  1  0  0  0  0
  8  9  1  0  0  0  0
  9 10  1  0  0  0  0
  9 25  1  0  0  0  0
  9 26  1  0  0  0  0
 10 11  1  0  0  0  0
 10 12  1  0  0  0  0
 10 27  1  0  0  0  0
 11 28  1  0  0  0  0
 11 29  1  0  0  0  0
 11 30  1  0  0  0  0
 12 17  1  0  0  0  0
 12 13  1  0  0  0  0
 12 39  1  0  0  0  0
 13 14  1  0  0  0  0
 13 31  1  0  0  0  0
 13 32  1  0  0  0  0
 14 15  1  0  0  0  0
 14 33  1  0  0  0  0
 14 34  1  0  0  0  0
 15 16  1  0  0  0  0
 16 17  1  0  0  0  0
 16 35  1  0  0  0  0
 16 36  1  0  0  0  0
 17 37  1  0  0  0  0
 17 38  1  0  0  0  0
 18 19  1  0  0  0  0
M  CHG  1   8  -1
M  CHG  1  12   1
M  END
> <s_m_source_file>
AV-unprocessed.smi

> <i_m_source_file_index>
2044

> <i_lp_mmshare_version>
43012

> <i_f3d_flags>
0

> <s_epik_input>
W0NIM11jMVtjSF1jKG5vMSlbTkhdQyg9TylbTkhdW0NIMl1bQ0BIXShbQ0gzXSlOMltDSDJdW0NIMl1PW0NIMl1bQ0gyXTI=

> <s_epik_cmdline>
J2VwaWtfcHl0aG9uJywgJy1waCcsICc3LjAnLCAnLXRuJywgJzgnLCAnLW1hJywgJzIwMCcsICctbWV0YWxfYmluZGluZycsICctaW1hZScsICc8aW5maWxlLm1hZT4nLCAnLW9tYWUnLCAnPG91dGZpbGUubWFlPic=

> <r_epik_Ionization_Penalty>
6.79272

> <r_epik_Ionization_Penalty_Charging>
6.79272

> <r_epik_Ionization_Penalty_Neutral>
5.6208e-06

> <r_epik_State_Penalty>
7.45901

> <r_epik_Charging_Adjusted_Penalty>
14.2517

> <i_epik_Tot_Q>
0

> <i_epik_Tot_abs_Q>
2

> <r_epik_Metal_State_Penalty>
3.38639

> <b_epik_Metal_Only>
1

> <s_lp_Force_Field>
OPLS_2005

> <r_lp_Energy>
17.6269

> <b_lp_Chiralities_Consistent>
1

> <s_lp_Variant>
AV-unprocessed.smi:2044-9

> <Gold.Version>
5.8.1

> <Gold.Id.Protein>
6NUR|6NUR_protein|mol2

> <Gold.PLP.Fitness>
42.7822

> <Gold.PLP.PLP>
-31.1101

> <Gold.PLP.part.hbond>
-4.3016

> <Gold.PLP.part.metal>
0.0000

> <Gold.PLP.part.buried>
-0.1579

> <Gold.PLP.part.nonpolar>
-27.4260

> <Gold.PLP.part.repulsive>
0.4018

> <Gold.PLP.ligand.clash>
0.0000

> <Gold.PLP.ligand.torsion>
1.1507

> <Gold.PLP.Chemscore.Hbond>
4.6160

> <Gold.PLP.Chemscore.CHOScore>
0.0000

> <Gold.PLP.Chemscore.Metal>
0.0000

> <Gold.Chemscore.Hbonds>
donor molecule, donor type, donor heavy atom, donor atom, acceptor molecule, acceptor atom, score
      L1  H    12    39       P1  7948  2.00
      P1  H  7989  7998       L1     8  1.00
      P1  H  7997  8008       L1    18  0.94
      P1  H  7997  8009       L1     7  0.67

> <Gold.PLP.Chemscore.Internal.Correction>
0.1254

> <Gold.Rescore>
     Score         DG    S(hbond)    S(metal)    S(lipo)     H(rot)  DE(clash)    DE(int)     intcor
     14.85     -18.56       2.69        0.00      69.80       1.59       1.34       2.37       ----

> <Gold.Chemscore.Fitness>
14.8550

> <Gold.Chemscore.DG>
-18.5592

> <Gold.Chemscore.ZeroCoef>
-5.4800

> <Gold.Chemscore.Hbond>
2.6918

> <Gold.Chemscore.Metal>
0.0000

> <Gold.Chemscore.Lipo>
69.8004

> <Gold.Chemscore.Internal_Hbond>
0.0000

> <Gold.Chemscore.DEClash>
1.3376

> <Gold.Chemscore.DEInternal>
2.3666

> <Gold.Chemscore.Rot>
1.5930

> <Gold.Chemscore.Internal.Correction>
   9.000000E+99

> <Gold.Chemscore.Hbonds>
donor molecule, donor type, donor heavy atom, donor atom, acceptor molecule, acceptor atom, score
      L1  H    12    39       P1  7948  0.94
      P1  H  7989  7998       L1     8  0.50
      P1  H  7997  8008       L1    18  0.16
      P1  H  7997  8009       L1     7  0.66

> <Gold.Chemscore.Hbond.Weighted>
-8.9906

> <Gold.Chemscore.Metal.Weighted>
-0.0000

> <Gold.Chemscore.Lipo.Weighted>
-8.1666

> <Gold.Chemscore.Internal_Hbond.Weighted>
0.0000

> <Gold.Chemscore.DEClash.Weighted>
1.3376

> <Gold.Chemscore.DEInternal.Weighted>
2.3666

> <Gold.Chemscore.Rot.Weighted>
4.0781

> <Gold.Chemscore.Internal.Correction.Weighted>
   9.000000E+99

> <Gold.Protein.RotatedTorsions>
[ 6907 6896 6895 6894 ] final  -96.19 input  -60.11 | X-H torsion
[ 7974 7965 7964 7962 ] final -132.18 input  175.53 | X-H torsion
[ 8008 7997 7996 7995 ] final -112.29 input   59.86 | X-H torsion
[ 10167 10162 10161 10158 ] final -111.16 input  -65.29 | X-H torsion
[ 10718 10713 10712 10709 ] final   41.46 input   66.30 | X-H torsion
[ 10763 10752 10751 10750 ] final  -95.31 input  -60.55 | X-H torsion
[ 11005 11000 10999 10996 ] final -107.41 input  -57.11 | X-H torsion

> <Gold.Protein.ActiveResidues>
 VAL166  LYS551  ARG553  GLY616  TRP617  ASP618  TYR619  PRO620  LYS621  CYS622 
 ASP623  PHE694  ASN695  SER759  ASP760  ASP761  ALA762  ILE779  LEU786  VAL792 
 PHE793  MET794  SER795  GLU796  ALA797  LYS798  CYS799  TRP800  GLU811  SER814 

> <Gold.Protein.RotatedAtoms>
  150.6982  134.1542  159.4151 H   0  0  0  0  0  0  0  0  0  0  0  0  # atno 6907 bound_to 6896
  151.9524  135.0160  160.0552 H   0  0  0  0  0  0  0  0  0  0  0  0  # atno 6908 bound_to 6896
  152.1999  133.4798  159.5090 H   0  0  0  0  0  0  0  0  0  0  0  0  # atno 6909 bound_to 6896
  144.9309  140.7127  143.4906 H   0  0  0  0  0  0  0  0  0  0  0  0  # atno 7974 bound_to 7965
  155.0029  140.0394  157.2367 H   0  0  0  0  0  0  0  0  0  0  0  0  # atno 8008 bound_to 7997
  154.7528  140.2770  155.6255 H   0  0  0  0  0  0  0  0  0  0  0  0  # atno 8009 bound_to 7997
  156.2888  140.2643  156.2286 H   0  0  0  0  0  0  0  0  0  0  0  0  # atno 8010 bound_to 7997
  140.1366  143.4315  152.1591 H   0  0  0  0  0  0  0  0  0  0  0  0  # atno 10167 bound_to 10162
  157.3938  130.7821  149.7291 H   0  0  0  0  0  0  0  0  0  0  0  0  # atno 10718 bound_to 10713
  154.7136  135.5125  153.8704 H   0  0  0  0  0  0  0  0  0  0  0  0  # atno 10763 bound_to 10752
  153.0801  135.6629  154.0071 H   0  0  0  0  0  0  0  0  0  0  0  0  # atno 10764 bound_to 10752
  153.9908  135.3020  155.3391 H   0  0  0  0  0  0  0  0  0  0  0  0  # atno 10765 bound_to 10752
  141.0955  133.8978  157.1972 H   0  0  0  0  0  0  0  0  0  0  0  0  # atno 11005 bound_to 11000
  145.3143  139.1808  143.4622 LP  0  0  0  0  0  0  0  0  0  0  0  0  # atno 17320 bound_to 7965
  146.3246  140.3152  142.8629 LP  0  0  0  0  0  0  0  0  0  0  0  0  # atno 17321 bound_to 7965
  139.5493  144.7324  151.4485 LP  0  0  0  0  0  0  0  0  0  0  0  0  # atno 17342 bound_to 10162
  140.6785  143.8134  150.7090 LP  0  0  0  0  0  0  0  0  0  0  0  0  # atno 17343 bound_to 10162
  155.9805  130.4029  150.3525 LP  0  0  0  0  0  0  0  0  0  0  0  0  # atno 17370 bound_to 10713
  157.1644  131.0353  151.2825 LP  0  0  0  0  0  0  0  0  0  0  0  0  # atno 17371 bound_to 10713
  139.9791  135.0104  156.9705 LP  0  0  0  0  0  0  0  0  0  0  0  0  # atno 17394 bound_to 11000
  140.5150  134.0964  155.7279 LP  0  0  0  0  0  0  0  0  0  0  0  0  # atno 17395 bound_to 11000

$$$$
