AV-unprocessed.smi:3330|AV-procd|sdf|12801|dock5
  -GOLD-   2272019163D 1   1.00000     0.00000
 Structure written by MMmdl.
 39 40  0  0  0  0  0  0  0  0  2 V2000
  146.9386  139.0191  152.1516 C   0  0  0  0  0  0  0  0  0  0  0  0
  146.7244  138.9723  153.6755 C   0  0  2  0  0  0  0  0  0  0  0  0
  145.2757  138.9657  153.9803 N   0  3  0  0  0  0  0  0  0  0  0  0
  144.6330  137.6355  154.0215 C   0  0  0  0  0  0  0  0  0  0  0  0
  143.9865  137.2818  152.6697 C   0  0  0  0  0  0  0  0  0  0  0  0
  143.9517  135.8329  152.4264 N   0  0  0  0  0  0  0  0  0  0  0  0
  144.5862  135.2290  151.4128 C   0  0  0  0  0  0  0  0  0  0  0  0
  145.2892  135.7563  150.5518 O   0  0  0  0  0  0  0  0  0  0  0  0
  144.3125  133.7429  151.4905 C   0  0  0  0  0  0  0  0  0  0  0  0
  143.4840  133.7195  152.6764 N   0  0  0  0  0  0  0  0  0  0  0  0
  143.2990  134.9404  153.1944 C   0  0  0  0  0  0  0  0  0  0  0  0
  142.6552  135.1881  154.2126 O   0  0  0  0  0  0  0  0  0  0  0  0
  147.4053  140.1561  154.4147 C   0  0  2  0  0  0  0  0  0  0  0  0
  147.1668  141.5150  153.7307 C   0  0  0  0  0  0  0  0  0  0  0  0
  148.8398  139.9374  154.5785 N   0  0  0  0  0  0  0  0  0  0  0  0
  149.6044  138.8972  154.0910 C   0  0  0  0  0  0  0  0  0  0  0  0
  150.8886  139.1032  154.5066 C   0  0  0  0  0  0  0  0  0  0  0  0
  150.8110  140.3054  155.2624 C   0  0  0  0  0  0  0  0  0  0  0  0
  149.5862  140.8029  155.3026 N   0  0  0  0  0  0  0  0  0  0  0  0
  147.9937  138.9406  151.8909 H   0  0  0  0  0  0  0  0  0  0  0  0
  146.5578  139.9479  151.7256 H   0  0  0  0  0  0  0  0  0  0  0  0
  146.4320  138.1936  151.6515 H   0  0  0  0  0  0  0  0  0  0  0  0
  147.1584  138.0456  154.0545 H   0  0  0  0  0  0  0  0  0  0  0  0
  145.1764  139.3596  154.9053 H   0  0  0  0  0  0  0  0  0  0  0  0
  145.3728  136.8816  154.2911 H   0  0  0  0  0  0  0  0  0  0  0  0
  143.8677  137.6219  154.7987 H   0  0  0  0  0  0  0  0  0  0  0  0
  142.9774  137.6951  152.6245 H   0  0  0  0  0  0  0  0  0  0  0  0
  144.5364  137.7723  151.8646 H   0  0  0  0  0  0  0  0  0  0  0  0
  143.7712  133.3862  150.6137 H   0  0  0  0  0  0  0  0  0  0  0  0
  145.2297  133.1695  151.6269 H   0  0  0  0  0  0  0  0  0  0  0  0
  143.1029  132.8685  153.0641 H   0  0  0  0  0  0  0  0  0  0  0  0
  146.9812  140.2147  155.4186 H   0  0  0  0  0  0  0  0  0  0  0  0
  146.1127  141.7905  153.7325 H   0  0  0  0  0  0  0  0  0  0  0  0
  147.5086  141.5060  152.6951 H   0  0  0  0  0  0  0  0  0  0  0  0
  147.7033  142.3110  154.2482 H   0  0  0  0  0  0  0  0  0  0  0  0
  149.1770  138.1050  153.4938 H   0  0  0  0  0  0  0  0  0  0  0  0
  151.7519  138.4862  154.3054 H   0  0  0  0  0  0  0  0  0  0  0  0
  151.6033  140.8298  155.7762 H   0  0  0  0  0  0  0  0  0  0  0  0
  144.7873  139.5627  153.3281 H   0  0  0  0  0  0  0  0  0  0  0  0
  1  2  1  0  0  0  0
  1 20  1  0  0  0  0
  1 21  1  0  0  0  0
  1 22  1  0  0  0  0
  2  3  1  0  0  0  0
  2 13  1  0  0  0  0
  2 23  1  0  0  0  0
  3  4  1  0  0  0  0
  3 24  1  0  0  0  0
  3 39  1  0  0  0  0
  4  5  1  0  0  0  0
  4 25  1  0  0  0  0
  4 26  1  0  0  0  0
  5  6  1  0  0  0  0
  5 27  1  0  0  0  0
  5 28  1  0  0  0  0
  6 11  1  0  0  0  0
  6  7  1  0  0  0  0
  7  8  2  0  0  0  0
  7  9  1  0  0  0  0
  9 10  1  0  0  0  0
  9 29  1  0  0  0  0
  9 30  1  0  0  0  0
 10 11  1  0  0  0  0
 10 31  1  0  0  0  0
 11 12  2  0  0  0  0
 13 14  1  0  0  0  0
 13 15  1  0  0  0  0
 13 32  1  0  0  0  0
 14 33  1  0  0  0  0
 14 34  1  0  0  0  0
 14 35  1  0  0  0  0
 15 19  1  0  0  0  0
 15 16  1  0  0  0  0
 16 17  2  0  0  0  0
 16 36  1  0  0  0  0
 17 18  1  0  0  0  0
 17 37  1  0  0  0  0
 18 19  2  0  0  0  0
 18 38  1  0  0  0  0
M  CHG  1   3   1
M  END
> <s_m_source_file>
AV-unprocessed.smi

> <i_m_source_file_index>
3330

> <i_lp_mmshare_version>
43012

> <i_f3d_flags>
0

> <s_epik_input>
bjFbY0hdW2NIXVtjSF1uMVtDQEBIXShbQ0gzXSlbQ0BIXShbQ0gzXSlbTkhdW0NIMl1bQ0gyXU4yQyg9TylbQ0gyXVtOSF1DMj1P

> <s_epik_cmdline>
J2VwaWtfcHl0aG9uJywgJy1waCcsICc3LjAnLCAnLXRuJywgJzgnLCAnLW1hJywgJzIwMCcsICctbWV0YWxfYmluZGluZycsICctaW1hZScsICc8aW5maWxlLm1hZT4nLCAnLW9tYWUnLCAnPG91dGZpbGUubWFlPic=

> <r_lp_tautomer_probability>
1

> <r_epik_Ionization_Penalty>
0.0124905

> <r_epik_Ionization_Penalty_Charging>
0.0123685

> <r_epik_Ionization_Penalty_Neutral>
0.000122059

> <r_epik_State_Penalty>
0.00957041

> <r_epik_Charging_Adjusted_Penalty>
0.0219389

> <i_epik_Tot_Q>
1

> <i_epik_Tot_abs_Q>
1

> <r_epik_Metal_State_Penalty>
0.0858301

> <b_epik_Metal_Only>
0

> <s_lp_Force_Field>
OPLS_2005

> <r_lp_Energy>
30.1395

> <b_lp_Chiralities_Consistent>
1

> <s_lp_Variant>
AV-unprocessed.smi:3330-1

> <Gold.Version>
5.8.1

> <Gold.Id.Protein>
6NUR|6NUR_protein|mol2

> <Gold.PLP.Fitness>
42.0461

> <Gold.PLP.PLP>
-32.0944

> <Gold.PLP.part.hbond>
-2.5169

> <Gold.PLP.part.metal>
0.0000

> <Gold.PLP.part.buried>
-1.8849

> <Gold.PLP.part.nonpolar>
-26.6204

> <Gold.PLP.part.repulsive>
0.4165

> <Gold.PLP.ligand.clash>
0.0000

> <Gold.PLP.ligand.torsion>
1.1440

> <Gold.PLP.Chemscore.Hbond>
2.9920

> <Gold.PLP.Chemscore.CHOScore>
1.0000

> <Gold.PLP.Chemscore.Metal>
0.0000

> <Gold.Chemscore.Hbonds>
donor molecule, donor type, donor heavy atom, donor atom, acceptor molecule, acceptor atom, score
      L1  H     3    39       P1 10175  2.00
      L1  H    10    31       P1 10957  0.86
      L1  C    16    36       P1  7948  1.00

> <Gold.PLP.Chemscore.Internal.Correction>
0.2637

> <Gold.Rescore>
     Score         DG    S(hbond)    S(metal)    S(lipo)     H(rot)  DE(clash)    DE(int)     intcor
     10.13     -11.47       1.99        0.00      52.80       2.67       0.10       1.25       ----

> <Gold.Chemscore.Fitness>
10.1264

> <Gold.Chemscore.DG>
-11.4713

> <Gold.Chemscore.ZeroCoef>
-5.4800

> <Gold.Chemscore.Hbond>
1.9882

> <Gold.Chemscore.Metal>
0.0000

> <Gold.Chemscore.Lipo>
52.7959

> <Gold.Chemscore.Internal_Hbond>
0.0000

> <Gold.Chemscore.DEClash>
0.0951

> <Gold.Chemscore.DEInternal>
1.2497

> <Gold.Chemscore.Rot>
2.6666

> <Gold.Chemscore.Internal.Correction>
   9.000000E+99

> <Gold.Chemscore.Hbonds>
donor molecule, donor type, donor heavy atom, donor atom, acceptor molecule, acceptor atom, score
      L1  H     3    39       P1 10175  1.00
      L1  H    10    31       P1 10957  0.35

> <Gold.Chemscore.Hbond.Weighted>
-6.6406

> <Gold.Chemscore.Metal.Weighted>
-0.0000

> <Gold.Chemscore.Lipo.Weighted>
-6.1771

> <Gold.Chemscore.Internal_Hbond.Weighted>
0.0000

> <Gold.Chemscore.DEClash.Weighted>
0.0951

> <Gold.Chemscore.DEInternal.Weighted>
1.2497

> <Gold.Chemscore.Rot.Weighted>
6.8265

> <Gold.Chemscore.Internal.Correction.Weighted>
   9.000000E+99

> <Gold.Protein.RotatedTorsions>
[ 6907 6896 6895 6894 ] final -121.53 input  -60.11 | X-H torsion
[ 7974 7965 7964 7962 ] final -125.14 input  175.53 | X-H torsion
[ 8008 7997 7996 7995 ] final   38.82 input   59.86 | X-H torsion
[ 10167 10162 10161 10158 ] final   31.51 input  -65.29 | X-H torsion
[ 10718 10713 10712 10709 ] final  171.23 input   66.30 | X-H torsion
[ 10763 10752 10751 10750 ] final -155.99 input  -60.55 | X-H torsion
[ 11005 11000 10999 10996 ] final -172.03 input  -57.11 | X-H torsion

> <Gold.Protein.ActiveResidues>
 VAL166  LYS551  ARG553  GLY616  TRP617  ASP618  TYR619  PRO620  LYS621  CYS622 
 ASP623  PHE694  ASN695  SER759  ASP760  ASP761  ALA762  ILE779  LEU786  VAL792 
 PHE793  MET794  SER795  GLU796  ALA797  LYS798  CYS799  TRP800  GLU811  SER814 

> <Gold.Protein.RotatedAtoms>
  150.8491  133.7814  159.3031 H   0  0  0  0  0  0  0  0  0  0  0  0  # atno 6907 bound_to 6896
  151.5492  135.1066  159.9955 H   0  0  0  0  0  0  0  0  0  0  0  0  # atno 6908 bound_to 6896
  152.4538  133.7639  159.6818 H   0  0  0  0  0  0  0  0  0  0  0  0  # atno 6909 bound_to 6896
  145.0007  140.7817  143.4498 H   0  0  0  0  0  0  0  0  0  0  0  0  # atno 7974 bound_to 7965
  155.2264  140.3335  155.4309 H   0  0  0  0  0  0  0  0  0  0  0  0  # atno 8008 bound_to 7997
  156.2312  140.1851  156.7283 H   0  0  0  0  0  0  0  0  0  0  0  0  # atno 8009 bound_to 7997
  154.5982  140.0627  156.9318 H   0  0  0  0  0  0  0  0  0  0  0  0  # atno 8010 bound_to 7997
  140.4582  144.0947  150.6206 H   0  0  0  0  0  0  0  0  0  0  0  0  # atno 10167 bound_to 10162
  156.9966  131.0163  151.2842 H   0  0  0  0  0  0  0  0  0  0  0  0  # atno 10718 bound_to 10713
  154.7746  135.3155  154.8118 H   0  0  0  0  0  0  0  0  0  0  0  0  # atno 10763 bound_to 10752
  153.8845  135.6831  153.4769 H   0  0  0  0  0  0  0  0  0  0  0  0  # atno 10764 bound_to 10752
  153.1367  135.4756  154.9369 H   0  0  0  0  0  0  0  0  0  0  0  0  # atno 10765 bound_to 10752
  140.5015  134.5888  157.4989 H   0  0  0  0  0  0  0  0  0  0  0  0  # atno 11005 bound_to 11000
  145.2157  139.2183  143.5119 LP  0  0  0  0  0  0  0  0  0  0  0  0  # atno 17320 bound_to 7965
  146.3451  140.2005  142.8589 LP  0  0  0  0  0  0  0  0  0  0  0  0  # atno 17321 bound_to 7965
  140.4126  143.2650  151.9814 LP  0  0  0  0  0  0  0  0  0  0  0  0  # atno 17342 bound_to 10162
  139.4803  144.5902  151.7784 LP  0  0  0  0  0  0  0  0  0  0  0  0  # atno 17343 bound_to 10162
  157.5420  130.8126  149.8040 LP  0  0  0  0  0  0  0  0  0  0  0  0  # atno 17370 bound_to 10713
  156.0187  130.3804  150.2030 LP  0  0  0  0  0  0  0  0  0  0  0  0  # atno 17371 bound_to 10713
  139.9710  134.7292  156.0041 LP  0  0  0  0  0  0  0  0  0  0  0  0  # atno 17394 bound_to 11000
  141.1433  133.6560  156.3792 LP  0  0  0  0  0  0  0  0  0  0  0  0  # atno 17395 bound_to 11000

$$$$
