AV-unprocessed.smi:37|AV-procd|sdf|304|dock8
  -GOLD-   2262016113D 1   1.00000     0.00000
 Structure written by MMmdl.
 44 45  0  0  0  0  0  0  0  0  1 V2000
  147.1353  134.2861  162.4378 C   0  0  0  0  0  0  0  0  0  0  0  0
  146.7120  134.9566  161.1236 C   0  0  0  0  0  0  0  0  0  0  0  0
  147.4153  136.2942  160.9038 C   0  0  0  0  0  0  0  0  0  0  0  0
  147.3518  137.1988  161.7363 O   0  0  0  0  0  0  0  0  0  0  0  0
  148.0664  136.3461  159.7334 O   0  0  0  0  0  0  0  0  0  0  0  0
  149.1932  137.1937  159.5855 C   0  0  0  0  0  0  0  0  0  0  0  0
  149.5979  137.3030  158.1052 C   0  0  1  0  0  0  0  0  0  0  0  0
  148.6769  138.1384  157.4086 O   0  0  0  0  0  0  0  0  0  0  0  0
  149.3529  138.7021  156.3288 C   0  0  1  0  0  0  0  0  0  0  0  0
  148.5306  139.8316  155.7321 N   0  0  0  0  0  0  0  0  0  0  0  0
  147.3744  140.3018  156.3468 C   0  0  0  0  0  0  0  0  0  0  0  0
  146.6506  141.3429  155.8720 C   0  0  0  0  0  0  0  0  0  0  0  0
  145.5428  141.7334  156.5248 F   0  0  0  0  0  0  0  0  0  0  0  0
  147.0772  142.0621  154.6767 C   0  0  0  0  0  0  0  0  0  0  0  0
  146.4820  143.0060  154.1609 O   0  0  0  0  0  0  0  0  0  0  0  0
  148.2785  141.6042  154.1302 N   0  0  0  0  0  0  0  0  0  0  0  0
  149.0406  140.5410  154.6183 C   0  0  0  0  0  0  0  0  0  0  0  0
  150.1126  140.2682  154.0800 O   0  0  0  0  0  0  0  0  0  0  0  0
  150.6811  139.1280  156.9722 C   0  0  1  0  0  0  0  0  0  0  0  0
  150.4379  140.6954  158.1985 Br  0  0  0  0  0  0  0  0  0  0  0  0
  150.9970  137.8751  157.7884 C   0  0  1  0  0  0  0  0  0  0  0  0
  151.8007  138.1313  158.9361 O   0  0  0  0  0  0  0  0  0  0  0  0
  152.9991  138.7259  158.8097 C   0  0  0  0  0  0  0  0  0  0  0  0
  153.5462  139.0194  157.7450 O   0  0  0  0  0  0  0  0  0  0  0  0
  153.6341  139.0227  160.1696 C   0  0  0  0  0  0  0  0  0  0  0  0
  153.8193  140.5221  160.4465 C   0  0  0  0  0  0  0  0  0  0  0  0
  148.6335  142.0938  153.3216 H   0  0  0  0  0  0  0  0  0  0  0  0
  146.5912  133.3531  162.5842 H   0  0  0  0  0  0  0  0  0  0  0  0
  146.9275  134.9280  163.2944 H   0  0  0  0  0  0  0  0  0  0  0  0
  148.2002  134.0502  162.4437 H   0  0  0  0  0  0  0  0  0  0  0  0
  146.9338  134.3004  160.2816 H   0  0  0  0  0  0  0  0  0  0  0  0
  145.6343  135.1206  161.1226 H   0  0  0  0  0  0  0  0  0  0  0  0
  148.9661  138.1856  159.9790 H   0  0  0  0  0  0  0  0  0  0  0  0
  150.0235  136.7960  160.1702 H   0  0  0  0  0  0  0  0  0  0  0  0
  149.5345  136.3078  157.6631 H   0  0  0  0  0  0  0  0  0  0  0  0
  149.4753  137.9804  155.5180 H   0  0  0  0  0  0  0  0  0  0  0  0
  147.0218  139.8393  157.2557 H   0  0  0  0  0  0  0  0  0  0  0  0
  151.4437  139.3646  156.2303 H   0  0  0  0  0  0  0  0  0  0  0  0
  151.4988  137.1518  157.1432 H   0  0  0  0  0  0  0  0  0  0  0  0
  153.0082  138.5811  160.9453 H   0  0  0  0  0  0  0  0  0  0  0  0
  154.5991  138.5178  160.2190 H   0  0  0  0  0  0  0  0  0  0  0  0
  154.2663  140.6779  161.4283 H   0  0  0  0  0  0  0  0  0  0  0  0
  152.8653  141.0506  160.4309 H   0  0  0  0  0  0  0  0  0  0  0  0
  154.4755  140.9852  159.7087 H   0  0  0  0  0  0  0  0  0  0  0  0
  1  2  1  0  0  0  0
  1 28  1  0  0  0  0
  1 29  1  0  0  0  0
  1 30  1  0  0  0  0
  2  3  1  0  0  0  0
  2 31  1  0  0  0  0
  2 32  1  0  0  0  0
  3  4  2  0  0  0  0
  3  5  1  0  0  0  0
  5  6  1  0  0  0  0
  6  7  1  0  0  0  0
  6 33  1  0  0  0  0
  6 34  1  0  0  0  0
  7 21  1  0  0  0  0
  7  8  1  0  0  0  0
  7 35  1  0  0  0  0
  8  9  1  0  0  0  0
  9 10  1  0  0  0  0
  9 19  1  0  0  0  0
  9 36  1  0  0  0  0
 10 17  1  0  0  0  0
 10 11  1  0  0  0  0
 11 12  2  0  0  0  0
 11 37  1  0  0  0  0
 12 13  1  0  0  0  0
 12 14  1  0  0  0  0
 14 15  2  0  0  0  0
 14 16  1  0  0  0  0
 16 27  1  0  0  0  0
 16 17  1  0  0  0  0
 17 18  2  0  0  0  0
 19 20  1  0  0  0  0
 19 21  1  0  0  0  0
 19 38  1  0  0  0  0
 21 22  1  0  0  0  0
 21 39  1  0  0  0  0
 22 23  1  0  0  0  0
 23 24  2  0  0  0  0
 23 25  1  0  0  0  0
 25 26  1  0  0  0  0
 25 40  1  0  0  0  0
 25 41  1  0  0  0  0
 26 42  1  0  0  0  0
 26 43  1  0  0  0  0
 26 44  1  0  0  0  0
M  END
> <s_m_source_file>
AV-unprocessed.smi

> <i_m_source_file_index>
37

> <i_lp_mmshare_version>
43012

> <i_f3d_flags>
0

> <s_epik_input>
W0NIM11bQ0gyXUMoPU8pT1tDSDJdW0NAQEhdMU9bQ0BASF0objJbY0hdYyhGKWMoPU8pW25IXWMyPU8pW0NAQEhdKEJyKVtDQEhdMU9DKD1PKVtDSDJdW0NIM10=

> <s_epik_cmdline>
J2VwaWtfcHl0aG9uJywgJy1waCcsICc3LjAnLCAnLXRuJywgJzgnLCAnLW1hJywgJzIwMCcsICctbWV0YWxfYmluZGluZycsICctaW1hZScsICc8aW5maWxlLm1hZT4nLCAnLW9tYWUnLCAnPG91dGZpbGUubWFlPic=

> <r_lp_tautomer_probability>
0.999537

> <r_epik_Ionization_Penalty>
0.104106

> <r_epik_Ionization_Penalty_Charging>
0.104106

> <r_epik_Ionization_Penalty_Neutral>
3.94675e-16

> <r_epik_State_Penalty>
0.0940182

> <r_epik_Charging_Adjusted_Penalty>
0.198124

> <i_epik_Tot_Q>
0

> <i_epik_Tot_abs_Q>
0

> <r_epik_Metal_State_Penalty>
3.05314

> <b_epik_Metal_Only>
0

> <s_epik_Chemistry_Notes>
This compound has an ester and may undergo hydrolysis at high or low pH. This compound contains an acetal/aminal-like group ( X-CH(R)-Y where X, Y are N, S, or O) that may be acid/base labile, releasing an aldehyde.

> <s_lp_Force_Field>
OPLS_2005

> <r_lp_Energy>
30.4871

> <b_lp_Chiralities_Consistent>
1

> <s_lp_Variant>
AV-unprocessed.smi:37-2

> <Gold.Version>
5.8.1

> <Gold.Id.Protein>
6NUR|6NUR_protein|mol2

> <Gold.PLP.Fitness>
43.3342

> <Gold.PLP.PLP>
-33.3708

> <Gold.PLP.part.hbond>
-3.6126

> <Gold.PLP.part.metal>
0.0000

> <Gold.PLP.part.buried>
-5.6005

> <Gold.PLP.part.nonpolar>
-24.3797

> <Gold.PLP.part.repulsive>
0.8444

> <Gold.PLP.ligand.clash>
0.0000

> <Gold.PLP.ligand.torsion>
0.7078

> <Gold.PLP.Chemscore.Hbond>
3.7200

> <Gold.PLP.Chemscore.CHOScore>
0.0000

> <Gold.PLP.Chemscore.Metal>
0.0000

> <Gold.Chemscore.Hbonds>
donor molecule, donor type, donor heavy atom, donor atom, acceptor molecule, acceptor atom, score
      P1  H  6931  6943       L1     4  0.90
      P1  H  6934  6947       L1     4  0.83
      P1  H  7989  7998       L1    18  0.88
      P1  H  7997  8009       L1    24  0.88

> <Gold.PLP.Chemscore.Internal.Correction>
0.2190

> <Gold.Rescore>
     Score         DG    S(hbond)    S(metal)    S(lipo)     H(rot)  DE(clash)    DE(int)     intcor
     12.43     -13.37       3.07        0.00      52.75       3.33       0.25       0.69       ----

> <Gold.Chemscore.Fitness>
12.4281

> <Gold.Chemscore.DG>
-13.3678

> <Gold.Chemscore.ZeroCoef>
-5.4800

> <Gold.Chemscore.Hbond>
3.0663

> <Gold.Chemscore.Metal>
0.0000

> <Gold.Chemscore.Lipo>
52.7505

> <Gold.Chemscore.Internal_Hbond>
0.0000

> <Gold.Chemscore.DEClash>
0.2469

> <Gold.Chemscore.DEInternal>
0.6928

> <Gold.Chemscore.Rot>
3.3303

> <Gold.Chemscore.Internal.Correction>
   9.000000E+99

> <Gold.Chemscore.Hbonds>
donor molecule, donor type, donor heavy atom, donor atom, acceptor molecule, acceptor atom, score
      P1  H  6931  6943       L1     4  0.76
      P1  H  6934  6947       L1     4  0.71
      P1  H  7989  7998       L1    18  0.87
      P1  H  7997  8009       L1    24  0.87

> <Gold.Chemscore.Hbond.Weighted>
-10.2416

> <Gold.Chemscore.Metal.Weighted>
-0.0000

> <Gold.Chemscore.Lipo.Weighted>
-6.1718

> <Gold.Chemscore.Internal_Hbond.Weighted>
0.0000

> <Gold.Chemscore.DEClash.Weighted>
0.2469

> <Gold.Chemscore.DEInternal.Weighted>
0.6928

> <Gold.Chemscore.Rot.Weighted>
8.5256

> <Gold.Chemscore.Internal.Correction.Weighted>
   9.000000E+99

> <Gold.Protein.RotatedTorsions>
[ 6907 6896 6895 6894 ] final    2.21 input  -60.11 | X-H torsion
[ 7974 7965 7964 7962 ] final  -22.03 input  175.53 | X-H torsion
[ 8008 7997 7996 7995 ] final  132.59 input   59.86 | X-H torsion
[ 10167 10162 10161 10158 ] final   40.77 input  -65.29 | X-H torsion
[ 10718 10713 10712 10709 ] final   25.37 input   66.30 | X-H torsion
[ 10763 10752 10751 10750 ] final  -23.29 input  -60.55 | X-H torsion
[ 11005 11000 10999 10996 ] final  157.47 input  -57.11 | X-H torsion

> <Gold.Protein.ActiveResidues>
 VAL166  LYS551  ARG553  GLY616  TRP617  ASP618  TYR619  PRO620  LYS621  CYS622 
 ASP623  PHE694  ASN695  SER759  ASP760  ASP761  ALA762  ILE779  LEU786  VAL792 
 PHE793  MET794  SER795  GLU796  ALA797  LYS798  CYS799  TRP800  GLU811  SER814 

> <Gold.Protein.RotatedAtoms>
  151.6052  135.1044  160.0068 H   0  0  0  0  0  0  0  0  0  0  0  0  # atno 6907 bound_to 6896
  152.4237  133.7155  159.6514 H   0  0  0  0  0  0  0  0  0  0  0  0  # atno 6908 bound_to 6896
  150.8125  133.8323  159.3197 H   0  0  0  0  0  0  0  0  0  0  0  0  # atno 6909 bound_to 6896
  146.1699  140.4423  142.8537 H   0  0  0  0  0  0  0  0  0  0  0  0  # atno 7974 bound_to 7965
  156.2984  140.2542  156.3114 H   0  0  0  0  0  0  0  0  0  0  0  0  # atno 8008 bound_to 7997
  154.9322  140.0398  157.2073 H   0  0  0  0  0  0  0  0  0  0  0  0  # atno 8009 bound_to 7997
  154.8207  140.2859  155.5793 H   0  0  0  0  0  0  0  0  0  0  0  0  # atno 8010 bound_to 7997
  140.3709  144.2106  150.6133 H   0  0  0  0  0  0  0  0  0  0  0  0  # atno 10167 bound_to 10162
  157.1925  130.6852  149.6155 H   0  0  0  0  0  0  0  0  0  0  0  0  # atno 10718 bound_to 10713
  153.6655  135.6974  153.5163 H   0  0  0  0  0  0  0  0  0  0  0  0  # atno 10763 bound_to 10752
  153.2598  135.4248  155.0882 H   0  0  0  0  0  0  0  0  0  0  0  0  # atno 10764 bound_to 10752
  154.8440  135.3552  154.6200 H   0  0  0  0  0  0  0  0  0  0  0  0  # atno 10765 bound_to 10752
  140.1773  134.8501  157.2761 H   0  0  0  0  0  0  0  0  0  0  0  0  # atno 11005 bound_to 11000
  144.8147  140.6447  143.6392 LP  0  0  0  0  0  0  0  0  0  0  0  0  # atno 17320 bound_to 7965
  145.4368  139.1541  143.3992 LP  0  0  0  0  0  0  0  0  0  0  0  0  # atno 17321 bound_to 7965
  140.5034  143.2311  151.8644 LP  0  0  0  0  0  0  0  0  0  0  0  0  # atno 17342 bound_to 10162
  139.4804  144.5033  151.9031 LP  0  0  0  0  0  0  0  0  0  0  0  0  # atno 17343 bound_to 10162
  155.9710  130.4610  150.6093 LP  0  0  0  0  0  0  0  0  0  0  0  0  # atno 17370 bound_to 10713
  157.3847  131.0786  151.1446 LP  0  0  0  0  0  0  0  0  0  0  0  0  # atno 17371 bound_to 10713
  140.2308  134.3911  155.7523 LP  0  0  0  0  0  0  0  0  0  0  0  0  # atno 17394 bound_to 11000
  141.2221  133.7214  156.8638 LP  0  0  0  0  0  0  0  0  0  0  0  0  # atno 17395 bound_to 11000

$$$$
