AV-unprocessed.smi:1473|AV-procd|sdf|5966|dock8
  -GOLD-   22720 6 53D 1   1.00000     0.00000
 Structure written by MMmdl.
 34 35  0  0  0  0  0  0  0  0  1 V2000
  147.3990  138.6197  151.7110 N   0  0  0  0  0  0  0  0  0  0  0  0
  147.4109  138.9801  153.3914 S   0  0  0  0  0  0  0  0  0  0  0  0
  146.4501  140.0622  153.6533 O   0  0  0  0  0  0  0  0  0  0  0  0
  147.3764  137.7200  154.1486 O   0  0  0  0  0  0  0  0  0  0  0  0
  148.9993  139.6307  153.5059 N   0  0  0  0  0  0  0  0  0  0  0  0
  149.2686  140.7445  154.4105 C   0  0  0  0  0  0  0  0  0  0  0  0
  150.4213  140.4510  155.3477 C   0  0  0  0  0  0  0  0  0  0  0  0
  151.1541  139.2548  155.2259 C   0  0  0  0  0  0  0  0  0  0  0  0
  152.2054  139.0226  156.1317 C   0  0  0  0  0  0  0  0  0  0  0  0
  152.5450  139.8899  157.1083 N   0  0  0  0  0  0  0  0  0  0  0  0
  151.8488  141.0475  157.2319 C   0  0  0  0  0  0  0  0  0  0  0  0
  152.2180  141.9442  158.2583 N   0  0  0  0  0  0  0  0  0  0  0  0
  151.6578  143.2942  158.2256 C   0  0  0  0  0  0  0  0  0  0  0  0
  152.3891  144.2026  159.2285 C   0  0  0  0  0  0  0  0  0  0  0  0
  152.3406  143.6197  160.5264 O   0  0  0  0  0  0  0  0  0  0  0  0
  152.9892  142.3528  160.5615 C   0  0  0  0  0  0  0  0  0  0  0  0
  152.2836  141.3776  159.6033 C   0  0  0  0  0  0  0  0  0  0  0  0
  150.7716  141.3592  156.3674 C   0  0  0  0  0  0  0  0  0  0  0  0
  147.6222  137.6428  151.5222 H   0  0  0  0  0  0  0  0  0  0  0  0
  147.9575  139.2790  151.1694 H   0  0  0  0  0  0  0  0  0  0  0  0
  149.5230  139.6432  152.6311 H   0  0  0  0  0  0  0  0  0  0  0  0
  149.5146  141.6311  153.8249 H   0  0  0  0  0  0  0  0  0  0  0  0
  148.3631  140.9768  154.9720 H   0  0  0  0  0  0  0  0  0  0  0  0
  150.9152  138.5305  154.4608 H   0  0  0  0  0  0  0  0  0  0  0  0
  152.7884  138.1156  156.0720 H   0  0  0  0  0  0  0  0  0  0  0  0
  151.7472  143.7171  157.2241 H   0  0  0  0  0  0  0  0  0  0  0  0
  150.5954  143.2498  158.4687 H   0  0  0  0  0  0  0  0  0  0  0  0
  153.4259  144.3602  158.9270 H   0  0  0  0  0  0  0  0  0  0  0  0
  151.9149  145.1836  159.2613 H   0  0  0  0  0  0  0  0  0  0  0  0
  154.0419  142.4639  160.2960 H   0  0  0  0  0  0  0  0  0  0  0  0
  152.9580  141.9658  161.5800 H   0  0  0  0  0  0  0  0  0  0  0  0
  151.2687  141.1813  159.9518 H   0  0  0  0  0  0  0  0  0  0  0  0
  152.8123  140.4257  159.6167 H   0  0  0  0  0  0  0  0  0  0  0  0
  150.2054  142.2708  156.4876 H   0  0  0  0  0  0  0  0  0  0  0  0
  1  2  1  0  0  0  0
  1 19  1  0  0  0  0
  1 20  1  0  0  0  0
  2  3  2  0  0  0  0
  2  4  2  0  0  0  0
  2  5  1  0  0  0  0
  5  6  1  0  0  0  0
  5 21  1  0  0  0  0
  6  7  1  0  0  0  0
  6 22  1  0  0  0  0
  6 23  1  0  0  0  0
  7 18  1  0  0  0  0
  7  8  2  0  0  0  0
  8  9  1  0  0  0  0
  8 24  1  0  0  0  0
  9 10  2  0  0  0  0
  9 25  1  0  0  0  0
 10 11  1  0  0  0  0
 11 12  1  0  0  0  0
 11 18  2  0  0  0  0
 12 17  1  0  0  0  0
 12 13  1  0  0  0  0
 13 14  1  0  0  0  0
 13 26  1  0  0  0  0
 13 27  1  0  0  0  0
 14 15  1  0  0  0  0
 14 28  1  0  0  0  0
 14 29  1  0  0  0  0
 15 16  1  0  0  0  0
 16 17  1  0  0  0  0
 16 30  1  0  0  0  0
 16 31  1  0  0  0  0
 17 32  1  0  0  0  0
 17 33  1  0  0  0  0
 18 34  1  0  0  0  0
M  END
> <s_m_source_file>
AV-unprocessed.smi

> <i_m_source_file_index>
1473

> <i_lp_mmshare_version>
43012

> <i_f3d_flags>
0

> <s_epik_input>
W05IMl1TKD1PKSg9TylbTkhdW0NIMl1jMVtjSF1bY0hdbmMoW2NIXTEpTjJbQ0gyXVtDSDJdT1tDSDJdW0NIMl0y

> <s_epik_cmdline>
J2VwaWtfcHl0aG9uJywgJy1waCcsICc3LjAnLCAnLXRuJywgJzgnLCAnLW1hJywgJzIwMCcsICctbWV0YWxfYmluZGluZycsICctaW1hZScsICc8aW5maWxlLm1hZT4nLCAnLW9tYWUnLCAnPG91dGZpbGUubWFlPic=

> <r_lp_tautomer_probability>
1

> <r_epik_Ionization_Penalty>
0.222057

> <r_epik_Ionization_Penalty_Charging>
0

> <r_epik_Ionization_Penalty_Neutral>
0.222057

> <r_epik_State_Penalty>
0.236233

> <r_epik_Charging_Adjusted_Penalty>
0.236233

> <i_epik_Tot_Q>
0

> <i_epik_Tot_abs_Q>
0

> <r_epik_Metal_State_Penalty>
0.788435

> <b_epik_Metal_Only>
0

> <s_lp_Force_Field>
OPLS_2005

> <r_lp_Energy>
17.6675

> <b_lp_Chiralities_Consistent>
1

> <s_lp_Variant>
AV-unprocessed.smi:1473-1

> <Gold.Version>
5.8.1

> <Gold.Id.Protein>
6NUR|6NUR_protein|mol2

> <Gold.PLP.Fitness>
47.2893

> <Gold.PLP.PLP>
-36.4441

> <Gold.PLP.part.hbond>
-4.7604

> <Gold.PLP.part.metal>
0.0000

> <Gold.PLP.part.buried>
-4.9251

> <Gold.PLP.part.nonpolar>
-28.0818

> <Gold.PLP.part.repulsive>
1.0798

> <Gold.PLP.ligand.clash>
0.0000

> <Gold.PLP.ligand.torsion>
0.8103

> <Gold.PLP.Chemscore.Hbond>
3.7113

> <Gold.PLP.Chemscore.CHOScore>
0.0000

> <Gold.PLP.Chemscore.Metal>
0.0000

> <Gold.Chemscore.Hbonds>
donor molecule, donor type, donor heavy atom, donor atom, acceptor molecule, acceptor atom, score
      L1  H     1    19       P1  7948  0.88
      L1  H     1    20       P1  7957  0.85
      L1  H     5    21       P1  7957  0.97
      P1  H  7997  8008       L1    10  1.00

> <Gold.PLP.Chemscore.Internal.Correction>
1.3318

> <Gold.Rescore>
     Score         DG    S(hbond)    S(metal)    S(lipo)     H(rot)  DE(clash)    DE(int)     intcor
     18.12     -19.05       2.69        0.00      80.87       1.90       0.09       0.84       ----

> <Gold.Chemscore.Fitness>
18.1163

> <Gold.Chemscore.DG>
-19.0534

> <Gold.Chemscore.ZeroCoef>
-5.4800

> <Gold.Chemscore.Hbond>
2.6868

> <Gold.Chemscore.Metal>
0.0000

> <Gold.Chemscore.Lipo>
80.8692

> <Gold.Chemscore.Internal_Hbond>
0.0000

> <Gold.Chemscore.DEClash>
0.0934

> <Gold.Chemscore.DEInternal>
0.8436

> <Gold.Chemscore.Rot>
1.8993

> <Gold.Chemscore.Internal.Correction>
   9.000000E+99

> <Gold.Chemscore.Hbonds>
donor molecule, donor type, donor heavy atom, donor atom, acceptor molecule, acceptor atom, score
      L1  H     1    19       P1  7948  0.86
      L1  H     1    20       P1  7957  0.58
      L1  H     5    21       P1  7957  0.87
      P1  H  7997  8008       L1    10  0.30

> <Gold.Chemscore.Hbond.Weighted>
-8.9739

> <Gold.Chemscore.Metal.Weighted>
-0.0000

> <Gold.Chemscore.Lipo.Weighted>
-9.4617

> <Gold.Chemscore.Internal_Hbond.Weighted>
0.0000

> <Gold.Chemscore.DEClash.Weighted>
0.0934

> <Gold.Chemscore.DEInternal.Weighted>
0.8436

> <Gold.Chemscore.Rot.Weighted>
4.8622

> <Gold.Chemscore.Internal.Correction.Weighted>
   9.000000E+99

> <Gold.Protein.RotatedTorsions>
[ 6907 6896 6895 6894 ] final  -44.14 input  -60.11 | X-H torsion
[ 7974 7965 7964 7962 ] final  -41.08 input  175.53 | X-H torsion
[ 8008 7997 7996 7995 ] final  -75.43 input   59.86 | X-H torsion
[ 10167 10162 10161 10158 ] final -164.49 input  -65.29 | X-H torsion
[ 10718 10713 10712 10709 ] final  -32.18 input   66.30 | X-H torsion
[ 10763 10752 10751 10750 ] final -133.24 input  -60.55 | X-H torsion
[ 11005 11000 10999 10996 ] final  167.92 input  -57.11 | X-H torsion

> <Gold.Protein.ActiveResidues>
 VAL166  LYS551  ARG553  GLY616  TRP617  ASP618  TYR619  PRO620  LYS621  CYS622 
 ASP623  PHE694  ASN695  SER759  ASP760  ASP761  ALA762  ILE779  LEU786  VAL792 
 PHE793  MET794  SER795  GLU796  ALA797  LYS798  CYS799  TRP800  GLU811  SER814 

> <Gold.Protein.RotatedAtoms>
  150.9362  134.8774  159.7582 H   0  0  0  0  0  0  0  0  0  0  0  0  # atno 6907 bound_to 6896
  152.5060  134.4008  159.9426 H   0  0  0  0  0  0  0  0  0  0  0  0  # atno 6908 bound_to 6896
  151.4032  133.3711  159.2769 H   0  0  0  0  0  0  0  0  0  0  0  0  # atno 6909 bound_to 6896
  146.0244  140.6810  142.9163 H   0  0  0  0  0  0  0  0  0  0  0  0  # atno 7974 bound_to 7965
  154.5416  140.0744  156.8519 H   0  0  0  0  0  0  0  0  0  0  0  0  # atno 8008 bound_to 7997
  155.3169  140.3393  155.4224 H   0  0  0  0  0  0  0  0  0  0  0  0  # atno 8009 bound_to 7997
  156.1880  140.1675  156.8135 H   0  0  0  0  0  0  0  0  0  0  0  0  # atno 8010 bound_to 7997
  139.6247  144.0556  152.1964 H   0  0  0  0  0  0  0  0  0  0  0  0  # atno 10167 bound_to 10162
  156.3780  130.4351  149.7491 H   0  0  0  0  0  0  0  0  0  0  0  0  # atno 10718 bound_to 10713
  154.8735  135.3772  154.4540 H   0  0  0  0  0  0  0  0  0  0  0  0  # atno 10763 bound_to 10752
  153.5214  135.7029  153.5735 H   0  0  0  0  0  0  0  0  0  0  0  0  # atno 10764 bound_to 10752
  153.3980  135.3955  155.1934 H   0  0  0  0  0  0  0  0  0  0  0  0  # atno 10765 bound_to 10752
  140.2818  134.7744  157.3764 H   0  0  0  0  0  0  0  0  0  0  0  0  # atno 11005 bound_to 11000
  144.7003  140.3623  143.7161 LP  0  0  0  0  0  0  0  0  0  0  0  0  # atno 17320 bound_to 7965
  145.7141  139.1692  143.2522 LP  0  0  0  0  0  0  0  0  0  0  0  0  # atno 17321 bound_to 7965
  140.0206  144.6156  150.7570 LP  0  0  0  0  0  0  0  0  0  0  0  0  # atno 17342 bound_to 10162
  140.7403  143.2803  151.3618 LP  0  0  0  0  0  0  0  0  0  0  0  0  # atno 17343 bound_to 10162
  156.4593  130.7944  151.2964 LP  0  0  0  0  0  0  0  0  0  0  0  0  # atno 17370 bound_to 10713
  157.7490  131.0071  150.3176 LP  0  0  0  0  0  0  0  0  0  0  0  0  # atno 17371 bound_to 10713
  140.1276  134.5137  155.8131 LP  0  0  0  0  0  0  0  0  0  0  0  0  # atno 17394 bound_to 11000
  141.2161  133.6778  156.6981 LP  0  0  0  0  0  0  0  0  0  0  0  0  # atno 17395 bound_to 11000

$$$$
