#       Name:                AV-unprocessed.smi:1695
#       Creating user name   scv26
#       Creation time:       Fri Mar 27 07:55:40 2020


#       File generated by GOLD software.
#

@<TRIPOS>MOLECULE
AV-unprocessed.smi:1695
    56    58     1
SMALL
NO_CHARGES


@<TRIPOS>ATOM
      1 ****        -3.9411   3.6072   2.1962 C.3            1 S1                 0.0000
      2 ****        -3.4799   2.6267   1.1310 C.ar           1 S1                 0.0000
      3 ****        -3.1525   3.1266  -0.1493 C.ar           1 S1                 0.0000
      4 ****        -2.7345   2.2056  -1.1024 C.ar           1 S1                 0.0000
      5 ****        -2.3471   2.3804  -2.4323 N.pl3          1 S1                 1.0000
      6 ****        -2.0172   1.1749  -2.9720 C.2            1 S1                 0.0000
      7 ****        -2.1840   0.2317  -2.0050 N.pl3          1 S1                 0.0000
      8 ****        -1.9700  -1.2209  -2.0728 C.3            1 S1                 0.0000
      9 ****        -0.4901  -1.6184  -1.9030 C.3            1 S1                 0.0000
     10 ****        -0.4011  -3.0188  -2.0691 O.3            1 S1                 0.0000
     11 ****         0.1026  -1.2413  -0.5278 C.3            1 S1                 0.0000
     12 ****         1.5478  -1.5675  -0.4165 N.4            1 S1                 1.0000
     13 ****         2.4246  -0.5899  -1.1145 C.3            1 S1                 0.0000
     14 ****         3.9011  -1.0288  -1.0719 C.3            1 S1                 0.0000
     15 ****         4.4171  -1.3016   0.3568 C.3            1 S1                 0.0000
     16 ****         4.7038  -0.0102   1.1459 C.2            1 S1                 0.0000
     17 ****         5.9618   0.1872   1.5483 N.am           1 S1                 0.0000
     18 ****         3.8122   0.7994   1.3916 O.2            1 S1                 0.0000
     19 ****         3.4317  -2.2401   1.0842 C.3            1 S1                 0.0000
     20 ****         1.9662  -1.7730   0.9939 C.3            1 S1                 0.0000
     21 ****        -2.6363   0.8285  -0.8209 C.ar           1 S1                 0.0000
     22 ****        -2.9563   0.3199   0.4364 C.ar           1 S1                 0.0000
     23 ****        -3.3838   1.2408   1.4195 C.ar           1 S1                 0.0000
     24 ****        -3.7393   0.7138   2.7995 C.3            1 S1                 0.0000
     25 ****        -3.9059   4.6352   1.8346 H              1 S1                 0.0000
     26 ****        -3.3048   3.5447   3.0793 H              1 S1                 0.0000
     27 ****        -4.9682   3.3930   2.4930 H              1 S1                 0.0000
     28 ****        -3.2244   4.1804  -0.3766 H              1 S1                 0.0000
     29 ****        -1.6847   0.9993  -3.9854 H              1 S1                 0.0000
     30 ****        -2.6024  -1.7176  -1.3369 H              1 S1                 0.0000
     31 ****        -2.3304  -1.5461  -3.0498 H              1 S1                 0.0000
     32 ****         0.0817  -1.1520  -2.7045 H              1 S1                 0.0000
     33 ****        -0.9674  -3.4381  -1.4389 H              1 S1                 0.0000
     34 ****        -0.0291  -0.1789  -0.3210 H              1 S1                 0.0000
     35 ****        -0.4583  -1.7712   0.2438 H              1 S1                 0.0000
     36 ****         2.1250  -0.4940  -2.1570 H              1 S1                 0.0000
     37 ****         2.3005   0.3983  -0.6714 H              1 S1                 0.0000
     38 ****         4.0157  -1.9366  -1.6657 H              1 S1                 0.0000
     39 ****         4.5216  -0.2762  -1.5603 H              1 S1                 0.0000
     40 ****         5.3664  -1.8325   0.2655 H              1 S1                 0.0000
     41 ****         6.2037   1.0179   2.0691 H              1 S1                 0.0000
     42 ****         6.6708  -0.4980   1.3295 H              1 S1                 0.0000
     43 ****         3.5105  -3.2376   0.6497 H              1 S1                 0.0000
     44 ****         3.7176  -2.3500   2.1311 H              1 S1                 0.0000
     45 ****         1.8115  -0.8552   1.5615 H              1 S1                 0.0000
     46 ****         1.3307  -2.5304   1.4542 H              1 S1                 0.0000
     47 ****        -2.8825  -0.7330   0.6624 H              1 S1                 0.0000
     48 ****        -3.6588  -0.3727   2.8456 H              1 S1                 0.0000
     49 ****        -4.7632   0.9816   3.0612 H              1 S1                 0.0000
     50 ****        -3.0688   1.1299   3.5518 H              1 S1                 0.0000
     51 ****         1.6722  -2.4578  -0.8778 H              1 S1                 0.0000
     52 ****        -2.3135   3.2566  -2.9381 H              1 S1                 0.0000
     53 ****         0.5426  -3.3151  -1.9219 LP             1 S1                 0.0000
     54 ****        -0.6876  -3.2660  -2.9947 LP             1 S1                 0.0000
     55 ****         2.8788   0.6259   1.0776 LP             1 S1                 0.0000
     56 ****         4.0202   1.6317   1.9056 LP             1 S1                 0.0000
@<TRIPOS>BOND
    1    1    2 1     
    2    1   25 1     
    3    1   26 1     
    4    1   27 1     
    5    2   23 ar    
    6    2    3 ar    
    7    3    4 ar    
    8    3   28 1     
    9    4   21 ar    
   10    4    5 1     
   11    5    6 2     
   12    5   52 1     
   13    6    7 1     
   14    6   29 1     
   15    7    8 1     
   16    7   21 1     
   17    8    9 1     
   18    8   30 1     
   19    8   31 1     
   20    9   10 1     
   21    9   11 1     
   22    9   32 1     
   23   10   33 1     
   24   11   12 1     
   25   11   34 1     
   26   11   35 1     
   27   12   20 1     
   28   12   13 1     
   29   12   51 1     
   30   13   14 1     
   31   13   36 1     
   32   13   37 1     
   33   14   15 1     
   34   14   38 1     
   35   14   39 1     
   36   15   16 1     
   37   15   19 1     
   38   15   40 1     
   39   16   17 am    
   40   16   18 2     
   41   17   41 1     
   42   17   42 1     
   43   19   20 1     
   44   19   43 1     
   45   19   44 1     
   46   20   45 1     
   47   20   46 1     
   48   21   22 ar    
   49   22   23 ar    
   50   22   47 1     
   51   23   24 1     
   52   24   48 1     
   53   24   49 1     
   54   24   50 1     
   55   10   53 1     
   56   10   54 1     
   57   18   55 1     
   58   18   56 1     
@<TRIPOS>SUBSTRUCTURE
      1 S1             1
@<TRIPOS>SET
LONE_PAIRS      STATIC     ATOMS    <user>   **** ""
4 53 54 55 56
DONOR_HYDROGENS      STATIC     ATOMS    <user>   **** ""
5 52 33 51 41 42
ATOM$BLUE        STATIC     ATOMS    COLORGROUP SYSTEM
4 53 54 55 56
ATOM$RED        STATIC     ATOMS    COLORGROUP SYSTEM
5 52 33 51 41 42
