AV-unprocessed.smi:2600|AV-procd|sdf|10181|dock2
  -GOLD-   2272014193D 1   1.00000     0.00000
 Structure written by MMmdl.
 44 45  0  0  0  0  0  0  0  0  1 V2000
  148.8196  141.2382  154.3240 C   0  0  0  0  0  0  0  0  0  0  0  0
  149.0499  140.3347  155.5465 C   0  0  0  0  0  0  0  0  0  0  0  0
  150.5301  140.0827  155.9204 C   0  0  1  0  0  0  0  0  0  0  0  0
  151.1789  141.4432  156.2672 C   0  0  0  0  0  0  0  0  0  0  0  0
  150.6636  139.0700  157.0894 C   0  0  0  0  0  0  0  0  0  0  0  0
  152.0779  138.7150  157.2758 N   0  0  0  0  0  0  0  0  0  0  0  0
  152.8739  139.0475  158.3224 C   0  0  0  0  0  0  0  0  0  0  0  0
  154.0166  138.6108  158.4672 O   0  0  0  0  0  0  0  0  0  0  0  0
  152.3179  139.8993  159.2004 N   0  0  0  0  0  0  0  0  0  0  0  0
  152.9810  140.4420  160.3797 C   0  0  0  0  0  0  0  0  0  0  0  0
  153.5082  141.8634  160.1217 C   0  0  0  0  0  0  0  0  0  0  0  0
  152.4385  142.9078  160.1653 C   0  0  0  0  0  0  0  0  0  0  0  0
  151.8923  143.6442  159.1517 C   0  0  0  0  0  0  0  0  0  0  0  0
  150.9244  144.4605  159.7985 C   0  0  0  0  0  0  0  0  0  0  0  0
  150.8726  144.2498  161.1023 N   0  0  0  0  0  0  0  0  0  0  0  0
  151.8032  143.2989  161.3321 N   0  0  0  0  0  0  0  0  0  0  0  0
  152.0033  142.8273  162.6896 C   0  0  0  0  0  0  0  0  0  0  0  0
  152.5895  138.0680  156.0666 C   0  0  0  0  0  0  0  0  0  0  0  0
  152.4999  139.0742  154.9076 C   0  0  0  0  0  0  0  0  0  0  0  0
  151.1561  139.5363  154.7511 O   0  0  0  0  0  0  0  0  0  0  0  0
  147.7566  141.4436  154.1977 H   0  0  0  0  0  0  0  0  0  0  0  0
  149.1659  140.7725  153.4020 H   0  0  0  0  0  0  0  0  0  0  0  0
  149.3275  142.1968  154.4318 H   0  0  0  0  0  0  0  0  0  0  0  0
  148.5435  140.7899  156.3990 H   0  0  0  0  0  0  0  0  0  0  0  0
  148.5478  139.3813  155.3769 H   0  0  0  0  0  0  0  0  0  0  0  0
  150.6718  141.9125  157.1107 H   0  0  0  0  0  0  0  0  0  0  0  0
  151.1198  142.1319  155.4243 H   0  0  0  0  0  0  0  0  0  0  0  0
  152.2301  141.3566  156.5393 H   0  0  0  0  0  0  0  0  0  0  0  0
  150.1850  139.4703  157.9833 H   0  0  0  0  0  0  0  0  0  0  0  0
  150.1258  138.1482  156.8687 H   0  0  0  0  0  0  0  0  0  0  0  0
  151.3735  140.2096  159.0241 H   0  0  0  0  0  0  0  0  0  0  0  0
  152.2601  140.4568  161.1976 H   0  0  0  0  0  0  0  0  0  0  0  0
  153.7881  139.7774  160.6905 H   0  0  0  0  0  0  0  0  0  0  0  0
  154.2860  142.1122  160.8444 H   0  0  0  0  0  0  0  0  0  0  0  0
  153.9948  141.8932  159.1461 H   0  0  0  0  0  0  0  0  0  0  0  0
  152.1465  143.6041  158.1028 H   0  0  0  0  0  0  0  0  0  0  0  0
  150.2626  145.1941  159.3625 H   0  0  0  0  0  0  0  0  0  0  0  0
  153.0562  142.6042  162.8614 H   0  0  0  0  0  0  0  0  0  0  0  0
  151.4157  141.9237  162.8529 H   0  0  0  0  0  0  0  0  0  0  0  0
  151.6899  143.5876  163.4062 H   0  0  0  0  0  0  0  0  0  0  0  0
  153.6162  137.7159  156.1747 H   0  0  0  0  0  0  0  0  0  0  0  0
  151.9908  137.1833  155.8443 H   0  0  0  0  0  0  0  0  0  0  0  0
  153.1777  139.9125  155.0683 H   0  0  0  0  0  0  0  0  0  0  0  0
  152.8122  138.6001  153.9771 H   0  0  0  0  0  0  0  0  0  0  0  0
  1  2  1  0  0  0  0
  1 21  1  0  0  0  0
  1 22  1  0  0  0  0
  1 23  1  0  0  0  0
  2  3  1  0  0  0  0
  2 24  1  0  0  0  0
  2 25  1  0  0  0  0
  3 20  1  0  0  0  0
  3  4  1  0  0  0  0
  3  5  1  0  0  0  0
  4 26  1  0  0  0  0
  4 27  1  0  0  0  0
  4 28  1  0  0  0  0
  5  6  1  0  0  0  0
  5 29  1  0  0  0  0
  5 30  1  0  0  0  0
  6  7  1  0  0  0  0
  6 18  1  0  0  0  0
  7  8  2  0  0  0  0
  7  9  1  0  0  0  0
  9 10  1  0  0  0  0
  9 31  1  0  0  0  0
 10 11  1  0  0  0  0
 10 32  1  0  0  0  0
 10 33  1  0  0  0  0
 11 12  1  0  0  0  0
 11 34  1  0  0  0  0
 11 35  1  0  0  0  0
 12 16  1  0  0  0  0
 12 13  2  0  0  0  0
 13 14  1  0  0  0  0
 13 36  1  0  0  0  0
 14 15  2  0  0  0  0
 14 37  1  0  0  0  0
 15 16  1  0  0  0  0
 16 17  1  0  0  0  0
 17 38  1  0  0  0  0
 17 39  1  0  0  0  0
 17 40  1  0  0  0  0
 18 19  1  0  0  0  0
 18 41  1  0  0  0  0
 18 42  1  0  0  0  0
 19 20  1  0  0  0  0
 19 43  1  0  0  0  0
 19 44  1  0  0  0  0
M  END
> <s_m_source_file>
AV-unprocessed.smi

> <i_m_source_file_index>
2600

> <i_lp_mmshare_version>
43012

> <i_f3d_flags>
0

> <s_epik_input>
W0NIM11bQ0gyXVtDQEBdMShbQ0gzXSlbQ0gyXU4oW0NIMl1bQ0gyXU8xKUMoPU8pW05IXVtDSDJdW0NIMl1jMltjSF1bY0hdbm4yW0NIM10=

> <s_epik_cmdline>
J2VwaWtfcHl0aG9uJywgJy1waCcsICc3LjAnLCAnLXRuJywgJzgnLCAnLW1hJywgJzIwMCcsICctbWV0YWxfYmluZGluZycsICctaW1hZScsICc8aW5maWxlLm1hZT4nLCAnLW9tYWUnLCAnPG91dGZpbGUubWFlPic=

> <r_lp_tautomer_probability>
1

> <r_epik_Ionization_Penalty>
0.00252014

> <r_epik_Ionization_Penalty_Charging>
0

> <r_epik_Ionization_Penalty_Neutral>
0.00252014

> <r_epik_State_Penalty>
0.00172506

> <r_epik_Charging_Adjusted_Penalty>
0.00172506

> <i_epik_Tot_Q>
0

> <i_epik_Tot_abs_Q>
0

> <r_epik_Metal_State_Penalty>
-0

> <b_epik_Metal_Only>
0

> <s_lp_Force_Field>
OPLS_2005

> <r_lp_Energy>
28.913

> <b_lp_Chiralities_Consistent>
1

> <s_lp_Variant>
AV-unprocessed.smi:2600-1

> <Gold.Version>
5.8.1

> <Gold.Id.Protein>
6NUR|6NUR_protein|mol2

> <Gold.PLP.Fitness>
48.3869

> <Gold.PLP.PLP>
-44.3397

> <Gold.PLP.part.hbond>
-2.0000

> <Gold.PLP.part.metal>
0.0000

> <Gold.PLP.part.buried>
-5.0934

> <Gold.PLP.part.nonpolar>
-36.3741

> <Gold.PLP.part.repulsive>
0.3533

> <Gold.PLP.ligand.clash>
0.0000

> <Gold.PLP.ligand.torsion>
0.3931

> <Gold.PLP.Chemscore.Hbond>
1.5852

> <Gold.PLP.Chemscore.CHOScore>
0.0000

> <Gold.PLP.Chemscore.Metal>
0.0000

> <Gold.Chemscore.Hbonds>
donor molecule, donor type, donor heavy atom, donor atom, acceptor molecule, acceptor atom, score
      P1  H  7989  7998       L1    20  0.65
      P1  H  7997  8009       L1     8  0.68

> <Gold.PLP.Chemscore.Internal.Correction>
0.0778

> <Gold.Rescore>
     Score         DG    S(hbond)    S(metal)    S(lipo)     H(rot)  DE(clash)    DE(int)     intcor
     15.98     -16.33       0.81        0.00     101.76       1.47       0.18       0.17       ----

> <Gold.Chemscore.Fitness>
15.9754

> <Gold.Chemscore.DG>
-16.3282

> <Gold.Chemscore.ZeroCoef>
-5.4800

> <Gold.Chemscore.Hbond>
0.8126

> <Gold.Chemscore.Metal>
0.0000

> <Gold.Chemscore.Lipo>
101.7627

> <Gold.Chemscore.Internal_Hbond>
0.0000

> <Gold.Chemscore.DEClash>
0.1843

> <Gold.Chemscore.DEInternal>
0.1685

> <Gold.Chemscore.Rot>
1.4735

> <Gold.Chemscore.Internal.Correction>
   9.000000E+99

> <Gold.Chemscore.Hbonds>
donor molecule, donor type, donor heavy atom, donor atom, acceptor molecule, acceptor atom, score
      P1  H  7989  7998       L1    20  0.05
      P1  H  7997  8009       L1     8  0.23

> <Gold.Chemscore.Hbond.Weighted>
-2.7141

> <Gold.Chemscore.Metal.Weighted>
-0.0000

> <Gold.Chemscore.Lipo.Weighted>
-11.9062

> <Gold.Chemscore.Internal_Hbond.Weighted>
0.0000

> <Gold.Chemscore.DEClash.Weighted>
0.1843

> <Gold.Chemscore.DEInternal.Weighted>
0.1685

> <Gold.Chemscore.Rot.Weighted>
3.7721

> <Gold.Chemscore.Internal.Correction.Weighted>
   9.000000E+99

> <Gold.Protein.RotatedTorsions>
[ 6907 6896 6895 6894 ] final  132.90 input  -60.11 | X-H torsion
[ 7974 7965 7964 7962 ] final   37.97 input  175.53 | X-H torsion
[ 8008 7997 7996 7995 ] final  114.52 input   59.86 | X-H torsion
[ 10167 10162 10161 10158 ] final   52.72 input  -65.29 | X-H torsion
[ 10718 10713 10712 10709 ] final -134.28 input   66.30 | X-H torsion
[ 10763 10752 10751 10750 ] final    1.11 input  -60.55 | X-H torsion
[ 11005 11000 10999 10996 ] final  -87.51 input  -57.11 | X-H torsion

> <Gold.Protein.ActiveResidues>
 VAL166  LYS551  ARG553  GLY616  TRP617  ASP618  TYR619  PRO620  LYS621  CYS622 
 ASP623  PHE694  ASN695  SER759  ASP760  ASP761  ALA762  ILE779  LEU786  VAL792 
 PHE793  MET794  SER795  GLU796  ALA797  LYS798  CYS799  TRP800  GLU811  SER814 

> <Gold.Protein.RotatedAtoms>
  152.3275  133.5922  159.5786 H   0  0  0  0  0  0  0  0  0  0  0  0  # atno 6907 bound_to 6896
  150.7405  133.9917  159.3618 H   0  0  0  0  0  0  0  0  0  0  0  0  # atno 6908 bound_to 6896
  151.7796  135.0766  160.0423 H   0  0  0  0  0  0  0  0  0  0  0  0  # atno 6909 bound_to 6896
  146.1097  139.5829  142.9360 H   0  0  0  0  0  0  0  0  0  0  0  0  # atno 7974 bound_to 7965
  156.2326  140.2957  156.0228 H   0  0  0  0  0  0  0  0  0  0  0  0  # atno 8008 bound_to 7997
  155.2182  140.0415  157.2961 H   0  0  0  0  0  0  0  0  0  0  0  0  # atno 8009 bound_to 7997
  154.6022  140.2430  155.7785 H   0  0  0  0  0  0  0  0  0  0  0  0  # atno 8010 bound_to 7997
  140.2484  144.3506  150.6356 H   0  0  0  0  0  0  0  0  0  0  0  0  # atno 10167 bound_to 10162
  156.2538  130.7169  151.1078 H   0  0  0  0  0  0  0  0  0  0  0  0  # atno 10718 bound_to 10713
  153.3121  135.6963  153.7106 H   0  0  0  0  0  0  0  0  0  0  0  0  # atno 10763 bound_to 10752
  153.5979  135.3467  155.2935 H   0  0  0  0  0  0  0  0  0  0  0  0  # atno 10764 bound_to 10752
  154.8577  135.4333  154.2262 H   0  0  0  0  0  0  0  0  0  0  0  0  # atno 10765 bound_to 10752
  141.1616  133.7515  156.9317 H   0  0  0  0  0  0  0  0  0  0  0  0  # atno 11005 bound_to 11000
  145.5688  141.0396  143.2185 LP  0  0  0  0  0  0  0  0  0  0  0  0  # atno 17320 bound_to 7965
  144.7501  139.7216  143.7276 LP  0  0  0  0  0  0  0  0  0  0  0  0  # atno 17321 bound_to 7965
  140.6059  143.2168  151.6981 LP  0  0  0  0  0  0  0  0  0  0  0  0  # atno 17342 bound_to 10162
  139.5054  144.3719  152.0462 LP  0  0  0  0  0  0  0  0  0  0  0  0  # atno 17343 bound_to 10162
  157.7224  131.0672  150.6077 LP  0  0  0  0  0  0  0  0  0  0  0  0  # atno 17370 bound_to 10713
  156.6159  130.4392  149.5841 LP  0  0  0  0  0  0  0  0  0  0  0  0  # atno 17371 bound_to 10713
  140.1382  134.9311  157.2431 LP  0  0  0  0  0  0  0  0  0  0  0  0  # atno 17394 bound_to 11000
  140.2869  134.3285  155.7326 LP  0  0  0  0  0  0  0  0  0  0  0  0  # atno 17395 bound_to 11000

$$$$
