AV-unprocessed.smi:193|AV-procd|sdf|1518|dock5
  -GOLD-   2262019353D 1   1.00000     0.00000
 Structure written by MMmdl.
 61 65  0  0  0  0  0  0  0  0  1 V2000
  146.5038  135.9812  155.8428 C   0  0  0  0  0  0  0  0  0  0  0  0
  147.9032  135.4190  155.5475 C   0  0  2  0  0  0  0  0  0  0  0  0
  148.8207  136.5586  155.0536 C   0  0  0  0  0  0  0  0  0  0  0  0
  150.2529  136.2710  155.1608 N   0  0  0  0  0  0  0  0  0  0  0  0
  151.0563  137.2590  155.6386 C   0  0  0  0  0  0  0  0  0  0  0  0
  152.3641  136.9859  155.8930 N   0  0  0  0  0  0  0  0  0  0  0  0
  153.1735  137.9317  156.3772 C   0  0  0  0  0  0  0  0  0  0  0  0
  152.8898  139.2011  156.6719 N   0  0  0  0  0  0  0  0  0  0  0  0
  151.5837  139.4897  156.4092 C   0  0  0  0  0  0  0  0  0  0  0  0
  150.6068  138.5875  155.8983 C   0  0  0  0  0  0  0  0  0  0  0  0
  149.3905  139.2467  155.7562 N   0  0  0  0  0  0  0  0  0  0  0  0
  149.6314  140.4603  156.1691 C   0  0  0  0  0  0  0  0  0  0  0  0
  150.9270  140.6983  156.5680 N   0  0  0  0  0  0  0  0  0  0  0  0
  151.4677  141.9558  157.0640 C   0  0  0  0  0  0  0  0  0  0  0  0
  151.4068  142.1082  158.6088 C   0  0  0  0  0  0  0  0  0  0  0  0
  150.0416  142.1444  158.9820 O   0  0  0  0  0  0  0  0  0  0  0  0
  152.0450  140.9033  159.3283 C   0  0  0  0  0  0  0  0  0  0  0  0
  153.5821  140.9468  159.2552 C   0  0  0  0  0  0  0  0  0  0  0  0
  154.0620  142.1769  159.7875 O   0  0  0  0  0  0  0  0  0  0  0  0
  153.6025  143.3143  159.0659 C   0  0  0  0  0  0  0  0  0  0  0  0
  152.0676  143.3975  159.1418 C   0  0  0  0  0  0  0  0  0  0  0  0
  150.7554  134.8972  155.1483 C   0  0  0  0  0  0  0  0  0  0  0  0
  150.1382  134.0450  154.0301 C   0  0  0  0  0  0  0  0  0  0  0  0
  148.9338  133.3693  154.5038 N   0  0  0  0  0  0  0  0  0  0  0  0
  148.6275  132.2799  153.5885 C   0  0  1  0  0  0  0  0  0  0  0  0
  149.3717  130.9775  153.7792 C   0  0  0  0  0  0  0  0  0  0  0  0
  147.9105  131.0711  154.1517 C   0  0  2  0  0  0  0  0  0  0  0  0
  146.8605  130.3488  153.3357 C   0  0  0  0  0  0  0  0  0  0  0  0
  147.7876  134.2772  154.5130 C   0  0  0  0  0  0  0  0  0  0  0  0
  146.0453  136.3952  154.9441 H   0  0  0  0  0  0  0  0  0  0  0  0
  146.5460  136.7736  156.5907 H   0  0  0  0  0  0  0  0  0  0  0  0
  145.8403  135.2069  156.2291 H   0  0  0  0  0  0  0  0  0  0  0  0
  148.2837  135.0235  156.4908 H   0  0  0  0  0  0  0  0  0  0  0  0
  148.5842  136.8168  154.0209 H   0  0  0  0  0  0  0  0  0  0  0  0
  148.5978  137.4452  155.6486 H   0  0  0  0  0  0  0  0  0  0  0  0
  154.1945  137.6272  156.5548 H   0  0  0  0  0  0  0  0  0  0  0  0
  148.8666  141.2233  156.1871 H   0  0  0  0  0  0  0  0  0  0  0  0
  152.5011  142.0327  156.7226 H   0  0  0  0  0  0  0  0  0  0  0  0
  150.9332  142.7683  156.5725 H   0  0  0  0  0  0  0  0  0  0  0  0
  149.9907  142.2981  159.9128 H   0  0  0  0  0  0  0  0  0  0  0  0
  151.7543  140.9086  160.3801 H   0  0  0  0  0  0  0  0  0  0  0  0
  151.6730  139.9653  158.9142 H   0  0  0  0  0  0  0  0  0  0  0  0
  154.0040  140.1281  159.8384 H   0  0  0  0  0  0  0  0  0  0  0  0
  153.9364  140.8166  158.2321 H   0  0  0  0  0  0  0  0  0  0  0  0
  154.0453  144.2089  159.5041 H   0  0  0  0  0  0  0  0  0  0  0  0
  153.9496  143.2657  158.0337 H   0  0  0  0  0  0  0  0  0  0  0  0
  151.7072  144.2795  158.6127 H   0  0  0  0  0  0  0  0  0  0  0  0
  151.7891  143.5430  160.1866 H   0  0  0  0  0  0  0  0  0  0  0  0
  151.8314  134.9255  154.9712 H   0  0  0  0  0  0  0  0  0  0  0  0
  150.6181  134.4322  156.1255 H   0  0  0  0  0  0  0  0  0  0  0  0
  149.9591  134.6192  153.1193 H   0  0  0  0  0  0  0  0  0  0  0  0
  150.8713  133.2793  153.7721 H   0  0  0  0  0  0  0  0  0  0  0  0
  148.3865  132.5257  152.5553 H   0  0  0  0  0  0  0  0  0  0  0  0
  149.6335  130.4167  152.8843 H   0  0  0  0  0  0  0  0  0  0  0  0
  150.0931  130.9169  154.5922 H   0  0  0  0  0  0  0  0  0  0  0  0
  147.6942  131.0908  155.2184 H   0  0  0  0  0  0  0  0  0  0  0  0
  147.1211  130.3534  152.2767 H   0  0  0  0  0  0  0  0  0  0  0  0
  145.8928  130.8359  153.4572 H   0  0  0  0  0  0  0  0  0  0  0  0
  146.7743  129.3142  153.6681 H   0  0  0  0  0  0  0  0  0  0  0  0
  146.9075  133.6815  154.7598 H   0  0  0  0  0  0  0  0  0  0  0  0
  147.6106  134.6814  153.5148 H   0  0  0  0  0  0  0  0  0  0  0  0
  1  2  1  0  0  0  0
  1 30  1  0  0  0  0
  1 31  1  0  0  0  0
  1 32  1  0  0  0  0
  2 29  1  0  0  0  0
  2  3  1  0  0  0  0
  2 33  1  0  0  0  0
  3  4  1  0  0  0  0
  3 34  1  0  0  0  0
  3 35  1  0  0  0  0
  4  5  1  0  0  0  0
  4 22  1  0  0  0  0
  5 10  1  0  0  0  0
  5  6  2  0  0  0  0
  6  7  1  0  0  0  0
  7  8  2  0  0  0  0
  7 36  1  0  0  0  0
  8  9  1  0  0  0  0
  9 13  1  0  0  0  0
  9 10  2  0  0  0  0
 10 11  1  0  0  0  0
 11 12  2  0  0  0  0
 12 13  1  0  0  0  0
 12 37  1  0  0  0  0
 13 14  1  0  0  0  0
 14 15  1  0  0  0  0
 14 38  1  0  0  0  0
 14 39  1  0  0  0  0
 15 21  1  0  0  0  0
 15 16  1  0  0  0  0
 15 17  1  0  0  0  0
 16 40  1  0  0  0  0
 17 18  1  0  0  0  0
 17 41  1  0  0  0  0
 17 42  1  0  0  0  0
 18 19  1  0  0  0  0
 18 43  1  0  0  0  0
 18 44  1  0  0  0  0
 19 20  1  0  0  0  0
 20 21  1  0  0  0  0
 20 45  1  0  0  0  0
 20 46  1  0  0  0  0
 21 47  1  0  0  0  0
 21 48  1  0  0  0  0
 22 23  1  0  0  0  0
 22 49  1  0  0  0  0
 22 50  1  0  0  0  0
 23 24  1  0  0  0  0
 23 51  1  0  0  0  0
 23 52  1  0  0  0  0
 24 25  1  0  0  0  0
 24 29  1  0  0  0  0
 25 27  1  0  0  0  0
 25 26  1  0  0  0  0
 25 53  1  0  0  0  0
 26 27  1  0  0  0  0
 26 54  1  0  0  0  0
 26 55  1  0  0  0  0
 27 28  1  0  0  0  0
 27 56  1  0  0  0  0
 28 57  1  0  0  0  0
 28 58  1  0  0  0  0
 28 59  1  0  0  0  0
 29 60  1  0  0  0  0
 29 61  1  0  0  0  0
M  END
> <s_m_source_file>
AV-unprocessed.smi

> <i_m_source_file_index>
193

> <i_lp_mmshare_version>
43012

> <i_f3d_flags>
0

> <s_epik_input>
W0NIM11bQ0BASF0xW0NIMl1bQ0BIXTFOKFtDSDJdMilbQ0gyXVtDSDJdTihbQ0gyXVtDQEhdMltDSDNdKWMobltjSF1uMyljKGMzNCluW2NIXW40W0NIMl1DNShbT0hdKVtDSDJdW0NIMl1PW0NIMl1bQ0gyXTU=

> <s_epik_cmdline>
J2VwaWtfcHl0aG9uJywgJy1waCcsICc3LjAnLCAnLXRuJywgJzgnLCAnLW1hJywgJzIwMCcsICctbWV0YWxfYmluZGluZycsICctaW1hZScsICc8aW5maWxlLm1hZT4nLCAnLW9tYWUnLCAnPG91dGZpbGUubWFlPic=

> <r_lp_tautomer_probability>
1

> <r_epik_Ionization_Penalty>
1.45227

> <r_epik_Ionization_Penalty_Charging>
0

> <r_epik_Ionization_Penalty_Neutral>
1.45227

> <r_epik_State_Penalty>
2.02377

> <r_epik_Charging_Adjusted_Penalty>
2.02377

> <i_epik_Tot_Q>
0

> <i_epik_Tot_abs_Q>
0

> <r_epik_Metal_State_Penalty>
2.01937

> <b_epik_Metal_Only>
0

> <s_lp_Force_Field>
OPLS_2005

> <r_lp_Energy>
49.0818

> <b_lp_Chiralities_Consistent>
1

> <s_lp_Variant>
AV-unprocessed.smi:193-23

> <Gold.Version>
5.8.1

> <Gold.Id.Protein>
6NUR|6NUR_protein|mol2

> <Gold.PLP.Fitness>
43.7163

> <Gold.PLP.PLP>
-38.5865

> <Gold.PLP.part.hbond>
-2.9978

> <Gold.PLP.part.metal>
0.0000

> <Gold.PLP.part.buried>
-6.4108

> <Gold.PLP.part.nonpolar>
-29.2455

> <Gold.PLP.part.repulsive>
0.1094

> <Gold.PLP.ligand.clash>
0.0000

> <Gold.PLP.ligand.torsion>
1.0155

> <Gold.PLP.Chemscore.Hbond>
1.9672

> <Gold.PLP.Chemscore.CHOScore>
0.0000

> <Gold.PLP.Chemscore.Metal>
0.0000

> <Gold.Chemscore.Hbonds>
donor molecule, donor type, donor heavy atom, donor atom, acceptor molecule, acceptor atom, score
      P1  H  7997  8008       L1     8  0.96
      P1  H 10752 10765       L1     6  0.90

> <Gold.PLP.Chemscore.Internal.Correction>
1.2593

> <Gold.Rescore>
     Score         DG    S(hbond)    S(metal)    S(lipo)     H(rot)  DE(clash)    DE(int)     intcor
     14.43     -17.80       1.59        0.00     101.75       1.91       1.06       2.31       ----

> <Gold.Chemscore.Fitness>
14.4306

> <Gold.Chemscore.DG>
-17.7997

> <Gold.Chemscore.ZeroCoef>
-5.4800

> <Gold.Chemscore.Hbond>
1.5858

> <Gold.Chemscore.Metal>
0.0000

> <Gold.Chemscore.Lipo>
101.7480

> <Gold.Chemscore.Internal_Hbond>
0.0000

> <Gold.Chemscore.DEClash>
1.0599

> <Gold.Chemscore.DEInternal>
2.3092

> <Gold.Chemscore.Rot>
1.9068

> <Gold.Chemscore.Internal.Correction>
   9.000000E+99

> <Gold.Chemscore.Hbonds>
donor molecule, donor type, donor heavy atom, donor atom, acceptor molecule, acceptor atom, score
      P1  H  7997  8008       L1     8  0.51
      P1  H 10752 10765       L1     6  0.80

> <Gold.Chemscore.Hbond.Weighted>
-5.2966

> <Gold.Chemscore.Metal.Weighted>
-0.0000

> <Gold.Chemscore.Lipo.Weighted>
-11.9045

> <Gold.Chemscore.Internal_Hbond.Weighted>
0.0000

> <Gold.Chemscore.DEClash.Weighted>
1.0599

> <Gold.Chemscore.DEInternal.Weighted>
2.3092

> <Gold.Chemscore.Rot.Weighted>
4.8814

> <Gold.Chemscore.Internal.Correction.Weighted>
   9.000000E+99

> <Gold.Protein.RotatedTorsions>
[ 6907 6896 6895 6894 ] final  -94.05 input  -60.11 | X-H torsion
[ 7974 7965 7964 7962 ] final -113.55 input  175.53 | X-H torsion
[ 8008 7997 7996 7995 ] final  -76.38 input   59.86 | X-H torsion
[ 10167 10162 10161 10158 ] final  137.55 input  -65.29 | X-H torsion
[ 10718 10713 10712 10709 ] final   31.59 input   66.30 | X-H torsion
[ 10763 10752 10751 10750 ] final -150.10 input  -60.55 | X-H torsion
[ 11005 11000 10999 10996 ] final  -50.42 input  -57.11 | X-H torsion

> <Gold.Protein.ActiveResidues>
 VAL166  LYS551  ARG553  GLY616  TRP617  ASP618  TYR619  PRO620  LYS621  CYS622 
 ASP623  PHE694  ASN695  SER759  ASP760  ASP761  ALA762  ILE779  LEU786  VAL792 
 PHE793  MET794  SER795  GLU796  ALA797  LYS798  CYS799  TRP800  GLU811  SER814 

> <Gold.Protein.RotatedAtoms>
  150.6934  134.1873  159.4271 H   0  0  0  0  0  0  0  0  0  0  0  0  # atno 6907 bound_to 6896
  151.9845  135.0009  160.0568 H   0  0  0  0  0  0  0  0  0  0  0  0  # atno 6908 bound_to 6896
  152.1724  133.4618  159.4953 H   0  0  0  0  0  0  0  0  0  0  0  0  # atno 6909 bound_to 6896
  145.1306  140.8722  143.3760 H   0  0  0  0  0  0  0  0  0  0  0  0  # atno 7974 bound_to 7965
  154.5500  140.0728  156.8652 H   0  0  0  0  0  0  0  0  0  0  0  0  # atno 8008 bound_to 7997
  155.3012  140.3384  155.4229 H   0  0  0  0  0  0  0  0  0  0  0  0  # atno 8009 bound_to 7997
  156.1953  140.1701  156.7997 H   0  0  0  0  0  0  0  0  0  0  0  0  # atno 8010 bound_to 7997
  139.5141  144.6404  151.5585 H   0  0  0  0  0  0  0  0  0  0  0  0  # atno 10167 bound_to 10162
  157.2745  130.7224  149.6522 H   0  0  0  0  0  0  0  0  0  0  0  0  # atno 10718 bound_to 10713
  154.8138  135.3292  154.7231 H   0  0  0  0  0  0  0  0  0  0  0  0  # atno 10763 bound_to 10752
  153.7875  135.6913  153.4881 H   0  0  0  0  0  0  0  0  0  0  0  0  # atno 10764 bound_to 10752
  153.1938  135.4541  155.0130 H   0  0  0  0  0  0  0  0  0  0  0  0  # atno 10765 bound_to 10752
  141.0815  133.6652  156.3729 H   0  0  0  0  0  0  0  0  0  0  0  0  # atno 11005 bound_to 11000
  145.0639  139.3084  143.5866 LP  0  0  0  0  0  0  0  0  0  0  0  0  # atno 17320 bound_to 7965
  146.3514  140.0090  142.8669 LP  0  0  0  0  0  0  0  0  0  0  0  0  # atno 17321 bound_to 7965
  140.6168  143.9333  150.6495 LP  0  0  0  0  0  0  0  0  0  0  0  0  # atno 17342 bound_to 10162
  140.2594  143.3535  152.1336 LP  0  0  0  0  0  0  0  0  0  0  0  0  # atno 17343 bound_to 10162
  155.9663  130.4357  150.5104 LP  0  0  0  0  0  0  0  0  0  0  0  0  # atno 17370 bound_to 10713
  157.3035  131.0650  151.2051 LP  0  0  0  0  0  0  0  0  0  0  0  0  # atno 17371 bound_to 10713
  140.5458  134.6076  157.5393 LP  0  0  0  0  0  0  0  0  0  0  0  0  # atno 17394 bound_to 11000
  139.9629  134.7422  156.0198 LP  0  0  0  0  0  0  0  0  0  0  0  0  # atno 17395 bound_to 11000

$$$$
