AV-unprocessed.smi:437|AV-procd|sdf|2559|dock7
  -GOLD-   2262022523D 1   1.00000     0.00000
 Structure written by MMmdl.
 48 49  0  0  0  0  0  0  0  0  1 V2000
  148.1160  136.1955  154.9978 C   0  0  0  0  0  0  0  0  0  0  0  0
  149.1402  137.2979  154.9675 C   0  0  0  0  0  0  0  0  0  0  0  0
  148.6904  138.5088  155.0104 N   0  0  0  0  0  0  0  0  0  0  0  0
  149.5436  139.5948  154.9817 N   0  0  0  0  0  0  0  0  0  0  0  0
  148.8585  140.8953  155.0214 C   0  0  0  0  0  0  0  0  0  0  0  0
  148.8660  141.5399  156.4163 C   0  0  0  0  0  0  0  0  0  0  0  0
  147.8104  141.6809  157.0396 O   0  0  0  0  0  0  0  0  0  0  0  0
  150.0833  141.9052  156.8669 N   0  0  0  0  0  0  0  0  0  0  0  0
  150.3832  142.4853  158.0450 C   0  0  0  0  0  0  0  0  0  0  0  0
  149.6182  142.6023  159.0049 O   0  0  0  0  0  0  0  0  0  0  0  0
  151.6485  142.9301  158.0520 N   0  0  0  0  0  0  0  0  0  0  0  0
  152.4371  143.2268  159.2465 C   0  0  2  0  0  0  0  0  0  0  0  0
  152.9376  141.9106  159.8775 C   0  0  0  0  0  0  0  0  0  0  0  0
  153.7180  142.1643  161.1753 C   0  0  0  0  0  0  0  0  0  0  0  0
  152.8746  142.9650  162.1763 C   0  0  0  0  0  0  0  0  0  0  0  0
  152.3909  144.2850  161.5574 C   0  0  0  0  0  0  0  0  0  0  0  0
  151.5994  144.0533  160.2543 C   0  0  1  0  0  0  0  0  0  0  0  0
  151.1238  145.3937  159.6651 C   0  0  0  0  0  0  0  0  0  0  0  0
  150.9039  139.5126  154.9205 C   0  0  0  0  0  0  0  0  0  0  0  0
  151.6274  140.5097  154.9053 O   0  0  0  0  0  0  0  0  0  0  0  0
  151.4067  138.1379  154.8716 C   0  0  0  0  0  0  0  0  0  0  0  0
  152.8258  138.0068  154.7960 C   0  0  0  0  0  0  0  0  0  0  0  0
  153.9784  137.9059  154.7540 N   0  0  0  0  0  0  0  0  0  0  0  0
  150.5788  137.0634  154.8946 C   0  0  0  0  0  0  0  0  0  0  0  0
  151.0511  135.6168  154.8459 C   0  0  0  0  0  0  0  0  0  0  0  0
  148.2288  135.5884  155.8961 H   0  0  0  0  0  0  0  0  0  0  0  0
  148.2227  135.5428  154.1310 H   0  0  0  0  0  0  0  0  0  0  0  0
  147.0972  136.5863  154.9902 H   0  0  0  0  0  0  0  0  0  0  0  0
  149.3310  141.5908  154.3254 H   0  0  0  0  0  0  0  0  0  0  0  0
  147.8295  140.7884  154.6726 H   0  0  0  0  0  0  0  0  0  0  0  0
  150.8597  141.7186  156.2500 H   0  0  0  0  0  0  0  0  0  0  0  0
  152.1100  143.0626  157.1642 H   0  0  0  0  0  0  0  0  0  0  0  0
  153.3053  143.8259  158.9641 H   0  0  0  0  0  0  0  0  0  0  0  0
  152.0903  141.2567  160.0895 H   0  0  0  0  0  0  0  0  0  0  0  0
  153.5719  141.3730  159.1714 H   0  0  0  0  0  0  0  0  0  0  0  0
  154.0213  141.2155  161.6188 H   0  0  0  0  0  0  0  0  0  0  0  0
  154.6359  142.7089  160.9500 H   0  0  0  0  0  0  0  0  0  0  0  0
  152.0159  142.3706  162.4909 H   0  0  0  0  0  0  0  0  0  0  0  0
  153.4576  143.1675  163.0754 H   0  0  0  0  0  0  0  0  0  0  0  0
  151.7715  144.8176  162.2798 H   0  0  0  0  0  0  0  0  0  0  0  0
  153.2501  144.9269  161.3573 H   0  0  0  0  0  0  0  0  0  0  0  0
  150.7097  143.4751  160.5096 H   0  0  0  0  0  0  0  0  0  0  0  0
  151.9681  146.0115  159.3576 H   0  0  0  0  0  0  0  0  0  0  0  0
  150.5475  145.9603  160.3970 H   0  0  0  0  0  0  0  0  0  0  0  0
  150.4839  145.2483  158.7947 H   0  0  0  0  0  0  0  0  0  0  0  0
  152.1367  135.5354  154.8885 H   0  0  0  0  0  0  0  0  0  0  0  0
  150.7199  135.1399  153.9229 H   0  0  0  0  0  0  0  0  0  0  0  0
  150.6511  135.0514  155.6880 H   0  0  0  0  0  0  0  0  0  0  0  0
  1  2  1  0  0  0  0
  1 26  1  0  0  0  0
  1 27  1  0  0  0  0
  1 28  1  0  0  0  0
  2 24  1  0  0  0  0
  2  3  2  0  0  0  0
  3  4  1  0  0  0  0
  4  5  1  0  0  0  0
  4 19  1  0  0  0  0
  5  6  1  0  0  0  0
  5 29  1  0  0  0  0
  5 30  1  0  0  0  0
  6  7  2  0  0  0  0
  6  8  1  0  0  0  0
  8  9  1  0  0  0  0
  8 31  1  0  0  0  0
  9 10  2  0  0  0  0
  9 11  1  0  0  0  0
 11 12  1  0  0  0  0
 11 32  1  0  0  0  0
 12 17  1  0  0  0  0
 12 13  1  0  0  0  0
 12 33  1  0  0  0  0
 13 14  1  0  0  0  0
 13 34  1  0  0  0  0
 13 35  1  0  0  0  0
 14 15  1  0  0  0  0
 14 36  1  0  0  0  0
 14 37  1  0  0  0  0
 15 16  1  0  0  0  0
 15 38  1  0  0  0  0
 15 39  1  0  0  0  0
 16 17  1  0  0  0  0
 16 40  1  0  0  0  0
 16 41  1  0  0  0  0
 17 18  1  0  0  0  0
 17 42  1  0  0  0  0
 18 43  1  0  0  0  0
 18 44  1  0  0  0  0
 18 45  1  0  0  0  0
 19 20  2  0  0  0  0
 19 21  1  0  0  0  0
 21 22  1  0  0  0  0
 21 24  2  0  0  0  0
 22 23  3  0  0  0  0
 24 25  1  0  0  0  0
 25 46  1  0  0  0  0
 25 47  1  0  0  0  0
 25 48  1  0  0  0  0
M  END
> <s_m_source_file>
AV-unprocessed.smi

> <i_m_source_file_index>
437

> <i_lp_mmshare_version>
43012

> <i_f3d_flags>
0

> <s_epik_input>
TiNDYyhjMVtDSDNdKWMoPU8pbihuYzFbQ0gzXSlbQ0gyXUMoPU8pW05IXUMoPU8pW05IXVtDQEBIXTJbQ0gyXVtDSDJdW0NIMl1bQ0gyXVtDQEhdMltDSDNd

> <s_epik_cmdline>
J2VwaWtfcHl0aG9uJywgJy1waCcsICc3LjAnLCAnLXRuJywgJzgnLCAnLW1hJywgJzIwMCcsICctbWV0YWxfYmluZGluZycsICctaW1hZScsICc8aW5maWxlLm1hZT4nLCAnLW9tYWUnLCAnPG91dGZpbGUubWFlPic=

> <r_lp_tautomer_probability>
1

> <r_epik_Ionization_Penalty>
3.27035e-05

> <r_epik_Ionization_Penalty_Charging>
1.6965e-11

> <r_epik_Ionization_Penalty_Neutral>
3.27035e-05

> <r_epik_State_Penalty>
-0

> <r_epik_Charging_Adjusted_Penalty>
1.6965e-11

> <i_epik_Tot_Q>
0

> <i_epik_Tot_abs_Q>
0

> <r_epik_Metal_State_Penalty>
-0

> <b_epik_Metal_Only>
0

> <s_lp_Force_Field>
OPLS_2005

> <r_lp_Energy>
27.1353

> <b_lp_Chiralities_Consistent>
1

> <s_lp_Variant>
AV-unprocessed.smi:437-1

> <Gold.Version>
5.8.1

> <Gold.Id.Protein>
6NUR|6NUR_protein|mol2

> <Gold.PLP.Fitness>
47.6277

> <Gold.PLP.PLP>
-45.9785

> <Gold.PLP.part.hbond>
-2.3772

> <Gold.PLP.part.metal>
0.0000

> <Gold.PLP.part.buried>
-3.7902

> <Gold.PLP.part.nonpolar>
-40.1660

> <Gold.PLP.part.repulsive>
0.4610

> <Gold.PLP.ligand.clash>
0.0000

> <Gold.PLP.ligand.torsion>
0.6270

> <Gold.PLP.Chemscore.Hbond>
0.9600

> <Gold.PLP.Chemscore.CHOScore>
0.0000

> <Gold.PLP.Chemscore.Metal>
0.0000

> <Gold.Chemscore.Hbonds>
donor molecule, donor type, donor heavy atom, donor atom, acceptor molecule, acceptor atom, score
      P1  H  7989  7998       L1    20  0.66

> <Gold.PLP.Chemscore.Internal.Correction>
0.0232

> <Gold.Rescore>
     Score         DG    S(hbond)    S(metal)    S(lipo)     H(rot)  DE(clash)    DE(int)     intcor
     12.16     -16.92       0.99        0.00     103.88       1.57       1.16       3.61       ----

> <Gold.Chemscore.Fitness>
12.1561

> <Gold.Chemscore.DG>
-16.9244

> <Gold.Chemscore.ZeroCoef>
-5.4800

> <Gold.Chemscore.Hbond>
0.9875

> <Gold.Chemscore.Metal>
0.0000

> <Gold.Chemscore.Lipo>
103.8813

> <Gold.Chemscore.Internal_Hbond>
0.0000

> <Gold.Chemscore.DEClash>
1.1626

> <Gold.Chemscore.DEInternal>
3.6056

> <Gold.Chemscore.Rot>
1.5656

> <Gold.Chemscore.Internal.Correction>
   9.000000E+99

> <Gold.Chemscore.Hbonds>
donor molecule, donor type, donor heavy atom, donor atom, acceptor molecule, acceptor atom, score
      P1  H  7989  7998       L1    20  0.29

> <Gold.Chemscore.Hbond.Weighted>
-3.2981

> <Gold.Chemscore.Metal.Weighted>
-0.0000

> <Gold.Chemscore.Lipo.Weighted>
-12.1541

> <Gold.Chemscore.Internal_Hbond.Weighted>
0.0000

> <Gold.Chemscore.DEClash.Weighted>
1.1626

> <Gold.Chemscore.DEInternal.Weighted>
3.6056

> <Gold.Chemscore.Rot.Weighted>
4.0079

> <Gold.Chemscore.Internal.Correction.Weighted>
   9.000000E+99

> <Gold.Protein.RotatedTorsions>
[ 6907 6896 6895 6894 ] final  132.79 input  -60.11 | X-H torsion
[ 7974 7965 7964 7962 ] final -178.15 input  175.53 | X-H torsion
[ 8008 7997 7996 7995 ] final  -78.43 input   59.86 | X-H torsion
[ 10167 10162 10161 10158 ] final   45.54 input  -65.29 | X-H torsion
[ 10718 10713 10712 10709 ] final -177.99 input   66.30 | X-H torsion
[ 10763 10752 10751 10750 ] final   -2.13 input  -60.55 | X-H torsion
[ 11005 11000 10999 10996 ] final  -74.23 input  -57.11 | X-H torsion

> <Gold.Protein.ActiveResidues>
 VAL166  LYS551  ARG553  GLY616  TRP617  ASP618  TYR619  PRO620  LYS621  CYS622 
 ASP623  PHE694  ASN695  SER759  ASP760  ASP761  ALA762  ILE779  LEU786  VAL792 
 PHE793  MET794  SER795  GLU796  ALA797  LYS798  CYS799  TRP800  GLU811  SER814 

> <Gold.Protein.RotatedAtoms>
  152.3287  133.5934  159.5794 H   0  0  0  0  0  0  0  0  0  0  0  0  # atno 6907 bound_to 6896
  150.7411  133.9900  159.3613 H   0  0  0  0  0  0  0  0  0  0  0  0  # atno 6908 bound_to 6896
  151.7777  135.0770  160.0420 H   0  0  0  0  0  0  0  0  0  0  0  0  # atno 6909 bound_to 6896
  144.7130  140.0912  143.6421 H   0  0  0  0  0  0  0  0  0  0  0  0  # atno 7974 bound_to 7965
  154.5689  140.0694  156.8934 H   0  0  0  0  0  0  0  0  0  0  0  0  # atno 8008 bound_to 7997
  155.2671  140.3362  155.4250 H   0  0  0  0  0  0  0  0  0  0  0  0  # atno 8009 bound_to 7997
  156.2102  140.1756  156.7696 H   0  0  0  0  0  0  0  0  0  0  0  0  # atno 8010 bound_to 7997
  140.3231  144.2681  150.6179 H   0  0  0  0  0  0  0  0  0  0  0  0  # atno 10167 bound_to 10162
  156.8376  130.9675  151.3102 H   0  0  0  0  0  0  0  0  0  0  0  0  # atno 10718 bound_to 10713
  153.3540  135.6987  153.6765 H   0  0  0  0  0  0  0  0  0  0  0  0  # atno 10763 bound_to 10752
  153.5481  135.3559  155.2748 H   0  0  0  0  0  0  0  0  0  0  0  0  # atno 10764 bound_to 10752
  154.8658  135.4220  154.2782 H   0  0  0  0  0  0  0  0  0  0  0  0  # atno 10765 bound_to 10752
  141.1632  133.6904  156.7332 H   0  0  0  0  0  0  0  0  0  0  0  0  # atno 11005 bound_to 11000
  145.9619  139.2806  143.1150 LP  0  0  0  0  0  0  0  0  0  0  0  0  # atno 17320 bound_to 7965
  145.9211  140.9114  143.0404 LP  0  0  0  0  0  0  0  0  0  0  0  0  # atno 17321 bound_to 7965
  140.5466  143.2214  151.7997 LP  0  0  0  0  0  0  0  0  0  0  0  0  # atno 17342 bound_to 10162
  139.4870  144.4532  151.9630 LP  0  0  0  0  0  0  0  0  0  0  0  0  # atno 17343 bound_to 10162
  157.6373  130.8777  149.9382 LP  0  0  0  0  0  0  0  0  0  0  0  0  # atno 17370 bound_to 10713
  156.0899  130.3664  150.0416 LP  0  0  0  0  0  0  0  0  0  0  0  0  # atno 17371 bound_to 10713
  140.2729  134.8377  157.3864 LP  0  0  0  0  0  0  0  0  0  0  0  0  # atno 17394 bound_to 11000
  140.1504  134.4857  155.7965 LP  0  0  0  0  0  0  0  0  0  0  0  0  # atno 17395 bound_to 11000

$$$$
