AV-unprocessed.smi:2693|AV-procd|sdf|10404|dock5
  -GOLD-   2272014433D 1   1.00000     0.00000
 Structure written by MMmdl.
 45 47  0  0  0  0  0  0  0  0  1 V2000
  143.7195  132.5099  149.5538 C   0  0  0  0  0  0  0  0  0  0  0  0
  144.6542  132.4429  150.6734 N   0  0  0  0  0  0  0  0  0  0  0  0
  145.1385  131.1239  151.0708 C   0  0  0  0  0  0  0  0  0  0  0  0
  145.0790  133.5997  151.3336 C   0  0  0  0  0  0  0  0  0  0  0  0
  145.8610  133.4434  152.4098 N   0  0  0  0  0  0  0  0  0  0  0  0
  146.2748  134.5548  153.0547 C   0  0  0  0  0  0  0  0  0  0  0  0
  145.8985  135.8484  152.6209 C   0  0  0  0  0  0  0  0  0  0  0  0
  146.3065  137.0657  153.2286 N   0  0  0  0  0  0  0  0  0  0  0  0
  147.1775  137.2418  154.2364 C   0  0  0  0  0  0  0  0  0  0  0  0
  147.7564  136.3413  154.8432 O   0  0  0  0  0  0  0  0  0  0  0  0
  147.3243  138.5405  154.5278 N   0  0  0  0  0  0  0  0  0  0  0  0
  148.1794  139.0598  155.6004 C   0  0  1  0  0  0  0  0  0  0  0  0
  149.6312  138.5918  155.4765 C   0  0  1  0  0  0  0  0  0  0  0  0
  150.3421  137.5051  154.7548 C   0  0  0  0  0  0  0  0  0  0  0  0
  151.5671  138.3449  154.3019 C   0  0  0  0  0  0  0  0  0  0  0  0
  151.2365  139.7265  154.5974 O   0  0  0  0  0  0  0  0  0  0  0  0
  149.8246  139.7608  154.5327 C   0  0  2  0  0  0  0  0  0  0  0  0
  148.7587  140.5109  155.3628 C   0  0  0  0  0  0  0  0  0  0  0  0
  147.8818  141.4919  154.5762 C   0  0  0  0  0  0  0  0  0  0  0  0
  149.2491  141.2862  156.5990 C   0  0  0  0  0  0  0  0  0  0  0  0
  145.0842  135.8961  151.4720 C   0  0  0  0  0  0  0  0  0  0  0  0
  144.6759  134.7771  150.8375 N   0  0  0  0  0  0  0  0  0  0  0  0
  144.1802  133.0185  148.7065 H   0  0  0  0  0  0  0  0  0  0  0  0
  142.8201  133.0573  149.8374 H   0  0  0  0  0  0  0  0  0  0  0  0
  143.4103  131.5186  149.2227 H   0  0  0  0  0  0  0  0  0  0  0  0
  146.2287  131.0994  151.0657 H   0  0  0  0  0  0  0  0  0  0  0  0
  144.7884  130.3419  150.3969 H   0  0  0  0  0  0  0  0  0  0  0  0
  144.7933  130.8807  152.0762 H   0  0  0  0  0  0  0  0  0  0  0  0
  146.9212  134.3865  153.9015 H   0  0  0  0  0  0  0  0  0  0  0  0
  145.8487  137.8972  152.8849 H   0  0  0  0  0  0  0  0  0  0  0  0
  146.8080  139.2165  153.9844 H   0  0  0  0  0  0  0  0  0  0  0  0
  147.7738  138.9134  156.6030 H   0  0  0  0  0  0  0  0  0  0  0  0
  150.1204  138.7421  156.4421 H   0  0  0  0  0  0  0  0  0  0  0  0
  150.6186  136.6732  155.4032 H   0  0  0  0  0  0  0  0  0  0  0  0
  149.7688  137.1268  153.9074 H   0  0  0  0  0  0  0  0  0  0  0  0
  152.4740  138.0642  154.8379 H   0  0  0  0  0  0  0  0  0  0  0  0
  151.7511  138.2173  153.2344 H   0  0  0  0  0  0  0  0  0  0  0  0
  149.4870  139.5688  153.5090 H   0  0  0  0  0  0  0  0  0  0  0  0
  148.4060  142.4264  154.3736 H   0  0  0  0  0  0  0  0  0  0  0  0
  146.9705  141.7364  155.1229 H   0  0  0  0  0  0  0  0  0  0  0  0
  147.5797  141.0874  153.6101 H   0  0  0  0  0  0  0  0  0  0  0  0
  149.8760  142.1308  156.3114 H   0  0  0  0  0  0  0  0  0  0  0  0
  149.8364  140.6817  157.2878 H   0  0  0  0  0  0  0  0  0  0  0  0
  148.4115  141.6838  157.1732 H   0  0  0  0  0  0  0  0  0  0  0  0
  144.7532  136.8374  151.0583 H   0  0  0  0  0  0  0  0  0  0  0  0
  1  2  1  0  0  0  0
  1 23  1  0  0  0  0
  1 24  1  0  0  0  0
  1 25  1  0  0  0  0
  2  3  1  0  0  0  0
  2  4  1  0  0  0  0
  3 26  1  0  0  0  0
  3 27  1  0  0  0  0
  3 28  1  0  0  0  0
  4 22  1  0  0  0  0
  4  5  2  0  0  0  0
  5  6  1  0  0  0  0
  6  7  2  0  0  0  0
  6 29  1  0  0  0  0
  7  8  1  0  0  0  0
  7 21  1  0  0  0  0
  8  9  1  0  0  0  0
  8 30  1  0  0  0  0
  9 10  2  0  0  0  0
  9 11  1  0  0  0  0
 11 12  1  0  0  0  0
 11 31  1  0  0  0  0
 12 18  1  0  0  0  0
 12 13  1  0  0  0  0
 12 32  1  0  0  0  0
 13 17  1  0  0  0  0
 13 14  1  0  0  0  0
 13 33  1  0  0  0  0
 14 15  1  0  0  0  0
 14 34  1  0  0  0  0
 14 35  1  0  0  0  0
 15 16  1  0  0  0  0
 15 36  1  0  0  0  0
 15 37  1  0  0  0  0
 16 17  1  0  0  0  0
 17 18  1  0  0  0  0
 17 38  1  0  0  0  0
 18 19  1  0  0  0  0
 18 20  1  0  0  0  0
 19 39  1  0  0  0  0
 19 40  1  0  0  0  0
 19 41  1  0  0  0  0
 20 42  1  0  0  0  0
 20 43  1  0  0  0  0
 20 44  1  0  0  0  0
 21 22  2  0  0  0  0
 21 45  1  0  0  0  0
M  END
> <s_m_source_file>
AV-unprocessed.smi

> <i_m_source_file_index>
2693

> <i_lp_mmshare_version>
43012

> <i_f3d_flags>
0

> <s_epik_input>
W0NIM11OKFtDSDNdKWMxbltjSF1jKFtjSF1uMSlbTkhdQyg9TylbTkhdW0NASF0yQyhbQ0gzXSkoW0NIM10pW0NAQEhdKFtDQEhdMjMpT1tDSDJdW0NIMl0z

> <s_epik_cmdline>
J2VwaWtfcHl0aG9uJywgJy1waCcsICc3LjAnLCAnLXRuJywgJzgnLCAnLW1hJywgJzIwMCcsICctbWV0YWxfYmluZGluZycsICctaW1hZScsICc8aW5maWxlLm1hZT4nLCAnLW9tYWUnLCAnPG91dGZpbGUubWFlPic=

> <r_lp_tautomer_probability>
1

> <r_epik_Ionization_Penalty>
0.00031779

> <r_epik_Ionization_Penalty_Charging>
0

> <r_epik_Ionization_Penalty_Neutral>
0.00031779

> <r_epik_State_Penalty>
-0

> <r_epik_Charging_Adjusted_Penalty>
0

> <i_epik_Tot_Q>
0

> <i_epik_Tot_abs_Q>
0

> <r_epik_Metal_State_Penalty>
-0

> <b_epik_Metal_Only>
0

> <s_lp_Force_Field>
OPLS_2005

> <r_lp_Energy>
57.3202

> <b_lp_Chiralities_Consistent>
1

> <s_lp_Variant>
AV-unprocessed.smi:2693-8

> <Gold.Version>
5.8.1

> <Gold.Id.Protein>
6NUR|6NUR_protein|mol2

> <Gold.PLP.Fitness>
39.3832

> <Gold.PLP.PLP>
-33.5519

> <Gold.PLP.part.hbond>
-1.9155

> <Gold.PLP.part.metal>
0.0000

> <Gold.PLP.part.buried>
-3.6740

> <Gold.PLP.part.nonpolar>
-28.1962

> <Gold.PLP.part.repulsive>
0.5035

> <Gold.PLP.ligand.clash>
0.0000

> <Gold.PLP.ligand.torsion>
0.2161

> <Gold.PLP.Chemscore.Hbond>
1.0000

> <Gold.PLP.Chemscore.CHOScore>
1.0000

> <Gold.PLP.Chemscore.Metal>
0.0000

> <Gold.Chemscore.Hbonds>
donor molecule, donor type, donor heavy atom, donor atom, acceptor molecule, acceptor atom, score
      P1  H  7989  7998       L1    16  1.00
      L1  C    21    45       P1 10171  1.00

> <Gold.PLP.Chemscore.Internal.Correction>
0.2635

> <Gold.Rescore>
     Score         DG    S(hbond)    S(metal)    S(lipo)     H(rot)  DE(clash)    DE(int)     intcor
     10.12     -14.04       0.60        0.00      78.09       1.00       0.02       3.90       ----

> <Gold.Chemscore.Fitness>
10.1173

> <Gold.Chemscore.DG>
-14.0450

> <Gold.Chemscore.ZeroCoef>
-5.4800

> <Gold.Chemscore.Hbond>
0.5952

> <Gold.Chemscore.Metal>
0.0000

> <Gold.Chemscore.Lipo>
78.0940

> <Gold.Chemscore.Internal_Hbond>
0.0000

> <Gold.Chemscore.DEClash>
0.0233

> <Gold.Chemscore.DEInternal>
3.9044

> <Gold.Chemscore.Rot>
1.0000

> <Gold.Chemscore.Internal.Correction>
   9.000000E+99

> <Gold.Chemscore.Hbonds>
donor molecule, donor type, donor heavy atom, donor atom, acceptor molecule, acceptor atom, score
      P1  H  7989  7998       L1    16  0.33

> <Gold.Chemscore.Hbond.Weighted>
-1.9880

> <Gold.Chemscore.Metal.Weighted>
-0.0000

> <Gold.Chemscore.Lipo.Weighted>
-9.1370

> <Gold.Chemscore.Internal_Hbond.Weighted>
0.0000

> <Gold.Chemscore.DEClash.Weighted>
0.0233

> <Gold.Chemscore.DEInternal.Weighted>
3.9044

> <Gold.Chemscore.Rot.Weighted>
2.5600

> <Gold.Chemscore.Internal.Correction.Weighted>
   9.000000E+99

> <Gold.Protein.RotatedTorsions>
[ 6907 6896 6895 6894 ] final   30.69 input  -60.11 | X-H torsion
[ 7974 7965 7964 7962 ] final -162.77 input  175.53 | X-H torsion
[ 8008 7997 7996 7995 ] final -146.80 input   59.86 | X-H torsion
[ 10167 10162 10161 10158 ] final  101.39 input  -65.29 | X-H torsion
[ 10718 10713 10712 10709 ] final  -42.49 input   66.30 | X-H torsion
[ 10763 10752 10751 10750 ] final -144.58 input  -60.55 | X-H torsion
[ 11005 11000 10999 10996 ] final   24.28 input  -57.11 | X-H torsion

> <Gold.Protein.ActiveResidues>
 VAL166  LYS551  ARG553  GLY616  TRP617  ASP618  TYR619  PRO620  LYS621  CYS622 
 ASP623  PHE694  ASN695  SER759  ASP760  ASP761  ALA762  ILE779  LEU786  VAL792 
 PHE793  MET794  SER795  GLU796  ALA797  LYS798  CYS799  TRP800  GLU811  SER814 

> <Gold.Protein.RotatedAtoms>
  152.0496  134.9661  160.0574 H   0  0  0  0  0  0  0  0  0  0  0  0  # atno 6907 bound_to 6896
  152.1068  133.4274  159.4620 H   0  0  0  0  0  0  0  0  0  0  0  0  # atno 6908 bound_to 6896
  150.6841  134.2615  159.4594 H   0  0  0  0  0  0  0  0  0  0  0  0  # atno 6909 bound_to 6896
  144.7347  140.3205  143.6171 H   0  0  0  0  0  0  0  0  0  0  0  0  # atno 7974 bound_to 7965
  155.5653  140.0629  157.2819 H   0  0  0  0  0  0  0  0  0  0  0  0  # atno 8008 bound_to 7997
  154.4377  140.1878  156.0869 H   0  0  0  0  0  0  0  0  0  0  0  0  # atno 8009 bound_to 7997
  156.0416  140.3295  155.7254 H   0  0  0  0  0  0  0  0  0  0  0  0  # atno 8010 bound_to 7997
  139.7442  144.7002  151.0529 H   0  0  0  0  0  0  0  0  0  0  0  0  # atno 10167 bound_to 10162
  156.2590  130.4195  149.8564 H   0  0  0  0  0  0  0  0  0  0  0  0  # atno 10718 bound_to 10713
  154.8422  135.3436  154.6368 H   0  0  0  0  0  0  0  0  0  0  0  0  # atno 10763 bound_to 10752
  153.6978  135.6971  153.5076 H   0  0  0  0  0  0  0  0  0  0  0  0  # atno 10764 bound_to 10752
  153.2546  135.4342  155.0787 H   0  0  0  0  0  0  0  0  0  0  0  0  # atno 10765 bound_to 10752
  140.3604  134.2131  155.7672 H   0  0  0  0  0  0  0  0  0  0  0  0  # atno 11005 bound_to 11000
  145.7573  139.1813  143.2287 LP  0  0  0  0  0  0  0  0  0  0  0  0  # atno 17320 bound_to 7965
  146.1014  140.7540  142.9547 LP  0  0  0  0  0  0  0  0  0  0  0  0  # atno 17321 bound_to 7965
  140.7790  143.4887  150.9922 LP  0  0  0  0  0  0  0  0  0  0  0  0  # atno 17342 bound_to 10162
  139.8575  143.7358  152.3175 LP  0  0  0  0  0  0  0  0  0  0  0  0  # atno 17343 bound_to 10162
  156.6086  130.8577  151.3449 LP  0  0  0  0  0  0  0  0  0  0  0  0  # atno 17370 bound_to 10713
  157.7243  130.9601  150.1569 LP  0  0  0  0  0  0  0  0  0  0  0  0  # atno 17371 bound_to 10713
  141.1985  133.8032  157.0577 LP  0  0  0  0  0  0  0  0  0  0  0  0  # atno 17394 bound_to 11000
  140.0631  134.9744  157.1339 LP  0  0  0  0  0  0  0  0  0  0  0  0  # atno 17395 bound_to 11000

$$$$
