AV-unprocessed.smi:72|AV-procd|sdf|710|dock6
  -GOLD-   2262017 33D 1   1.00000     0.00000
 Structure written by MMmdl.
 30 31  0  0  0  0  0  0  0  0  2 V2000
  142.3412  136.1214  156.7091 N   0  0  0  0  0  0  0  0  0  0  0  0
  143.1403  136.0385  155.5878 C   0  0  0  0  0  0  0  0  0  0  0  0
  142.8297  135.0720  154.6476 N   0  3  0  0  0  0  0  0  0  0  0  0
  143.5096  134.8544  153.5133 C   0  0  0  0  0  0  0  0  0  0  0  0
  144.5670  135.5938  153.2501 N   0  0  0  0  0  0  0  0  0  0  0  0
  145.3606  135.3780  151.9916 C   0  0  1  0  0  0  0  0  0  0  0  0
  145.8897  134.0879  152.0421 O   0  0  0  0  0  0  0  0  0  0  0  0
  145.6730  133.4227  150.8022 C   0  0  1  0  0  0  0  0  0  0  0  0
  145.6455  131.9022  151.0211 C   0  0  0  0  0  0  0  0  0  0  0  0
  146.8361  131.4843  151.6529 O   0  0  0  0  0  0  0  0  0  0  0  0
  144.3319  134.0024  150.3515 C   0  0  2  0  0  0  0  0  0  0  0  0
  144.0894  133.8266  148.9687 O   0  0  0  0  0  0  0  0  0  0  0  0
  144.4432  135.4669  150.7627 C   0  0  2  0  0  0  0  0  0  0  0  0
  145.0250  136.2728  149.7550 O   0  0  0  0  0  0  0  0  0  0  0  0
  144.9457  136.6324  154.1384 C   0  0  0  0  0  0  0  0  0  0  0  0
  145.9049  137.3579  153.8793 O   0  0  0  0  0  0  0  0  0  0  0  0
  144.1733  136.7814  155.2998 N   0  0  0  0  0  0  0  0  0  0  0  0
  146.1751  136.1047  152.0010 H   0  0  0  0  0  0  0  0  0  0  0  0
  146.4550  133.7089  150.0957 H   0  0  0  0  0  0  0  0  0  0  0  0
  143.5235  133.5343  150.9150 H   0  0  0  0  0  0  0  0  0  0  0  0
  143.4713  135.8893  151.0224 H   0  0  0  0  0  0  0  0  0  0  0  0
  142.4895  136.7974  157.4456 H   0  0  0  0  0  0  0  0  0  0  0  0
  141.5537  135.5147  156.8874 H   0  0  0  0  0  0  0  0  0  0  0  0
  143.1793  134.0820  152.8300 H   0  0  0  0  0  0  0  0  0  0  0  0
  144.7774  131.5992  151.6069 H   0  0  0  0  0  0  0  0  0  0  0  0
  145.5863  131.3861  150.0624 H   0  0  0  0  0  0  0  0  0  0  0  0
  147.4810  131.2962  150.9880 H   0  0  0  0  0  0  0  0  0  0  0  0
  144.8201  134.1817  148.4852 H   0  0  0  0  0  0  0  0  0  0  0  0
  145.5144  135.7161  149.1682 H   0  0  0  0  0  0  0  0  0  0  0  0
  142.0286  134.4860  154.8353 H   0  0  0  0  0  0  0  0  0  0  0  0
  1  2  1  0  0  0  0
  1 22  1  0  0  0  0
  1 23  1  0  0  0  0
  2 17  2  0  0  0  0
  2  3  1  0  0  0  0
  3  4  2  0  0  0  0
  3 30  1  0  0  0  0
  4  5  1  0  0  0  0
  4 24  1  0  0  0  0
  5  6  1  0  0  0  0
  5 15  1  0  0  0  0
  6 18  1  0  0  0  0
  6 13  1  0  0  0  0
  6  7  1  0  0  0  0
  7  8  1  0  0  0  0
  8 19  1  0  0  0  0
  8  9  1  0  0  0  0
  8 11  1  0  0  0  0
  9 10  1  0  0  0  0
  9 25  1  0  0  0  0
  9 26  1  0  0  0  0
 10 27  1  0  0  0  0
 11 20  1  0  0  0  0
 11 12  1  0  0  0  0
 11 13  1  0  0  0  0
 12 28  1  0  0  0  0
 13 21  1  0  0  0  0
 13 14  1  0  0  0  0
 14 29  1  0  0  0  0
 15 16  2  0  0  0  0
 15 17  1  0  0  0  0
M  CHG  1   3   1
M  END
> <s_m_source_file>
AV-unprocessed.smi

> <i_m_source_file_index>
72

> <i_lp_mmshare_version>
43012

> <i_f3d_flags>
0

> <s_epik_input>
W05IMl1jMW5bY0hdbihjKD1PKW4xKVtDQEBIXTJPW0NASF0oW0NIMl1bT0hdKVtDQEBIXShbT0hdKVtDQEhdMltPSF0=

> <s_epik_cmdline>
J2VwaWtfcHl0aG9uJywgJy1waCcsICc3LjAnLCAnLXRuJywgJzgnLCAnLW1hJywgJzIwMCcsICctbWV0YWxfYmluZGluZycsICctaW1hZScsICc8aW5maWxlLm1hZT4nLCAnLW9tYWUnLCAnPG91dGZpbGUubWFlPic=

> <r_lp_tautomer_probability>
4.77166e-05

> <r_epik_Ionization_Penalty>
0.104979

> <r_epik_Ionization_Penalty_Charging>
0.0999619

> <r_epik_Ionization_Penalty_Neutral>
0.00501745

> <r_epik_State_Penalty>
2.51541

> <r_epik_Charging_Adjusted_Penalty>
2.61537

> <i_epik_Tot_Q>
1

> <i_epik_Tot_abs_Q>
1

> <r_epik_Metal_State_Penalty>
3.53763

> <b_epik_Metal_Only>
0

> <s_epik_Chemistry_Notes>
This compound contains an acetal/aminal-like group ( X-CH(R)-Y where X, Y are N, S, or O) that may be acid/base labile, releasing an aldehyde.

> <s_lp_Force_Field>
OPLS_2005

> <r_lp_Energy>
34.5988

> <b_lp_Chiralities_Consistent>
1

> <s_lp_Variant>
AV-unprocessed.smi:72-48

> <Gold.Version>
5.8.1

> <Gold.Id.Protein>
6NUR|6NUR_protein|mol2

> <Gold.PLP.Fitness>
33.9212

> <Gold.PLP.PLP>
-23.3559

> <Gold.PLP.part.hbond>
-5.7601

> <Gold.PLP.part.metal>
0.0000

> <Gold.PLP.part.buried>
-6.6848

> <Gold.PLP.part.nonpolar>
-11.4642

> <Gold.PLP.part.repulsive>
0.2440

> <Gold.PLP.ligand.clash>
0.0000

> <Gold.PLP.ligand.torsion>
0.0518

> <Gold.PLP.Chemscore.Hbond>
3.5500

> <Gold.PLP.Chemscore.CHOScore>
0.0000

> <Gold.PLP.Chemscore.Metal>
0.0000

> <Gold.Chemscore.Hbonds>
donor molecule, donor type, donor heavy atom, donor atom, acceptor molecule, acceptor atom, score
      L1  H     1    23       P1 11000  0.45
      L1  H    10    27       P1 10747  1.00
      L1  H    12    28       P1  7921  1.00
      L1  H    14    29       P1  7921  1.00

> <Gold.PLP.Chemscore.Internal.Correction>
0.0189

> <Gold.Rescore>
     Score         DG    S(hbond)    S(metal)    S(lipo)     H(rot)  DE(clash)    DE(int)     intcor
      9.38      -9.48       3.33        0.00      28.34       4.08       0.00       0.10       ----

> <Gold.Chemscore.Fitness>
9.3785

> <Gold.Chemscore.DG>
-9.4841

> <Gold.Chemscore.ZeroCoef>
-5.4800

> <Gold.Chemscore.Hbond>
3.3319

> <Gold.Chemscore.Metal>
0.0000

> <Gold.Chemscore.Lipo>
28.3405

> <Gold.Chemscore.Internal_Hbond>
0.0000

> <Gold.Chemscore.DEClash>
0.0029

> <Gold.Chemscore.DEInternal>
0.1027

> <Gold.Chemscore.Rot>
4.0783

> <Gold.Chemscore.Internal.Correction>
   9.000000E+99

> <Gold.Chemscore.Hbonds>
donor molecule, donor type, donor heavy atom, donor atom, acceptor molecule, acceptor atom, score
      L1  H     1    23       P1 11000  0.02
      L1  H    10    27       P1 10747  1.00
      L1  H    12    28       P1  7921  1.00
      L1  H    14    29       P1  7921  1.00

> <Gold.Chemscore.Hbond.Weighted>
-11.1286

> <Gold.Chemscore.Metal.Weighted>
-0.0000

> <Gold.Chemscore.Lipo.Weighted>
-3.3158

> <Gold.Chemscore.Internal_Hbond.Weighted>
0.0000

> <Gold.Chemscore.DEClash.Weighted>
0.0029

> <Gold.Chemscore.DEInternal.Weighted>
0.1027

> <Gold.Chemscore.Rot.Weighted>
10.4404

> <Gold.Chemscore.Internal.Correction.Weighted>
   9.000000E+99

> <Gold.Protein.RotatedTorsions>
[ 6907 6896 6895 6894 ] final -125.00 input  -60.11 | X-H torsion
[ 7974 7965 7964 7962 ] final   88.16 input  175.53 | X-H torsion
[ 8008 7997 7996 7995 ] final   31.16 input   59.86 | X-H torsion
[ 10167 10162 10161 10158 ] final   60.47 input  -65.29 | X-H torsion
[ 10718 10713 10712 10709 ] final -135.79 input   66.30 | X-H torsion
[ 10763 10752 10751 10750 ] final   88.75 input  -60.55 | X-H torsion
[ 11005 11000 10999 10996 ] final   14.31 input  -57.11 | X-H torsion

> <Gold.Protein.ActiveResidues>
 VAL166  LYS551  ARG553  GLY616  TRP617  ASP618  TYR619  PRO620  LYS621  CYS622 
 ASP623  PHE694  ASN695  SER759  ASP760  ASP761  ALA762  ILE779  LEU786  VAL792 
 PHE793  MET794  SER795  GLU796  ALA797  LYS798  CYS799  TRP800  GLU811  SER814 

> <Gold.Protein.RotatedAtoms>
  150.8824  133.7354  159.2927 H   0  0  0  0  0  0  0  0  0  0  0  0  # atno 6907 bound_to 6896
  151.4931  135.1057  159.9818 H   0  0  0  0  0  0  0  0  0  0  0  0  # atno 6908 bound_to 6896
  152.4768  133.8112  159.7060 H   0  0  0  0  0  0  0  0  0  0  0  0  # atno 6909 bound_to 6896
  145.5493  139.2294  143.2521 H   0  0  0  0  0  0  0  0  0  0  0  0  # atno 7974 bound_to 7965
  155.1019  140.3230  155.4545 H   0  0  0  0  0  0  0  0  0  0  0  0  # atno 8008 bound_to 7997
  156.2715  140.2059  156.6092 H   0  0  0  0  0  0  0  0  0  0  0  0  # atno 8009 bound_to 7997
  154.6823  140.0525  157.0265 H   0  0  0  0  0  0  0  0  0  0  0  0  # atno 8010 bound_to 7997
  140.1652  144.4331  150.6689 H   0  0  0  0  0  0  0  0  0  0  0  0  # atno 10167 bound_to 10162
  156.2700  130.7260  151.1223 H   0  0  0  0  0  0  0  0  0  0  0  0  # atno 10718 bound_to 10713
  153.1800  135.4495  155.0015 H   0  0  0  0  0  0  0  0  0  0  0  0  # atno 10763 bound_to 10752
  154.8023  135.3261  154.7520 H   0  0  0  0  0  0  0  0  0  0  0  0  # atno 10764 bound_to 10752
  153.7986  135.6964  153.4914 H   0  0  0  0  0  0  0  0  0  0  0  0  # atno 10765 bound_to 10752
  140.4710  134.1031  155.7732 H   0  0  0  0  0  0  0  0  0  0  0  0  # atno 11005 bound_to 11000
  146.1927  140.6316  142.9138 LP  0  0  0  0  0  0  0  0  0  0  0  0  # atno 17320 bound_to 7965
  144.7537  140.5255  143.6784 LP  0  0  0  0  0  0  0  0  0  0  0  0  # atno 17321 bound_to 7965
  140.6617  143.2254  151.5839 LP  0  0  0  0  0  0  0  0  0  0  0  0  # atno 17342 bound_to 10162
  139.5363  144.2772  152.1257 LP  0  0  0  0  0  0  0  0  0  0  0  0  # atno 17343 bound_to 10162
  157.7280  131.0635  150.5838 LP  0  0  0  0  0  0  0  0  0  0  0  0  # atno 17370 bound_to 10713
  156.5933  130.4335  149.5927 LP  0  0  0  0  0  0  0  0  0  0  0  0  # atno 17371 bound_to 10713
  141.1577  133.8852  157.1933 LP  0  0  0  0  0  0  0  0  0  0  0  0  # atno 17394 bound_to 11000
  139.9885  135.0073  156.9920 LP  0  0  0  0  0  0  0  0  0  0  0  0  # atno 17395 bound_to 11000

$$$$
