AV-unprocessed.smi:1359|AV-procd|sdf|5550|dock7
  -GOLD-   22720 5143D 1   1.00000     0.00000
 Structure written by MMmdl.
 34 35  0  0  0  0  0  0  0  0  1 V2000
  151.9349  145.1517  159.4138 C   0  0  0  0  0  0  0  0  0  0  0  0
  151.7180  144.4005  158.0959 C   0  0  0  0  0  0  0  0  0  0  0  0
  150.8767  143.1267  158.2773 C   0  0  0  0  0  0  0  0  0  0  0  0
  150.4465  142.5805  156.9956 N   0  0  0  0  0  0  0  0  0  0  0  0
  150.7770  141.3676  156.5243 C   0  0  0  0  0  0  0  0  0  0  0  0
  151.5040  140.5804  157.1300 O   0  0  0  0  0  0  0  0  0  0  0  0
  150.2048  140.9820  155.1587 C   0  0  0  0  0  0  0  0  0  0  0  0
  148.7468  141.3345  155.0765 C   0  0  0  0  0  0  0  0  0  0  0  0
  147.9929  141.4724  153.9363 C   0  0  0  0  0  0  0  0  0  0  0  0
  146.3395  141.8905  154.2919 S   0  0  0  0  0  0  0  0  0  0  0  0
  146.7408  141.8736  156.0118 C   0  0  0  0  0  0  0  0  0  0  0  0
  145.8507  142.1523  157.0913 N   0  0  0  0  0  0  0  0  0  0  0  0
  144.5994  142.8756  156.8866 C   0  0  0  0  0  0  0  0  0  0  0  0
  143.9741  142.9267  158.2770 C   0  0  0  0  0  0  0  0  0  0  0  0
  144.9564  142.2342  159.0772 N   0  0  0  0  0  0  0  0  0  0  0  0
  146.0123  141.8034  158.3832 C   0  0  0  0  0  0  0  0  0  0  0  0
  146.9582  141.1941  158.8791 O   0  0  0  0  0  0  0  0  0  0  0  0
  148.0211  141.5684  156.2494 N   0  0  0  0  0  0  0  0  0  0  0  0
  152.5315  146.0502  159.2548 H   0  0  0  0  0  0  0  0  0  0  0  0
  152.4571  144.5295  160.1412 H   0  0  0  0  0  0  0  0  0  0  0  0
  150.9848  145.4568  159.8530 H   0  0  0  0  0  0  0  0  0  0  0  0
  151.2325  145.0682  157.3833 H   0  0  0  0  0  0  0  0  0  0  0  0
  152.6862  144.1425  157.6651 H   0  0  0  0  0  0  0  0  0  0  0  0
  151.4640  142.3640  158.7895 H   0  0  0  0  0  0  0  0  0  0  0  0
  150.0093  143.3264  158.9088 H   0  0  0  0  0  0  0  0  0  0  0  0
  149.8433  143.1609  156.4304 H   0  0  0  0  0  0  0  0  0  0  0  0
  150.7768  141.4877  154.3794 H   0  0  0  0  0  0  0  0  0  0  0  0
  150.3451  139.9123  154.9970 H   0  0  0  0  0  0  0  0  0  0  0  0
  148.3097  141.3488  152.9112 H   0  0  0  0  0  0  0  0  0  0  0  0
  144.7913  143.8773  156.4995 H   0  0  0  0  0  0  0  0  0  0  0  0
  143.9583  142.3457  156.1807 H   0  0  0  0  0  0  0  0  0  0  0  0
  143.8417  143.9497  158.6307 H   0  0  0  0  0  0  0  0  0  0  0  0
  143.0148  142.4094  158.3150 H   0  0  0  0  0  0  0  0  0  0  0  0
  144.8439  142.0958  160.0712 H   0  0  0  0  0  0  0  0  0  0  0  0
  1  2  1  0  0  0  0
  1 19  1  0  0  0  0
  1 20  1  0  0  0  0
  1 21  1  0  0  0  0
  2  3  1  0  0  0  0
  2 22  1  0  0  0  0
  2 23  1  0  0  0  0
  3  4  1  0  0  0  0
  3 24  1  0  0  0  0
  3 25  1  0  0  0  0
  4  5  1  0  0  0  0
  4 26  1  0  0  0  0
  5  6  2  0  0  0  0
  5  7  1  0  0  0  0
  7  8  1  0  0  0  0
  7 27  1  0  0  0  0
  7 28  1  0  0  0  0
  8 18  1  0  0  0  0
  8  9  2  0  0  0  0
  9 10  1  0  0  0  0
  9 29  1  0  0  0  0
 10 11  1  0  0  0  0
 11 12  1  0  0  0  0
 11 18  2  0  0  0  0
 12 16  1  0  0  0  0
 12 13  1  0  0  0  0
 13 14  1  0  0  0  0
 13 30  1  0  0  0  0
 13 31  1  0  0  0  0
 14 15  1  0  0  0  0
 14 32  1  0  0  0  0
 14 33  1  0  0  0  0
 15 16  1  0  0  0  0
 15 34  1  0  0  0  0
 16 17  2  0  0  0  0
M  END
> <s_m_source_file>
AV-unprocessed.smi

> <i_m_source_file_index>
1359

> <i_lp_mmshare_version>
43012

> <i_f3d_flags>
0

> <s_epik_input>
W0NIM11bQ0gyXVtDSDJdW05IXUMoPU8pW0NIMl1jMVtjSF1zYyhuMSlOMltDSDJdW0NIMl1bTkhdQzI9Tw==

> <s_epik_cmdline>
J2VwaWtfcHl0aG9uJywgJy1waCcsICc3LjAnLCAnLXRuJywgJzgnLCAnLW1hJywgJzIwMCcsICctbWV0YWxfYmluZGluZycsICctaW1hZScsICc8aW5maWxlLm1hZT4nLCAnLW9tYWUnLCAnPG91dGZpbGUubWFlPic=

> <r_lp_tautomer_probability>
1

> <r_epik_Ionization_Penalty>
0.000119828

> <r_epik_Ionization_Penalty_Charging>
0

> <r_epik_Ionization_Penalty_Neutral>
0.000119828

> <r_epik_State_Penalty>
-0

> <r_epik_Charging_Adjusted_Penalty>
0

> <i_epik_Tot_Q>
0

> <i_epik_Tot_abs_Q>
0

> <r_epik_Metal_State_Penalty>
-0

> <b_epik_Metal_Only>
0

> <s_lp_Force_Field>
OPLS_2005

> <r_lp_Energy>
29.9012

> <b_lp_Chiralities_Consistent>
1

> <s_lp_Variant>
AV-unprocessed.smi:1359-1

> <Gold.Version>
5.8.1

> <Gold.Id.Protein>
6NUR|6NUR_protein|mol2

> <Gold.PLP.Fitness>
39.5902

> <Gold.PLP.PLP>
-33.1741

> <Gold.PLP.part.hbond>
-2.0000

> <Gold.PLP.part.metal>
0.0000

> <Gold.PLP.part.buried>
-4.5355

> <Gold.PLP.part.nonpolar>
-27.4771

> <Gold.PLP.part.repulsive>
0.5739

> <Gold.PLP.ligand.clash>
0.0000

> <Gold.PLP.ligand.torsion>
0.6424

> <Gold.PLP.Chemscore.Hbond>
1.5650

> <Gold.PLP.Chemscore.CHOScore>
1.0000

> <Gold.PLP.Chemscore.Metal>
0.0000

> <Gold.Chemscore.Hbonds>
donor molecule, donor type, donor heavy atom, donor atom, acceptor molecule, acceptor atom, score
      L1  H     4    26       P1  8028  1.00
      P1  H  6934  6946       L1    17  0.35
      L1  C     9    29       P1  7957  1.00

> <Gold.PLP.Chemscore.Internal.Correction>
0.0059

> <Gold.Rescore>
     Score         DG    S(hbond)    S(metal)    S(lipo)     H(rot)  DE(clash)    DE(int)     intcor
     11.08     -14.40       1.69        0.00      67.54       1.81       0.01       3.31       ----

> <Gold.Chemscore.Fitness>
11.0800

> <Gold.Chemscore.DG>
-14.3963

> <Gold.Chemscore.ZeroCoef>
-5.4800

> <Gold.Chemscore.Hbond>
1.6875

> <Gold.Chemscore.Metal>
0.0000

> <Gold.Chemscore.Lipo>
67.5449

> <Gold.Chemscore.Internal_Hbond>
0.0000

> <Gold.Chemscore.DEClash>
0.0106

> <Gold.Chemscore.DEInternal>
3.3057

> <Gold.Chemscore.Rot>
1.8057

> <Gold.Chemscore.Internal.Correction>
   9.000000E+99

> <Gold.Chemscore.Hbonds>
donor molecule, donor type, donor heavy atom, donor atom, acceptor molecule, acceptor atom, score
      L1  H     4    26       P1  8028  0.97
      P1  H  6934  6946       L1    17  0.35

> <Gold.Chemscore.Hbond.Weighted>
-5.6362

> <Gold.Chemscore.Metal.Weighted>
-0.0000

> <Gold.Chemscore.Lipo.Weighted>
-7.9028

> <Gold.Chemscore.Internal_Hbond.Weighted>
0.0000

> <Gold.Chemscore.DEClash.Weighted>
0.0106

> <Gold.Chemscore.DEInternal.Weighted>
3.3057

> <Gold.Chemscore.Rot.Weighted>
4.6226

> <Gold.Chemscore.Internal.Correction.Weighted>
   9.000000E+99

> <Gold.Protein.RotatedTorsions>
[ 6907 6896 6895 6894 ] final  110.62 input  -60.11 | X-H torsion
[ 7974 7965 7964 7962 ] final   49.77 input  175.53 | X-H torsion
[ 8008 7997 7996 7995 ] final  142.55 input   59.86 | X-H torsion
[ 10167 10162 10161 10158 ] final   11.07 input  -65.29 | X-H torsion
[ 10718 10713 10712 10709 ] final  -35.65 input   66.30 | X-H torsion
[ 10763 10752 10751 10750 ] final  -78.13 input  -60.55 | X-H torsion
[ 11005 11000 10999 10996 ] final -146.53 input  -57.11 | X-H torsion

> <Gold.Protein.ActiveResidues>
 VAL166  LYS551  ARG553  GLY616  TRP617  ASP618  TYR619  PRO620  LYS621  CYS622 
 ASP623  PHE694  ASN695  SER759  ASP760  ASP761  ALA762  ILE779  LEU786  VAL792 
 PHE793  MET794  SER795  GLU796  ALA797  LYS798  CYS799  TRP800  GLU811  SER814 

> <Gold.Protein.RotatedAtoms>
  152.5011  133.8775  159.7329 H   0  0  0  0  0  0  0  0  0  0  0  0  # atno 6907 bound_to 6896
  150.9246  133.6831  159.2831 H   0  0  0  0  0  0  0  0  0  0  0  0  # atno 6908 bound_to 6896
  151.4196  135.1000  159.9662 H   0  0  0  0  0  0  0  0  0  0  0  0  # atno 6909 bound_to 6896
  146.0077  139.4508  142.9976 H   0  0  0  0  0  0  0  0  0  0  0  0  # atno 7974 bound_to 7965
  156.2947  140.2286  156.4747 H   0  0  0  0  0  0  0  0  0  0  0  0  # atno 8008 bound_to 7997
  154.7905  140.0454  157.1218 H   0  0  0  0  0  0  0  0  0  0  0  0  # atno 8009 bound_to 7997
  154.9651  140.3059  155.5016 H   0  0  0  0  0  0  0  0  0  0  0  0  # atno 8010 bound_to 7997
  140.6155  143.8318  150.7113 H   0  0  0  0  0  0  0  0  0  0  0  0  # atno 10167 bound_to 10162
  156.3361  130.4286  149.7829 H   0  0  0  0  0  0  0  0  0  0  0  0  # atno 10718 bound_to 10713
  154.5219  135.5740  153.6687 H   0  0  0  0  0  0  0  0  0  0  0  0  # atno 10763 bound_to 10752
  152.9919  135.6183  154.2744 H   0  0  0  0  0  0  0  0  0  0  0  0  # atno 10764 bound_to 10752
  154.2665  135.2854  155.2736 H   0  0  0  0  0  0  0  0  0  0  0  0  # atno 10765 bound_to 10752
  140.7810  134.3079  157.5045 H   0  0  0  0  0  0  0  0  0  0  0  0  # atno 11005 bound_to 11000
  145.7391  141.0015  143.1311 LP  0  0  0  0  0  0  0  0  0  0  0  0  # atno 17320 bound_to 7965
  144.6941  139.9077  143.7462 LP  0  0  0  0  0  0  0  0  0  0  0  0  # atno 17321 bound_to 7965
  140.1896  143.4047  152.1873 LP  0  0  0  0  0  0  0  0  0  0  0  0  # atno 17342 bound_to 10162
  139.5395  144.7242  151.4781 LP  0  0  0  0  0  0  0  0  0  0  0  0  # atno 17343 bound_to 10162
  156.5083  130.8160  151.3159 LP  0  0  0  0  0  0  0  0  0  0  0  0  # atno 17370 bound_to 10713
  157.7439  130.9922  150.2629 LP  0  0  0  0  0  0  0  0  0  0  0  0  # atno 17371 bound_to 10713
  139.8742  134.9318  156.3538 LP  0  0  0  0  0  0  0  0  0  0  0  0  # atno 17394 bound_to 11000
  140.9482  133.7468  156.0237 LP  0  0  0  0  0  0  0  0  0  0  0  0  # atno 17395 bound_to 11000

$$$$
