AV-unprocessed.smi:1027|AV-procd|sdf|4469|dock4
  -GOLD-   22720 2443D 1   1.00000     0.00000
 Structure written by MMmdl.
 35 36  0  0  0  0  0  0  0  0  1 V2000
  147.4633  139.9683  155.7432 C   0  0  0  0  0  0  0  0  0  0  0  0
  148.2600  140.3883  154.4948 C   0  0  0  0  0  0  0  0  0  0  0  0
  149.4243  141.3051  154.9181 C   0  0  0  0  0  0  0  0  0  0  0  0
  147.3575  141.0365  153.4098 C   0  0  2  0  0  0  0  0  0  0  0  0
  146.6650  142.3260  153.8837 C   0  0  0  0  0  0  0  0  0  0  0  0
  146.3168  140.1034  152.9753 N   0  0  0  0  0  0  0  0  0  0  0  0
  146.4595  138.7789  152.8149 C   0  0  0  0  0  0  0  0  0  0  0  0
  147.5076  138.1728  153.0392 O   0  0  0  0  0  0  0  0  0  0  0  0
  145.3161  138.2184  152.3832 N   0  0  0  0  0  0  0  0  0  0  0  0
  145.0602  136.8521  152.0945 C   0  0  0  0  0  0  0  0  0  0  0  0
  144.4318  136.0183  152.9346 N   0  0  0  0  0  0  0  0  0  0  0  0
  144.3170  134.7403  152.4061 N   0  0  0  0  0  0  0  0  0  0  0  0
  144.8603  134.6441  151.1868 C   0  0  0  0  0  0  0  0  0  0  0  0
  144.8672  133.3656  150.4173 C   0  0  0  0  0  0  0  0  0  0  0  0
  144.0932  132.1639  150.9085 C   0  0  0  0  0  0  0  0  0  0  0  0
  145.6001  132.1420  150.9229 C   0  0  0  0  0  0  0  0  0  0  0  0
  145.5585  136.1383  150.5706 S   0  0  0  0  0  0  0  0  0  0  0  0
  146.9371  140.8170  156.1811 H   0  0  0  0  0  0  0  0  0  0  0  0
  148.1217  139.5570  156.5089 H   0  0  0  0  0  0  0  0  0  0  0  0
  146.7280  139.1972  155.5156 H   0  0  0  0  0  0  0  0  0  0  0  0
  148.7010  139.4845  154.0715 H   0  0  0  0  0  0  0  0  0  0  0  0
  149.0570  142.2581  155.3005 H   0  0  0  0  0  0  0  0  0  0  0  0
  150.0986  141.5165  154.0883 H   0  0  0  0  0  0  0  0  0  0  0  0
  150.0246  140.8422  155.7018 H   0  0  0  0  0  0  0  0  0  0  0  0
  147.9887  141.3032  152.5600 H   0  0  0  0  0  0  0  0  0  0  0  0
  147.3836  143.1173  154.0949 H   0  0  0  0  0  0  0  0  0  0  0  0
  146.0786  142.1541  154.7869 H   0  0  0  0  0  0  0  0  0  0  0  0
  145.9897  142.7107  153.1184 H   0  0  0  0  0  0  0  0  0  0  0  0
  145.4143  140.5059  152.7696 H   0  0  0  0  0  0  0  0  0  0  0  0
  144.5398  138.8453  152.2308 H   0  0  0  0  0  0  0  0  0  0  0  0
  144.8804  133.5607  149.3469 H   0  0  0  0  0  0  0  0  0  0  0  0
  143.5831  132.2478  151.8662 H   0  0  0  0  0  0  0  0  0  0  0  0
  143.5872  131.5548  150.1623 H   0  0  0  0  0  0  0  0  0  0  0  0
  146.1006  131.5177  150.1858 H   0  0  0  0  0  0  0  0  0  0  0  0
  146.0881  132.1974  151.8940 H   0  0  0  0  0  0  0  0  0  0  0  0
  1  2  1  0  0  0  0
  1 18  1  0  0  0  0
  1 19  1  0  0  0  0
  1 20  1  0  0  0  0
  2  3  1  0  0  0  0
  2  4  1  0  0  0  0
  2 21  1  0  0  0  0
  3 22  1  0  0  0  0
  3 23  1  0  0  0  0
  3 24  1  0  0  0  0
  4  5  1  0  0  0  0
  4  6  1  0  0  0  0
  4 25  1  0  0  0  0
  5 26  1  0  0  0  0
  5 27  1  0  0  0  0
  5 28  1  0  0  0  0
  6  7  1  0  0  0  0
  6 29  1  0  0  0  0
  7  8  2  0  0  0  0
  7  9  1  0  0  0  0
  9 10  1  0  0  0  0
  9 30  1  0  0  0  0
 10 17  1  0  0  0  0
 10 11  2  0  0  0  0
 11 12  1  0  0  0  0
 12 13  2  0  0  0  0
 13 14  1  0  0  0  0
 13 17  1  0  0  0  0
 14 16  1  0  0  0  0
 14 15  1  0  0  0  0
 14 31  1  0  0  0  0
 15 16  1  0  0  0  0
 15 32  1  0  0  0  0
 15 33  1  0  0  0  0
 16 34  1  0  0  0  0
 16 35  1  0  0  0  0
M  END
> <s_m_source_file>
AV-unprocessed.smi

> <i_m_source_file_index>
1027

> <i_lp_mmshare_version>
43012

> <i_f3d_flags>
0

> <s_epik_input>
W0NIM11bQ0hdKFtDSDNdKVtDQEhdKFtDSDNdKVtOSF1DKD1PKVtOSF1jMW5uYyhzMSlbQ0hdMltDSDJdW0NIMl0y

> <s_epik_cmdline>
J2VwaWtfcHl0aG9uJywgJy1waCcsICc3LjAnLCAnLXRuJywgJzgnLCAnLW1hJywgJzIwMCcsICctbWV0YWxfYmluZGluZycsICctaW1hZScsICc8aW5maWxlLm1hZT4nLCAnLW9tYWUnLCAnPG91dGZpbGUubWFlPic=

> <r_lp_tautomer_probability>
1

> <r_epik_Ionization_Penalty>
0.000943246

> <r_epik_Ionization_Penalty_Charging>
0

> <r_epik_Ionization_Penalty_Neutral>
0.000943246

> <r_epik_State_Penalty>
-0

> <r_epik_Charging_Adjusted_Penalty>
0

> <i_epik_Tot_Q>
0

> <i_epik_Tot_abs_Q>
0

> <r_epik_Metal_State_Penalty>
0.281646

> <b_epik_Metal_Only>
0

> <s_lp_Force_Field>
OPLS_2005

> <r_lp_Energy>
3.85842

> <b_lp_Chiralities_Consistent>
1

> <s_lp_Variant>
AV-unprocessed.smi:1027-1

> <Gold.Version>
5.8.1

> <Gold.Id.Protein>
6NUR|6NUR_protein|mol2

> <Gold.PLP.Fitness>
32.7834

> <Gold.PLP.PLP>
-28.8113

> <Gold.PLP.part.hbond>
-3.0000

> <Gold.PLP.part.metal>
0.0000

> <Gold.PLP.part.buried>
-4.9834

> <Gold.PLP.part.nonpolar>
-24.2036

> <Gold.PLP.part.repulsive>
3.1524

> <Gold.PLP.ligand.clash>
0.0000

> <Gold.PLP.ligand.torsion>
1.0905

> <Gold.PLP.Chemscore.Hbond>
2.0000

> <Gold.PLP.Chemscore.CHOScore>
0.0000

> <Gold.PLP.Chemscore.Metal>
0.0000

> <Gold.Chemscore.Hbonds>
donor molecule, donor type, donor heavy atom, donor atom, acceptor molecule, acceptor atom, score
      L1  H     6    29       P1 10175  1.00
      L1  H     9    30       P1 10175  1.00

> <Gold.PLP.Chemscore.Internal.Correction>
0.1530

> <Gold.Rescore>
     Score         DG    S(hbond)    S(metal)    S(lipo)     H(rot)  DE(clash)    DE(int)     intcor
     12.25     -15.75       1.87        0.00      64.85       1.39       1.58       1.92       ----

> <Gold.Chemscore.Fitness>
12.2533

> <Gold.Chemscore.DG>
-15.7501

> <Gold.Chemscore.ZeroCoef>
-5.4800

> <Gold.Chemscore.Hbond>
1.8680

> <Gold.Chemscore.Metal>
0.0000

> <Gold.Chemscore.Lipo>
64.8451

> <Gold.Chemscore.Internal_Hbond>
0.0000

> <Gold.Chemscore.DEClash>
1.5768

> <Gold.Chemscore.DEInternal>
1.9200

> <Gold.Chemscore.Rot>
1.3890

> <Gold.Chemscore.Internal.Correction>
   9.000000E+99

> <Gold.Chemscore.Hbonds>
donor molecule, donor type, donor heavy atom, donor atom, acceptor molecule, acceptor atom, score
      L1  H     6    29       P1 10175  0.73
      L1  H     9    30       P1 10175  0.97

> <Gold.Chemscore.Hbond.Weighted>
-6.2391

> <Gold.Chemscore.Metal.Weighted>
-0.0000

> <Gold.Chemscore.Lipo.Weighted>
-7.5869

> <Gold.Chemscore.Internal_Hbond.Weighted>
0.0000

> <Gold.Chemscore.DEClash.Weighted>
1.5768

> <Gold.Chemscore.DEInternal.Weighted>
1.9200

> <Gold.Chemscore.Rot.Weighted>
3.5559

> <Gold.Chemscore.Internal.Correction.Weighted>
   9.000000E+99

> <Gold.Protein.RotatedTorsions>
[ 6907 6896 6895 6894 ] final  114.33 input  -60.11 | X-H torsion
[ 7974 7965 7964 7962 ] final  -48.26 input  175.53 | X-H torsion
[ 8008 7997 7996 7995 ] final   79.55 input   59.86 | X-H torsion
[ 10167 10162 10161 10158 ] final  130.05 input  -65.29 | X-H torsion
[ 10718 10713 10712 10709 ] final  -61.46 input   66.30 | X-H torsion
[ 10763 10752 10751 10750 ] final   38.75 input  -60.55 | X-H torsion
[ 11005 11000 10999 10996 ] final  -79.50 input  -57.11 | X-H torsion

> <Gold.Protein.ActiveResidues>
 VAL166  LYS551  ARG553  GLY616  TRP617  ASP618  TYR619  PRO620  LYS621  CYS622 
 ASP623  PHE694  ASN695  SER759  ASP760  ASP761  ALA762  ILE779  LEU786  VAL792 
 PHE793  MET794  SER795  GLU796  ALA797  LYS798  CYS799  TRP800  GLU811  SER814 

> <Gold.Protein.RotatedAtoms>
  152.4809  133.8252  159.7073 H   0  0  0  0  0  0  0  0  0  0  0  0  # atno 6907 bound_to 6896
  150.8858  133.7300  159.2925 H   0  0  0  0  0  0  0  0  0  0  0  0  # atno 6908 bound_to 6896
  151.4789  135.1054  159.9824 H   0  0  0  0  0  0  0  0  0  0  0  0  # atno 6909 bound_to 6896
  145.9530  140.7554  142.9495 H   0  0  0  0  0  0  0  0  0  0  0  0  # atno 7974 bound_to 7965
  155.8712  140.3449  155.5823 H   0  0  0  0  0  0  0  0  0  0  0  0  # atno 8008 bound_to 7997
  155.7825  140.0860  157.2071 H   0  0  0  0  0  0  0  0  0  0  0  0  # atno 8009 bound_to 7997
  154.4017  140.1498  156.3056 H   0  0  0  0  0  0  0  0  0  0  0  0  # atno 8010 bound_to 7997
  139.5448  144.6764  151.4507 H   0  0  0  0  0  0  0  0  0  0  0  0  # atno 10167 bound_to 10162
  156.0920  130.4198  150.0997 H   0  0  0  0  0  0  0  0  0  0  0  0  # atno 10718 bound_to 10713
  152.9990  135.6240  154.2354 H   0  0  0  0  0  0  0  0  0  0  0  0  # atno 10763 bound_to 10752
  154.2096  135.2800  155.2964 H   0  0  0  0  0  0  0  0  0  0  0  0  # atno 10764 bound_to 10752
  154.5617  135.5703  153.7072 H   0  0  0  0  0  0  0  0  0  0  0  0  # atno 10765 bound_to 10752
  141.1667  133.7108  156.8131 H   0  0  0  0  0  0  0  0  0  0  0  0  # atno 11005 bound_to 11000
  144.6799  140.2466  143.7337 LP  0  0  0  0  0  0  0  0  0  0  0  0  # atno 17320 bound_to 7965
  145.8145  139.2017  143.1974 LP  0  0  0  0  0  0  0  0  0  0  0  0  # atno 17321 bound_to 7965
  140.6692  143.8330  150.6979 LP  0  0  0  0  0  0  0  0  0  0  0  0  # atno 17342 bound_to 10162
  140.1749  143.4163  152.1974 LP  0  0  0  0  0  0  0  0  0  0  0  0  # atno 17343 bound_to 10162
  156.9005  130.9619  151.3577 LP  0  0  0  0  0  0  0  0  0  0  0  0  # atno 17370 bound_to 10713
  157.6072  130.8556  149.8893 LP  0  0  0  0  0  0  0  0  0  0  0  0  # atno 17371 bound_to 10713
  140.2173  134.8783  157.3339 LP  0  0  0  0  0  0  0  0  0  0  0  0  # atno 17394 bound_to 11000
  140.2024  134.4238  155.7655 LP  0  0  0  0  0  0  0  0  0  0  0  0  # atno 17395 bound_to 11000

$$$$
