#       Name:                AV-unprocessed.smi:47
#       Creating user name   scv26
#       Creation time:       Thu Mar 26 16:30:24 2020


#       File generated by GOLD software.
#

@<TRIPOS>MOLECULE
AV-unprocessed.smi:47
    36    38     1
SMALL
NO_CHARGES


@<TRIPOS>ATOM
      1 ****        -4.7118  -1.0220  -1.2064 O.3            1 S1                 0.0000
      2 ****        -4.0680  -0.6479  -0.0067 C.3            1 S1                 0.0000
      3 ****        -3.6484   0.8251  -0.0074 C.3            1 S1                 0.0000
      4 ****        -2.4447   0.9064   0.8432 N.4            1 S1                 1.0000
      5 ****        -2.0024  -0.4647   1.1668 C.3            1 S1                 0.0000
      6 ****        -0.4965  -0.5959   1.0878 C.2            1 S1                 0.0000
      7 ****         0.2287  -1.4671   1.8145 N.2            1 S1                 0.0000
      8 ****         1.4845  -1.2874   1.4523 N.pl3          1 S1                -1.0000
      9 ****         1.5076  -0.3310   0.5115 C.2            1 S1                 0.0000
     10 ****         2.7623   0.1288  -0.1183 C.ar           1 S1                 0.0000
     11 ****         2.7299   1.0626  -1.1801 C.ar           1 S1                 0.0000
     12 ****         3.9178   1.5142  -1.7872 C.ar           1 S1                 0.0000
     13 ****         5.1627   1.0375  -1.3385 C.ar           1 S1                 0.0000
     14 ****         5.2143   0.1076  -0.2845 C.ar           1 S1                 0.0000
     15 ****         4.0233  -0.3421   0.3184 C.ar           1 S1                 0.0000
     16 ****         0.2848   0.1133   0.2573 N.2            1 S1                 0.0000
     17 ****        -2.7462  -1.3824   0.1930 C.3            1 S1                 0.0000
     18 ****        -4.7290  -0.8448   0.8386 H              1 S1                 0.0000
     19 ****        -2.3269  -0.6816   2.1856 H              1 S1                 0.0000
     20 ****        -4.9150  -1.9444  -1.1660 H              1 S1                 0.0000
     21 ****        -3.3664   1.1460  -1.0115 H              1 S1                 0.0000
     22 ****        -4.4395   1.4859   0.3478 H              1 S1                 0.0000
     23 ****        -1.7072   1.3680   0.3288 H              1 S1                 0.0000
     24 ****         1.7839   1.4409  -1.5389 H              1 S1                 0.0000
     25 ****         3.8728   2.2275  -2.5969 H              1 S1                 0.0000
     26 ****         6.0748   1.3838  -1.8016 H              1 S1                 0.0000
     27 ****         6.1674  -0.2617   0.0641 H              1 S1                 0.0000
     28 ****         4.0880  -1.0549   1.1274 H              1 S1                 0.0000
     29 ****        -2.8614  -2.4004   0.5667 H              1 S1                 0.0000
     30 ****        -2.2071  -1.4312  -0.7553 H              1 S1                 0.0000
     31 ****        -2.6336   1.4134   1.6954 H              1 S1                 0.0000
     32 ****        -4.1069  -0.8443  -1.9826 LP             1 S1                 0.0000
     33 ****        -5.5553  -0.4959  -1.3139 LP             1 S1                 0.0000
     34 ****        -0.1148  -2.1182   2.4913 LP             1 S1                 0.0000
     35 ****         2.2779  -1.7768   1.8144 LP             1 S1                 0.0000
     36 ****         0.0084   0.8140  -0.4004 LP             1 S1                 0.0000
@<TRIPOS>BOND
    1    1    2 1     
    2    1   20 1     
    3    2   18 1     
    4    2   17 1     
    5    2    3 1     
    6    3    4 1     
    7    3   21 1     
    8    3   22 1     
    9    4    5 1     
   10    4   23 1     
   11    4   31 1     
   12    5   19 1     
   13    5    6 1     
   14    5   17 1     
   15    6   16 1     
   16    6    7 2     
   17    7    8 1     
   18    8    9 1     
   19    9   10 1     
   20    9   16 2     
   21   10   15 ar    
   22   10   11 ar    
   23   11   12 ar    
   24   11   24 1     
   25   12   13 ar    
   26   12   25 1     
   27   13   14 ar    
   28   13   26 1     
   29   14   15 ar    
   30   14   27 1     
   31   15   28 1     
   32   17   29 1     
   33   17   30 1     
   34    1   32 1     
   35    1   33 1     
   36    7   34 1     
   37    8   35 1     
   38   16   36 1     
@<TRIPOS>SUBSTRUCTURE
      1 S1             1
@<TRIPOS>SET
LONE_PAIRS      STATIC     ATOMS    <user>   **** ""
5 32 33 34 35 36
DONOR_HYDROGENS      STATIC     ATOMS    <user>   **** ""
3 20 23 31
ATOM$BLUE        STATIC     ATOMS    COLORGROUP SYSTEM
5 32 33 34 35 36
ATOM$RED        STATIC     ATOMS    COLORGROUP SYSTEM
3 20 23 31
