AV-unprocessed.smi:446|AV-procd|sdf|2593|dock2
  -GOLD-   2262022583D 1   1.00000     0.00000
 Structure written by MMmdl.
 35 37  0  0  0  0  0  0  0  0  1 V2000
  152.2054  139.5254  157.3193 C   0  0  0  0  0  0  0  0  0  0  0  0
  152.1065  140.8094  158.0799 C   0  0  0  0  0  0  0  0  0  0  0  0
  152.5432  140.9271  159.3342 N   0  0  0  0  0  0  0  0  0  0  0  0
  152.2651  142.2480  159.6292 C   0  0  0  0  0  0  0  0  0  0  0  0
  152.4870  142.9933  160.8094 C   0  0  0  0  0  0  0  0  0  0  0  0
  152.1153  144.3523  160.8759 C   0  0  0  0  0  0  0  0  0  0  0  0
  151.5180  144.9846  159.7661 C   0  0  0  0  0  0  0  0  0  0  0  0
  151.2863  144.2600  158.5812 C   0  0  0  0  0  0  0  0  0  0  0  0
  151.6579  142.9036  158.5207 C   0  0  0  0  0  0  0  0  0  0  0  0
  151.5678  141.9276  157.5340 N   0  0  0  0  0  0  0  0  0  0  0  0
  151.0063  142.1061  156.2017 C   0  0  0  0  0  0  0  0  0  0  0  0
  150.0164  140.9859  155.8250 C   0  0  2  0  0  0  0  0  0  0  0  0
  150.5331  140.2250  154.7503 O   0  0  0  0  0  0  0  0  0  0  0  0
  148.6354  141.5459  155.5223 C   0  0  0  0  0  0  0  0  0  0  0  0
  148.1909  141.6362  154.1856 C   0  0  0  0  0  0  0  0  0  0  0  0
  146.9111  142.1485  153.8957 C   0  0  0  0  0  0  0  0  0  0  0  0
  146.0676  142.5710  154.9410 C   0  0  0  0  0  0  0  0  0  0  0  0
  144.8377  143.0637  154.6621 F   0  0  0  0  0  0  0  0  0  0  0  0
  146.5037  142.4793  156.2767 C   0  0  0  0  0  0  0  0  0  0  0  0
  147.7830  141.9667  156.5674 C   0  0  0  0  0  0  0  0  0  0  0  0
  152.6061  138.7342  157.9539 H   0  0  0  0  0  0  0  0  0  0  0  0
  152.8682  139.6463  156.4623 H   0  0  0  0  0  0  0  0  0  0  0  0
  151.2220  139.2155  156.9663 H   0  0  0  0  0  0  0  0  0  0  0  0
  152.9441  142.5182  161.6648 H   0  0  0  0  0  0  0  0  0  0  0  0
  152.2901  144.9124  161.7828 H   0  0  0  0  0  0  0  0  0  0  0  0
  151.2374  146.0261  159.8249 H   0  0  0  0  0  0  0  0  0  0  0  0
  150.8284  144.7399  157.7289 H   0  0  0  0  0  0  0  0  0  0  0  0
  150.4975  143.0707  156.1820 H   0  0  0  0  0  0  0  0  0  0  0  0
  151.8096  142.1735  155.4680 H   0  0  0  0  0  0  0  0  0  0  0  0
  149.9244  140.3011  156.6689 H   0  0  0  0  0  0  0  0  0  0  0  0
  149.8080  139.8921  154.2438 H   0  0  0  0  0  0  0  0  0  0  0  0
  148.8294  141.3121  153.3767 H   0  0  0  0  0  0  0  0  0  0  0  0
  146.5766  142.2165  152.8710 H   0  0  0  0  0  0  0  0  0  0  0  0
  145.8562  142.8009  157.0789 H   0  0  0  0  0  0  0  0  0  0  0  0
  148.1069  141.8963  157.5954 H   0  0  0  0  0  0  0  0  0  0  0  0
  1  2  1  0  0  0  0
  1 21  1  0  0  0  0
  1 22  1  0  0  0  0
  1 23  1  0  0  0  0
  2 10  1  0  0  0  0
  2  3  2  0  0  0  0
  3  4  1  0  0  0  0
  4  9  2  0  0  0  0
  4  5  1  0  0  0  0
  5  6  2  0  0  0  0
  5 24  1  0  0  0  0
  6  7  1  0  0  0  0
  6 25  1  0  0  0  0
  7  8  2  0  0  0  0
  7 26  1  0  0  0  0
  8  9  1  0  0  0  0
  8 27  1  0  0  0  0
  9 10  1  0  0  0  0
 10 11  1  0  0  0  0
 11 12  1  0  0  0  0
 11 28  1  0  0  0  0
 11 29  1  0  0  0  0
 12 13  1  0  0  0  0
 12 14  1  0  0  0  0
 12 30  1  0  0  0  0
 13 31  1  0  0  0  0
 14 20  1  0  0  0  0
 14 15  2  0  0  0  0
 15 16  1  0  0  0  0
 15 32  1  0  0  0  0
 16 17  2  0  0  0  0
 16 33  1  0  0  0  0
 17 18  1  0  0  0  0
 17 19  1  0  0  0  0
 19 20  2  0  0  0  0
 19 34  1  0  0  0  0
 20 35  1  0  0  0  0
M  END
> <s_m_source_file>
AV-unprocessed.smi

> <i_m_source_file_index>
446

> <i_lp_mmshare_version>
43012

> <i_f3d_flags>
0

> <s_epik_input>
W2NIXTFbY0hdW2NIXVtjSF1jKGMxMiluKGMobjIpW0NIM10pW0NIMl1bQ0BIXShbT0hdKWMzW2NIXVtjSF1jKEYpW2NIXVtjSF0z

> <s_epik_cmdline>
J2VwaWtfcHl0aG9uJywgJy1waCcsICc3LjAnLCAnLXRuJywgJzgnLCAnLW1hJywgJzIwMCcsICctbWV0YWxfYmluZGluZycsICctaW1hZScsICc8aW5maWxlLm1hZT4nLCAnLW9tYWUnLCAnPG91dGZpbGUubWFlPic=

> <r_epik_Ionization_Penalty>
0.129663

> <r_epik_Ionization_Penalty_Charging>
0

> <r_epik_Ionization_Penalty_Neutral>
0.129663

> <r_epik_State_Penalty>
0.119073

> <r_epik_Charging_Adjusted_Penalty>
0.119073

> <i_epik_Tot_Q>
0

> <i_epik_Tot_abs_Q>
0

> <r_epik_Metal_State_Penalty>
0.000131867

> <b_epik_Metal_Only>
0

> <s_lp_Force_Field>
OPLS_2005

> <r_lp_Energy>
11.4063

> <b_lp_Chiralities_Consistent>
1

> <s_lp_Variant>
AV-unprocessed.smi:446-1

> <Gold.Version>
5.8.1

> <Gold.Id.Protein>
6NUR|6NUR_protein|mol2

> <Gold.PLP.Fitness>
46.5443

> <Gold.PLP.PLP>
-46.1992

> <Gold.PLP.part.hbond>
-1.0000

> <Gold.PLP.part.metal>
0.0000

> <Gold.PLP.part.buried>
-5.3150

> <Gold.PLP.part.nonpolar>
-37.8511

> <Gold.PLP.part.repulsive>
0.0000

> <Gold.PLP.ligand.clash>
0.0000

> <Gold.PLP.ligand.torsion>
1.3386

> <Gold.PLP.Chemscore.Hbond>
1.0000

> <Gold.PLP.Chemscore.CHOScore>
0.0000

> <Gold.PLP.Chemscore.Metal>
0.0000

> <Gold.Chemscore.Hbonds>
donor molecule, donor type, donor heavy atom, donor atom, acceptor molecule, acceptor atom, score
      P1  H  7989  7998       L1    13  1.00

> <Gold.PLP.Chemscore.Internal.Correction>
0.0223

> <Gold.Rescore>
     Score         DG    S(hbond)    S(metal)    S(lipo)     H(rot)  DE(clash)    DE(int)     intcor
     15.95     -17.18       0.86        0.00     114.62       1.79       0.22       1.01       ----

> <Gold.Chemscore.Fitness>
15.9499

> <Gold.Chemscore.DG>
-17.1782

> <Gold.Chemscore.ZeroCoef>
-5.4800

> <Gold.Chemscore.Hbond>
0.8613

> <Gold.Chemscore.Metal>
0.0000

> <Gold.Chemscore.Lipo>
114.6210

> <Gold.Chemscore.Internal_Hbond>
0.0000

> <Gold.Chemscore.DEClash>
0.2151

> <Gold.Chemscore.DEInternal>
1.0132

> <Gold.Chemscore.Rot>
1.7926

> <Gold.Chemscore.Internal.Correction>
   9.000000E+99

> <Gold.Chemscore.Hbonds>
donor molecule, donor type, donor heavy atom, donor atom, acceptor molecule, acceptor atom, score
      P1  H  7989  7998       L1    13  0.39

> <Gold.Chemscore.Hbond.Weighted>
-2.8766

> <Gold.Chemscore.Metal.Weighted>
-0.0000

> <Gold.Chemscore.Lipo.Weighted>
-13.4107

> <Gold.Chemscore.Internal_Hbond.Weighted>
0.0000

> <Gold.Chemscore.DEClash.Weighted>
0.2151

> <Gold.Chemscore.DEInternal.Weighted>
1.0132

> <Gold.Chemscore.Rot.Weighted>
4.5890

> <Gold.Chemscore.Internal.Correction.Weighted>
   9.000000E+99

> <Gold.Protein.RotatedTorsions>
[ 6907 6896 6895 6894 ] final   82.34 input  -60.11 | X-H torsion
[ 7974 7965 7964 7962 ] final   14.29 input  175.53 | X-H torsion
[ 8008 7997 7996 7995 ] final   91.22 input   59.86 | X-H torsion
[ 10167 10162 10161 10158 ] final  165.44 input  -65.29 | X-H torsion
[ 10718 10713 10712 10709 ] final   -3.81 input   66.30 | X-H torsion
[ 10763 10752 10751 10750 ] final  -72.11 input  -60.55 | X-H torsion
[ 11005 11000 10999 10996 ] final   45.36 input  -57.11 | X-H torsion

> <Gold.Protein.ActiveResidues>
 VAL166  LYS551  ARG553  GLY616  TRP617  ASP618  TYR619  PRO620  LYS621  CYS622 
 ASP623  PHE694  ASN695  SER759  ASP760  ASP761  ALA762  ILE779  LEU786  VAL792 
 PHE793  MET794  SER795  GLU796  ALA797  LYS798  CYS799  TRP800  GLU811  SER814 

> <Gold.Protein.RotatedAtoms>
  152.5296  134.3065  159.9097 H   0  0  0  0  0  0  0  0  0  0  0  0  # atno 6907 bound_to 6896
  151.3015  133.4114  159.2648 H   0  0  0  0  0  0  0  0  0  0  0  0  # atno 6908 bound_to 6896
  151.0115  134.9417  159.8067 H   0  0  0  0  0  0  0  0  0  0  0  0  # atno 6909 bound_to 6896
  146.2309  139.9063  142.8531 H   0  0  0  0  0  0  0  0  0  0  0  0  # atno 7974 bound_to 7965
  156.0212  140.3340  155.7040 H   0  0  0  0  0  0  0  0  0  0  0  0  # atno 8008 bound_to 7997
  155.6020  140.0656  157.2748 H   0  0  0  0  0  0  0  0  0  0  0  0  # atno 8009 bound_to 7997
  154.4316  140.1808  156.1171 H   0  0  0  0  0  0  0  0  0  0  0  0  # atno 8010 bound_to 7997
  139.4906  144.4132  151.9275 H   0  0  0  0  0  0  0  0  0  0  0  0  # atno 10167 bound_to 10162
  156.7705  130.5298  149.5768 H   0  0  0  0  0  0  0  0  0  0  0  0  # atno 10718 bound_to 10713
  154.4412  135.5940  153.6130 H   0  0  0  0  0  0  0  0  0  0  0  0  # atno 10763 bound_to 10752
  152.9805  135.5998  154.3720 H   0  0  0  0  0  0  0  0  0  0  0  0  # atno 10764 bound_to 10752
  154.3570  135.2841  155.2319 H   0  0  0  0  0  0  0  0  0  0  0  0  # atno 10765 bound_to 10752
  140.1466  134.4514  155.8411 H   0  0  0  0  0  0  0  0  0  0  0  0  # atno 11005 bound_to 11000
  145.2273  140.9959  143.4011 LP  0  0  0  0  0  0  0  0  0  0  0  0  # atno 17320 bound_to 7965
  144.9560  139.4031  143.6379 LP  0  0  0  0  0  0  0  0  0  0  0  0  # atno 17321 bound_to 7965
  140.3574  144.3015  150.5939 LP  0  0  0  0  0  0  0  0  0  0  0  0  # atno 17342 bound_to 10162
  140.5433  143.2219  151.8049 LP  0  0  0  0  0  0  0  0  0  0  0  0  # atno 17343 bound_to 10162
  156.1281  130.6158  151.0293 LP  0  0  0  0  0  0  0  0  0  0  0  0  # atno 17370 bound_to 10713
  157.6693  131.0865  150.7651 LP  0  0  0  0  0  0  0  0  0  0  0  0  # atno 17371 bound_to 10713
  141.2193  133.6855  156.7346 LP  0  0  0  0  0  0  0  0  0  0  0  0  # atno 17394 bound_to 11000
  140.2656  134.8433  157.3799 LP  0  0  0  0  0  0  0  0  0  0  0  0  # atno 17395 bound_to 11000

$$$$
