AV-unprocessed.smi:1421|AV-procd|sdf|5791|dock2
  -GOLD-   22720 5443D 1   1.00000     0.00000
 Structure written by MMmdl.
 44 45  0  0  0  0  0  0  0  0  2 V2000
  146.6293  134.9614  162.0207 C   0  0  0  0  0  0  0  0  0  0  0  0
  146.9057  136.7670  162.2731 S   0  0  0  0  0  0  0  0  0  0  0  0
  145.7127  137.2350  162.9942 O   0  0  0  0  0  0  0  0  0  0  0  0
  148.1949  136.8919  162.9738 O   0  0  0  0  0  0  0  0  0  0  0  0
  146.9248  137.3355  160.7491 N   0  5  0  0  0  0  0  0  0  0  0  0
  146.8184  136.4397  159.6065 C   0  0  0  0  0  0  0  0  0  0  0  0
  148.1186  135.6182  159.4671 C   0  0  0  0  0  0  0  0  0  0  0  0
  149.3487  136.4665  159.1104 C   0  0  0  0  0  0  0  0  0  0  0  0
  150.1989  136.7369  159.9619 O   0  0  0  0  0  0  0  0  0  0  0  0
  149.4153  136.9158  157.8476 N   0  0  0  0  0  0  0  0  0  0  0  0
  150.5024  137.7237  157.3113 C   0  0  0  0  0  0  0  0  0  0  0  0
  150.0439  138.6667  156.2015 C   0  0  0  0  0  0  0  0  0  0  0  0
  149.4521  138.1311  155.0350 C   0  0  0  0  0  0  0  0  0  0  0  0
  149.0586  138.9963  153.9988 C   0  0  0  0  0  0  0  0  0  0  0  0
  149.2802  140.3746  154.1635 C   0  0  0  0  0  0  0  0  0  0  0  0
  149.8491  140.9033  155.2659 N   0  0  0  0  0  0  0  0  0  0  0  0
  150.2286  140.0750  156.2697 C   0  0  0  0  0  0  0  0  0  0  0  0
  150.7922  140.6704  157.4124 N   0  0  0  0  0  0  0  0  0  0  0  0
  152.1199  140.2137  157.8089 C   0  0  0  0  0  0  0  0  0  0  0  0
  152.4877  140.8135  159.1769 C   0  0  0  0  0  0  0  0  0  0  0  0
  152.4019  142.2347  159.1126 O   0  0  0  0  0  0  0  0  0  0  0  0
  151.0871  142.6797  158.7884 C   0  0  0  0  0  0  0  0  0  0  0  0
  150.6753  142.1231  157.4145 C   0  0  0  0  0  0  0  0  0  0  0  0
  146.4979  134.4825  162.9903 H   0  0  0  0  0  0  0  0  0  0  0  0
  147.4878  134.5175  161.5184 H   0  0  0  0  0  0  0  0  0  0  0  0
  145.7331  134.8109  161.4196 H   0  0  0  0  0  0  0  0  0  0  0  0
  145.9750  135.7557  159.7075 H   0  0  0  0  0  0  0  0  0  0  0  0
  146.6443  136.9938  158.6830 H   0  0  0  0  0  0  0  0  0  0  0  0
  148.3155  135.0767  160.3942 H   0  0  0  0  0  0  0  0  0  0  0  0
  147.9947  134.8595  158.6931 H   0  0  0  0  0  0  0  0  0  0  0  0
  148.6698  136.6683  157.2133 H   0  0  0  0  0  0  0  0  0  0  0  0
  150.9687  138.2554  158.1398 H   0  0  0  0  0  0  0  0  0  0  0  0
  151.2683  137.0689  156.8931 H   0  0  0  0  0  0  0  0  0  0  0  0
  149.3045  137.0664  154.9275 H   0  0  0  0  0  0  0  0  0  0  0  0
  148.6033  138.6126  153.0979 H   0  0  0  0  0  0  0  0  0  0  0  0
  148.9941  141.0718  153.3900 H   0  0  0  0  0  0  0  0  0  0  0  0
  152.1388  139.1243  157.8576 H   0  0  0  0  0  0  0  0  0  0  0  0
  152.8562  140.5205  157.0645 H   0  0  0  0  0  0  0  0  0  0  0  0
  151.8275  140.4335  159.9584 H   0  0  0  0  0  0  0  0  0  0  0  0
  153.5038  140.5303  159.4513 H   0  0  0  0  0  0  0  0  0  0  0  0
  150.3843  142.3645  159.5613 H   0  0  0  0  0  0  0  0  0  0  0  0
  151.0744  143.7695  158.7713 H   0  0  0  0  0  0  0  0  0  0  0  0
  151.3193  142.5354  156.6364 H   0  0  0  0  0  0  0  0  0  0  0  0
  149.6546  142.4262  157.1783 H   0  0  0  0  0  0  0  0  0  0  0  0
  1  2  1  0  0  0  0
  1 24  1  0  0  0  0
  1 25  1  0  0  0  0
  1 26  1  0  0  0  0
  2  3  2  0  0  0  0
  2  4  2  0  0  0  0
  2  5  1  0  0  0  0
  5  6  1  0  0  0  0
  6  7  1  0  0  0  0
  6 27  1  0  0  0  0
  6 28  1  0  0  0  0
  7  8  1  0  0  0  0
  7 29  1  0  0  0  0
  7 30  1  0  0  0  0
  8  9  2  0  0  0  0
  8 10  1  0  0  0  0
 10 11  1  0  0  0  0
 10 31  1  0  0  0  0
 11 12  1  0  0  0  0
 11 32  1  0  0  0  0
 11 33  1  0  0  0  0
 12 17  1  0  0  0  0
 12 13  2  0  0  0  0
 13 14  1  0  0  0  0
 13 34  1  0  0  0  0
 14 15  2  0  0  0  0
 14 35  1  0  0  0  0
 15 16  1  0  0  0  0
 15 36  1  0  0  0  0
 16 17  2  0  0  0  0
 17 18  1  0  0  0  0
 18 23  1  0  0  0  0
 18 19  1  0  0  0  0
 19 20  1  0  0  0  0
 19 37  1  0  0  0  0
 19 38  1  0  0  0  0
 20 21  1  0  0  0  0
 20 39  1  0  0  0  0
 20 40  1  0  0  0  0
 21 22  1  0  0  0  0
 22 23  1  0  0  0  0
 22 41  1  0  0  0  0
 22 42  1  0  0  0  0
 23 43  1  0  0  0  0
 23 44  1  0  0  0  0
M  CHG  1   5  -1
M  END
> <s_m_source_file>
AV-unprocessed.smi

> <i_m_source_file_index>
1421

> <i_lp_mmshare_version>
43012

> <i_f3d_flags>
0

> <s_epik_input>
W0NIM11TKD1PKSg9TylbTkhdW0NIMl1bQ0gyXUMoPU8pW05IXVtDSDJdYzFbY0hdW2NIXVtjSF1uYzFOMltDSDJdW0NIMl1PW0NIMl1bQ0gyXTI=

> <s_epik_cmdline>
J2VwaWtfcHl0aG9uJywgJy1waCcsICc3LjAnLCAnLXRuJywgJzgnLCAnLW1hJywgJzIwMCcsICctbWV0YWxfYmluZGluZycsICctaW1hZScsICc8aW5maWxlLm1hZT4nLCAnLW9tYWUnLCAnPG91dGZpbGUubWFlPic=

> <r_lp_tautomer_probability>
1

> <r_epik_Ionization_Penalty>
6.31253

> <r_epik_Ionization_Penalty_Charging>
6.30704

> <r_epik_Ionization_Penalty_Neutral>
0.00548981

> <r_epik_State_Penalty>
6.31049

> <r_epik_Charging_Adjusted_Penalty>
12.6175

> <i_epik_Tot_Q>
-1

> <i_epik_Tot_abs_Q>
1

> <r_epik_Metal_State_Penalty>
2.24651

> <b_epik_Metal_Only>
1

> <s_lp_Force_Field>
OPLS_2005

> <r_lp_Energy>
12.571

> <b_lp_Chiralities_Consistent>
1

> <s_lp_Variant>
AV-unprocessed.smi:1421-2

> <Gold.Version>
5.8.1

> <Gold.Id.Protein>
6NUR|6NUR_protein|mol2

> <Gold.PLP.Fitness>
37.9361

> <Gold.PLP.PLP>
-26.0398

> <Gold.PLP.part.hbond>
-3.7089

> <Gold.PLP.part.metal>
0.0000

> <Gold.PLP.part.buried>
-1.8096

> <Gold.PLP.part.nonpolar>
-21.9524

> <Gold.PLP.part.repulsive>
0.2054

> <Gold.PLP.ligand.clash>
0.0000

> <Gold.PLP.ligand.torsion>
1.1769

> <Gold.PLP.Chemscore.Hbond>
3.7433

> <Gold.PLP.Chemscore.CHOScore>
0.5881

> <Gold.PLP.Chemscore.Metal>
0.0000

> <Gold.Chemscore.Hbonds>
donor molecule, donor type, donor heavy atom, donor atom, acceptor molecule, acceptor atom, score
      P1  H  6896  6907       L1     9  0.90
      P1  H  6931  6943       L1     4  0.83
      P1  H  6934  6947       L1     5  2.00
      L1  C    15    36       P1  7957  0.57

> <Gold.PLP.Chemscore.Internal.Correction>
1.2561

> <Gold.Rescore>
     Score         DG    S(hbond)    S(metal)    S(lipo)     H(rot)  DE(clash)    DE(int)     intcor
     10.91     -12.17       1.76        0.00      60.64       2.46       0.02       1.24       ----

> <Gold.Chemscore.Fitness>
10.9083

> <Gold.Chemscore.DG>
-12.1656

> <Gold.Chemscore.ZeroCoef>
-5.4800

> <Gold.Chemscore.Hbond>
1.7649

> <Gold.Chemscore.Metal>
0.0000

> <Gold.Chemscore.Lipo>
60.6386

> <Gold.Chemscore.Internal_Hbond>
0.0000

> <Gold.Chemscore.DEClash>
0.0189

> <Gold.Chemscore.DEInternal>
1.2384

> <Gold.Chemscore.Rot>
2.4625

> <Gold.Chemscore.Internal.Correction>
   9.000000E+99

> <Gold.Chemscore.Hbonds>
donor molecule, donor type, donor heavy atom, donor atom, acceptor molecule, acceptor atom, score
      P1  H  6896  6907       L1     9  0.18
      P1  H  6931  6943       L1     4  0.28
      P1  H  6934  6947       L1     5  0.45

> <Gold.Chemscore.Hbond.Weighted>
-5.8949

> <Gold.Chemscore.Metal.Weighted>
-0.0000

> <Gold.Chemscore.Lipo.Weighted>
-7.0947

> <Gold.Chemscore.Internal_Hbond.Weighted>
0.0000

> <Gold.Chemscore.DEClash.Weighted>
0.0189

> <Gold.Chemscore.DEInternal.Weighted>
1.2384

> <Gold.Chemscore.Rot.Weighted>
6.3040

> <Gold.Chemscore.Internal.Correction.Weighted>
   9.000000E+99

> <Gold.Protein.RotatedTorsions>
[ 6907 6896 6895 6894 ] final  -22.84 input  -60.11 | X-H torsion
[ 7974 7965 7964 7962 ] final   21.41 input  175.53 | X-H torsion
[ 8008 7997 7996 7995 ] final   -7.46 input   59.86 | X-H torsion
[ 10167 10162 10161 10158 ] final -139.14 input  -65.29 | X-H torsion
[ 10718 10713 10712 10709 ] final -149.59 input   66.30 | X-H torsion
[ 10763 10752 10751 10750 ] final -164.32 input  -60.55 | X-H torsion
[ 11005 11000 10999 10996 ] final -103.78 input  -57.11 | X-H torsion

> <Gold.Protein.ActiveResidues>
 VAL166  LYS551  ARG553  GLY616  TRP617  ASP618  TYR619  PRO620  LYS621  CYS622 
 ASP623  PHE694  ASN695  SER759  ASP760  ASP761  ALA762  ILE779  LEU786  VAL792 
 PHE793  MET794  SER795  GLU796  ALA797  LYS798  CYS799  TRP800  GLU811  SER814 

> <Gold.Protein.RotatedAtoms>
  151.2128  135.0488  159.8917 H   0  0  0  0  0  0  0  0  0  0  0  0  # atno 6907 bound_to 6896
  152.5423  134.0726  159.8211 H   0  0  0  0  0  0  0  0  0  0  0  0  # atno 6908 bound_to 6896
  151.0882  133.5289  159.2648 H   0  0  0  0  0  0  0  0  0  0  0  0  # atno 6909 bound_to 6896
  146.2072  139.8031  142.8717 H   0  0  0  0  0  0  0  0  0  0  0  0  # atno 7974 bound_to 7965
  154.5836  140.2406  155.8018 H   0  0  0  0  0  0  0  0  0  0  0  0  # atno 8008 bound_to 7997
  156.2197  140.3001  155.9879 H   0  0  0  0  0  0  0  0  0  0  0  0  # atno 8009 bound_to 7997
  155.2497  140.0410  157.2975 H   0  0  0  0  0  0  0  0  0  0  0  0  # atno 8010 bound_to 7997
  139.8408  143.7324  152.2663 H   0  0  0  0  0  0  0  0  0  0  0  0  # atno 10167 bound_to 10162
  156.4351  130.8094  151.2322 H   0  0  0  0  0  0  0  0  0  0  0  0  # atno 10718 bound_to 10713
  154.7040  135.2993  154.9299 H   0  0  0  0  0  0  0  0  0  0  0  0  # atno 10763 bound_to 10752
  154.0222  135.6681  153.4777 H   0  0  0  0  0  0  0  0  0  0  0  0  # atno 10764 bound_to 10752
  153.0702  135.5065  154.8200 H   0  0  0  0  0  0  0  0  0  0  0  0  # atno 10765 bound_to 10752
  141.1130  133.8669  157.1529 H   0  0  0  0  0  0  0  0  0  0  0  0  # atno 11005 bound_to 11000
  145.3276  141.0259  143.3465 LP  0  0  0  0  0  0  0  0  0  0  0  0  # atno 17320 bound_to 7965
  144.8822  139.4888  143.6717 LP  0  0  0  0  0  0  0  0  0  0  0  0  # atno 17321 bound_to 7965
  139.7560  144.7520  151.0434 LP  0  0  0  0  0  0  0  0  0  0  0  0  # atno 17342 bound_to 10162
  140.7798  143.4804  151.0025 LP  0  0  0  0  0  0  0  0  0  0  0  0  # atno 17343 bound_to 10162
  157.7507  131.0186  150.3633 LP  0  0  0  0  0  0  0  0  0  0  0  0  # atno 17370 bound_to 10713
  156.3978  130.3910  149.6982 LP  0  0  0  0  0  0  0  0  0  0  0  0  # atno 17371 bound_to 10713
  140.0035  135.0018  157.0242 LP  0  0  0  0  0  0  0  0  0  0  0  0  # atno 17394 bound_to 11000
  140.4723  134.1374  155.7205 LP  0  0  0  0  0  0  0  0  0  0  0  0  # atno 17395 bound_to 11000

$$$$
