AV-unprocessed.smi:461|AV-procd|sdf|2631|dock10
  -GOLD-   2262023 33D 1   1.00000     0.00000
 Structure written by MMmdl.
 33 34  0  0  0  0  0  0  0  0  1 V2000
  152.8926  138.0098  159.0459 C   0  0  0  0  0  0  0  0  0  0  0  0
  152.3198  138.6111  157.8406 N   0  0  0  0  0  0  0  0  0  0  0  0
  151.5892  139.7620  158.0874 N   0  0  0  0  0  0  0  0  0  0  0  0
  151.0456  140.3488  157.0613 C   0  0  0  0  0  0  0  0  0  0  0  0
  150.2729  141.5021  157.1001 N   0  0  0  0  0  0  0  0  0  0  0  0
  149.9439  142.2466  158.3069 C   0  0  0  0  0  0  0  0  0  0  0  0
  151.1381  143.0589  158.8343 C   0  0  1  0  0  0  0  0  0  0  0  0
  151.6600  144.0961  157.8462 C   0  0  0  0  0  0  0  0  0  0  0  0
  152.4212  145.0395  158.7551 C   0  0  0  0  0  0  0  0  0  0  0  0
  151.6570  144.9474  160.0789 C   0  0  0  0  0  0  0  0  0  0  0  0
  150.7478  143.8587  159.9415 O   0  0  0  0  0  0  0  0  0  0  0  0
  151.2175  139.7886  155.6581 C   0  0  0  0  0  0  0  0  0  0  0  0
  150.6944  140.3515  154.6918 O   0  0  0  0  0  0  0  0  0  0  0  0
  151.9654  138.6551  155.5555 N   0  0  0  0  0  0  0  0  0  0  0  0
  152.1418  138.0942  154.2036 C   0  0  0  0  0  0  0  0  0  0  0  0
  152.5326  138.0248  156.6258 C   0  0  0  0  0  0  0  0  0  0  0  0
  153.1960  136.9904  156.5181 O   0  0  0  0  0  0  0  0  0  0  0  0
  153.9810  137.9765  158.9792 H   0  0  0  0  0  0  0  0  0  0  0  0
  152.5265  136.9909  159.1794 H   0  0  0  0  0  0  0  0  0  0  0  0
  152.6367  138.5689  159.9476 H   0  0  0  0  0  0  0  0  0  0  0  0
  149.5998  141.5447  159.0670 H   0  0  0  0  0  0  0  0  0  0  0  0
  149.1039  142.9107  158.0978 H   0  0  0  0  0  0  0  0  0  0  0  0
  151.9579  142.4047  159.1369 H   0  0  0  0  0  0  0  0  0  0  0  0
  152.2826  143.6631  157.0628 H   0  0  0  0  0  0  0  0  0  0  0  0
  150.8306  144.6231  157.3725 H   0  0  0  0  0  0  0  0  0  0  0  0
  153.4429  144.6824  158.8909 H   0  0  0  0  0  0  0  0  0  0  0  0
  152.4678  146.0555  158.3623 H   0  0  0  0  0  0  0  0  0  0  0  0
  152.3371  144.7693  160.9125 H   0  0  0  0  0  0  0  0  0  0  0  0
  151.0985  145.8604  160.2865 H   0  0  0  0  0  0  0  0  0  0  0  0
  152.8454  137.2633  154.1435 H   0  0  0  0  0  0  0  0  0  0  0  0
  152.5124  138.8546  153.5140 H   0  0  0  0  0  0  0  0  0  0  0  0
  151.1869  137.7316  153.8200 H   0  0  0  0  0  0  0  0  0  0  0  0
  149.8253  141.8496  156.2638 H   0  0  0  0  0  0  0  0  0  0  0  0
  1 18  1  0  0  0  0
  1 19  1  0  0  0  0
  1 20  1  0  0  0  0
  1  2  1  0  0  0  0
  2 16  1  0  0  0  0
  2  3  1  0  0  0  0
  3  4  2  0  0  0  0
  4 12  1  0  0  0  0
  4  5  1  0  0  0  0
  5  6  1  0  0  0  0
  5 33  1  0  0  0  0
  6  7  1  0  0  0  0
  6 21  1  0  0  0  0
  6 22  1  0  0  0  0
  7 11  1  0  0  0  0
  7  8  1  0  0  0  0
  7 23  1  0  0  0  0
  8  9  1  0  0  0  0
  8 24  1  0  0  0  0
  8 25  1  0  0  0  0
  9 10  1  0  0  0  0
  9 26  1  0  0  0  0
  9 27  1  0  0  0  0
 10 11  1  0  0  0  0
 10 28  1  0  0  0  0
 10 29  1  0  0  0  0
 12 13  2  0  0  0  0
 12 14  1  0  0  0  0
 14 15  1  0  0  0  0
 14 16  1  0  0  0  0
 15 30  1  0  0  0  0
 15 31  1  0  0  0  0
 15 32  1  0  0  0  0
 16 17  2  0  0  0  0
M  END
> <s_m_source_file>
AV-unprocessed.smi

> <i_m_source_file_index>
461

> <i_lp_mmshare_version>
43012

> <i_f3d_flags>
0

> <s_epik_input>
Tz1jMW4oW0NIM10pYyg9TyljKG5uMVtDSDNdKVtOSF1bQ0gyXVtDQEBIXTJbQ0gyXVtDSDJdW0NIMl1PMg==

> <s_epik_cmdline>
J2VwaWtfcHl0aG9uJywgJy1waCcsICc3LjAnLCAnLXRuJywgJzgnLCAnLW1hJywgJzIwMCcsICctbWV0YWxfYmluZGluZycsICctaW1hZScsICc8aW5maWxlLm1hZT4nLCAnLW9tYWUnLCAnPG91dGZpbGUubWFlPic=

> <r_lp_tautomer_probability>
1

> <r_epik_Ionization_Penalty>
0.000103292

> <r_epik_Ionization_Penalty_Charging>
5.59445e-09

> <r_epik_Ionization_Penalty_Neutral>
0.000103287

> <r_epik_State_Penalty>
-0

> <r_epik_Charging_Adjusted_Penalty>
5.59445e-09

> <i_epik_Tot_Q>
0

> <i_epik_Tot_abs_Q>
0

> <r_epik_Metal_State_Penalty>
-0

> <b_epik_Metal_Only>
0

> <s_lp_Force_Field>
OPLS_2005

> <r_lp_Energy>
40.9993

> <b_lp_Chiralities_Consistent>
1

> <s_lp_Variant>
AV-unprocessed.smi:461-2

> <Gold.Version>
5.8.1

> <Gold.Id.Protein>
6NUR|6NUR_protein|mol2

> <Gold.PLP.Fitness>
38.3320

> <Gold.PLP.PLP>
-33.1646

> <Gold.PLP.part.hbond>
-2.0000

> <Gold.PLP.part.metal>
0.0000

> <Gold.PLP.part.buried>
-6.1736

> <Gold.PLP.part.nonpolar>
-25.5653

> <Gold.PLP.part.repulsive>
0.2160

> <Gold.PLP.ligand.clash>
0.0000

> <Gold.PLP.ligand.torsion>
0.0960

> <Gold.PLP.Chemscore.Hbond>
1.7840

> <Gold.PLP.Chemscore.CHOScore>
0.0000

> <Gold.PLP.Chemscore.Metal>
0.0000

> <Gold.Chemscore.Hbonds>
donor molecule, donor type, donor heavy atom, donor atom, acceptor molecule, acceptor atom, score
      P1  H  7989  7998       L1    13  1.00
      P1  H 10752 10765       L1    17  0.78

> <Gold.PLP.Chemscore.Internal.Correction>
0.0073

> <Gold.Rescore>
     Score         DG    S(hbond)    S(metal)    S(lipo)     H(rot)  DE(clash)    DE(int)     intcor
     16.60     -16.76       1.97        0.00      68.58       1.30       0.03       0.13       ----

> <Gold.Chemscore.Fitness>
16.5982

> <Gold.Chemscore.DG>
-16.7554

> <Gold.Chemscore.ZeroCoef>
-5.4800

> <Gold.Chemscore.Hbond>
1.9664

> <Gold.Chemscore.Metal>
0.0000

> <Gold.Chemscore.Lipo>
68.5814

> <Gold.Chemscore.Internal_Hbond>
0.0000

> <Gold.Chemscore.DEClash>
0.0255

> <Gold.Chemscore.DEInternal>
0.1317

> <Gold.Chemscore.Rot>
1.2954

> <Gold.Chemscore.Internal.Correction>
   9.000000E+99

> <Gold.Chemscore.Hbonds>
donor molecule, donor type, donor heavy atom, donor atom, acceptor molecule, acceptor atom, score
      P1  H  7989  7998       L1    13  0.95
      P1  H 10752 10765       L1    17  0.74

> <Gold.Chemscore.Hbond.Weighted>
-6.5677

> <Gold.Chemscore.Metal.Weighted>
-0.0000

> <Gold.Chemscore.Lipo.Weighted>
-8.0240

> <Gold.Chemscore.Internal_Hbond.Weighted>
0.0000

> <Gold.Chemscore.DEClash.Weighted>
0.0255

> <Gold.Chemscore.DEInternal.Weighted>
0.1317

> <Gold.Chemscore.Rot.Weighted>
3.3163

> <Gold.Chemscore.Internal.Correction.Weighted>
   9.000000E+99

> <Gold.Protein.RotatedTorsions>
[ 6907 6896 6895 6894 ] final  112.49 input  -60.11 | X-H torsion
[ 7974 7965 7964 7962 ] final   59.30 input  175.53 | X-H torsion
[ 8008 7997 7996 7995 ] final -132.26 input   59.86 | X-H torsion
[ 10167 10162 10161 10158 ] final  -11.17 input  -65.29 | X-H torsion
[ 10718 10713 10712 10709 ] final   61.82 input   66.30 | X-H torsion
[ 10763 10752 10751 10750 ] final -120.96 input  -60.55 | X-H torsion
[ 11005 11000 10999 10996 ] final  -70.42 input  -57.11 | X-H torsion

> <Gold.Protein.ActiveResidues>
 VAL166  LYS551  ARG553  GLY616  TRP617  ASP618  TYR619  PRO620  LYS621  CYS622 
 ASP623  PHE694  ASN695  SER759  ASP760  ASP761  ALA762  ILE779  LEU786  VAL792 
 PHE793  MET794  SER795  GLU796  ALA797  LYS798  CYS799  TRP800  GLU811  SER814 

> <Gold.Protein.RotatedAtoms>
  152.4913  133.8509  159.7200 H   0  0  0  0  0  0  0  0  0  0  0  0  # atno 6907 bound_to 6896
  150.9046  133.7065  159.2877 H   0  0  0  0  0  0  0  0  0  0  0  0  # atno 6908 bound_to 6896
  151.4495  135.1032  159.9746 H   0  0  0  0  0  0  0  0  0  0  0  0  # atno 6909 bound_to 6896
  145.9087  139.3637  143.0548 H   0  0  0  0  0  0  0  0  0  0  0  0  # atno 7974 bound_to 7965
  155.3260  140.0464  157.3041 H   0  0  0  0  0  0  0  0  0  0  0  0  # atno 8008 bound_to 7997
  154.5354  140.2270  155.8697 H   0  0  0  0  0  0  0  0  0  0  0  0  # atno 8009 bound_to 7997
  156.1830  140.3069  155.9190 H   0  0  0  0  0  0  0  0  0  0  0  0  # atno 8010 bound_to 7997
  140.7132  143.5668  150.9135 H   0  0  0  0  0  0  0  0  0  0  0  0  # atno 10167 bound_to 10162
  157.5856  130.9016  149.9509 H   0  0  0  0  0  0  0  0  0  0  0  0  # atno 10718 bound_to 10713
  154.8657  135.4184  154.2543 H   0  0  0  0  0  0  0  0  0  0  0  0  # atno 10763 bound_to 10752
  153.3484  135.6997  153.6815 H   0  0  0  0  0  0  0  0  0  0  0  0  # atno 10764 bound_to 10752
  153.5765  135.3581  155.2831 H   0  0  0  0  0  0  0  0  0  0  0  0  # atno 10765 bound_to 10752
  141.1573  133.6789  156.6749 H   0  0  0  0  0  0  0  0  0  0  0  0  # atno 11005 bound_to 11000
  145.8699  140.9426  143.0656 LP  0  0  0  0  0  0  0  0  0  0  0  0  # atno 17320 bound_to 7965
  144.6741  140.0641  143.7475 LP  0  0  0  0  0  0  0  0  0  0  0  0  # atno 17321 bound_to 7965
  139.9394  143.6400  152.3057 LP  0  0  0  0  0  0  0  0  0  0  0  0  # atno 17342 bound_to 10162
  139.6879  144.7650  151.1491 LP  0  0  0  0  0  0  0  0  0  0  0  0  # atno 17343 bound_to 10162
  156.0904  130.3664  150.0405 LP  0  0  0  0  0  0  0  0  0  0  0  0  # atno 17370 bound_to 10713
  156.8537  130.9468  151.3623 LP  0  0  0  0  0  0  0  0  0  0  0  0  # atno 17371 bound_to 10713
  140.3146  134.8058  157.4204 LP  0  0  0  0  0  0  0  0  0  0  0  0  # atno 17394 bound_to 11000
  140.1149  134.5296  155.8234 LP  0  0  0  0  0  0  0  0  0  0  0  0  # atno 17395 bound_to 11000

$$$$
