AV-unprocessed.smi:670|AV-procd|sdf|3272|dock7
  -GOLD-   22720 0233D 1   1.00000     0.00000
 Structure written by MMmdl.
 45 46  0  0  0  0  0  0  0  0  1 V2000
  150.2794  142.1246  157.2129 C   0  0  0  0  0  0  0  0  0  0  0  0
  151.5921  142.4339  157.9518 C   0  0  1  0  0  0  0  0  0  0  0  0
  151.4068  143.6233  158.9154 C   0  0  0  0  0  0  0  0  0  0  0  0
  152.7005  143.9473  159.6778 C   0  0  0  0  0  0  0  0  0  0  0  0
  153.2173  142.7154  160.4340 C   0  0  0  0  0  0  0  0  0  0  0  0
  153.4194  141.5287  159.4805 C   0  0  0  0  0  0  0  0  0  0  0  0
  152.1256  141.1962  158.7081 C   0  0  2  0  0  0  0  0  0  0  0  0
  152.3897  140.1837  157.7452 O   0  0  0  0  0  0  0  0  0  0  0  0
  151.3659  139.2080  157.6149 C   0  0  0  0  0  0  0  0  0  0  0  0
  151.1731  138.5146  158.9713 C   0  0  0  0  0  0  0  0  0  0  0  0
  149.7949  138.0729  159.1544 N   0  0  0  0  0  0  0  0  0  0  0  0
  149.3442  136.8307  158.9245 C   0  0  0  0  0  0  0  0  0  0  0  0
  150.0553  135.9264  158.4837 O   0  0  0  0  0  0  0  0  0  0  0  0
  147.8590  136.5870  159.2297 C   0  0  0  0  0  0  0  0  0  0  0  0
  147.6166  136.1094  160.5987 N   0  0  0  0  0  0  0  0  0  0  0  0
  147.6718  137.1035  161.5640 N   0  0  0  0  0  0  0  0  0  0  0  0
  147.4611  136.8117  162.8031 C   0  0  0  0  0  0  0  0  0  0  0  0
  147.5228  137.8270  163.7260 O   0  0  0  0  0  0  0  0  0  0  0  0
  147.1692  135.4556  163.2135 C   0  0  0  0  0  0  0  0  0  0  0  0
  147.1237  134.4930  162.2667 C   0  0  0  0  0  0  0  0  0  0  0  0
  147.3588  134.7894  160.8523 C   0  0  0  0  0  0  0  0  0  0  0  0
  147.3275  133.9319  159.9702 O   0  0  0  0  0  0  0  0  0  0  0  0
  147.6404  137.4016  164.5614 H   0  0  0  0  0  0  0  0  0  0  0  0
  149.4966  141.8198  157.9082 H   0  0  0  0  0  0  0  0  0  0  0  0
  150.4089  141.3207  156.4875 H   0  0  0  0  0  0  0  0  0  0  0  0
  149.9195  142.9982  156.6693 H   0  0  0  0  0  0  0  0  0  0  0  0
  152.3338  142.7212  157.2049 H   0  0  0  0  0  0  0  0  0  0  0  0
  151.0816  144.5047  158.3617 H   0  0  0  0  0  0  0  0  0  0  0  0
  150.6131  143.3987  159.6294 H   0  0  0  0  0  0  0  0  0  0  0  0
  153.4615  144.2943  158.9776 H   0  0  0  0  0  0  0  0  0  0  0  0
  152.5258  144.7662  160.3761 H   0  0  0  0  0  0  0  0  0  0  0  0
  154.1551  142.9529  160.9368 H   0  0  0  0  0  0  0  0  0  0  0  0
  152.5075  142.4406  161.2152 H   0  0  0  0  0  0  0  0  0  0  0  0
  154.2169  141.7630  158.7741 H   0  0  0  0  0  0  0  0  0  0  0  0
  153.7578  140.6642  160.0514 H   0  0  0  0  0  0  0  0  0  0  0  0
  151.3558  140.8637  159.4073 H   0  0  0  0  0  0  0  0  0  0  0  0
  150.4323  139.6780  157.3062 H   0  0  0  0  0  0  0  0  0  0  0  0
  151.6286  138.4743  156.8514 H   0  0  0  0  0  0  0  0  0  0  0  0
  151.8267  137.6449  159.0399 H   0  0  0  0  0  0  0  0  0  0  0  0
  151.4606  139.1849  159.7829 H   0  0  0  0  0  0  0  0  0  0  0  0
  149.1433  138.7554  159.5137 H   0  0  0  0  0  0  0  0  0  0  0  0
  147.2943  137.5046  159.0531 H   0  0  0  0  0  0  0  0  0  0  0  0
  147.4793  135.8651  158.5044 H   0  0  0  0  0  0  0  0  0  0  0  0
  146.9939  135.2262  164.2544 H   0  0  0  0  0  0  0  0  0  0  0  0
  146.9075  133.4759  162.5589 H   0  0  0  0  0  0  0  0  0  0  0  0
  1  2  1  0  0  0  0
  1 24  1  0  0  0  0
  1 25  1  0  0  0  0
  1 26  1  0  0  0  0
  2  7  1  0  0  0  0
  2  3  1  0  0  0  0
  2 27  1  0  0  0  0
  3  4  1  0  0  0  0
  3 28  1  0  0  0  0
  3 29  1  0  0  0  0
  4  5  1  0  0  0  0
  4 30  1  0  0  0  0
  4 31  1  0  0  0  0
  5  6  1  0  0  0  0
  5 32  1  0  0  0  0
  5 33  1  0  0  0  0
  6  7  1  0  0  0  0
  6 34  1  0  0  0  0
  6 35  1  0  0  0  0
  7  8  1  0  0  0  0
  7 36  1  0  0  0  0
  8  9  1  0  0  0  0
  9 10  1  0  0  0  0
  9 37  1  0  0  0  0
  9 38  1  0  0  0  0
 10 11  1  0  0  0  0
 10 39  1  0  0  0  0
 10 40  1  0  0  0  0
 11 12  1  0  0  0  0
 11 41  1  0  0  0  0
 12 13  2  0  0  0  0
 12 14  1  0  0  0  0
 14 42  1  0  0  0  0
 14 43  1  0  0  0  0
 14 15  1  0  0  0  0
 15 16  1  0  0  0  0
 15 21  1  0  0  0  0
 16 17  2  0  0  0  0
 17 18  1  0  0  0  0
 17 19  1  0  0  0  0
 18 23  1  0  0  0  0
 19 44  1  0  0  0  0
 19 20  2  0  0  0  0
 20 45  1  0  0  0  0
 20 21  1  0  0  0  0
 21 22  2  0  0  0  0
M  END
> <s_m_source_file>
AV-unprocessed.smi

> <i_m_source_file_index>
670

> <i_lp_mmshare_version>
43012

> <i_f3d_flags>
0

> <s_epik_input>
W0NIM11bQ0BASF0xW0NIMl1bQ0gyXVtDSDJdW0NIMl1bQ0BIXTFPW0NIMl1bQ0gyXVtOSF1DKD1PKVtDSDJdbjJbbkhdYyg9TylbY0hdW2NIXWMyPU8=

> <s_epik_cmdline>
J2VwaWtfcHl0aG9uJywgJy1waCcsICc3LjAnLCAnLXRuJywgJzgnLCAnLW1hJywgJzIwMCcsICctbWV0YWxfYmluZGluZycsICctaW1hZScsICc8aW5maWxlLm1hZT4nLCAnLW9tYWUnLCAnPG91dGZpbGUubWFlPic=

> <r_lp_tautomer_probability>
0.9996

> <r_epik_Ionization_Penalty>
2.12726

> <r_epik_Ionization_Penalty_Charging>
3.83395e-08

> <r_epik_Ionization_Penalty_Neutral>
2.12726

> <r_epik_State_Penalty>
1.70432

> <r_epik_Charging_Adjusted_Penalty>
1.70432

> <i_epik_Tot_Q>
0

> <i_epik_Tot_abs_Q>
0

> <r_epik_Metal_State_Penalty>
1.70432

> <b_epik_Metal_Only>
0

> <s_lp_Force_Field>
OPLS_2005

> <r_lp_Energy>
20.1935

> <b_lp_Chiralities_Consistent>
1

> <s_lp_Variant>
AV-unprocessed.smi:670-8

> <Gold.Version>
5.8.1

> <Gold.Id.Protein>
6NUR|6NUR_protein|mol2

> <Gold.PLP.Fitness>
51.4772

> <Gold.PLP.PLP>
-45.5701

> <Gold.PLP.part.hbond>
-5.8448

> <Gold.PLP.part.metal>
0.0000

> <Gold.PLP.part.buried>
-4.0251

> <Gold.PLP.part.nonpolar>
-36.3576

> <Gold.PLP.part.repulsive>
0.2233

> <Gold.PLP.ligand.clash>
0.0000

> <Gold.PLP.ligand.torsion>
1.5133

> <Gold.PLP.Chemscore.Hbond>
2.9665

> <Gold.PLP.Chemscore.CHOScore>
0.0000

> <Gold.PLP.Chemscore.Metal>
0.0000

> <Gold.Chemscore.Hbonds>
donor molecule, donor type, donor heavy atom, donor atom, acceptor molecule, acceptor atom, score
      P1  H  6896  6909       L1    13  1.00
      P1  H  6931  6943       L1    16  0.75
      P1  H  6934  6947       L1    16  0.70
      P1  H  7997  8010       L1     8  0.44

> <Gold.PLP.Chemscore.Internal.Correction>
0.0341

> <Gold.Rescore>
     Score         DG    S(hbond)    S(metal)    S(lipo)     H(rot)  DE(clash)    DE(int)     intcor
     15.94     -17.50       2.47        0.00      99.95       3.09       0.02       1.53       ----

> <Gold.Chemscore.Fitness>
15.9422

> <Gold.Chemscore.DG>
-17.4974

> <Gold.Chemscore.ZeroCoef>
-5.4800

> <Gold.Chemscore.Hbond>
2.4653

> <Gold.Chemscore.Metal>
0.0000

> <Gold.Chemscore.Lipo>
99.9476

> <Gold.Chemscore.Internal_Hbond>
0.0000

> <Gold.Chemscore.DEClash>
0.0227

> <Gold.Chemscore.DEInternal>
1.5325

> <Gold.Chemscore.Rot>
3.0901

> <Gold.Chemscore.Internal.Correction>
   9.000000E+99

> <Gold.Chemscore.Hbonds>
donor molecule, donor type, donor heavy atom, donor atom, acceptor molecule, acceptor atom, score
      P1  H  6896  6909       L1    13  0.92
      P1  H  6931  6943       L1    16  0.09
      P1  H  6934  6947       L1    16  0.60
      P1  H  7997  8010       L1     8  0.40

> <Gold.Chemscore.Hbond.Weighted>
-8.2341

> <Gold.Chemscore.Metal.Weighted>
-0.0000

> <Gold.Chemscore.Lipo.Weighted>
-11.6939

> <Gold.Chemscore.Internal_Hbond.Weighted>
0.0000

> <Gold.Chemscore.DEClash.Weighted>
0.0227

> <Gold.Chemscore.DEInternal.Weighted>
1.5325

> <Gold.Chemscore.Rot.Weighted>
7.9106

> <Gold.Chemscore.Internal.Correction.Weighted>
   9.000000E+99

> <Gold.Protein.RotatedTorsions>
[ 6907 6896 6895 6894 ] final   64.45 input  -60.11 | X-H torsion
[ 7974 7965 7964 7962 ] final -160.79 input  175.53 | X-H torsion
[ 8008 7997 7996 7995 ] final   53.29 input   59.86 | X-H torsion
[ 10167 10162 10161 10158 ] final -132.17 input  -65.29 | X-H torsion
[ 10718 10713 10712 10709 ] final  -88.88 input   66.30 | X-H torsion
[ 10763 10752 10751 10750 ] final  173.18 input  -60.55 | X-H torsion
[ 11005 11000 10999 10996 ] final  135.52 input  -57.11 | X-H torsion

> <Gold.Protein.ActiveResidues>
 VAL166  LYS551  ARG553  GLY616  TRP617  ASP618  TYR619  PRO620  LYS621  CYS622 
 ASP623  PHE694  ASN695  SER759  ASP760  ASP761  ALA762  ILE779  LEU786  VAL792 
 PHE793  MET794  SER795  GLU796  ALA797  LYS798  CYS799  TRP800  GLU811  SER814 

> <Gold.Protein.RotatedAtoms>
  152.4332  134.5737  159.9928 H   0  0  0  0  0  0  0  0  0  0  0  0  # atno 6907 bound_to 6896
  151.5855  133.3367  159.3025 H   0  0  0  0  0  0  0  0  0  0  0  0  # atno 6908 bound_to 6896
  150.8227  134.7478  159.6851 H   0  0  0  0  0  0  0  0  0  0  0  0  # atno 6909 bound_to 6896
  144.7414  140.3491  143.6119 H   0  0  0  0  0  0  0  0  0  0  0  0  # atno 7974 bound_to 7965
  155.4658  140.3463  155.4319 H   0  0  0  0  0  0  0  0  0  0  0  0  # atno 8008 bound_to 7997
  156.1132  140.1466  156.9339 H   0  0  0  0  0  0  0  0  0  0  0  0  # atno 8009 bound_to 7997
  154.4770  140.0882  156.7266 H   0  0  0  0  0  0  0  0  0  0  0  0  # atno 8010 bound_to 7997
  139.9113  143.6491  152.2574 H   0  0  0  0  0  0  0  0  0  0  0  0  # atno 10167 bound_to 10162
  155.9984  130.4852  150.5086 H   0  0  0  0  0  0  0  0  0  0  0  0  # atno 10718 bound_to 10713
  154.4364  135.2761  155.1877 H   0  0  0  0  0  0  0  0  0  0  0  0  # atno 10763 bound_to 10752
  154.3762  135.6098  153.5769 H   0  0  0  0  0  0  0  0  0  0  0  0  # atno 10764 bound_to 10752
  152.9838  135.5869  154.4685 H   0  0  0  0  0  0  0  0  0  0  0  0  # atno 10765 bound_to 10752
  139.9985  134.9488  157.0019 H   0  0  0  0  0  0  0  0  0  0  0  0  # atno 11005 bound_to 11000
  145.7295  139.1732  143.2438 LP  0  0  0  0  0  0  0  0  0  0  0  0  # atno 17320 bound_to 7965
  146.1217  140.7300  142.9454 LP  0  0  0  0  0  0  0  0  0  0  0  0  # atno 17321 bound_to 7965
  139.6940  144.7643  151.1389 LP  0  0  0  0  0  0  0  0  0  0  0  0  # atno 17342 bound_to 10162
  140.7684  143.5549  150.9163 LP  0  0  0  0  0  0  0  0  0  0  0  0  # atno 17343 bound_to 10162
  157.3062  131.0655  151.2033 LP  0  0  0  0  0  0  0  0  0  0  0  0  # atno 17370 bound_to 10713
  157.2995  130.6836  149.6157 LP  0  0  0  0  0  0  0  0  0  0  0  0  # atno 17371 bound_to 10713
  140.4772  134.1326  155.7211 LP  0  0  0  0  0  0  0  0  0  0  0  0  # atno 17394 bound_to 11000
  141.1623  133.8769  157.1812 LP  0  0  0  0  0  0  0  0  0  0  0  0  # atno 17395 bound_to 11000

$$$$
