AV-unprocessed.smi:2334|AV-procd|sdf|9321|dock9
  -GOLD-   2272012543D 1   1.00000     0.00000
 Structure written by MMmdl.
 49 51  0  0  0  0  0  0  0  0  1 V2000
  149.3131  139.2593  154.1040 C   0  0  0  0  0  0  0  0  0  0  0  0
  150.2547  138.8312  155.2162 C   0  0  0  0  0  0  0  0  0  0  0  0
  150.8031  139.8385  155.9301 N   0  0  0  0  0  0  0  0  0  0  0  0
  151.6488  139.5453  156.9457 C   0  0  0  0  0  0  0  0  0  0  0  0
  152.2011  140.6257  157.6617 N   0  0  0  0  0  0  0  0  0  0  0  0
  151.5830  141.9426  157.6598 C   0  0  0  0  0  0  0  0  0  0  0  0
  152.4011  142.7546  158.6627 C   0  0  0  0  0  0  0  0  0  0  0  0
  152.8267  141.7065  159.6910 C   0  0  0  0  0  0  0  0  0  0  0  0
  152.9866  140.4209  158.8711 C   0  0  0  0  0  0  0  0  0  0  0  0
  151.9772  138.2103  157.2757 C   0  0  0  0  0  0  0  0  0  0  0  0
  151.4073  137.1603  156.5321 C   0  0  0  0  0  0  0  0  0  0  0  0
  150.5297  137.4661  155.4655 C   0  0  0  0  0  0  0  0  0  0  0  0
  149.8873  136.4732  154.6737 N   0  0  0  0  0  0  0  0  0  0  0  0
  149.4916  135.2416  155.0381 C   0  0  0  0  0  0  0  0  0  0  0  0
  149.6511  134.7494  156.1544 O   0  0  0  0  0  0  0  0  0  0  0  0
  148.9138  134.6014  154.0079 N   0  0  0  0  0  0  0  0  0  0  0  0
  148.3661  133.2367  153.9679 C   0  0  0  0  0  0  0  0  0  0  0  0
  149.4605  132.2187  154.3551 C   0  0  0  0  0  0  0  0  0  0  0  0
  147.2144  133.1599  154.9937 C   0  0  0  0  0  0  0  0  0  0  0  0
  145.9951  133.9967  154.5610 C   0  0  0  0  0  0  0  0  0  0  0  0
  145.5462  133.5794  153.2773 O   0  0  0  0  0  0  0  0  0  0  0  0
  146.5285  133.7549  152.2628 C   0  0  0  0  0  0  0  0  0  0  0  0
  147.7679  132.8988  152.5803 C   0  0  0  0  0  0  0  0  0  0  0  0
  149.6674  138.8862  153.1424 H   0  0  0  0  0  0  0  0  0  0  0  0
  149.2393  140.3457  154.0364 H   0  0  0  0  0  0  0  0  0  0  0  0
  148.3124  138.8641  154.2814 H   0  0  0  0  0  0  0  0  0  0  0  0
  151.5983  142.3937  156.6669 H   0  0  0  0  0  0  0  0  0  0  0  0
  150.5455  141.8591  157.9869 H   0  0  0  0  0  0  0  0  0  0  0  0
  153.2833  143.1680  158.1718 H   0  0  0  0  0  0  0  0  0  0  0  0
  151.8388  143.5803  159.0993 H   0  0  0  0  0  0  0  0  0  0  0  0
  153.7346  141.9807  160.2288 H   0  0  0  0  0  0  0  0  0  0  0  0
  152.0306  141.5736  160.4247 H   0  0  0  0  0  0  0  0  0  0  0  0
  152.6514  139.5529  159.4401 H   0  0  0  0  0  0  0  0  0  0  0  0
  154.0292  140.2669  158.5914 H   0  0  0  0  0  0  0  0  0  0  0  0
  152.6557  137.9774  158.0827 H   0  0  0  0  0  0  0  0  0  0  0  0
  151.6441  136.1434  156.8037 H   0  0  0  0  0  0  0  0  0  0  0  0
  149.7758  136.7049  153.6976 H   0  0  0  0  0  0  0  0  0  0  0  0
  148.8478  135.1151  153.1413 H   0  0  0  0  0  0  0  0  0  0  0  0
  149.0540  131.2093  154.4256 H   0  0  0  0  0  0  0  0  0  0  0  0
  149.9029  132.4605  155.3221 H   0  0  0  0  0  0  0  0  0  0  0  0
  150.2666  132.1847  153.6223 H   0  0  0  0  0  0  0  0  0  0  0  0
  146.8957  132.1230  155.1100 H   0  0  0  0  0  0  0  0  0  0  0  0
  147.5564  133.4831  155.9778 H   0  0  0  0  0  0  0  0  0  0  0  0
  145.1815  133.8653  155.2746 H   0  0  0  0  0  0  0  0  0  0  0  0
  146.2308  135.0618  154.5463 H   0  0  0  0  0  0  0  0  0  0  0  0
  146.1012  133.4511  151.3071 H   0  0  0  0  0  0  0  0  0  0  0  0
  146.7904  134.8099  152.1697 H   0  0  0  0  0  0  0  0  0  0  0  0
  148.5087  133.0082  151.7887 H   0  0  0  0  0  0  0  0  0  0  0  0
  147.4727  131.8487  152.5624 H   0  0  0  0  0  0  0  0  0  0  0  0
  1  2  1  0  0  0  0
  1 24  1  0  0  0  0
  1 25  1  0  0  0  0
  1 26  1  0  0  0  0
  2 12  1  0  0  0  0
  2  3  2  0  0  0  0
  3  4  1  0  0  0  0
  4  5  1  0  0  0  0
  4 10  2  0  0  0  0
  5  9  1  0  0  0  0
  5  6  1  0  0  0  0
  6  7  1  0  0  0  0
  6 27  1  0  0  0  0
  6 28  1  0  0  0  0
  7  8  1  0  0  0  0
  7 29  1  0  0  0  0
  7 30  1  0  0  0  0
  8  9  1  0  0  0  0
  8 31  1  0  0  0  0
  8 32  1  0  0  0  0
  9 33  1  0  0  0  0
  9 34  1  0  0  0  0
 10 11  1  0  0  0  0
 10 35  1  0  0  0  0
 11 12  2  0  0  0  0
 11 36  1  0  0  0  0
 12 13  1  0  0  0  0
 13 14  1  0  0  0  0
 13 37  1  0  0  0  0
 14 15  2  0  0  0  0
 14 16  1  0  0  0  0
 16 17  1  0  0  0  0
 16 38  1  0  0  0  0
 17 23  1  0  0  0  0
 17 18  1  0  0  0  0
 17 19  1  0  0  0  0
 18 39  1  0  0  0  0
 18 40  1  0  0  0  0
 18 41  1  0  0  0  0
 19 20  1  0  0  0  0
 19 42  1  0  0  0  0
 19 43  1  0  0  0  0
 20 21  1  0  0  0  0
 20 44  1  0  0  0  0
 20 45  1  0  0  0  0
 21 22  1  0  0  0  0
 22 23  1  0  0  0  0
 22 46  1  0  0  0  0
 22 47  1  0  0  0  0
 23 48  1  0  0  0  0
 23 49  1  0  0  0  0
M  END
> <s_m_source_file>
AV-unprocessed.smi

> <i_m_source_file_index>
2334

> <i_lp_mmshare_version>
43012

> <i_f3d_flags>
0

> <s_epik_input>
W0NIMl0xW0NIMl1bQ0gyXVtDSDJdTjFjKG5jMltDSDNdKVtjSF1bY0hdYzJbTkhdQyg9TylbTkhdQzMoW0NIM10pW0NIMl1bQ0gyXU9bQ0gyXVtDSDJdMw==

> <s_epik_cmdline>
J2VwaWtfcHl0aG9uJywgJy1waCcsICc3LjAnLCAnLXRuJywgJzgnLCAnLW1hJywgJzIwMCcsICctbWV0YWxfYmluZGluZycsICctaW1hZScsICc8aW5maWxlLm1hZT4nLCAnLW9tYWUnLCAnPG91dGZpbGUubWFlPic=

> <r_lp_tautomer_probability>
1

> <r_epik_Ionization_Penalty>
0.314437

> <r_epik_Ionization_Penalty_Charging>
0

> <r_epik_Ionization_Penalty_Neutral>
0.314437

> <r_epik_State_Penalty>
0.308039

> <r_epik_Charging_Adjusted_Penalty>
0.308039

> <i_epik_Tot_Q>
0

> <i_epik_Tot_abs_Q>
0

> <r_epik_Metal_State_Penalty>
0.200041

> <b_epik_Metal_Only>
0

> <s_lp_Force_Field>
OPLS_2005

> <r_lp_Energy>
36.0775

> <b_lp_Chiralities_Consistent>
1

> <s_lp_Variant>
AV-unprocessed.smi:2334-1

> <Gold.Version>
5.8.1

> <Gold.Id.Protein>
6NUR|6NUR_protein|mol2

> <Gold.PLP.Fitness>
38.1142

> <Gold.PLP.PLP>
-32.6236

> <Gold.PLP.part.hbond>
-2.0000

> <Gold.PLP.part.metal>
0.0000

> <Gold.PLP.part.buried>
-3.6708

> <Gold.PLP.part.nonpolar>
-27.1055

> <Gold.PLP.part.repulsive>
0.1635

> <Gold.PLP.ligand.clash>
0.0000

> <Gold.PLP.ligand.torsion>
0.3259

> <Gold.PLP.Chemscore.Hbond>
1.9833

> <Gold.PLP.Chemscore.CHOScore>
0.0000

> <Gold.PLP.Chemscore.Metal>
0.0000

> <Gold.Chemscore.Hbonds>
donor molecule, donor type, donor heavy atom, donor atom, acceptor molecule, acceptor atom, score
      L1  H    13    37       P1  7948  0.97
      L1  H    16    38       P1  7948  1.00

> <Gold.PLP.Chemscore.Internal.Correction>
0.1924

> <Gold.Rescore>
     Score         DG    S(hbond)    S(metal)    S(lipo)     H(rot)  DE(clash)    DE(int)     intcor
     16.84     -18.14       1.79        0.00      79.06       1.00       0.03       1.27       ----

> <Gold.Chemscore.Fitness>
16.8413

> <Gold.Chemscore.DG>
-18.1405

> <Gold.Chemscore.ZeroCoef>
-5.4800

> <Gold.Chemscore.Hbond>
1.7876

> <Gold.Chemscore.Metal>
0.0000

> <Gold.Chemscore.Lipo>
79.0599

> <Gold.Chemscore.Internal_Hbond>
0.0000

> <Gold.Chemscore.DEClash>
0.0291

> <Gold.Chemscore.DEInternal>
1.2701

> <Gold.Chemscore.Rot>
1.0000

> <Gold.Chemscore.Internal.Correction>
   9.000000E+99

> <Gold.Chemscore.Hbonds>
donor molecule, donor type, donor heavy atom, donor atom, acceptor molecule, acceptor atom, score
      L1  H    13    37       P1  7948  0.43
      L1  H    16    38       P1  7948  0.40

> <Gold.Chemscore.Hbond.Weighted>
-5.9705

> <Gold.Chemscore.Metal.Weighted>
-0.0000

> <Gold.Chemscore.Lipo.Weighted>
-9.2500

> <Gold.Chemscore.Internal_Hbond.Weighted>
0.0000

> <Gold.Chemscore.DEClash.Weighted>
0.0291

> <Gold.Chemscore.DEInternal.Weighted>
1.2701

> <Gold.Chemscore.Rot.Weighted>
2.5600

> <Gold.Chemscore.Internal.Correction.Weighted>
   9.000000E+99

> <Gold.Protein.RotatedTorsions>
[ 6907 6896 6895 6894 ] final -163.68 input  -60.11 | X-H torsion
[ 7974 7965 7964 7962 ] final -158.52 input  175.53 | X-H torsion
[ 8008 7997 7996 7995 ] final   65.14 input   59.86 | X-H torsion
[ 10167 10162 10161 10158 ] final   78.96 input  -65.29 | X-H torsion
[ 10718 10713 10712 10709 ] final  162.40 input   66.30 | X-H torsion
[ 10763 10752 10751 10750 ] final -135.47 input  -60.55 | X-H torsion
[ 11005 11000 10999 10996 ] final  158.84 input  -57.11 | X-H torsion

> <Gold.Protein.ActiveResidues>
 VAL166  LYS551  ARG553  GLY616  TRP617  ASP618  TYR619  PRO620  LYS621  CYS622 
 ASP623  PHE694  ASN695  SER759  ASP760  ASP761  ALA762  ILE779  LEU786  VAL792 
 PHE793  MET794  SER795  GLU796  ALA797  LYS798  CYS799  TRP800  GLU811  SER814 

> <Gold.Protein.RotatedAtoms>
  151.3998  133.3761  159.2730 H   0  0  0  0  0  0  0  0  0  0  0  0  # atno 6907 bound_to 6896
  150.9442  134.8849  159.7642 H   0  0  0  0  0  0  0  0  0  0  0  0  # atno 6908 bound_to 6896
  152.5084  134.3951  159.9449 H   0  0  0  0  0  0  0  0  0  0  0  0  # atno 6909 bound_to 6896
  144.7502  140.3815  143.6054 H   0  0  0  0  0  0  0  0  0  0  0  0  # atno 7974 bound_to 7965
  155.6571  140.3497  155.4769 H   0  0  0  0  0  0  0  0  0  0  0  0  # atno 8008 bound_to 7997
  155.9799  140.1172  157.0759 H   0  0  0  0  0  0  0  0  0  0  0  0  # atno 8009 bound_to 7997
  154.4189  140.1140  156.5407 H   0  0  0  0  0  0  0  0  0  0  0  0  # atno 8010 bound_to 7997
  139.9653  144.5932  150.8034 H   0  0  0  0  0  0  0  0  0  0  0  0  # atno 10167 bound_to 10162
  157.1230  131.0497  151.2406 H   0  0  0  0  0  0  0  0  0  0  0  0  # atno 10718 bound_to 10713
  154.8702  135.3702  154.4903 H   0  0  0  0  0  0  0  0  0  0  0  0  # atno 10763 bound_to 10752
  153.5550  135.7024  153.5578 H   0  0  0  0  0  0  0  0  0  0  0  0  # atno 10764 bound_to 10752
  153.3680  135.4029  155.1731 H   0  0  0  0  0  0  0  0  0  0  0  0  # atno 10765 bound_to 10752
  140.1904  134.8411  157.2906 H   0  0  0  0  0  0  0  0  0  0  0  0  # atno 11005 bound_to 11000
  145.6972  139.1652  143.2613 LP  0  0  0  0  0  0  0  0  0  0  0  0  # atno 17320 bound_to 7965
  146.1441  140.7016  142.9353 LP  0  0  0  0  0  0  0  0  0  0  0  0  # atno 17321 bound_to 7965
  140.7540  143.3018  151.3061 LP  0  0  0  0  0  0  0  0  0  0  0  0  # atno 17342 bound_to 10162
  139.6522  144.0341  152.2634 LP  0  0  0  0  0  0  0  0  0  0  0  0  # atno 17343 bound_to 10162
  157.4460  130.7571  149.7110 LP  0  0  0  0  0  0  0  0  0  0  0  0  # atno 17370 bound_to 10713
  155.9824  130.4010  150.3417 LP  0  0  0  0  0  0  0  0  0  0  0  0  # atno 17371 bound_to 10713
  140.2166  134.4074  155.7586 LP  0  0  0  0  0  0  0  0  0  0  0  0  # atno 17394 bound_to 11000
  141.2226  133.7145  156.8423 LP  0  0  0  0  0  0  0  0  0  0  0  0  # atno 17395 bound_to 11000

$$$$
