AV-unprocessed.smi:1648|AV-procd|sdf|6628|dock7
  -GOLD-   22720 7323D 1   1.00000     0.00000
 Structure written by MMmdl.
 42 42  0  0  0  0  0  0  0  0  2 V2000
  147.8913  139.1721  153.7809 C   0  0  0  0  0  0  0  0  0  0  0  0
  148.0827  138.0614  154.8154 C   0  0  0  0  0  0  0  0  0  0  0  0
  148.0607  138.3406  156.0117 O   0  0  0  0  0  0  0  0  0  0  0  0
  148.2697  136.7969  154.3984 N   0  0  0  0  0  0  0  0  0  0  0  0
  148.4699  135.6032  155.2257 C   0  0  1  0  0  0  0  0  0  0  0  0
  147.5133  134.4970  154.7372 C   0  0  0  0  0  0  0  0  0  0  0  0
  146.7619  133.9243  155.5278 O   0  0  0  0  0  0  0  0  0  0  0  0
  147.5522  134.2156  153.4250 N   0  0  0  0  0  0  0  0  0  0  0  0
  146.7989  133.1607  152.7486 C   0  0  2  0  0  0  0  0  0  0  0  0
  147.3494  131.8025  153.2044 C   0  0  0  0  0  0  0  0  0  0  0  0
  146.8728  133.3031  151.2119 C   0  0  0  0  0  0  0  0  0  0  0  0
  145.5704  133.1594  150.5505 N   0  0  0  0  0  0  0  0  0  0  0  0
  145.2029  132.2029  149.6380 C   0  0  0  0  0  0  0  0  0  0  0  0
  143.9031  132.4693  149.2932 C   0  0  0  0  0  0  0  0  0  0  0  0
  143.5371  133.5856  149.9958 N   0  3  0  0  0  0  0  0  0  0  0  0
  144.5552  134.0096  150.7514 C   0  0  0  0  0  0  0  0  0  0  0  0
  149.9467  135.1300  155.0787 C   0  0  0  0  0  0  0  0  0  0  0  0
  150.1925  133.7377  155.6948 C   0  0  0  0  0  0  0  0  0  0  0  0
  150.9431  136.1301  155.6993 C   0  0  0  0  0  0  0  0  0  0  0  0
  148.7564  139.2445  153.1217 H   0  0  0  0  0  0  0  0  0  0  0  0
  147.7667  140.1367  154.2743 H   0  0  0  0  0  0  0  0  0  0  0  0
  147.0026  138.9891  153.1769 H   0  0  0  0  0  0  0  0  0  0  0  0
  148.2581  136.6429  153.4006 H   0  0  0  0  0  0  0  0  0  0  0  0
  148.2729  135.8366  156.2736 H   0  0  0  0  0  0  0  0  0  0  0  0
  148.1949  134.7456  152.8539 H   0  0  0  0  0  0  0  0  0  0  0  0
  145.7547  133.2016  153.0638 H   0  0  0  0  0  0  0  0  0  0  0  0
  146.7900  130.9808  152.7561 H   0  0  0  0  0  0  0  0  0  0  0  0
  147.2794  131.6930  154.2874 H   0  0  0  0  0  0  0  0  0  0  0  0
  148.3968  131.6828  152.9245 H   0  0  0  0  0  0  0  0  0  0  0  0
  147.3101  134.2630  150.9315 H   0  0  0  0  0  0  0  0  0  0  0  0
  147.5186  132.5297  150.7942 H   0  0  0  0  0  0  0  0  0  0  0  0
  145.8727  131.4181  149.3175 H   0  0  0  0  0  0  0  0  0  0  0  0
  143.2304  131.9637  148.6158 H   0  0  0  0  0  0  0  0  0  0  0  0
  144.5526  134.8674  151.4001 H   0  0  0  0  0  0  0  0  0  0  0  0
  150.1848  135.0621  154.0155 H   0  0  0  0  0  0  0  0  0  0  0  0
  149.9482  133.7291  156.7574 H   0  0  0  0  0  0  0  0  0  0  0  0
  151.2376  133.4435  155.5940 H   0  0  0  0  0  0  0  0  0  0  0  0
  149.5997  132.9630  155.2122 H   0  0  0  0  0  0  0  0  0  0  0  0
  150.7413  136.2815  156.7601 H   0  0  0  0  0  0  0  0  0  0  0  0
  150.9059  137.1040  155.2113 H   0  0  0  0  0  0  0  0  0  0  0  0
  151.9686  135.7715  155.6062 H   0  0  0  0  0  0  0  0  0  0  0  0
  142.6286  134.0299  149.9490 H   0  0  0  0  0  0  0  0  0  0  0  0
  1  2  1  0  0  0  0
  1 20  1  0  0  0  0
  1 21  1  0  0  0  0
  1 22  1  0  0  0  0
  2  3  2  0  0  0  0
  2  4  1  0  0  0  0
  4  5  1  0  0  0  0
  4 23  1  0  0  0  0
  5  6  1  0  0  0  0
  5 17  1  0  0  0  0
  5 24  1  0  0  0  0
  6  7  2  0  0  0  0
  6  8  1  0  0  0  0
  8  9  1  0  0  0  0
  8 25  1  0  0  0  0
  9 10  1  0  0  0  0
  9 11  1  0  0  0  0
  9 26  1  0  0  0  0
 10 27  1  0  0  0  0
 10 28  1  0  0  0  0
 10 29  1  0  0  0  0
 11 12  1  0  0  0  0
 11 30  1  0  0  0  0
 11 31  1  0  0  0  0
 12 16  1  0  0  0  0
 12 13  1  0  0  0  0
 13 14  2  0  0  0  0
 13 32  1  0  0  0  0
 14 15  1  0  0  0  0
 14 33  1  0  0  0  0
 15 16  2  0  0  0  0
 15 42  1  0  0  0  0
 16 34  1  0  0  0  0
 17 18  1  0  0  0  0
 17 19  1  0  0  0  0
 17 35  1  0  0  0  0
 18 36  1  0  0  0  0
 18 37  1  0  0  0  0
 18 38  1  0  0  0  0
 19 39  1  0  0  0  0
 19 40  1  0  0  0  0
 19 41  1  0  0  0  0
M  CHG  1  15   1
M  END
> <s_m_source_file>
AV-unprocessed.smi

> <i_m_source_file_index>
1648

> <i_lp_mmshare_version>
43012

> <i_f3d_flags>
0

> <s_epik_input>
W0NIM11DKD1PKVtOSF1bQ0BASF0oW0NIXShbQ0gzXSlbQ0gzXSlDKD1PKVtOSF1bQ0BIXShbQ0gzXSlbQ0gyXW4xW2NIXVtjSF1uW2NIXTE=

> <s_epik_cmdline>
J2VwaWtfcHl0aG9uJywgJy1waCcsICc3LjAnLCAnLXRuJywgJzgnLCAnLW1hJywgJzIwMCcsICctbWV0YWxfYmluZGluZycsICctaW1hZScsICc8aW5maWxlLm1hZT4nLCAnLW9tYWUnLCAnPG91dGZpbGUubWFlPic=

> <r_lp_tautomer_probability>
1

> <r_epik_Ionization_Penalty>
0.251562

> <r_epik_Ionization_Penalty_Charging>
0

> <r_epik_Ionization_Penalty_Neutral>
0.251562

> <r_epik_State_Penalty>
0.242926

> <r_epik_Charging_Adjusted_Penalty>
0.242926

> <i_epik_Tot_Q>
1

> <i_epik_Tot_abs_Q>
1

> <r_epik_Metal_State_Penalty>
0.53388

> <b_epik_Metal_Only>
0

> <s_lp_Force_Field>
OPLS_2005

> <r_lp_Energy>
11.0591

> <b_lp_Chiralities_Consistent>
1

> <s_lp_Variant>
AV-unprocessed.smi:1648-2

> <Gold.Version>
5.8.1

> <Gold.Id.Protein>
6NUR|6NUR_protein|mol2

> <Gold.PLP.Fitness>
40.3733

> <Gold.PLP.PLP>
-30.3299

> <Gold.PLP.part.hbond>
-3.0000

> <Gold.PLP.part.metal>
0.0000

> <Gold.PLP.part.buried>
-4.9333

> <Gold.PLP.part.nonpolar>
-23.5649

> <Gold.PLP.part.repulsive>
0.0679

> <Gold.PLP.ligand.clash>
0.0000

> <Gold.PLP.ligand.torsion>
1.0307

> <Gold.PLP.Chemscore.Hbond>
4.0000

> <Gold.PLP.Chemscore.CHOScore>
0.0000

> <Gold.PLP.Chemscore.Metal>
0.0000

> <Gold.Chemscore.Hbonds>
donor molecule, donor type, donor heavy atom, donor atom, acceptor molecule, acceptor atom, score
      L1  H     4    23       P1  7948  1.00
      L1  H     8    25       P1  7948  1.00
      L1  H    15    42       P1 10186  2.00

> <Gold.PLP.Chemscore.Internal.Correction>
0.1047

> <Gold.Rescore>
     Score         DG    S(hbond)    S(metal)    S(lipo)     H(rot)  DE(clash)    DE(int)     intcor
     14.54     -15.62       2.80        0.00      63.82       2.61       0.00       1.08       ----

> <Gold.Chemscore.Fitness>
14.5427

> <Gold.Chemscore.DG>
-15.6199

> <Gold.Chemscore.ZeroCoef>
-5.4800

> <Gold.Chemscore.Hbond>
2.8033

> <Gold.Chemscore.Metal>
0.0000

> <Gold.Chemscore.Lipo>
63.8244

> <Gold.Chemscore.Internal_Hbond>
0.0000

> <Gold.Chemscore.DEClash>
0.0018

> <Gold.Chemscore.DEInternal>
1.0755

> <Gold.Chemscore.Rot>
2.6135

> <Gold.Chemscore.Internal.Correction>
   9.000000E+99

> <Gold.Chemscore.Hbonds>
donor molecule, donor type, donor heavy atom, donor atom, acceptor molecule, acceptor atom, score
      L1  H     4    23       P1  7948  0.98
      L1  H     8    25       P1  7948  0.65
      L1  H    15    42       P1 10186  1.00

> <Gold.Chemscore.Hbond.Weighted>
-9.3631

> <Gold.Chemscore.Metal.Weighted>
-0.0000

> <Gold.Chemscore.Lipo.Weighted>
-7.4674

> <Gold.Chemscore.Internal_Hbond.Weighted>
0.0000

> <Gold.Chemscore.DEClash.Weighted>
0.0018

> <Gold.Chemscore.DEInternal.Weighted>
1.0755

> <Gold.Chemscore.Rot.Weighted>
6.6906

> <Gold.Chemscore.Internal.Correction.Weighted>
   9.000000E+99

> <Gold.Protein.RotatedTorsions>
[ 6907 6896 6895 6894 ] final    1.91 input  -60.11 | X-H torsion
[ 7974 7965 7964 7962 ] final  113.84 input  175.53 | X-H torsion
[ 8008 7997 7996 7995 ] final -167.29 input   59.86 | X-H torsion
[ 10167 10162 10161 10158 ] final  -38.94 input  -65.29 | X-H torsion
[ 10718 10713 10712 10709 ] final  -70.79 input   66.30 | X-H torsion
[ 10763 10752 10751 10750 ] final  -10.77 input  -60.55 | X-H torsion
[ 11005 11000 10999 10996 ] final  174.91 input  -57.11 | X-H torsion

> <Gold.Protein.ActiveResidues>
 VAL166  LYS551  ARG553  GLY616  TRP617  ASP618  TYR619  PRO620  LYS621  CYS622 
 ASP623  PHE694  ASN695  SER759  ASP760  ASP761  ALA762  ILE779  LEU786  VAL792 
 PHE793  MET794  SER795  GLU796  ALA797  LYS798  CYS799  TRP800  GLU811  SER814 

> <Gold.Protein.RotatedAtoms>
  151.6002  135.1048  160.0058 H   0  0  0  0  0  0  0  0  0  0  0  0  # atno 6907 bound_to 6896
  152.4261  133.7194  159.6535 H   0  0  0  0  0  0  0  0  0  0  0  0  # atno 6908 bound_to 6896
  150.8151  133.8280  159.3186 H   0  0  0  0  0  0  0  0  0  0  0  0  # atno 6909 bound_to 6896
  145.2119  139.2902  143.4264 H   0  0  0  0  0  0  0  0  0  0  0  0  # atno 7974 bound_to 7965
  155.8756  140.1000  157.1520 H   0  0  0  0  0  0  0  0  0  0  0  0  # atno 8008 bound_to 7997
  154.4000  140.1339  156.4196 H   0  0  0  0  0  0  0  0  0  0  0  0  # atno 8009 bound_to 7997
  155.7701  140.3461  155.5245 H   0  0  0  0  0  0  0  0  0  0  0  0  # atno 8010 bound_to 7997
  140.7078  143.3245  151.2713 H   0  0  0  0  0  0  0  0  0  0  0  0  # atno 10167 bound_to 10162
  156.0392  130.4338  150.2347 H   0  0  0  0  0  0  0  0  0  0  0  0  # atno 10718 bound_to 10713
  153.4740  135.7017  153.5976 H   0  0  0  0  0  0  0  0  0  0  0  0  # atno 10763 bound_to 10752
  153.4218  135.3823  155.2116 H   0  0  0  0  0  0  0  0  0  0  0  0  # atno 10764 bound_to 10752
  154.8724  135.3929  154.4182 H   0  0  0  0  0  0  0  0  0  0  0  0  # atno 10765 bound_to 10752
  140.3565  134.7150  157.4303 H   0  0  0  0  0  0  0  0  0  0  0  0  # atno 11005 bound_to 11000
  146.3395  140.2398  142.8595 LP  0  0  0  0  0  0  0  0  0  0  0  0  # atno 17320 bound_to 7965
  144.9848  140.8492  143.5375 LP  0  0  0  0  0  0  0  0  0  0  0  0  # atno 17321 bound_to 7965
  139.6709  144.0022  152.2752 LP  0  0  0  0  0  0  0  0  0  0  0  0  # atno 17342 bound_to 10162
  139.9620  144.6551  150.8070 LP  0  0  0  0  0  0  0  0  0  0  0  0  # atno 17343 bound_to 10162
  157.0444  131.0044  151.3273 LP  0  0  0  0  0  0  0  0  0  0  0  0  # atno 17370 bound_to 10713
  157.5186  130.7984  149.7784 LP  0  0  0  0  0  0  0  0  0  0  0  0  # atno 17371 bound_to 10713
  140.0661  134.5928  155.8694 LP  0  0  0  0  0  0  0  0  0  0  0  0  # atno 17394 bound_to 11000
  141.1997  133.6608  156.5856 LP  0  0  0  0  0  0  0  0  0  0  0  0  # atno 17395 bound_to 11000

$$$$
