AV-unprocessed.smi:2307|AV-procd|sdf|9250|dock1
  -GOLD-   2272012473D 1   1.00000     0.00000
 Structure written by MMmdl.
 38 39  0  0  0  0  0  0  0  0  1 V2000
  156.0222  132.0955  158.2174 C   0  0  0  0  0  0  0  0  0  0  0  0
  155.4021  133.4808  158.1733 C   0  0  0  0  0  0  0  0  0  0  0  0
  156.1958  134.5139  158.6795 N   0  0  0  0  0  0  0  0  0  0  0  0
  155.7483  135.7266  158.6863 C   0  0  0  0  0  0  0  0  0  0  0  0
  154.4687  136.0451  158.1980 N   0  0  0  0  0  0  0  0  0  0  0  0
  154.0573  137.4593  158.2788 C   0  0  0  0  0  0  0  0  0  0  0  0
  153.5722  137.8690  159.6900 C   0  0  2  0  0  0  0  0  0  0  0  0
  152.4969  137.0275  160.0518 O   0  0  0  0  0  0  0  0  0  0  0  0
  153.2081  139.3445  159.7886 C   0  0  0  0  0  0  0  0  0  0  0  0
  153.9884  140.2270  160.5641 C   0  0  0  0  0  0  0  0  0  0  0  0
  153.6292  141.5839  160.6700 C   0  0  0  0  0  0  0  0  0  0  0  0
  152.4883  142.0847  160.0105 C   0  0  0  0  0  0  0  0  0  0  0  0
  152.2118  143.4267  160.1766 O   0  0  0  0  0  0  0  0  0  0  0  0
  152.0808  144.2569  159.1062 C   0  0  0  0  0  0  0  0  0  0  0  0
  152.0516  145.5421  159.5340 F   0  0  0  0  0  0  0  0  0  0  0  0
  153.1284  144.1494  158.2509 F   0  0  0  0  0  0  0  0  0  0  0  0
  150.9220  144.0386  158.4349 F   0  0  0  0  0  0  0  0  0  0  0  0
  151.7075  141.1937  159.2318 C   0  0  0  0  0  0  0  0  0  0  0  0
  152.0666  139.8365  159.1232 C   0  0  0  0  0  0  0  0  0  0  0  0
  153.6353  135.0987  157.6776 C   0  0  0  0  0  0  0  0  0  0  0  0
  152.5182  135.3886  157.2455 O   0  0  0  0  0  0  0  0  0  0  0  0
  154.1583  133.7230  157.6771 C   0  0  0  0  0  0  0  0  0  0  0  0
  153.2500  132.6386  157.1116 C   0  0  0  0  0  0  0  0  0  0  0  0
  156.1180  131.6888  157.2103 H   0  0  0  0  0  0  0  0  0  0  0  0
  155.4062  131.4192  158.8106 H   0  0  0  0  0  0  0  0  0  0  0  0
  157.0172  132.1188  158.6636 H   0  0  0  0  0  0  0  0  0  0  0  0
  156.3278  136.5656  159.0748 H   0  0  0  0  0  0  0  0  0  0  0  0
  154.8733  138.1187  157.9757 H   0  0  0  0  0  0  0  0  0  0  0  0
  153.2673  137.6485  157.5494 H   0  0  0  0  0  0  0  0  0  0  0  0
  154.3671  137.6684  160.4092 H   0  0  0  0  0  0  0  0  0  0  0  0
  151.7294  137.5633  160.1824 H   0  0  0  0  0  0  0  0  0  0  0  0
  154.8615  139.8647  161.0869 H   0  0  0  0  0  0  0  0  0  0  0  0
  154.2355  142.2480  161.2686 H   0  0  0  0  0  0  0  0  0  0  0  0
  150.8243  141.5265  158.7090 H   0  0  0  0  0  0  0  0  0  0  0  0
  151.4540  139.1708  158.5328 H   0  0  0  0  0  0  0  0  0  0  0  0
  152.3251  132.5867  157.6866 H   0  0  0  0  0  0  0  0  0  0  0  0
  153.7022  131.6484  157.1263 H   0  0  0  0  0  0  0  0  0  0  0  0
  152.9934  132.8652  156.0763 H   0  0  0  0  0  0  0  0  0  0  0  0
  1  2  1  0  0  0  0
  1 24  1  0  0  0  0
  1 25  1  0  0  0  0
  1 26  1  0  0  0  0
  2 22  2  0  0  0  0
  2  3  1  0  0  0  0
  3  4  2  0  0  0  0
  4  5  1  0  0  0  0
  4 27  1  0  0  0  0
  5  6  1  0  0  0  0
  5 20  1  0  0  0  0
  6  7  1  0  0  0  0
  6 28  1  0  0  0  0
  6 29  1  0  0  0  0
  7  8  1  0  0  0  0
  7  9  1  0  0  0  0
  7 30  1  0  0  0  0
  8 31  1  0  0  0  0
  9 19  1  0  0  0  0
  9 10  2  0  0  0  0
 10 11  1  0  0  0  0
 10 32  1  0  0  0  0
 11 12  2  0  0  0  0
 11 33  1  0  0  0  0
 12 13  1  0  0  0  0
 12 18  1  0  0  0  0
 13 14  1  0  0  0  0
 14 15  1  0  0  0  0
 14 16  1  0  0  0  0
 14 17  1  0  0  0  0
 18 19  2  0  0  0  0
 18 34  1  0  0  0  0
 19 35  1  0  0  0  0
 20 21  2  0  0  0  0
 20 22  1  0  0  0  0
 22 23  1  0  0  0  0
 23 36  1  0  0  0  0
 23 37  1  0  0  0  0
 23 38  1  0  0  0  0
M  END
> <s_m_source_file>
AV-unprocessed.smi

> <i_m_source_file_index>
2307

> <i_lp_mmshare_version>
43012

> <i_f3d_flags>
0

> <s_epik_input>
W0NIM11jMW5bY0hdbihjKD1PKWMxW0NIM10pW0NIMl1bQ0BIXShbT0hdKWMyW2NIXVtjSF1jKE9DKEYpKEYpRilbY0hdW2NIXTI=

> <s_epik_cmdline>
J2VwaWtfcHl0aG9uJywgJy1waCcsICc3LjAnLCAnLXRuJywgJzgnLCAnLW1hJywgJzIwMCcsICctbWV0YWxfYmluZGluZycsICctaW1hZScsICc8aW5maWxlLm1hZT4nLCAnLW9tYWUnLCAnPG91dGZpbGUubWFlPic=

> <r_lp_tautomer_probability>
1

> <r_epik_Ionization_Penalty>
5.07003e-05

> <r_epik_Ionization_Penalty_Charging>
7.56727e-08

> <r_epik_Ionization_Penalty_Neutral>
5.06246e-05

> <r_epik_State_Penalty>
-0

> <r_epik_Charging_Adjusted_Penalty>
7.56727e-08

> <i_epik_Tot_Q>
0

> <i_epik_Tot_abs_Q>
0

> <r_epik_Metal_State_Penalty>
-0

> <b_epik_Metal_Only>
0

> <s_lp_Force_Field>
OPLS_2005

> <r_lp_Energy>
16.6377

> <b_lp_Chiralities_Consistent>
1

> <s_lp_Variant>
AV-unprocessed.smi:2307-1

> <Gold.Version>
5.8.1

> <Gold.Id.Protein>
6NUR|6NUR_protein|mol2

> <Gold.PLP.Fitness>
44.2568

> <Gold.PLP.PLP>
-38.9113

> <Gold.PLP.part.hbond>
-2.2413

> <Gold.PLP.part.metal>
0.0000

> <Gold.PLP.part.buried>
-6.2163

> <Gold.PLP.part.nonpolar>
-30.5192

> <Gold.PLP.part.repulsive>
0.0300

> <Gold.PLP.ligand.clash>
0.0000

> <Gold.PLP.ligand.torsion>
0.4927

> <Gold.PLP.Chemscore.Hbond>
1.9913

> <Gold.PLP.Chemscore.CHOScore>
0.0000

> <Gold.PLP.Chemscore.Metal>
0.0000

> <Gold.Chemscore.Hbonds>
donor molecule, donor type, donor heavy atom, donor atom, acceptor molecule, acceptor atom, score
      P1  H  6896  6909       L1     8  1.00
      P1  H 10752 10765       L1    21  0.27

> <Gold.PLP.Chemscore.Internal.Correction>
0.3572

> <Gold.Rescore>
     Score         DG    S(hbond)    S(metal)    S(lipo)     H(rot)  DE(clash)    DE(int)     intcor
     13.30     -14.27       1.94        0.00      78.66       2.69       0.34       0.63       ----

> <Gold.Chemscore.Fitness>
13.3001

> <Gold.Chemscore.DG>
-14.2714

> <Gold.Chemscore.ZeroCoef>
-5.4800

> <Gold.Chemscore.Hbond>
1.9351

> <Gold.Chemscore.Metal>
0.0000

> <Gold.Chemscore.Lipo>
78.6613

> <Gold.Chemscore.Internal_Hbond>
0.0000

> <Gold.Chemscore.DEClash>
0.3398

> <Gold.Chemscore.DEInternal>
0.6315

> <Gold.Chemscore.Rot>
2.6856

> <Gold.Chemscore.Internal.Correction>
   9.000000E+99

> <Gold.Chemscore.Hbonds>
donor molecule, donor type, donor heavy atom, donor atom, acceptor molecule, acceptor atom, score
      P1  H  6896  6909       L1     8  0.62
      P1  H 10752 10765       L1    21  0.01

> <Gold.Chemscore.Hbond.Weighted>
-6.4631

> <Gold.Chemscore.Metal.Weighted>
-0.0000

> <Gold.Chemscore.Lipo.Weighted>
-9.2034

> <Gold.Chemscore.Internal_Hbond.Weighted>
0.0000

> <Gold.Chemscore.DEClash.Weighted>
0.3398

> <Gold.Chemscore.DEInternal.Weighted>
0.6315

> <Gold.Chemscore.Rot.Weighted>
6.8751

> <Gold.Chemscore.Internal.Correction.Weighted>
   9.000000E+99

> <Gold.Protein.RotatedTorsions>
[ 6907 6896 6895 6894 ] final  141.10 input  -60.11 | X-H torsion
[ 7974 7965 7964 7962 ] final  -65.09 input  175.53 | X-H torsion
[ 8008 7997 7996 7995 ] final   -0.19 input   59.86 | X-H torsion
[ 10167 10162 10161 10158 ] final  -66.65 input  -65.29 | X-H torsion
[ 10718 10713 10712 10709 ] final   -2.15 input   66.30 | X-H torsion
[ 10763 10752 10751 10750 ] final -134.26 input  -60.55 | X-H torsion
[ 11005 11000 10999 10996 ] final -128.03 input  -57.11 | X-H torsion

> <Gold.Protein.ActiveResidues>
 VAL166  LYS551  ARG553  GLY616  TRP617  ASP618  TYR619  PRO620  LYS621  CYS622 
 ASP623  PHE694  ASN695  SER759  ASP760  ASP761  ALA762  ILE779  LEU786  VAL792 
 PHE793  MET794  SER795  GLU796  ALA797  LYS798  CYS799  TRP800  GLU811  SER814 

> <Gold.Protein.RotatedAtoms>
  152.2351  133.5089  159.5237 H   0  0  0  0  0  0  0  0  0  0  0  0  # atno 6907 bound_to 6896
  150.7048  134.1165  159.4028 H   0  0  0  0  0  0  0  0  0  0  0  0  # atno 6908 bound_to 6896
  151.9086  135.0348  160.0563 H   0  0  0  0  0  0  0  0  0  0  0  0  # atno 6909 bound_to 6896
  145.7586  140.8873  143.0442 H   0  0  0  0  0  0  0  0  0  0  0  0  # atno 7974 bound_to 7965
  154.6609  140.2590  155.7110 H   0  0  0  0  0  0  0  0  0  0  0  0  # atno 8008 bound_to 7997
  156.2618  140.2849  156.1002 H   0  0  0  0  0  0  0  0  0  0  0  0  # atno 8009 bound_to 7997
  155.1310  140.0378  157.2765 H   0  0  0  0  0  0  0  0  0  0  0  0  # atno 8010 bound_to 7997
  140.5641  143.2314  151.6669 H   0  0  0  0  0  0  0  0  0  0  0  0  # atno 10167 bound_to 10162
  156.7951  130.5374  149.5730 H   0  0  0  0  0  0  0  0  0  0  0  0  # atno 10718 bound_to 10713
  154.8721  135.3740  154.4707 H   0  0  0  0  0  0  0  0  0  0  0  0  # atno 10763 bound_to 10752
  153.5368  135.7027  153.5661 H   0  0  0  0  0  0  0  0  0  0  0  0  # atno 10764 bound_to 10752
  153.3841  135.3989  155.1842 H   0  0  0  0  0  0  0  0  0  0  0  0  # atno 10765 bound_to 10752
  140.9550  134.1013  157.4025 H   0  0  0  0  0  0  0  0  0  0  0  0  # atno 11005 bound_to 11000
  144.6835  139.9691  143.7482 LP  0  0  0  0  0  0  0  0  0  0  0  0  # atno 17320 bound_to 7965
  146.0286  139.3315  143.0769 LP  0  0  0  0  0  0  0  0  0  0  0  0  # atno 17321 bound_to 7965
  139.5084  144.3611  152.0561 LP  0  0  0  0  0  0  0  0  0  0  0  0  # atno 17342 bound_to 10162
  140.2741  144.3932  150.6141 LP  0  0  0  0  0  0  0  0  0  0  0  0  # atno 17343 bound_to 10162
  156.1135  130.6058  151.0085 LP  0  0  0  0  0  0  0  0  0  0  0  0  # atno 17370 bound_to 10713
  157.6582  131.0885  150.7900 LP  0  0  0  0  0  0  0  0  0  0  0  0  # atno 17371 bound_to 10713
  139.8859  135.0077  156.6467 LP  0  0  0  0  0  0  0  0  0  0  0  0  # atno 17394 bound_to 11000
  140.7548  133.8867  155.8374 LP  0  0  0  0  0  0  0  0  0  0  0  0  # atno 17395 bound_to 11000

$$$$
