AV-unprocessed.smi:2676|AV-procd|sdf|10364|dock2
  -GOLD-   2272014393D 1   1.00000     0.00000
 Structure written by MMmdl.
 40 41  0  0  0  0  0  0  0  0  1 V2000
  149.2629  141.5867  154.5940 C   0  0  0  0  0  0  0  0  0  0  0  0
  148.6597  140.4513  154.9762 C   0  0  0  0  0  0  0  0  0  0  0  0
  147.9705  140.2529  156.3144 C   0  0  0  0  0  0  0  0  0  0  0  0
  148.7729  139.3965  157.2166 N   0  0  0  0  0  0  0  0  0  0  0  0
  150.0002  139.8429  157.6198 C   0  0  0  0  0  0  0  0  0  0  0  0
  150.4502  140.9289  157.2421 O   0  0  0  0  0  0  0  0  0  0  0  0
  150.7113  139.0227  158.4504 N   0  0  0  0  0  0  0  0  0  0  0  0
  152.0500  139.4629  158.9031 C   0  0  0  0  0  0  0  0  0  0  0  0
  151.9936  140.8350  159.5506 C   0  0  0  0  0  0  0  0  0  0  0  0
  153.0697  141.5379  159.9335 C   0  0  0  0  0  0  0  0  0  0  0  0
  150.2671  137.7931  158.8484 C   0  0  0  0  0  0  0  0  0  0  0  0
  150.9512  137.0589  159.5678 O   0  0  0  0  0  0  0  0  0  0  0  0
  149.0342  137.4083  158.3995 N   0  0  0  0  0  0  0  0  0  0  0  0
  148.5281  136.0676  158.7872 C   0  0  0  0  0  0  0  0  0  0  0  0
  147.8147  136.0490  160.1492 C   0  0  0  0  0  0  0  0  0  0  0  0
  147.6080  137.0922  160.7717 O   0  0  0  0  0  0  0  0  0  0  0  0
  147.4417  134.8405  160.5936 N   0  0  0  0  0  0  0  0  0  0  0  0
  146.7598  134.5823  161.8204 C   0  0  0  0  0  0  0  0  0  0  0  0
  145.6973  135.5678  162.2560 C   0  0  0  0  0  0  0  0  0  0  0  0
  147.0165  135.5245  162.9767 C   0  0  0  0  0  0  0  0  0  0  0  0
  148.2661  138.1778  157.5708 C   0  0  0  0  0  0  0  0  0  0  0  0
  147.1724  137.7850  157.1538 O   0  0  0  0  0  0  0  0  0  0  0  0
  149.2887  142.4528  155.2387 H   0  0  0  0  0  0  0  0  0  0  0  0
  149.7391  141.6635  153.6278 H   0  0  0  0  0  0  0  0  0  0  0  0
  148.6563  139.6051  154.3045 H   0  0  0  0  0  0  0  0  0  0  0  0
  147.7847  141.2358  156.7502 H   0  0  0  0  0  0  0  0  0  0  0  0
  146.9695  139.8472  156.1566 H   0  0  0  0  0  0  0  0  0  0  0  0
  152.4841  138.7653  159.6212 H   0  0  0  0  0  0  0  0  0  0  0  0
  152.7711  139.4716  158.0836 H   0  0  0  0  0  0  0  0  0  0  0  0
  151.0091  141.2515  159.7079 H   0  0  0  0  0  0  0  0  0  0  0  0
  154.0696  141.1538  159.7936 H   0  0  0  0  0  0  0  0  0  0  0  0
  152.9630  142.5098  160.3923 H   0  0  0  0  0  0  0  0  0  0  0  0
  147.8426  135.6694  158.0371 H   0  0  0  0  0  0  0  0  0  0  0  0
  149.3343  135.3321  158.8085 H   0  0  0  0  0  0  0  0  0  0  0  0
  147.6538  134.0397  160.0161 H   0  0  0  0  0  0  0  0  0  0  0  0
  146.5848  133.5405  162.0860 H   0  0  0  0  0  0  0  0  0  0  0  0
  145.5031  136.4249  161.6135 H   0  0  0  0  0  0  0  0  0  0  0  0
  144.8278  135.1694  162.7750 H   0  0  0  0  0  0  0  0  0  0  0  0
  147.0275  135.0983  163.9779 H   0  0  0  0  0  0  0  0  0  0  0  0
  147.7032  136.3537  162.8165 H   0  0  0  0  0  0  0  0  0  0  0  0
  1  2  2  0  0  0  0
  1 23  1  0  0  0  0
  1 24  1  0  0  0  0
  2  3  1  0  0  0  0
  2 25  1  0  0  0  0
  3  4  1  0  0  0  0
  3 26  1  0  0  0  0
  3 27  1  0  0  0  0
  4 21  1  0  0  0  0
  4  5  1  0  0  0  0
  5  6  2  0  0  0  0
  5  7  1  0  0  0  0
  7  8  1  0  0  0  0
  7 11  1  0  0  0  0
  8  9  1  0  0  0  0
  8 28  1  0  0  0  0
  8 29  1  0  0  0  0
  9 10  2  0  0  0  0
  9 30  1  0  0  0  0
 10 31  1  0  0  0  0
 10 32  1  0  0  0  0
 11 12  2  0  0  0  0
 11 13  1  0  0  0  0
 13 14  1  0  0  0  0
 13 21  1  0  0  0  0
 14 15  1  0  0  0  0
 14 33  1  0  0  0  0
 14 34  1  0  0  0  0
 15 16  2  0  0  0  0
 15 17  1  0  0  0  0
 17 18  1  0  0  0  0
 17 35  1  0  0  0  0
 18 20  1  0  0  0  0
 18 19  1  0  0  0  0
 18 36  1  0  0  0  0
 19 20  1  0  0  0  0
 19 37  1  0  0  0  0
 19 38  1  0  0  0  0
 20 39  1  0  0  0  0
 20 40  1  0  0  0  0
 21 22  2  0  0  0  0
M  END
> <s_m_source_file>
AV-unprocessed.smi

> <i_m_source_file_index>
2676

> <i_lp_mmshare_version>
43012

> <i_f3d_flags>
0

> <s_epik_input>
W0NIMl09W0NIXVtDSDJdbjFjKD1PKW4oW0NIMl1bQ0hdPVtDSDJdKWMoPU8pbihjMT1PKVtDSDJdQyg9TylbTkhdW0NIXTJbQ0gyXVtDSDJdMg==

> <s_epik_cmdline>
J2VwaWtfcHl0aG9uJywgJy1waCcsICc3LjAnLCAnLXRuJywgJzgnLCAnLW1hJywgJzIwMCcsICctbWV0YWxfYmluZGluZycsICctaW1hZScsICc8aW5maWxlLm1hZT4nLCAnLW9tYWUnLCAnPG91dGZpbGUubWFlPic=

> <r_lp_tautomer_probability>
1

> <r_epik_Ionization_Penalty>
2.07961e-08

> <r_epik_Ionization_Penalty_Charging>
1.25795e-10

> <r_epik_Ionization_Penalty_Neutral>
2.06703e-08

> <r_epik_State_Penalty>
-0

> <r_epik_Charging_Adjusted_Penalty>
1.25795e-10

> <i_epik_Tot_Q>
0

> <i_epik_Tot_abs_Q>
0

> <r_epik_Metal_State_Penalty>
-0

> <b_epik_Metal_Only>
0

> <s_lp_Force_Field>
OPLS_2005

> <r_lp_Energy>
27.3169

> <b_lp_Chiralities_Consistent>
1

> <s_lp_Variant>
AV-unprocessed.smi:2676-1

> <Gold.Version>
5.8.1

> <Gold.Id.Protein>
6NUR|6NUR_protein|mol2

> <Gold.PLP.Fitness>
43.0561

> <Gold.PLP.PLP>
-36.4476

> <Gold.PLP.part.hbond>
-3.0000

> <Gold.PLP.part.metal>
0.0000

> <Gold.PLP.part.buried>
-5.5947

> <Gold.PLP.part.nonpolar>
-28.5704

> <Gold.PLP.part.repulsive>
0.0974

> <Gold.PLP.ligand.clash>
0.0000

> <Gold.PLP.ligand.torsion>
0.8915

> <Gold.PLP.Chemscore.Hbond>
2.7600

> <Gold.PLP.Chemscore.CHOScore>
0.0000

> <Gold.PLP.Chemscore.Metal>
0.0000

> <Gold.Chemscore.Hbonds>
donor molecule, donor type, donor heavy atom, donor atom, acceptor molecule, acceptor atom, score
      P1  H  6896  6909       L1    12  1.00
      P1  H  6931  6943       L1    16  0.59
      P1  H  6934  6947       L1    16  0.98

> <Gold.PLP.Chemscore.Internal.Correction>
0.1116

> <Gold.Rescore>
     Score         DG    S(hbond)    S(metal)    S(lipo)     H(rot)  DE(clash)    DE(int)     intcor
     11.73     -16.18       2.71        0.00      66.22       2.39       0.01       4.44       ----

> <Gold.Chemscore.Fitness>
11.7294

> <Gold.Chemscore.DG>
-16.1770

> <Gold.Chemscore.ZeroCoef>
-5.4800

> <Gold.Chemscore.Hbond>
2.7149

> <Gold.Chemscore.Metal>
0.0000

> <Gold.Chemscore.Lipo>
66.2166

> <Gold.Chemscore.Internal_Hbond>
0.0000

> <Gold.Chemscore.DEClash>
0.0095

> <Gold.Chemscore.DEInternal>
4.4382

> <Gold.Chemscore.Rot>
2.3899

> <Gold.Chemscore.Internal.Correction>
   9.000000E+99

> <Gold.Chemscore.Hbonds>
donor molecule, donor type, donor heavy atom, donor atom, acceptor molecule, acceptor atom, score
      P1  H  6896  6909       L1    12  0.98
      P1  H  6931  6943       L1    16  0.58
      P1  H  6934  6947       L1    16  0.91

> <Gold.Chemscore.Hbond.Weighted>
-9.0678

> <Gold.Chemscore.Metal.Weighted>
-0.0000

> <Gold.Chemscore.Lipo.Weighted>
-7.7473

> <Gold.Chemscore.Internal_Hbond.Weighted>
0.0000

> <Gold.Chemscore.DEClash.Weighted>
0.0095

> <Gold.Chemscore.DEInternal.Weighted>
4.4382

> <Gold.Chemscore.Rot.Weighted>
6.1181

> <Gold.Chemscore.Internal.Correction.Weighted>
   9.000000E+99

> <Gold.Protein.RotatedTorsions>
[ 6907 6896 6895 6894 ] final  106.77 input  -60.11 | X-H torsion
[ 7974 7965 7964 7962 ] final   51.47 input  175.53 | X-H torsion
[ 8008 7997 7996 7995 ] final  -92.02 input   59.86 | X-H torsion
[ 10167 10162 10161 10158 ] final -112.45 input  -65.29 | X-H torsion
[ 10718 10713 10712 10709 ] final  120.86 input   66.30 | X-H torsion
[ 10763 10752 10751 10750 ] final   -0.70 input  -60.55 | X-H torsion
[ 11005 11000 10999 10996 ] final   -7.79 input  -57.11 | X-H torsion

> <Gold.Protein.ActiveResidues>
 VAL166  LYS551  ARG553  GLY616  TRP617  ASP618  TYR619  PRO620  LYS621  CYS622 
 ASP623  PHE694  ASN695  SER759  ASP760  ASP761  ALA762  ILE779  LEU786  VAL792 
 PHE793  MET794  SER795  GLU796  ALA797  LYS798  CYS799  TRP800  GLU811  SER814 

> <Gold.Protein.RotatedAtoms>
  152.5181  133.9332  159.7590 H   0  0  0  0  0  0  0  0  0  0  0  0  # atno 6907 bound_to 6896
  150.9678  133.6368  159.2750 H   0  0  0  0  0  0  0  0  0  0  0  0  # atno 6908 bound_to 6896
  151.3590  135.0906  159.9481 H   0  0  0  0  0  0  0  0  0  0  0  0  # atno 6909 bound_to 6896
  145.9910  139.4339  143.0073 H   0  0  0  0  0  0  0  0  0  0  0  0  # atno 7974 bound_to 7965
  154.7179  140.0513  157.0612 H   0  0  0  0  0  0  0  0  0  0  0  0  # atno 8008 bound_to 7997
  155.0466  140.3174  155.4687 H   0  0  0  0  0  0  0  0  0  0  0  0  # atno 8009 bound_to 7997
  156.2808  140.2123  156.5591 H   0  0  0  0  0  0  0  0  0  0  0  0  # atno 8010 bound_to 7997
  140.1226  143.4430  152.1681 H   0  0  0  0  0  0  0  0  0  0  0  0  # atno 10167 bound_to 10162
  157.5860  131.1070  150.8093 H   0  0  0  0  0  0  0  0  0  0  0  0  # atno 10718 bound_to 10713
  153.3352  135.6977  153.6913 H   0  0  0  0  0  0  0  0  0  0  0  0  # atno 10763 bound_to 10752
  153.5700  135.3518  155.2834 H   0  0  0  0  0  0  0  0  0  0  0  0  # atno 10764 bound_to 10752
  154.8626  135.4270  154.2551 H   0  0  0  0  0  0  0  0  0  0  0  0  # atno 10765 bound_to 10752
  140.7165  133.8864  155.8789 H   0  0  0  0  0  0  0  0  0  0  0  0  # atno 11005 bound_to 11000
  145.7629  140.9928  143.1190 LP  0  0  0  0  0  0  0  0  0  0  0  0  # atno 17320 bound_to 7965
  144.6889  139.9353  143.7473 LP  0  0  0  0  0  0  0  0  0  0  0  0  # atno 17321 bound_to 7965
  139.5561  144.7373  151.4291 LP  0  0  0  0  0  0  0  0  0  0  0  0  # atno 17342 bound_to 10162
  140.6863  143.7965  150.7191 LP  0  0  0  0  0  0  0  0  0  0  0  0  # atno 17343 bound_to 10162
  156.8527  130.5086  149.5310 LP  0  0  0  0  0  0  0  0  0  0  0  0  # atno 17370 bound_to 10713
  156.0909  130.5895  150.9731 LP  0  0  0  0  0  0  0  0  0  0  0  0  # atno 17371 bound_to 10713
  141.0040  134.1112  157.4289 LP  0  0  0  0  0  0  0  0  0  0  0  0  # atno 17394 bound_to 11000
  139.8858  135.0076  156.6461 LP  0  0  0  0  0  0  0  0  0  0  0  0  # atno 17395 bound_to 11000

$$$$
