AV-unprocessed.smi:1893|AV-procd|sdf|7673|dock9
  -GOLD-   22720 9413D 1   1.00000     0.00000
 Structure written by MMmdl.
 43 44  0  0  0  0  0  0  0  0  2 V2000
  148.8726  140.8160  154.0110 C   0  0  0  0  0  0  0  0  0  0  0  0
  147.4986  141.1390  153.3842 C   0  0  2  0  0  0  0  0  0  0  0  0
  147.0903  142.6125  153.5927 C   0  0  0  0  0  0  0  0  0  0  0  0
  146.6763  142.8969  155.0441 C   0  0  0  0  0  0  0  0  0  0  0  0
  145.5783  141.9187  155.4790 C   0  0  0  0  0  0  0  0  0  0  0  0
  146.0122  140.4603  155.2587 C   0  0  0  0  0  0  0  0  0  0  0  0
  146.4073  140.2273  153.8422 N   0  3  2  0  0  0  0  0  0  0  0  0
  146.6519  138.7978  153.5219 C   0  0  0  0  0  0  0  0  0  0  0  0
  146.6646  138.5311  152.0046 C   0  0  0  0  0  0  0  0  0  0  0  0
  145.5593  137.6654  151.6132 N   0  0  0  0  0  0  0  0  0  0  0  0
  145.2729  136.4830  152.1809 C   0  0  0  0  0  0  0  0  0  0  0  0
  145.9093  136.0244  153.1305 O   0  0  0  0  0  0  0  0  0  0  0  0
  144.1039  135.6983  151.5666 C   0  0  2  0  0  0  0  0  0  0  0  0
  142.8968  135.5895  152.5207 C   0  0  0  0  0  0  0  0  0  0  0  0
  144.5701  134.3954  151.1071 N   0  0  0  0  0  0  0  0  0  0  0  0
  143.9438  133.4710  150.3753 C   0  0  0  0  0  0  0  0  0  0  0  0
  144.6909  132.4152  150.0853 N   0  0  0  0  0  0  0  0  0  0  0  0
  145.8523  132.7809  150.7047 C   0  0  0  0  0  0  0  0  0  0  0  0
  145.8392  133.9644  151.3174 N   0  0  0  0  0  0  0  0  0  0  0  0
  149.6369  141.4933  153.6291 H   0  0  0  0  0  0  0  0  0  0  0  0
  149.1995  139.8041  153.7716 H   0  0  0  0  0  0  0  0  0  0  0  0
  148.8685  140.9137  155.0960 H   0  0  0  0  0  0  0  0  0  0  0  0
  147.6013  140.9948  152.3076 H   0  0  0  0  0  0  0  0  0  0  0  0
  147.9031  143.2771  153.2975 H   0  0  0  0  0  0  0  0  0  0  0  0
  146.2538  142.8487  152.9334 H   0  0  0  0  0  0  0  0  0  0  0  0
  147.5378  142.8071  155.7063 H   0  0  0  0  0  0  0  0  0  0  0  0
  146.3216  143.9239  155.1376 H   0  0  0  0  0  0  0  0  0  0  0  0
  145.3305  142.0796  156.5287 H   0  0  0  0  0  0  0  0  0  0  0  0
  144.6674  142.1177  154.9126 H   0  0  0  0  0  0  0  0  0  0  0  0
  146.8352  140.2035  155.9263 H   0  0  0  0  0  0  0  0  0  0  0  0
  145.1839  139.8072  155.5307 H   0  0  0  0  0  0  0  0  0  0  0  0
  147.6217  138.4983  153.9226 H   0  0  0  0  0  0  0  0  0  0  0  0
  145.9065  138.1778  154.0224 H   0  0  0  0  0  0  0  0  0  0  0  0
  146.6156  139.4577  151.4322 H   0  0  0  0  0  0  0  0  0  0  0  0
  147.5962  138.0404  151.7213 H   0  0  0  0  0  0  0  0  0  0  0  0
  144.9839  137.9749  150.8431 H   0  0  0  0  0  0  0  0  0  0  0  0
  143.7670  136.2453  150.6843 H   0  0  0  0  0  0  0  0  0  0  0  0
  142.5328  136.5770  152.8066 H   0  0  0  0  0  0  0  0  0  0  0  0
  143.1424  135.0513  153.4372 H   0  0  0  0  0  0  0  0  0  0  0  0
  142.0703  135.0640  152.0417 H   0  0  0  0  0  0  0  0  0  0  0  0
  142.9219  133.5765  150.0410 H   0  0  0  0  0  0  0  0  0  0  0  0
  146.7369  132.1611  150.6954 H   0  0  0  0  0  0  0  0  0  0  0  0
  145.6046  140.4900  153.2886 H   0  0  0  0  0  0  0  0  0  0  0  0
  1  2  1  0  0  0  0
  1 20  1  0  0  0  0
  1 21  1  0  0  0  0
  1 22  1  0  0  0  0
  2  7  1  0  0  0  0
  2  3  1  0  0  0  0
  2 23  1  0  0  0  0
  3  4  1  0  0  0  0
  3 24  1  0  0  0  0
  3 25  1  0  0  0  0
  4  5  1  0  0  0  0
  4 26  1  0  0  0  0
  4 27  1  0  0  0  0
  5  6  1  0  0  0  0
  5 28  1  0  0  0  0
  5 29  1  0  0  0  0
  6  7  1  0  0  0  0
  6 30  1  0  0  0  0
  6 31  1  0  0  0  0
  7  8  1  0  0  0  0
  7 43  1  0  0  0  0
  8  9  1  0  0  0  0
  8 32  1  0  0  0  0
  8 33  1  0  0  0  0
  9 10  1  0  0  0  0
  9 34  1  0  0  0  0
  9 35  1  0  0  0  0
 10 11  1  0  0  0  0
 10 36  1  0  0  0  0
 11 12  2  0  0  0  0
 11 13  1  0  0  0  0
 13 14  1  0  0  0  0
 13 15  1  0  0  0  0
 13 37  1  0  0  0  0
 14 38  1  0  0  0  0
 14 39  1  0  0  0  0
 14 40  1  0  0  0  0
 15 19  1  0  0  0  0
 15 16  1  0  0  0  0
 16 17  2  0  0  0  0
 16 41  1  0  0  0  0
 17 18  1  0  0  0  0
 18 19  2  0  0  0  0
 18 42  1  0  0  0  0
M  CHG  1   7   1
M  END
> <s_m_source_file>
AV-unprocessed.smi

> <i_m_source_file_index>
1893

> <i_lp_mmshare_version>
43012

> <i_f3d_flags>
0

> <s_epik_input>
W0NIM11bQ0BASF0xW0NIMl1bQ0gyXVtDSDJdW0NIMl1OMVtDSDJdW0NIMl1bTkhdQyg9TylbQ0BIXShbQ0gzXSluMltjSF1uW2NIXW4y

> <s_epik_cmdline>
J2VwaWtfcHl0aG9uJywgJy1waCcsICc3LjAnLCAnLXRuJywgJzgnLCAnLW1hJywgJzIwMCcsICctbWV0YWxfYmluZGluZycsICctaW1hZScsICc8aW5maWxlLm1hZT4nLCAnLW9tYWUnLCAnPG91dGZpbGUubWFlPic=

> <r_lp_tautomer_probability>
1

> <r_epik_Ionization_Penalty>
0.00266409

> <r_epik_Ionization_Penalty_Charging>
0.00265606

> <r_epik_Ionization_Penalty_Neutral>
8.02794e-06

> <r_epik_State_Penalty>
0.00184955

> <r_epik_Charging_Adjusted_Penalty>
0.00450561

> <i_epik_Tot_Q>
1

> <i_epik_Tot_abs_Q>
1

> <r_epik_Metal_State_Penalty>
-0

> <b_epik_Metal_Only>
0

> <s_lp_Force_Field>
OPLS_2005

> <r_lp_Energy>
25.3191

> <b_lp_Chiralities_Consistent>
1

> <s_lp_Variant>
AV-unprocessed.smi:1893-3

> <Gold.Version>
5.8.1

> <Gold.Id.Protein>
6NUR|6NUR_protein|mol2

> <Gold.PLP.Fitness>
49.8651

> <Gold.PLP.PLP>
-35.8893

> <Gold.PLP.part.hbond>
-2.0000

> <Gold.PLP.part.metal>
0.0000

> <Gold.PLP.part.buried>
-7.7717

> <Gold.PLP.part.nonpolar>
-27.0652

> <Gold.PLP.part.repulsive>
0.6828

> <Gold.PLP.ligand.clash>
0.0000

> <Gold.PLP.ligand.torsion>
0.5858

> <Gold.PLP.Chemscore.Hbond>
3.0000

> <Gold.PLP.Chemscore.CHOScore>
2.0000

> <Gold.PLP.Chemscore.Metal>
0.0000

> <Gold.Chemscore.Hbonds>
donor molecule, donor type, donor heavy atom, donor atom, acceptor molecule, acceptor atom, score
      L1  H     7    43       P1 10175  1.72
      L1  H    10    36       P1 10171  1.00
      L1  C    16    41       P1 10186  1.00
      L1  C    18    42       P1 10747  0.77

> <Gold.PLP.Chemscore.Internal.Correction>
0.1474

> <Gold.Rescore>
     Score         DG    S(hbond)    S(metal)    S(lipo)     H(rot)  DE(clash)    DE(int)     intcor
      8.68     -11.88       1.98        0.00      53.66       2.54       0.04       3.15       ----

> <Gold.Chemscore.Fitness>
8.6811

> <Gold.Chemscore.DG>
-11.8782

> <Gold.Chemscore.ZeroCoef>
-5.4800

> <Gold.Chemscore.Hbond>
1.9808

> <Gold.Chemscore.Metal>
0.0000

> <Gold.Chemscore.Lipo>
53.6643

> <Gold.Chemscore.Internal_Hbond>
0.0000

> <Gold.Chemscore.DEClash>
0.0430

> <Gold.Chemscore.DEInternal>
3.1540

> <Gold.Chemscore.Rot>
2.5377

> <Gold.Chemscore.Internal.Correction>
   9.000000E+99

> <Gold.Chemscore.Hbonds>
donor molecule, donor type, donor heavy atom, donor atom, acceptor molecule, acceptor atom, score
      L1  H     7    43       P1 10175  0.79
      L1  H    10    36       P1 10171  1.00

> <Gold.Chemscore.Hbond.Weighted>
-6.6160

> <Gold.Chemscore.Metal.Weighted>
-0.0000

> <Gold.Chemscore.Lipo.Weighted>
-6.2787

> <Gold.Chemscore.Internal_Hbond.Weighted>
0.0000

> <Gold.Chemscore.DEClash.Weighted>
0.0430

> <Gold.Chemscore.DEInternal.Weighted>
3.1540

> <Gold.Chemscore.Rot.Weighted>
6.4966

> <Gold.Chemscore.Internal.Correction.Weighted>
   9.000000E+99

> <Gold.Protein.RotatedTorsions>
[ 6907 6896 6895 6894 ] final -179.05 input  -60.11 | X-H torsion
[ 7974 7965 7964 7962 ] final  137.54 input  175.53 | X-H torsion
[ 8008 7997 7996 7995 ] final  -27.74 input   59.86 | X-H torsion
[ 10167 10162 10161 10158 ] final -130.88 input  -65.29 | X-H torsion
[ 10718 10713 10712 10709 ] final   68.74 input   66.30 | X-H torsion
[ 10763 10752 10751 10750 ] final  -29.20 input  -60.55 | X-H torsion
[ 11005 11000 10999 10996 ] final   28.50 input  -57.11 | X-H torsion

> <Gold.Protein.ActiveResidues>
 VAL166  LYS551  ARG553  GLY616  TRP617  ASP618  TYR619  PRO620  LYS621  CYS622 
 ASP623  PHE694  ASN695  SER759  ASP760  ASP761  ALA762  ILE779  LEU786  VAL792 
 PHE793  MET794  SER795  GLU796  ALA797  LYS798  CYS799  TRP800  GLU811  SER814 

> <Gold.Protein.RotatedAtoms>
  151.6472  133.3323  159.3143 H   0  0  0  0  0  0  0  0  0  0  0  0  # atno 6907 bound_to 6896
  150.7978  134.7054  159.6583 H   0  0  0  0  0  0  0  0  0  0  0  0  # atno 6908 bound_to 6896
  152.4067  134.6198  160.0099 H   0  0  0  0  0  0  0  0  0  0  0  0  # atno 6909 bound_to 6896
  144.9458  139.4877  143.5550 H   0  0  0  0  0  0  0  0  0  0  0  0  # atno 7974 bound_to 7965
  154.4363  140.1864  156.0979 H   0  0  0  0  0  0  0  0  0  0  0  0  # atno 8008 bound_to 7997
  156.0315  140.3330  155.7118 H   0  0  0  0  0  0  0  0  0  0  0  0  # atno 8009 bound_to 7997
  155.5833  140.0624  157.2768 H   0  0  0  0  0  0  0  0  0  0  0  0  # atno 8010 bound_to 7997
  139.9247  143.6341  152.2545 H   0  0  0  0  0  0  0  0  0  0  0  0  # atno 10167 bound_to 10162
  157.6306  130.9389  150.0418 H   0  0  0  0  0  0  0  0  0  0  0  0  # atno 10718 bound_to 10713
  153.7607  135.6919  153.4926 H   0  0  0  0  0  0  0  0  0  0  0  0  # atno 10763 bound_to 10752
  153.1940  135.4460  155.0183 H   0  0  0  0  0  0  0  0  0  0  0  0  # atno 10764 bound_to 10752
  154.8154  135.3396  154.7123 H   0  0  0  0  0  0  0  0  0  0  0  0  # atno 10765 bound_to 10752
  140.3149  134.2608  155.7727 H   0  0  0  0  0  0  0  0  0  0  0  0  # atno 11005 bound_to 11000
  146.3303  139.8509  142.8873 LP  0  0  0  0  0  0  0  0  0  0  0  0  # atno 17320 bound_to 7965
  145.2920  141.0170  143.3657 LP  0  0  0  0  0  0  0  0  0  0  0  0  # atno 17321 bound_to 7965
  139.6832  144.7654  151.1571 LP  0  0  0  0  0  0  0  0  0  0  0  0  # atno 17342 bound_to 10162
  140.7653  143.5695  150.9011 LP  0  0  0  0  0  0  0  0  0  0  0  0  # atno 17343 bound_to 10162
  156.1508  130.3642  149.9441 LP  0  0  0  0  0  0  0  0  0  0  0  0  # atno 17370 bound_to 10713
  156.7462  130.9098  151.3635 LP  0  0  0  0  0  0  0  0  0  0  0  0  # atno 17371 bound_to 10713
  141.2100  133.7733  156.9961 LP  0  0  0  0  0  0  0  0  0  0  0  0  # atno 17394 bound_to 11000
  140.0992  134.9545  157.1897 LP  0  0  0  0  0  0  0  0  0  0  0  0  # atno 17395 bound_to 11000

$$$$
