AV-unprocessed.smi:40|AV-procd|sdf|382|dock5
  -GOLD-   2262016243D 1   1.00000     0.00000
 Structure written by MMmdl.
 47 48  0  0  0  0  0  0  0  0  1 V2000
  152.1362  144.4038  159.6359 C   0  0  0  0  0  0  0  0  0  0  0  0
  152.7370  143.1838  158.9255 C   0  0  0  0  0  0  0  0  0  0  0  0
  152.2625  141.8374  159.4958 C   0  0  0  0  0  0  0  0  0  0  0  0
  153.0131  140.6221  158.9218 C   0  0  0  0  0  0  0  0  0  0  0  0
  152.5727  139.2926  159.5493 C   0  0  0  0  0  0  0  0  0  0  0  0
  152.6567  138.2665  158.5752 O   0  0  0  0  0  0  0  0  0  0  0  0
  151.5661  137.5575  158.2309 C   0  0  0  0  0  0  0  0  0  0  0  0
  150.4299  137.7974  158.6386 O   0  0  0  0  0  0  0  0  0  0  0  0
  151.8982  136.5044  157.2864 N   0  0  0  0  0  0  0  0  0  0  0  0
  151.0712  135.5943  156.7173 C   0  0  0  0  0  0  0  0  0  0  0  0
  150.9020  134.3828  157.2240 N   0  0  0  0  0  0  0  0  0  0  0  0
  150.0673  133.4395  156.6891 C   0  0  0  0  0  0  0  0  0  0  0  0
  149.9825  132.3182  157.1881 O   0  0  0  0  0  0  0  0  0  0  0  0
  149.3246  133.8058  155.5428 N   0  0  0  0  0  0  0  0  0  0  0  0
  148.4024  132.7882  154.9138 C   0  0  1  0  0  0  0  0  0  0  0  0
  147.1134  133.3268  154.8476 O   0  0  0  0  0  0  0  0  0  0  0  0
  146.5989  133.2012  153.5265 C   0  0  1  0  0  0  0  0  0  0  0  0
  145.5974  134.3264  153.2407 C   0  0  0  0  0  0  0  0  0  0  0  0
  147.8466  133.2335  152.6456 C   0  0  2  0  0  0  0  0  0  0  0  0
  147.6348  132.6702  151.3650 O   0  0  0  0  0  0  0  0  0  0  0  0
  148.8637  132.4658  153.4825 C   0  0  2  0  0  0  0  0  0  0  0  0
  148.8297  131.0710  153.2412 O   0  0  0  0  0  0  0  0  0  0  0  0
  149.4828  135.0718  154.9979 C   0  0  0  0  0  0  0  0  0  0  0  0
  150.3189  135.9813  155.5433 C   0  0  0  0  0  0  0  0  0  0  0  0
  150.4509  137.2049  155.0023 F   0  0  0  0  0  0  0  0  0  0  0  0
  148.3926  131.9261  155.5830 H   0  0  0  0  0  0  0  0  0  0  0  0
  146.1090  132.2292  153.4470 H   0  0  0  0  0  0  0  0  0  0  0  0
  148.1874  134.2633  152.5288 H   0  0  0  0  0  0  0  0  0  0  0  0
  149.8815  132.8173  153.3073 H   0  0  0  0  0  0  0  0  0  0  0  0
  152.5485  145.3276  159.2297 H   0  0  0  0  0  0  0  0  0  0  0  0
  152.3552  144.3849  160.7037 H   0  0  0  0  0  0  0  0  0  0  0  0
  151.0541  144.4478  159.5144 H   0  0  0  0  0  0  0  0  0  0  0  0
  152.5172  143.2320  157.8584 H   0  0  0  0  0  0  0  0  0  0  0  0
  153.8229  143.2343  159.0110 H   0  0  0  0  0  0  0  0  0  0  0  0
  152.3989  141.8623  160.5774 H   0  0  0  0  0  0  0  0  0  0  0  0
  151.1906  141.7236  159.3308 H   0  0  0  0  0  0  0  0  0  0  0  0
  152.8479  140.5666  157.8460 H   0  0  0  0  0  0  0  0  0  0  0  0
  154.0873  140.7496  159.0613 H   0  0  0  0  0  0  0  0  0  0  0  0
  153.2001  139.0482  160.4074 H   0  0  0  0  0  0  0  0  0  0  0  0
  151.5449  139.3745  159.9056 H   0  0  0  0  0  0  0  0  0  0  0  0
  152.8797  136.4446  157.0578 H   0  0  0  0  0  0  0  0  0  0  0  0
  145.2046  134.2512  152.2266 H   0  0  0  0  0  0  0  0  0  0  0  0
  146.0622  135.3068  153.3478 H   0  0  0  0  0  0  0  0  0  0  0  0
  144.7537  134.2807  153.9294 H   0  0  0  0  0  0  0  0  0  0  0  0
  148.4131  132.1966  151.1142 H   0  0  0  0  0  0  0  0  0  0  0  0
  148.8057  130.9295  152.3072 H   0  0  0  0  0  0  0  0  0  0  0  0
  148.9328  135.3565  154.1132 H   0  0  0  0  0  0  0  0  0  0  0  0
  1  2  1  0  0  0  0
  1 30  1  0  0  0  0
  1 31  1  0  0  0  0
  1 32  1  0  0  0  0
  2  3  1  0  0  0  0
  2 33  1  0  0  0  0
  2 34  1  0  0  0  0
  3  4  1  0  0  0  0
  3 35  1  0  0  0  0
  3 36  1  0  0  0  0
  4  5  1  0  0  0  0
  4 37  1  0  0  0  0
  4 38  1  0  0  0  0
  5  6  1  0  0  0  0
  5 39  1  0  0  0  0
  5 40  1  0  0  0  0
  6  7  1  0  0  0  0
  7  8  2  0  0  0  0
  7  9  1  0  0  0  0
  9 10  1  0  0  0  0
  9 41  1  0  0  0  0
 10 24  1  0  0  0  0
 10 11  2  0  0  0  0
 11 12  1  0  0  0  0
 12 13  2  0  0  0  0
 12 14  1  0  0  0  0
 14 15  1  0  0  0  0
 14 23  1  0  0  0  0
 15 26  1  0  0  0  0
 15 21  1  0  0  0  0
 15 16  1  0  0  0  0
 16 17  1  0  0  0  0
 17 27  1  0  0  0  0
 17 18  1  0  0  0  0
 17 19  1  0  0  0  0
 18 42  1  0  0  0  0
 18 43  1  0  0  0  0
 18 44  1  0  0  0  0
 19 28  1  0  0  0  0
 19 20  1  0  0  0  0
 19 21  1  0  0  0  0
 20 45  1  0  0  0  0
 21 29  1  0  0  0  0
 21 22  1  0  0  0  0
 22 46  1  0  0  0  0
 23 24  2  0  0  0  0
 23 47  1  0  0  0  0
 24 25  1  0  0  0  0
M  END
> <s_m_source_file>
AV-unprocessed.smi

> <i_m_source_file_index>
40

> <i_lp_mmshare_version>
43012

> <i_f3d_flags>
0

> <s_epik_input>
W0NIM11bQ0gyXVtDSDJdW0NIMl1bQ0gyXU9DKD1PKVtOSF1jMW5jKD1PKW4oW2NIXWMxRilbQ0BASF0yT1tDQEhdKFtDSDNdKVtDQEBIXShbT0hdKVtDQEhdMltPSF0=

> <s_epik_cmdline>
J2VwaWtfcHl0aG9uJywgJy1waCcsICc3LjAnLCAnLXRuJywgJzgnLCAnLW1hJywgJzIwMCcsICctbWV0YWxfYmluZGluZycsICctaW1hZScsICc8aW5maWxlLm1hZT4nLCAnLW9tYWUnLCAnPG91dGZpbGUubWFlPic=

> <r_lp_tautomer_probability>
1

> <r_epik_Ionization_Penalty>
2.29506e-06

> <r_epik_Ionization_Penalty_Charging>
8.26867e-09

> <r_epik_Ionization_Penalty_Neutral>
2.2868e-06

> <r_epik_State_Penalty>
-0

> <r_epik_Charging_Adjusted_Penalty>
8.26867e-09

> <i_epik_Tot_Q>
0

> <i_epik_Tot_abs_Q>
0

> <r_epik_Metal_State_Penalty>
-0

> <b_epik_Metal_Only>
0

> <s_epik_Chemistry_Notes>
This compound has an ester and may undergo hydrolysis at high or low pH. This compound contains an acetal/aminal-like group ( X-CH(R)-Y where X, Y are N, S, or O) that may be acid/base labile, releasing an aldehyde.

> <s_lp_Force_Field>
OPLS_2005

> <r_lp_Energy>
35.629

> <b_lp_Chiralities_Consistent>
1

> <s_lp_Variant>
AV-unprocessed.smi:40-16

> <Gold.Version>
5.8.1

> <Gold.Id.Protein>
6NUR|6NUR_protein|mol2

> <Gold.PLP.Fitness>
43.9587

> <Gold.PLP.PLP>
-36.9983

> <Gold.PLP.part.hbond>
-3.0000

> <Gold.PLP.part.metal>
0.0000

> <Gold.PLP.part.buried>
-4.4538

> <Gold.PLP.part.nonpolar>
-29.4062

> <Gold.PLP.part.repulsive>
0.1775

> <Gold.PLP.ligand.clash>
0.0000

> <Gold.PLP.ligand.torsion>
1.3935

> <Gold.PLP.Chemscore.Hbond>
2.2059

> <Gold.PLP.Chemscore.CHOScore>
1.0000

> <Gold.PLP.Chemscore.Metal>
0.0000

> <Gold.Chemscore.Hbonds>
donor molecule, donor type, donor heavy atom, donor atom, acceptor molecule, acceptor atom, score
      L1  H    20    45       P1 10747  0.91
      L1  H    22    46       P1 10747  1.00
      P1  H  6896  6907       L1    11  0.37
      L1  C    23    47       P1  7948  1.00

> <Gold.PLP.Chemscore.Internal.Correction>
0.1298

> <Gold.Rescore>
     Score         DG    S(hbond)    S(metal)    S(lipo)     H(rot)  DE(clash)    DE(int)     intcor
     10.03     -11.48       1.96        0.00      76.11       3.70       0.03       1.42       ----

> <Gold.Chemscore.Fitness>
10.0302

> <Gold.Chemscore.DG>
-11.4788

> <Gold.Chemscore.ZeroCoef>
-5.4800

> <Gold.Chemscore.Hbond>
1.9626

> <Gold.Chemscore.Metal>
0.0000

> <Gold.Chemscore.Lipo>
76.1080

> <Gold.Chemscore.Internal_Hbond>
0.0000

> <Gold.Chemscore.DEClash>
0.0276

> <Gold.Chemscore.DEInternal>
1.4210

> <Gold.Chemscore.Rot>
3.6957

> <Gold.Chemscore.Internal.Correction>
   9.000000E+99

> <Gold.Chemscore.Hbonds>
donor molecule, donor type, donor heavy atom, donor atom, acceptor molecule, acceptor atom, score
      L1  H    20    45       P1 10747  0.88
      L1  H    22    46       P1 10747  0.67
      P1  H  6896  6907       L1    11  0.09

> <Gold.Chemscore.Hbond.Weighted>
-6.5551

> <Gold.Chemscore.Metal.Weighted>
-0.0000

> <Gold.Chemscore.Lipo.Weighted>
-8.9046

> <Gold.Chemscore.Internal_Hbond.Weighted>
0.0000

> <Gold.Chemscore.DEClash.Weighted>
0.0276

> <Gold.Chemscore.DEInternal.Weighted>
1.4210

> <Gold.Chemscore.Rot.Weighted>
9.4610

> <Gold.Chemscore.Internal.Correction.Weighted>
   9.000000E+99

> <Gold.Protein.RotatedTorsions>
[ 6907 6896 6895 6894 ] final -116.69 input  -60.11 | X-H torsion
[ 7974 7965 7964 7962 ] final  145.90 input  175.53 | X-H torsion
[ 8008 7997 7996 7995 ] final  -36.51 input   59.86 | X-H torsion
[ 10167 10162 10161 10158 ] final  107.83 input  -65.29 | X-H torsion
[ 10718 10713 10712 10709 ] final   20.07 input   66.30 | X-H torsion
[ 10763 10752 10751 10750 ] final -166.37 input  -60.55 | X-H torsion
[ 11005 11000 10999 10996 ] final   -8.51 input  -57.11 | X-H torsion

> <Gold.Protein.ActiveResidues>
 VAL166  LYS551  ARG553  GLY616  TRP617  ASP618  TYR619  PRO620  LYS621  CYS622 
 ASP623  PHE694  ASN695  SER759  ASP760  ASP761  ALA762  ILE779  LEU786  VAL792 
 PHE793  MET794  SER795  GLU796  ALA797  LYS798  CYS799  TRP800  GLU811  SER814 

> <Gold.Protein.RotatedAtoms>
  150.8076  133.8481  159.3197 H   0  0  0  0  0  0  0  0  0  0  0  0  # atno 6907 bound_to 6896
  151.6276  135.1024  160.0124 H   0  0  0  0  0  0  0  0  0  0  0  0  # atno 6908 bound_to 6896
  152.4167  133.7010  159.6480 H   0  0  0  0  0  0  0  0  0  0  0  0  # atno 6909 bound_to 6896
  144.8714  139.5839  143.5885 H   0  0  0  0  0  0  0  0  0  0  0  0  # atno 7974 bound_to 7965
  154.4071  140.1628  156.2386 H   0  0  0  0  0  0  0  0  0  0  0  0  # atno 8008 bound_to 7997
  155.9221  140.3420  155.6158 H   0  0  0  0  0  0  0  0  0  0  0  0  # atno 8009 bound_to 7997
  155.7210  140.0768  157.2321 H   0  0  0  0  0  0  0  0  0  0  0  0  # atno 8010 bound_to 7997
  139.6895  144.7109  151.1373 H   0  0  0  0  0  0  0  0  0  0  0  0  # atno 10167 bound_to 10162
  157.1193  130.6542  149.5919 H   0  0  0  0  0  0  0  0  0  0  0  0  # atno 10718 bound_to 10713
  154.6840  135.2959  154.9574 H   0  0  0  0  0  0  0  0  0  0  0  0  # atno 10763 bound_to 10752
  154.0559  135.6638  153.4810 H   0  0  0  0  0  0  0  0  0  0  0  0  # atno 10764 bound_to 10752
  153.0566  135.5141  154.7897 H   0  0  0  0  0  0  0  0  0  0  0  0  # atno 10765 bound_to 10752
  140.7243  133.8802  155.8844 H   0  0  0  0  0  0  0  0  0  0  0  0  # atno 11005 bound_to 11000
  146.2933  139.7203  142.9145 LP  0  0  0  0  0  0  0  0  0  0  0  0  # atno 17320 bound_to 7965
  145.4123  141.0398  143.3010 LP  0  0  0  0  0  0  0  0  0  0  0  0  # atno 17321 bound_to 7965
  140.7678  143.5580  150.9131 LP  0  0  0  0  0  0  0  0  0  0  0  0  # atno 17342 bound_to 10162
  139.9256  143.6554  152.3087 LP  0  0  0  0  0  0  0  0  0  0  0  0  # atno 17343 bound_to 10162
  155.9832  130.4850  150.6921 LP  0  0  0  0  0  0  0  0  0  0  0  0  # atno 17370 bound_to 10713
  157.4491  131.0870  151.0865 LP  0  0  0  0  0  0  0  0  0  0  0  0  # atno 17371 bound_to 10713
  140.9976  134.1193  157.4348 LP  0  0  0  0  0  0  0  0  0  0  0  0  # atno 17394 bound_to 11000
  139.8841  135.0059  156.6344 LP  0  0  0  0  0  0  0  0  0  0  0  0  # atno 17395 bound_to 11000

$$$$
