AV-unprocessed.smi:3056|AV-procd|sdf|11655|dock4
  -GOLD-   2272017 53D 1   1.00000     0.00000
 Structure written by MMmdl.
 47 48  0  0  0  0  0  0  0  0  1 V2000
  144.5216  132.1865  149.8780 C   0  0  0  0  0  0  0  0  0  0  0  0
  145.3506  132.8051  150.9661 C   0  0  0  0  0  0  0  0  0  0  0  0
  146.1480  133.9816  150.8958 C   0  0  0  0  0  0  0  0  0  0  0  0
  146.7513  134.2616  152.0386 N   0  0  0  0  0  0  0  0  0  0  0  0
  146.3779  133.2709  152.8781 N   0  0  0  0  0  0  0  0  0  0  0  0
  146.8513  133.2932  154.2590 C   0  0  2  0  0  0  0  0  0  0  0  0
  145.8007  133.9196  155.2004 C   0  0  0  0  0  0  0  0  0  0  0  0
  148.2601  133.9374  154.3649 C   0  0  1  0  0  0  0  0  0  0  0  0
  149.2845  133.3676  153.3606 C   0  0  0  0  0  0  0  0  0  0  0  0
  148.1098  135.3901  154.2584 N   0  0  0  0  0  0  0  0  0  0  0  0
  148.7635  136.1834  155.3139 C   0  0  0  0  0  0  0  0  0  0  0  0
  150.2643  136.4415  155.0799 C   0  0  0  0  0  0  0  0  0  0  0  0
  151.0755  135.5721  155.4047 O   0  0  0  0  0  0  0  0  0  0  0  0
  150.6519  137.6124  154.5206 N   0  0  0  0  0  0  0  0  0  0  0  0
  152.0550  138.0048  154.3713 C   0  0  0  0  0  0  0  0  0  0  0  0
  152.3037  139.2288  155.2710 C   0  0  0  0  0  0  0  0  0  0  0  0
  151.4074  140.2803  154.9157 O   0  0  0  0  0  0  0  0  0  0  0  0
  150.0306  139.9148  155.0116 C   0  0  1  0  0  0  0  0  0  0  0  0
  149.1833  141.1304  154.6213 C   0  0  0  0  0  0  0  0  0  0  0  0
  149.7715  138.7034  154.0941 C   0  0  0  0  0  0  0  0  0  0  0  0
  145.5196  132.3848  152.2547 C   0  0  0  0  0  0  0  0  0  0  0  0
  144.2339  132.9184  149.1230 H   0  0  0  0  0  0  0  0  0  0  0  0
  143.6019  131.7511  150.2691 H   0  0  0  0  0  0  0  0  0  0  0  0
  145.0623  131.3908  149.3656 H   0  0  0  0  0  0  0  0  0  0  0  0
  146.3014  134.6401  150.0534 H   0  0  0  0  0  0  0  0  0  0  0  0
  146.9477  132.2485  154.5625 H   0  0  0  0  0  0  0  0  0  0  0  0
  146.0990  133.8310  156.2449 H   0  0  0  0  0  0  0  0  0  0  0  0
  144.8389  133.4162  155.0981 H   0  0  0  0  0  0  0  0  0  0  0  0
  145.6421  134.9779  154.9943 H   0  0  0  0  0  0  0  0  0  0  0  0
  148.6294  133.7265  155.3698 H   0  0  0  0  0  0  0  0  0  0  0  0
  149.3431  132.2817  153.4220 H   0  0  0  0  0  0  0  0  0  0  0  0
  150.2897  133.7378  153.5607 H   0  0  0  0  0  0  0  0  0  0  0  0
  149.0329  133.6284  152.3327 H   0  0  0  0  0  0  0  0  0  0  0  0
  148.3416  135.7211  153.3324 H   0  0  0  0  0  0  0  0  0  0  0  0
  148.2728  137.1561  155.3538 H   0  0  0  0  0  0  0  0  0  0  0  0
  148.5974  135.7063  156.2803 H   0  0  0  0  0  0  0  0  0  0  0  0
  152.7523  137.2078  154.6327 H   0  0  0  0  0  0  0  0  0  0  0  0
  152.2563  138.2538  153.3286 H   0  0  0  0  0  0  0  0  0  0  0  0
  152.1738  138.9699  156.3230 H   0  0  0  0  0  0  0  0  0  0  0  0
  153.3280  139.5827  155.1532 H   0  0  0  0  0  0  0  0  0  0  0  0
  149.8043  139.6485  156.0459 H   0  0  0  0  0  0  0  0  0  0  0  0
  148.1189  140.9055  154.6918 H   0  0  0  0  0  0  0  0  0  0  0  0
  149.3925  141.4455  153.5988 H   0  0  0  0  0  0  0  0  0  0  0  0
  149.3883  141.9752  155.2791 H   0  0  0  0  0  0  0  0  0  0  0  0
  150.0011  138.9622  153.0595 H   0  0  0  0  0  0  0  0  0  0  0  0
  148.7148  138.4422  154.0974 H   0  0  0  0  0  0  0  0  0  0  0  0
  145.0986  131.5348  152.7711 H   0  0  0  0  0  0  0  0  0  0  0  0
  1  2  1  0  0  0  0
  1 22  1  0  0  0  0
  1 23  1  0  0  0  0
  1 24  1  0  0  0  0
  2 21  2  0  0  0  0
  2  3  1  0  0  0  0
  3  4  2  0  0  0  0
  3 25  1  0  0  0  0
  4  5  1  0  0  0  0
  5  6  1  0  0  0  0
  5 21  1  0  0  0  0
  6  7  1  0  0  0  0
  6  8  1  0  0  0  0
  6 26  1  0  0  0  0
  7 27  1  0  0  0  0
  7 28  1  0  0  0  0
  7 29  1  0  0  0  0
  8  9  1  0  0  0  0
  8 10  1  0  0  0  0
  8 30  1  0  0  0  0
  9 31  1  0  0  0  0
  9 32  1  0  0  0  0
  9 33  1  0  0  0  0
 10 11  1  0  0  0  0
 10 34  1  0  0  0  0
 11 12  1  0  0  0  0
 11 35  1  0  0  0  0
 11 36  1  0  0  0  0
 12 13  2  0  0  0  0
 12 14  1  0  0  0  0
 14 20  1  0  0  0  0
 14 15  1  0  0  0  0
 15 16  1  0  0  0  0
 15 37  1  0  0  0  0
 15 38  1  0  0  0  0
 16 17  1  0  0  0  0
 16 39  1  0  0  0  0
 16 40  1  0  0  0  0
 17 18  1  0  0  0  0
 18 19  1  0  0  0  0
 18 20  1  0  0  0  0
 18 41  1  0  0  0  0
 19 42  1  0  0  0  0
 19 43  1  0  0  0  0
 19 44  1  0  0  0  0
 20 45  1  0  0  0  0
 20 46  1  0  0  0  0
 21 47  1  0  0  0  0
M  END
> <s_m_source_file>
AV-unprocessed.smi

> <i_m_source_file_index>
3056

> <i_lp_mmshare_version>
43012

> <i_f3d_flags>
0

> <s_epik_input>
W0NIM11jMVtjSF1ubihbY0hdMSlbQ0BIXShbQ0gzXSlbQ0BIXShbQ0gzXSlbTkhdW0NIMl1DKD1PKU4yW0NIMl1bQ0gyXU9bQ0BASF0oW0NIM10pW0NIMl0y

> <s_epik_cmdline>
J2VwaWtfcHl0aG9uJywgJy1waCcsICc3LjAnLCAnLXRuJywgJzgnLCAnLW1hJywgJzIwMCcsICctbWV0YWxfYmluZGluZycsICctaW1hZScsICc8aW5maWxlLm1hZT4nLCAnLW9tYWUnLCAnPG91dGZpbGUubWFlPic=

> <r_lp_tautomer_probability>
1

> <r_epik_Ionization_Penalty>
0.667689

> <r_epik_Ionization_Penalty_Charging>
0

> <r_epik_Ionization_Penalty_Neutral>
0.667689

> <r_epik_State_Penalty>
0.684601

> <r_epik_Charging_Adjusted_Penalty>
0.684601

> <i_epik_Tot_Q>
0

> <i_epik_Tot_abs_Q>
0

> <r_epik_Metal_State_Penalty>
0.681448

> <b_epik_Metal_Only>
0

> <s_lp_Force_Field>
OPLS_2005

> <r_lp_Energy>
33.6961

> <b_lp_Chiralities_Consistent>
1

> <s_lp_Variant>
AV-unprocessed.smi:3056-11

> <Gold.Version>
5.8.1

> <Gold.Id.Protein>
6NUR|6NUR_protein|mol2

> <Gold.PLP.Fitness>
46.8992

> <Gold.PLP.PLP>
-38.5365

> <Gold.PLP.part.hbond>
-2.9224

> <Gold.PLP.part.metal>
0.0000

> <Gold.PLP.part.buried>
-5.5349

> <Gold.PLP.part.nonpolar>
-31.9255

> <Gold.PLP.part.repulsive>
1.2690

> <Gold.PLP.ligand.clash>
0.0000

> <Gold.PLP.ligand.torsion>
1.9278

> <Gold.PLP.Chemscore.Hbond>
3.0000

> <Gold.PLP.Chemscore.CHOScore>
1.0000

> <Gold.PLP.Chemscore.Metal>
0.0000

> <Gold.Chemscore.Hbonds>
donor molecule, donor type, donor heavy atom, donor atom, acceptor molecule, acceptor atom, score
      L1  H    10    34       P1  7948  1.00
      P1  H  7989  7998       L1    17  1.00
      P1  H 10752 10763       L1    13  1.00
      L1  C     3    25       P1  7921  1.00

> <Gold.PLP.Chemscore.Internal.Correction>
0.2183

> <Gold.Rescore>
     Score         DG    S(hbond)    S(metal)    S(lipo)     H(rot)  DE(clash)    DE(int)     intcor
     18.81     -20.40       2.73        0.00      86.32       1.68       0.05       1.54       ----

> <Gold.Chemscore.Fitness>
18.8115

> <Gold.Chemscore.DG>
-20.4037

> <Gold.Chemscore.ZeroCoef>
-5.4800

> <Gold.Chemscore.Hbond>
2.7317

> <Gold.Chemscore.Metal>
0.0000

> <Gold.Chemscore.Lipo>
86.3158

> <Gold.Chemscore.Internal_Hbond>
0.0000

> <Gold.Chemscore.DEClash>
0.0483

> <Gold.Chemscore.DEInternal>
1.5439

> <Gold.Chemscore.Rot>
1.6793

> <Gold.Chemscore.Internal.Correction>
   9.000000E+99

> <Gold.Chemscore.Hbonds>
donor molecule, donor type, donor heavy atom, donor atom, acceptor molecule, acceptor atom, score
      L1  H    10    34       P1  7948  1.00
      P1  H  7989  7998       L1    17  0.53
      P1  H 10752 10763       L1    13  0.94

> <Gold.Chemscore.Hbond.Weighted>
-9.1238

> <Gold.Chemscore.Metal.Weighted>
-0.0000

> <Gold.Chemscore.Lipo.Weighted>
-10.0989

> <Gold.Chemscore.Internal_Hbond.Weighted>
0.0000

> <Gold.Chemscore.DEClash.Weighted>
0.0483

> <Gold.Chemscore.DEInternal.Weighted>
1.5439

> <Gold.Chemscore.Rot.Weighted>
4.2990

> <Gold.Chemscore.Internal.Correction.Weighted>
   9.000000E+99

> <Gold.Protein.RotatedTorsions>
[ 6907 6896 6895 6894 ] final  175.55 input  -60.11 | X-H torsion
[ 7974 7965 7964 7962 ] final  -69.83 input  175.53 | X-H torsion
[ 8008 7997 7996 7995 ] final  -21.38 input   59.86 | X-H torsion
[ 10167 10162 10161 10158 ] final  169.41 input  -65.29 | X-H torsion
[ 10718 10713 10712 10709 ] final   62.10 input   66.30 | X-H torsion
[ 10763 10752 10751 10750 ] final   77.95 input  -60.55 | X-H torsion
[ 11005 11000 10999 10996 ] final  108.56 input  -57.11 | X-H torsion

> <Gold.Protein.ActiveResidues>
 VAL166  LYS551  ARG553  GLY616  TRP617  ASP618  TYR619  PRO620  LYS621  CYS622 
 ASP623  PHE694  ASN695  SER759  ASP760  ASP761  ALA762  ILE779  LEU786  VAL792 
 PHE793  MET794  SER795  GLU796  ALA797  LYS798  CYS799  TRP800  GLU811  SER814 

> <Gold.Protein.RotatedAtoms>
  151.7344  133.3319  159.3348 H   0  0  0  0  0  0  0  0  0  0  0  0  # atno 6907 bound_to 6896
  150.7599  134.6334  159.6208 H   0  0  0  0  0  0  0  0  0  0  0  0  # atno 6908 bound_to 6896
  152.3571  134.6927  160.0270 H   0  0  0  0  0  0  0  0  0  0  0  0  # atno 6909 bound_to 6896
  145.6987  140.9125  143.0742 H   0  0  0  0  0  0  0  0  0  0  0  0  # atno 7974 bound_to 7965
  154.4709  140.2036  155.9997 H   0  0  0  0  0  0  0  0  0  0  0  0  # atno 8008 bound_to 7997
  156.1009  140.3244  155.7911 H   0  0  0  0  0  0  0  0  0  0  0  0  # atno 8009 bound_to 7997
  155.4799  140.0538  157.2959 H   0  0  0  0  0  0  0  0  0  0  0  0  # atno 8010 bound_to 7997
  139.4992  144.3708  151.9726 H   0  0  0  0  0  0  0  0  0  0  0  0  # atno 10167 bound_to 10162
  157.5876  130.9032  149.9545 H   0  0  0  0  0  0  0  0  0  0  0  0  # atno 10718 bound_to 10713
  153.0837  135.4895  154.8554 H   0  0  0  0  0  0  0  0  0  0  0  0  # atno 10763 bound_to 10752
  154.7183  135.3034  154.9090 H   0  0  0  0  0  0  0  0  0  0  0  0  # atno 10764 bound_to 10752
  153.9762  135.6795  153.4801 H   0  0  0  0  0  0  0  0  0  0  0  0  # atno 10765 bound_to 10752
  139.8846  134.9434  156.5991 H   0  0  0  0  0  0  0  0  0  0  0  0  # atno 11005 bound_to 11000
  144.6975  139.8919  143.7453 LP  0  0  0  0  0  0  0  0  0  0  0  0  # atno 17320 bound_to 7965
  146.0817  139.3805  143.0460 LP  0  0  0  0  0  0  0  0  0  0  0  0  # atno 17321 bound_to 7965
  140.3145  144.3500  150.6025 LP  0  0  0  0  0  0  0  0  0  0  0  0  # atno 17342 bound_to 10162
  140.5772  143.2175  151.7493 LP  0  0  0  0  0  0  0  0  0  0  0  0  # atno 17343 bound_to 10162
  156.0927  130.3662  150.0364 LP  0  0  0  0  0  0  0  0  0  0  0  0  # atno 17370 bound_to 10713
  156.8492  130.9453  151.3626 LP  0  0  0  0  0  0  0  0  0  0  0  0  # atno 17371 bound_to 10713
  140.7897  133.8592  155.8636 LP  0  0  0  0  0  0  0  0  0  0  0  0  # atno 17394 bound_to 11000
  140.9688  134.1559  157.4594 LP  0  0  0  0  0  0  0  0  0  0  0  0  # atno 17395 bound_to 11000

$$$$
