AV-unprocessed.smi:1659|AV-procd|sdf|6651|dock9
  -GOLD-   22720 7353D 1   1.00000     0.00000
 Structure written by MMmdl.
 42 43  0  0  0  0  0  0  0  0  2 V2000
  157.2877  143.8841  168.8309 C   0  0  0  0  0  0  0  0  0  0  0  0
  156.8778  143.1017  167.6306 C   0  0  0  0  0  0  0  0  0  0  0  0
  156.0617  143.3854  166.5725 C   0  0  0  0  0  0  0  0  0  0  0  0
  156.1223  142.2007  165.7885 C   0  0  0  0  0  0  0  0  0  0  0  0
  155.4697  141.9820  164.6365 N   0  5  0  0  0  0  0  0  0  0  0  0
  155.6619  140.8308  163.9520 C   0  0  0  0  0  0  0  0  0  0  0  0
  156.1117  139.7760  164.4064 O   0  0  0  0  0  0  0  0  0  0  0  0
  155.3124  140.9040  162.6605 N   0  0  0  0  0  0  0  0  0  0  0  0
  155.4113  139.8108  161.7006 C   0  0  0  0  0  0  0  0  0  0  0  0
  154.4240  139.9921  160.5377 C   0  0  0  0  0  0  0  0  0  0  0  0
  154.3906  141.4279  159.9799 C   0  0  0  0  0  0  0  0  0  0  0  0
  153.0358  141.8153  159.5685 N   0  0  0  0  0  0  0  0  0  0  0  0
  152.4111  142.8967  160.3464 C   0  0  0  0  0  0  0  0  0  0  0  0
  152.2803  144.2265  159.5688 C   0  0  0  0  0  0  0  0  0  0  0  0
  152.0866  144.1064  158.0440 C   0  0  0  0  0  0  0  0  0  0  0  0
  150.9507  143.1604  157.6008 C   0  0  0  0  0  0  0  0  0  0  0  0
  151.0009  141.7127  158.1468 C   0  0  0  0  0  0  0  0  0  0  0  0
  152.4079  141.2204  158.5245 C   0  0  0  0  0  0  0  0  0  0  0  0
  152.9112  140.3076  157.8694 O   0  0  0  0  0  0  0  0  0  0  0  0
  156.8923  141.2732  166.3329 N   0  0  0  0  0  0  0  0  0  0  0  0
  157.3863  141.8459  167.5110 O   0  0  0  0  0  0  0  0  0  0  0  0
  156.4244  144.3636  169.2921 H   0  0  0  0  0  0  0  0  0  0  0  0
  158.0011  144.6614  168.5575 H   0  0  0  0  0  0  0  0  0  0  0  0
  157.7556  143.2424  169.5778 H   0  0  0  0  0  0  0  0  0  0  0  0
  155.5130  144.2960  166.3841 H   0  0  0  0  0  0  0  0  0  0  0  0
  154.9487  141.7831  162.3226 H   0  0  0  0  0  0  0  0  0  0  0  0
  156.4308  139.7716  161.3146 H   0  0  0  0  0  0  0  0  0  0  0  0
  155.2232  138.8605  162.2028 H   0  0  0  0  0  0  0  0  0  0  0  0
  154.6709  139.2878  159.7423 H   0  0  0  0  0  0  0  0  0  0  0  0
  153.4258  139.7208  160.8833 H   0  0  0  0  0  0  0  0  0  0  0  0
  154.7701  142.1240  160.7290 H   0  0  0  0  0  0  0  0  0  0  0  0
  155.0738  141.5221  159.1339 H   0  0  0  0  0  0  0  0  0  0  0  0
  151.4278  142.5709  160.6855 H   0  0  0  0  0  0  0  0  0  0  0  0
  152.9591  143.0757  161.2725 H   0  0  0  0  0  0  0  0  0  0  0  0
  151.4614  144.8053  159.9974 H   0  0  0  0  0  0  0  0  0  0  0  0
  153.1798  144.8184  159.7422 H   0  0  0  0  0  0  0  0  0  0  0  0
  151.8969  145.0996  157.6356 H   0  0  0  0  0  0  0  0  0  0  0  0
  153.0237  143.7881  157.5847 H   0  0  0  0  0  0  0  0  0  0  0  0
  149.9938  143.6027  157.8800 H   0  0  0  0  0  0  0  0  0  0  0  0
  150.9465  143.1226  156.5109 H   0  0  0  0  0  0  0  0  0  0  0  0
  150.3496  141.6174  159.0156 H   0  0  0  0  0  0  0  0  0  0  0  0
  150.5737  141.0365  157.4051 H   0  0  0  0  0  0  0  0  0  0  0  0
  1  2  1  0  0  0  0
  1 22  1  0  0  0  0
  1 23  1  0  0  0  0
  1 24  1  0  0  0  0
  2 21  1  0  0  0  0
  2  3  2  0  0  0  0
  3  4  1  0  0  0  0
  3 25  1  0  0  0  0
  4  5  1  0  0  0  0
  4 20  2  0  0  0  0
  5  6  1  0  0  0  0
  6  7  2  0  0  0  0
  6  8  1  0  0  0  0
  8  9  1  0  0  0  0
  8 26  1  0  0  0  0
  9 10  1  0  0  0  0
  9 27  1  0  0  0  0
  9 28  1  0  0  0  0
 10 11  1  0  0  0  0
 10 29  1  0  0  0  0
 10 30  1  0  0  0  0
 11 12  1  0  0  0  0
 11 31  1  0  0  0  0
 11 32  1  0  0  0  0
 12 18  1  0  0  0  0
 12 13  1  0  0  0  0
 13 14  1  0  0  0  0
 13 33  1  0  0  0  0
 13 34  1  0  0  0  0
 14 15  1  0  0  0  0
 14 35  1  0  0  0  0
 14 36  1  0  0  0  0
 15 16  1  0  0  0  0
 15 37  1  0  0  0  0
 15 38  1  0  0  0  0
 16 17  1  0  0  0  0
 16 39  1  0  0  0  0
 16 40  1  0  0  0  0
 17 18  1  0  0  0  0
 17 41  1  0  0  0  0
 17 42  1  0  0  0  0
 18 19  2  0  0  0  0
 20 21  1  0  0  0  0
M  CHG  1   5  -1
M  END
> <s_m_source_file>
AV-unprocessed.smi

> <i_m_source_file_index>
1659

> <i_lp_mmshare_version>
43012

> <i_f3d_flags>
0

> <s_epik_input>
W0NIM11jMVtjSF1jKG5vMSlbTkhdQyg9TylbTkhdW0NIMl1bQ0gyXVtDSDJdTjJbQ0gyXVtDSDJdW0NIMl1bQ0gyXVtDSDJdQzI9Tw==

> <s_epik_cmdline>
J2VwaWtfcHl0aG9uJywgJy1waCcsICc3LjAnLCAnLXRuJywgJzgnLCAnLW1hJywgJzIwMCcsICctbWV0YWxfYmluZGluZycsICctaW1hZScsICc8aW5maWxlLm1hZT4nLCAnLW9tYWUnLCAnPG91dGZpbGUubWFlPic=

> <r_lp_tautomer_probability>
1

> <r_epik_Ionization_Penalty>
6.59786

> <r_epik_Ionization_Penalty_Charging>
6.59773

> <r_epik_Ionization_Penalty_Neutral>
0.00012688

> <r_epik_State_Penalty>
6.59772

> <r_epik_Charging_Adjusted_Penalty>
13.1954

> <i_epik_Tot_Q>
-1

> <i_epik_Tot_abs_Q>
1

> <r_epik_Metal_State_Penalty>
2.522

> <b_epik_Metal_Only>
1

> <s_lp_Force_Field>
OPLS_2005

> <r_lp_Energy>
19.1909

> <b_lp_Chiralities_Consistent>
1

> <s_lp_Variant>
AV-unprocessed.smi:1659-2

> <Gold.Version>
5.8.1

> <Gold.Id.Protein>
6NUR|6NUR_protein|mol2

> <Gold.PLP.Fitness>
47.9319

> <Gold.PLP.PLP>
-46.1977

> <Gold.PLP.part.hbond>
-2.0000

> <Gold.PLP.part.metal>
0.0000

> <Gold.PLP.part.buried>
-4.1050

> <Gold.PLP.part.nonpolar>
-39.9596

> <Gold.PLP.part.repulsive>
0.0088

> <Gold.PLP.ligand.clash>
0.0000

> <Gold.PLP.ligand.torsion>
0.6064

> <Gold.PLP.Chemscore.Hbond>
0.9600

> <Gold.PLP.Chemscore.CHOScore>
0.0000

> <Gold.PLP.Chemscore.Metal>
0.0000

> <Gold.Chemscore.Hbonds>
donor molecule, donor type, donor heavy atom, donor atom, acceptor molecule, acceptor atom, score
      P1  H  7997  8008       L1    19  0.88

> <Gold.PLP.Chemscore.Internal.Correction>
0.0671

> <Gold.Rescore>
     Score         DG    S(hbond)    S(metal)    S(lipo)     H(rot)  DE(clash)    DE(int)     intcor
     12.40     -15.48       0.97        0.00      98.08       1.84       0.73       2.36       ----

> <Gold.Chemscore.Fitness>
12.3997

> <Gold.Chemscore.DG>
-15.4834

> <Gold.Chemscore.ZeroCoef>
-5.4800

> <Gold.Chemscore.Hbond>
0.9689

> <Gold.Chemscore.Metal>
0.0000

> <Gold.Chemscore.Lipo>
98.0806

> <Gold.Chemscore.Internal_Hbond>
0.0000

> <Gold.Chemscore.DEClash>
0.7285

> <Gold.Chemscore.DEInternal>
2.3552

> <Gold.Chemscore.Rot>
1.8391

> <Gold.Chemscore.Internal.Correction>
   9.000000E+99

> <Gold.Chemscore.Hbonds>
donor molecule, donor type, donor heavy atom, donor atom, acceptor molecule, acceptor atom, score
      P1  H  7997  8008       L1    19  0.86

> <Gold.Chemscore.Hbond.Weighted>
-3.2361

> <Gold.Chemscore.Metal.Weighted>
-0.0000

> <Gold.Chemscore.Lipo.Weighted>
-11.4754

> <Gold.Chemscore.Internal_Hbond.Weighted>
0.0000

> <Gold.Chemscore.DEClash.Weighted>
0.7285

> <Gold.Chemscore.DEInternal.Weighted>
2.3552

> <Gold.Chemscore.Rot.Weighted>
4.7082

> <Gold.Chemscore.Internal.Correction.Weighted>
   9.000000E+99

> <Gold.Protein.RotatedTorsions>
[ 6907 6896 6895 6894 ] final  130.51 input  -60.11 | X-H torsion
[ 7974 7965 7964 7962 ] final   89.37 input  175.53 | X-H torsion
[ 8008 7997 7996 7995 ] final  -83.94 input   59.86 | X-H torsion
[ 10167 10162 10161 10158 ] final  -90.90 input  -65.29 | X-H torsion
[ 10718 10713 10712 10709 ] final  -84.13 input   66.30 | X-H torsion
[ 10763 10752 10751 10750 ] final  105.50 input  -60.55 | X-H torsion
[ 11005 11000 10999 10996 ] final  118.42 input  -57.11 | X-H torsion

> <Gold.Protein.ActiveResidues>
 VAL166  LYS551  ARG553  GLY616  TRP617  ASP618  TYR619  PRO620  LYS621  CYS622 
 ASP623  PHE694  ASN695  SER759  ASP760  ASP761  ALA762  ILE779  LEU786  VAL792 
 PHE793  MET794  SER795  GLU796  ALA797  LYS798  CYS799  TRP800  GLU811  SER814 

> <Gold.Protein.RotatedAtoms>
  152.3518  133.6189  159.5950 H   0  0  0  0  0  0  0  0  0  0  0  0  # atno 6907 bound_to 6896
  150.7543  133.9562  159.3510 H   0  0  0  0  0  0  0  0  0  0  0  0  # atno 6908 bound_to 6896
  151.7412  135.0854  160.0367 H   0  0  0  0  0  0  0  0  0  0  0  0  # atno 6909 bound_to 6896
  145.5333  139.2284  143.2607 H   0  0  0  0  0  0  0  0  0  0  0  0  # atno 7974 bound_to 7965
  154.6245  140.0612  156.9656 H   0  0  0  0  0  0  0  0  0  0  0  0  # atno 8008 bound_to 7997
  155.1764  140.3295  155.4364 H   0  0  0  0  0  0  0  0  0  0  0  0  # atno 8009 bound_to 7997
  156.2450  140.1905  156.6863 H   0  0  0  0  0  0  0  0  0  0  0  0  # atno 8010 bound_to 7997
  140.3503  143.2895  151.9734 H   0  0  0  0  0  0  0  0  0  0  0  0  # atno 10167 bound_to 10162
  156.0010  130.4688  150.4363 H   0  0  0  0  0  0  0  0  0  0  0  0  # atno 10718 bound_to 10713
  153.3802  135.3908  155.1851 H   0  0  0  0  0  0  0  0  0  0  0  0  # atno 10763 bound_to 10752
  154.8706  135.3723  154.4867 H   0  0  0  0  0  0  0  0  0  0  0  0  # atno 10764 bound_to 10752
  153.5343  135.7085  153.5729 H   0  0  0  0  0  0  0  0  0  0  0  0  # atno 10765 bound_to 10752
  139.9109  134.9620  156.7501 H   0  0  0  0  0  0  0  0  0  0  0  0  # atno 11005 bound_to 11000
  146.2030  140.6150  142.9094 LP  0  0  0  0  0  0  0  0  0  0  0  0  # atno 17320 bound_to 7965
  144.7615  140.5432  143.6732 LP  0  0  0  0  0  0  0  0  0  0  0  0  # atno 17321 bound_to 7965
  139.4827  144.6082  151.7483 LP  0  0  0  0  0  0  0  0  0  0  0  0  # atno 17342 bound_to 10162
  140.5225  144.0856  150.6027 LP  0  0  0  0  0  0  0  0  0  0  0  0  # atno 17343 bound_to 10162
  157.2408  131.0525  151.2437 LP  0  0  0  0  0  0  0  0  0  0  0  0  # atno 17370 bound_to 10713
  157.3622  130.7137  149.6509 LP  0  0  0  0  0  0  0  0  0  0  0  0  # atno 17371 bound_to 10713
  140.6780  133.9500  155.7894 LP  0  0  0  0  0  0  0  0  0  0  0  0  # atno 17394 bound_to 11000
  141.0530  134.0457  157.3759 LP  0  0  0  0  0  0  0  0  0  0  0  0  # atno 17395 bound_to 11000

$$$$
