AV-unprocessed.smi:841|AV-procd|sdf|3916|dock9
  -GOLD-   22720 1383D 1   1.00000     0.00000
 Structure written by MMmdl.
 30 31  0  0  0  0  0  0  0  0  1 V2000
  150.5502  140.1863  154.7857 O   0  0  0  0  0  0  0  0  0  0  0  0
  149.8339  141.1665  154.9897 C   0  0  0  0  0  0  0  0  0  0  0  0
  148.6197  141.4303  154.0955 C   0  0  0  0  0  0  0  0  0  0  0  0
  147.6593  140.3421  154.1655 N   0  0  0  0  0  0  0  0  0  0  0  0
  147.7242  139.0995  153.5686 C   0  0  0  0  0  0  0  0  0  0  0  0
  146.5886  138.4230  153.9112 C   0  0  0  0  0  0  0  0  0  0  0  0
  145.8777  139.3477  154.7260 C   0  0  0  0  0  0  0  0  0  0  0  0
  146.5188  140.4959  154.8734 N   0  0  0  0  0  0  0  0  0  0  0  0
  150.0503  142.0484  155.9784 N   0  0  0  0  0  0  0  0  0  0  0  0
  151.1419  141.9886  156.9456 C   0  0  0  0  0  0  0  0  0  0  0  0
  151.1509  143.2144  157.8782 C   0  0  1  0  0  0  0  0  0  0  0  0
  151.8607  143.0139  159.2037 C   0  0  0  0  0  0  0  0  0  0  0  0
  152.1281  144.4503  159.6433 C   0  0  0  0  0  0  0  0  0  0  0  0
  152.2741  145.2061  158.4442 O   0  0  0  0  0  0  0  0  0  0  0  0
  151.9214  144.4091  157.3176 C   0  0  0  0  0  0  0  0  0  0  0  0
  148.1426  142.3621  154.4035 H   0  0  0  0  0  0  0  0  0  0  0  0
  148.9238  141.5545  153.0551 H   0  0  0  0  0  0  0  0  0  0  0  0
  148.5647  138.8039  152.9582 H   0  0  0  0  0  0  0  0  0  0  0  0
  146.3076  137.4211  153.6224 H   0  0  0  0  0  0  0  0  0  0  0  0
  144.9201  139.2207  155.2091 H   0  0  0  0  0  0  0  0  0  0  0  0
  149.4067  142.8210  156.0699 H   0  0  0  0  0  0  0  0  0  0  0  0
  151.0999  141.0643  157.5243 H   0  0  0  0  0  0  0  0  0  0  0  0
  152.0766  141.9527  156.3853 H   0  0  0  0  0  0  0  0  0  0  0  0
  150.1242  143.5279  158.0756 H   0  0  0  0  0  0  0  0  0  0  0  0
  151.2703  142.4537  159.9293 H   0  0  0  0  0  0  0  0  0  0  0  0
  152.8049  142.4885  159.0534 H   0  0  0  0  0  0  0  0  0  0  0  0
  151.2757  144.8436  160.1988 H   0  0  0  0  0  0  0  0  0  0  0  0
  153.0115  144.5323  160.2766 H   0  0  0  0  0  0  0  0  0  0  0  0
  152.8396  144.0827  156.8273 H   0  0  0  0  0  0  0  0  0  0  0  0
  151.3380  144.9803  156.5953 H   0  0  0  0  0  0  0  0  0  0  0  0
  1  2  2  0  0  0  0
  2  3  1  0  0  0  0
  2  9  1  0  0  0  0
  3  4  1  0  0  0  0
  3 16  1  0  0  0  0
  3 17  1  0  0  0  0
  4  8  1  0  0  0  0
  4  5  1  0  0  0  0
  5  6  2  0  0  0  0
  5 18  1  0  0  0  0
  6  7  1  0  0  0  0
  6 19  1  0  0  0  0
  7  8  2  0  0  0  0
  7 20  1  0  0  0  0
  9 10  1  0  0  0  0
  9 21  1  0  0  0  0
 10 11  1  0  0  0  0
 10 22  1  0  0  0  0
 10 23  1  0  0  0  0
 11 15  1  0  0  0  0
 11 12  1  0  0  0  0
 11 24  1  0  0  0  0
 12 13  1  0  0  0  0
 12 25  1  0  0  0  0
 12 26  1  0  0  0  0
 13 14  1  0  0  0  0
 13 27  1  0  0  0  0
 13 28  1  0  0  0  0
 14 15  1  0  0  0  0
 15 29  1  0  0  0  0
 15 30  1  0  0  0  0
M  END
> <s_m_source_file>
AV-unprocessed.smi

> <i_m_source_file_index>
841

> <i_lp_mmshare_version>
43012

> <i_f3d_flags>
0

> <s_epik_input>
bjFbY0hdW2NIXVtjSF1uMVtDSDJdQyg9TylbTkhdW0NIMl1bQ0BASF0yW0NIMl1bQ0gyXU9bQ0gyXTI=

> <s_epik_cmdline>
J2VwaWtfcHl0aG9uJywgJy1waCcsICc3LjAnLCAnLXRuJywgJzgnLCAnLW1hJywgJzIwMCcsICctbWV0YWxfYmluZGluZycsICctaW1hZScsICc8aW5maWxlLm1hZT4nLCAnLW9tYWUnLCAnPG91dGZpbGUubWFlPic=

> <r_lp_tautomer_probability>
1

> <r_epik_Ionization_Penalty>
1.49823e-05

> <r_epik_Ionization_Penalty_Charging>
0

> <r_epik_Ionization_Penalty_Neutral>
1.49823e-05

> <r_epik_State_Penalty>
-0

> <r_epik_Charging_Adjusted_Penalty>
0

> <i_epik_Tot_Q>
0

> <i_epik_Tot_abs_Q>
0

> <r_epik_Metal_State_Penalty>
-0

> <b_epik_Metal_Only>
0

> <s_lp_Force_Field>
OPLS_2005

> <r_lp_Energy>
18.8738

> <b_lp_Chiralities_Consistent>
1

> <s_lp_Variant>
AV-unprocessed.smi:841-2

> <Gold.Version>
5.8.1

> <Gold.Id.Protein>
6NUR|6NUR_protein|mol2

> <Gold.PLP.Fitness>
38.3628

> <Gold.PLP.PLP>
-29.6565

> <Gold.PLP.part.hbond>
-2.0000

> <Gold.PLP.part.metal>
0.0000

> <Gold.PLP.part.buried>
-2.2777

> <Gold.PLP.part.nonpolar>
-24.0765

> <Gold.PLP.part.repulsive>
0.3082

> <Gold.PLP.ligand.clash>
0.0000

> <Gold.PLP.ligand.torsion>
0.4938

> <Gold.PLP.Chemscore.Hbond>
1.9360

> <Gold.PLP.Chemscore.CHOScore>
1.2920

> <Gold.PLP.Chemscore.Metal>
0.0000

> <Gold.Chemscore.Hbonds>
donor molecule, donor type, donor heavy atom, donor atom, acceptor molecule, acceptor atom, score
      L1  H     9    21       P1  8028  1.00
      P1  H  7989  7998       L1     1  0.95
      L1  C     5    18       P1  7948  0.31
      L1  C     5    18       P1  7957  0.97

> <Gold.PLP.Chemscore.Internal.Correction>
0.0100

> <Gold.Rescore>
     Score         DG    S(hbond)    S(metal)    S(lipo)     H(rot)  DE(clash)    DE(int)     intcor
     14.78     -15.29       1.59        0.00      75.18       1.68       0.06       0.45       ----

> <Gold.Chemscore.Fitness>
14.7778

> <Gold.Chemscore.DG>
-15.2855

> <Gold.Chemscore.ZeroCoef>
-5.4800

> <Gold.Chemscore.Hbond>
1.5879

> <Gold.Chemscore.Metal>
0.0000

> <Gold.Chemscore.Lipo>
75.1751

> <Gold.Chemscore.Internal_Hbond>
0.0000

> <Gold.Chemscore.DEClash>
0.0615

> <Gold.Chemscore.DEInternal>
0.4463

> <Gold.Chemscore.Rot>
1.6771

> <Gold.Chemscore.Internal.Correction>
   9.000000E+99

> <Gold.Chemscore.Hbonds>
donor molecule, donor type, donor heavy atom, donor atom, acceptor molecule, acceptor atom, score
      L1  H     9    21       P1  8028  0.90
      P1  H  7989  7998       L1     1  0.21

> <Gold.Chemscore.Hbond.Weighted>
-5.3034

> <Gold.Chemscore.Metal.Weighted>
-0.0000

> <Gold.Chemscore.Lipo.Weighted>
-8.7955

> <Gold.Chemscore.Internal_Hbond.Weighted>
0.0000

> <Gold.Chemscore.DEClash.Weighted>
0.0615

> <Gold.Chemscore.DEInternal.Weighted>
0.4463

> <Gold.Chemscore.Rot.Weighted>
4.2934

> <Gold.Chemscore.Internal.Correction.Weighted>
   9.000000E+99

> <Gold.Protein.RotatedTorsions>
[ 6907 6896 6895 6894 ] final -113.00 input  -60.11 | X-H torsion
[ 7974 7965 7964 7962 ] final   48.68 input  175.53 | X-H torsion
[ 8008 7997 7996 7995 ] final   61.66 input   59.86 | X-H torsion
[ 10167 10162 10161 10158 ] final -139.74 input  -65.29 | X-H torsion
[ 10718 10713 10712 10709 ] final  149.52 input   66.30 | X-H torsion
[ 10763 10752 10751 10750 ] final  -82.06 input  -60.55 | X-H torsion
[ 11005 11000 10999 10996 ] final   74.89 input  -57.11 | X-H torsion

> <Gold.Protein.ActiveResidues>
 VAL166  LYS551  ARG553  GLY616  TRP617  ASP618  TYR619  PRO620  LYS621  CYS622 
 ASP623  PHE694  ASN695  SER759  ASP760  ASP761  ALA762  ILE779  LEU786  VAL792 
 PHE793  MET794  SER795  GLU796  ALA797  LYS798  CYS799  TRP800  GLU811  SER814 

> <Gold.Protein.RotatedAtoms>
  150.7798  133.9009  159.3340 H   0  0  0  0  0  0  0  0  0  0  0  0  # atno 6907 bound_to 6896
  151.6874  135.0950  160.0237 H   0  0  0  0  0  0  0  0  0  0  0  0  # atno 6908 bound_to 6896
  152.3845  133.6554  159.6223 H   0  0  0  0  0  0  0  0  0  0  0  0  # atno 6909 bound_to 6896
  146.0181  139.4619  142.9914 H   0  0  0  0  0  0  0  0  0  0  0  0  # atno 7974 bound_to 7965
  155.6019  140.3494  155.4596 H   0  0  0  0  0  0  0  0  0  0  0  0  # atno 8008 bound_to 7997
  156.0222  140.1256  157.0370 H   0  0  0  0  0  0  0  0  0  0  0  0  # atno 8009 bound_to 7997
  154.4319  140.1060  156.5965 H   0  0  0  0  0  0  0  0  0  0  0  0  # atno 8010 bound_to 7997
  139.8350  143.7397  152.2665 H   0  0  0  0  0  0  0  0  0  0  0  0  # atno 10167 bound_to 10162
  157.2951  131.0860  151.1433 H   0  0  0  0  0  0  0  0  0  0  0  0  # atno 10718 bound_to 10713
  154.5711  135.5604  153.7096 H   0  0  0  0  0  0  0  0  0  0  0  0  # atno 10763 bound_to 10752
  153.0049  135.6297  154.2112 H   0  0  0  0  0  0  0  0  0  0  0  0  # atno 10764 bound_to 10752
  154.2052  135.2876  155.2957 H   0  0  0  0  0  0  0  0  0  0  0  0  # atno 10765 bound_to 10752
  139.9369  134.7471  156.1203 H   0  0  0  0  0  0  0  0  0  0  0  0  # atno 11005 bound_to 11000
  145.7237  141.0066  143.1389 LP  0  0  0  0  0  0  0  0  0  0  0  0  # atno 17320 bound_to 7965
  144.6979  139.8901  143.7452 LP  0  0  0  0  0  0  0  0  0  0  0  0  # atno 17321 bound_to 7965
  139.7616  144.7504  151.0355 LP  0  0  0  0  0  0  0  0  0  0  0  0  # atno 17342 bound_to 10162
  140.7803  143.4744  151.0102 LP  0  0  0  0  0  0  0  0  0  0  0  0  # atno 17343 bound_to 10162
  157.2814  130.6752  149.6068 LP  0  0  0  0  0  0  0  0  0  0  0  0  # atno 17370 bound_to 10713
  155.9669  130.4449  150.5478 LP  0  0  0  0  0  0  0  0  0  0  0  0  # atno 17371 bound_to 10713
  141.0987  133.6685  156.2705 LP  0  0  0  0  0  0  0  0  0  0  0  0  # atno 17394 bound_to 11000
  140.6051  134.5515  157.5524 LP  0  0  0  0  0  0  0  0  0  0  0  0  # atno 17395 bound_to 11000

$$$$
