AV-unprocessed.smi:2994|AV-procd|sdf|11404|dock4
  -GOLD-   2272016323D 1   1.00000     0.00000
 Structure written by MMmdl.
 47 49  0  0  0  0  0  0  0  0  1 V2000
  147.0681  133.2399  153.0016 C   0  0  0  0  0  0  0  0  0  0  0  0
  148.2267  133.2722  154.0121 C   0  0  2  0  0  0  0  0  0  0  0  0
  148.8889  134.5730  153.9698 N   0  0  0  0  0  0  0  0  0  0  0  0
  149.4776  135.1830  155.0090 C   0  0  0  0  0  0  0  0  0  0  0  0
  149.5191  134.7030  156.1413 O   0  0  0  0  0  0  0  0  0  0  0  0
  149.9886  136.3720  154.6446 N   0  0  0  0  0  0  0  0  0  0  0  0
  150.6570  137.3426  155.4407 C   0  0  0  0  0  0  0  0  0  0  0  0
  151.0824  138.6108  154.9774 C   0  0  0  0  0  0  0  0  0  0  0  0
  151.7298  139.4812  155.8747 C   0  0  0  0  0  0  0  0  0  0  0  0
  151.9329  139.0597  157.2078 C   0  0  0  0  0  0  0  0  0  0  0  0
  152.6007  139.9683  158.1983 C   0  0  0  0  0  0  0  0  0  0  0  0
  153.7493  139.7057  158.5580 O   0  0  0  0  0  0  0  0  0  0  0  0
  151.9020  141.0329  158.6677 N   0  0  0  0  0  0  0  0  0  0  0  0
  150.6746  141.5857  158.0724 C   0  0  0  0  0  0  0  0  0  0  0  0
  151.0090  142.9240  157.3870 C   0  0  0  0  0  0  0  0  0  0  0  0
  151.6660  143.9056  158.3748 C   0  0  0  0  0  0  0  0  0  0  0  0
  152.8453  143.2528  159.1183 C   0  0  0  0  0  0  0  0  0  0  0  0
  152.4278  141.9027  159.7286 C   0  0  0  0  0  0  0  0  0  0  0  0
  151.5059  137.8609  157.6631 N   0  0  0  0  0  0  0  0  0  0  0  0
  150.8878  137.0308  156.7969 C   0  0  0  0  0  0  0  0  0  0  0  0
  149.1878  132.1248  153.7638 C   0  0  0  0  0  0  0  0  0  0  0  0
  148.8617  130.7240  154.2234 C   0  0  0  0  0  0  0  0  0  0  0  0
  149.9719  131.5018  154.8937 C   0  0  0  0  0  0  0  0  0  0  0  0
  146.5419  132.2857  153.0404 H   0  0  0  0  0  0  0  0  0  0  0  0
  147.4269  133.3801  151.9814 H   0  0  0  0  0  0  0  0  0  0  0  0
  146.3363  134.0214  153.2077 H   0  0  0  0  0  0  0  0  0  0  0  0
  147.8071  133.1325  155.0105 H   0  0  0  0  0  0  0  0  0  0  0  0
  148.9009  135.0435  153.0768 H   0  0  0  0  0  0  0  0  0  0  0  0
  149.8288  136.6425  153.6853 H   0  0  0  0  0  0  0  0  0  0  0  0
  150.9196  138.9422  153.9643 H   0  0  0  0  0  0  0  0  0  0  0  0
  152.0618  140.4544  155.5433 H   0  0  0  0  0  0  0  0  0  0  0  0
  150.2010  140.9293  157.3446 H   0  0  0  0  0  0  0  0  0  0  0  0
  149.9334  141.7406  158.8575 H   0  0  0  0  0  0  0  0  0  0  0  0
  151.6833  142.7431  156.5487 H   0  0  0  0  0  0  0  0  0  0  0  0
  150.1057  143.3668  156.9667 H   0  0  0  0  0  0  0  0  0  0  0  0
  151.9986  144.8028  157.8520 H   0  0  0  0  0  0  0  0  0  0  0  0
  150.9214  144.2311  159.1023 H   0  0  0  0  0  0  0  0  0  0  0  0
  153.6751  143.0990  158.4270 H   0  0  0  0  0  0  0  0  0  0  0  0
  153.2109  143.9209  159.8986 H   0  0  0  0  0  0  0  0  0  0  0  0
  151.6538  142.0561  160.4821 H   0  0  0  0  0  0  0  0  0  0  0  0
  153.2700  141.4562  160.2592 H   0  0  0  0  0  0  0  0  0  0  0  0
  150.5695  136.0813  157.2024 H   0  0  0  0  0  0  0  0  0  0  0  0
  149.7066  132.1927  152.8091 H   0  0  0  0  0  0  0  0  0  0  0  0
  147.9429  130.5750  154.7873 H   0  0  0  0  0  0  0  0  0  0  0  0
  149.1455  129.9028  153.5684 H   0  0  0  0  0  0  0  0  0  0  0  0
  150.9956  131.1967  154.6865 H   0  0  0  0  0  0  0  0  0  0  0  0
  149.7894  131.8694  155.9015 H   0  0  0  0  0  0  0  0  0  0  0  0
  1  2  1  0  0  0  0
  1 24  1  0  0  0  0
  1 25  1  0  0  0  0
  1 26  1  0  0  0  0
  2  3  1  0  0  0  0
  2 21  1  0  0  0  0
  2 27  1  0  0  0  0
  3  4  1  0  0  0  0
  3 28  1  0  0  0  0
  4  5  2  0  0  0  0
  4  6  1  0  0  0  0
  6  7  1  0  0  0  0
  6 29  1  0  0  0  0
  7 20  1  0  0  0  0
  7  8  2  0  0  0  0
  8  9  1  0  0  0  0
  8 30  1  0  0  0  0
  9 10  2  0  0  0  0
  9 31  1  0  0  0  0
 10 11  1  0  0  0  0
 10 19  1  0  0  0  0
 11 12  2  0  0  0  0
 11 13  1  0  0  0  0
 13 18  1  0  0  0  0
 13 14  1  0  0  0  0
 14 15  1  0  0  0  0
 14 32  1  0  0  0  0
 14 33  1  0  0  0  0
 15 16  1  0  0  0  0
 15 34  1  0  0  0  0
 15 35  1  0  0  0  0
 16 17  1  0  0  0  0
 16 36  1  0  0  0  0
 16 37  1  0  0  0  0
 17 18  1  0  0  0  0
 17 38  1  0  0  0  0
 17 39  1  0  0  0  0
 18 40  1  0  0  0  0
 18 41  1  0  0  0  0
 19 20  2  0  0  0  0
 20 42  1  0  0  0  0
 21 23  1  0  0  0  0
 21 22  1  0  0  0  0
 21 43  1  0  0  0  0
 22 23  1  0  0  0  0
 22 44  1  0  0  0  0
 22 45  1  0  0  0  0
 23 46  1  0  0  0  0
 23 47  1  0  0  0  0
M  END
> <s_m_source_file>
AV-unprocessed.smi

> <i_m_source_file_index>
2994

> <i_lp_mmshare_version>
43012

> <i_f3d_flags>
0

> <s_epik_input>
W0NIMl0xW0NIMl1bQ0hdMVtDQEhdKFtDSDNdKVtOSF1DKD1PKVtOSF1jMltjSF1bY0hdYyhuW2NIXTIpQyg9TylOM1tDSDJdW0NIMl1bQ0gyXVtDSDJdW0NIMl0z

> <s_epik_cmdline>
J2VwaWtfcHl0aG9uJywgJy1waCcsICc3LjAnLCAnLXRuJywgJzgnLCAnLW1hJywgJzIwMCcsICctbWV0YWxfYmluZGluZycsICctaW1hZScsICc8aW5maWxlLm1hZT4nLCAnLW9tYWUnLCAnPG91dGZpbGUubWFlPic=

> <r_lp_tautomer_probability>
1

> <r_epik_Ionization_Penalty>
4.52104e-05

> <r_epik_Ionization_Penalty_Charging>
0

> <r_epik_Ionization_Penalty_Neutral>
4.52104e-05

> <r_epik_State_Penalty>
-0

> <r_epik_Charging_Adjusted_Penalty>
0

> <i_epik_Tot_Q>
0

> <i_epik_Tot_abs_Q>
0

> <r_epik_Metal_State_Penalty>
-0

> <b_epik_Metal_Only>
0

> <s_lp_Force_Field>
OPLS_2005

> <r_lp_Energy>
45.7479

> <b_lp_Chiralities_Consistent>
1

> <s_lp_Variant>
AV-unprocessed.smi:2994-1

> <Gold.Version>
5.8.1

> <Gold.Id.Protein>
6NUR|6NUR_protein|mol2

> <Gold.PLP.Fitness>
47.8646

> <Gold.PLP.PLP>
-41.6049

> <Gold.PLP.part.hbond>
-3.0000

> <Gold.PLP.part.metal>
0.0000

> <Gold.PLP.part.buried>
-3.8389

> <Gold.PLP.part.nonpolar>
-35.8750

> <Gold.PLP.part.repulsive>
0.0715

> <Gold.PLP.ligand.clash>
0.0000

> <Gold.PLP.ligand.torsion>
2.3474

> <Gold.PLP.Chemscore.Hbond>
2.9920

> <Gold.PLP.Chemscore.CHOScore>
0.0000

> <Gold.PLP.Chemscore.Metal>
0.0000

> <Gold.Chemscore.Hbonds>
donor molecule, donor type, donor heavy atom, donor atom, acceptor molecule, acceptor atom, score
      L1  H     3    28       P1  7948  1.00
      L1  H     6    29       P1  7948  0.98
      P1  H  7997  8008       L1    12  1.00

> <Gold.PLP.Chemscore.Internal.Correction>
1.9785

> <Gold.Rescore>
     Score         DG    S(hbond)    S(metal)    S(lipo)     H(rot)  DE(clash)    DE(int)     intcor
     19.27     -23.02       2.79        0.00      95.21       1.14       0.02       3.74       ----

> <Gold.Chemscore.Fitness>
19.2682

> <Gold.Chemscore.DG>
-23.0235

> <Gold.Chemscore.ZeroCoef>
-5.4800

> <Gold.Chemscore.Hbond>
2.7909

> <Gold.Chemscore.Metal>
0.0000

> <Gold.Chemscore.Lipo>
95.2132

> <Gold.Chemscore.Internal_Hbond>
0.0000

> <Gold.Chemscore.DEClash>
0.0164

> <Gold.Chemscore.DEInternal>
3.7388

> <Gold.Chemscore.Rot>
1.1399

> <Gold.Chemscore.Internal.Correction>
   9.000000E+99

> <Gold.Chemscore.Hbonds>
donor molecule, donor type, donor heavy atom, donor atom, acceptor molecule, acceptor atom, score
      L1  H     3    28       P1  7948  0.26
      L1  H     6    29       P1  7948  0.35
      P1  H  7997  8008       L1    12  0.25

> <Gold.Chemscore.Hbond.Weighted>
-9.3216

> <Gold.Chemscore.Metal.Weighted>
-0.0000

> <Gold.Chemscore.Lipo.Weighted>
-11.1399

> <Gold.Chemscore.Internal_Hbond.Weighted>
0.0000

> <Gold.Chemscore.DEClash.Weighted>
0.0164

> <Gold.Chemscore.DEInternal.Weighted>
3.7388

> <Gold.Chemscore.Rot.Weighted>
2.9180

> <Gold.Chemscore.Internal.Correction.Weighted>
   9.000000E+99

> <Gold.Protein.RotatedTorsions>
[ 6907 6896 6895 6894 ] final  -43.67 input  -60.11 | X-H torsion
[ 7974 7965 7964 7962 ] final  -41.12 input  175.53 | X-H torsion
[ 8008 7997 7996 7995 ] final  -86.29 input   59.86 | X-H torsion
[ 10167 10162 10161 10158 ] final -167.92 input  -65.29 | X-H torsion
[ 10718 10713 10712 10709 ] final    4.59 input   66.30 | X-H torsion
[ 10763 10752 10751 10750 ] final  -10.03 input  -60.55 | X-H torsion
[ 11005 11000 10999 10996 ] final -102.67 input  -57.11 | X-H torsion

> <Gold.Protein.ActiveResidues>
 VAL166  LYS551  ARG553  GLY616  TRP617  ASP618  TYR619  PRO620  LYS621  CYS622 
 ASP623  PHE694  ASN695  SER759  ASP760  ASP761  ALA762  ILE779  LEU786  VAL792 
 PHE793  MET794  SER795  GLU796  ALA797  LYS798  CYS799  TRP800  GLU811  SER814 

> <Gold.Protein.RotatedAtoms>
  150.9414  134.8822  159.7614 H   0  0  0  0  0  0  0  0  0  0  0  0  # atno 6907 bound_to 6896
  152.5081  134.3937  159.9402 H   0  0  0  0  0  0  0  0  0  0  0  0  # atno 6908 bound_to 6896
  151.3958  133.3734  159.2761 H   0  0  0  0  0  0  0  0  0  0  0  0  # atno 6909 bound_to 6896
  146.0241  140.6814  142.9164 H   0  0  0  0  0  0  0  0  0  0  0  0  # atno 7974 bound_to 7965
  154.6502  140.0580  156.9947 H   0  0  0  0  0  0  0  0  0  0  0  0  # atno 8008 bound_to 7997
  155.1383  140.3263  155.4439 H   0  0  0  0  0  0  0  0  0  0  0  0  # atno 8009 bound_to 7997
  156.2572  140.1968  156.6499 H   0  0  0  0  0  0  0  0  0  0  0  0  # atno 8010 bound_to 7997
  139.6018  144.0994  152.1751 H   0  0  0  0  0  0  0  0  0  0  0  0  # atno 10167 bound_to 10162
  156.8948  130.5700  149.5649 H   0  0  0  0  0  0  0  0  0  0  0  0  # atno 10718 bound_to 10713
  153.4633  135.7016  153.6037 H   0  0  0  0  0  0  0  0  0  0  0  0  # atno 10763 bound_to 10752
  153.4322  135.3800  155.2177 H   0  0  0  0  0  0  0  0  0  0  0  0  # atno 10764 bound_to 10752
  154.8727  135.3953  154.4062 H   0  0  0  0  0  0  0  0  0  0  0  0  # atno 10765 bound_to 10752
  141.1179  133.8578  157.1390 H   0  0  0  0  0  0  0  0  0  0  0  0  # atno 11005 bound_to 11000
  144.7002  140.3618  143.7162 LP  0  0  0  0  0  0  0  0  0  0  0  0  # atno 17320 bound_to 7965
  145.7147  139.1694  143.2519 LP  0  0  0  0  0  0  0  0  0  0  0  0  # atno 17321 bound_to 7965
  140.0592  144.5870  150.7276 LP  0  0  0  0  0  0  0  0  0  0  0  0  # atno 17342 bound_to 10162
  140.7255  143.2632  151.4133 LP  0  0  0  0  0  0  0  0  0  0  0  0  # atno 17343 bound_to 10162
  156.0611  130.5663  150.9194 LP  0  0  0  0  0  0  0  0  0  0  0  0  # atno 17370 bound_to 10713
  157.6062  131.0939  150.8875 LP  0  0  0  0  0  0  0  0  0  0  0  0  # atno 17371 bound_to 10713
  140.0114  134.9986  157.0403 LP  0  0  0  0  0  0  0  0  0  0  0  0  # atno 17394 bound_to 11000
  140.4593  134.1501  155.7189 LP  0  0  0  0  0  0  0  0  0  0  0  0  # atno 17395 bound_to 11000

$$$$
