#       Name:                AV-unprocessed.smi:2159
#       Creating user name   scv26
#       Creation time:       Fri Mar 27 11:57:09 2020


#       File generated by GOLD software.
#

@<TRIPOS>MOLECULE
AV-unprocessed.smi:2159
    54    56     1
SMALL
NO_CHARGES


@<TRIPOS>ATOM
      1 ****        -3.3417   1.3824   0.3969 O.2            1 S1                 0.0000
      2 ****        -2.6452   0.6857   1.1352 C.2            1 S1                 0.0000
      3 ****        -1.1381   0.9301   1.2220 C.3            1 S1                 0.0000
      4 ****        -0.4915   1.0206  -0.1742 C.3            1 S1                 0.0000
      5 ****         0.9697   0.9795  -0.0913 N.am           1 S1                 0.0000
      6 ****         1.7543   2.0678   0.0218 C.2            1 S1                 0.0000
      7 ****         1.3931   3.2354   0.1645 O.2            1 S1                 0.0000
      8 ****         3.2069   1.6437  -0.1351 C.3            1 S1                 0.0000
      9 ****         4.3501   2.3231   0.6204 C.3            1 S1                 0.0000
     10 ****         5.6596   1.6175   0.1783 C.3            1 S1                 0.0000
     11 ****         5.6075   0.0643   0.2799 C.3            1 S1                 0.0000
     12 ****         4.3277  -0.5671  -0.3301 C.3            1 S1                 0.0000
     13 ****         3.1357   0.1832   0.2656 C.3            1 S1                 0.0000
     14 ****         1.6950  -0.1554  -0.0880 C.2            1 S1                 0.0000
     15 ****         1.2837  -1.3026  -0.2595 O.2            1 S1                 0.0000
     16 ****        -3.1297  -0.3269   1.8721 N.am           1 S1                 0.0000
     17 ****        -4.5049  -0.8192   1.8330 C.3            1 S1                 0.0000
     18 ****        -4.6534  -2.0865   0.9660 C.3            1 S1                 0.0000
     19 ****        -4.1127  -1.9356  -0.4470 C.ar           1 S1                 0.0000
     20 ****        -4.9070  -1.3585  -1.4603 C.ar           1 S1                 0.0000
     21 ****        -4.3448  -1.1938  -2.7409 C.ar           1 S1                 0.0000
     22 ****        -3.0175  -1.6112  -2.9585 C.ar           1 S1                 0.0000
     23 ****        -2.3083  -2.1786  -1.8814 C.ar           1 S1                 0.0000
     24 ****        -2.8373  -2.3396  -0.6496 N.ar           1 S1                 0.0000
     25 ****        -0.9586   1.8486   1.7818 H              1 S1                 0.0000
     26 ****        -0.6774   0.1215   1.7919 H              1 S1                 0.0000
     27 ****        -0.8408   0.2026  -0.8072 H              1 S1                 0.0000
     28 ****        -0.8106   1.9356  -0.6770 H              1 S1                 0.0000
     29 ****         3.4137   1.7288  -1.2045 H              1 S1                 0.0000
     30 ****         4.3930   3.3872   0.3862 H              1 S1                 0.0000
     31 ****         4.2095   2.2367   1.6987 H              1 S1                 0.0000
     32 ****         5.8686   1.8892  -0.8571 H              1 S1                 0.0000
     33 ****         6.4991   1.9976   0.7611 H              1 S1                 0.0000
     34 ****         6.4917  -0.3666  -0.1907 H              1 S1                 0.0000
     35 ****         5.6646  -0.2136   1.3331 H              1 S1                 0.0000
     36 ****         4.3357  -0.4832  -1.4175 H              1 S1                 0.0000
     37 ****         4.2766  -1.6297  -0.0902 H              1 S1                 0.0000
     38 ****         3.1903   0.0904   1.3527 H              1 S1                 0.0000
     39 ****        -2.4804  -0.8417   2.4493 H              1 S1                 0.0000
     40 ****        -4.8224  -1.0351   2.8533 H              1 S1                 0.0000
     41 ****        -5.1788  -0.0432   1.4661 H              1 S1                 0.0000
     42 ****        -4.1408  -2.9188   1.4511 H              1 S1                 0.0000
     43 ****        -5.7043  -2.3729   0.9136 H              1 S1                 0.0000
     44 ****        -5.9177  -1.0363  -1.2577 H              1 S1                 0.0000
     45 ****        -4.9200  -0.7505  -3.5403 H              1 S1                 0.0000
     46 ****        -2.5536  -1.4977  -3.9270 H              1 S1                 0.0000
     47 ****        -1.2875  -2.5070  -2.0109 H              1 S1                 0.0000
     48 ****        -2.9221   2.1091  -0.1469 LP             1 S1                 0.0000
     49 ****        -4.3271   1.2216   0.3411 LP             1 S1                 0.0000
     50 ****         0.4186   3.4556   0.2075 LP             1 S1                 0.0000
     51 ****         2.0740   3.9641   0.2375 LP             1 S1                 0.0000
     52 ****         0.3108  -1.4657  -0.4235 LP             1 S1                 0.0000
     53 ****         1.9224  -2.0717  -0.2348 LP             1 S1                 0.0000
     54 ****        -2.3022  -2.7455   0.0913 LP             1 S1                 0.0000
@<TRIPOS>BOND
    1    1    2 2     
    2    2    3 1     
    3    2   16 am    
    4    3    4 1     
    5    3   25 1     
    6    3   26 1     
    7    4    5 1     
    8    4   27 1     
    9    4   28 1     
   10    5   14 am    
   11    5    6 am    
   12    6    7 2     
   13    6    8 1     
   14    8   13 1     
   15    8    9 1     
   16    8   29 1     
   17    9   10 1     
   18    9   30 1     
   19    9   31 1     
   20   10   11 1     
   21   10   32 1     
   22   10   33 1     
   23   11   12 1     
   24   11   34 1     
   25   11   35 1     
   26   12   13 1     
   27   12   36 1     
   28   12   37 1     
   29   13   14 1     
   30   13   38 1     
   31   14   15 2     
   32   16   17 1     
   33   16   39 1     
   34   17   18 1     
   35   17   40 1     
   36   17   41 1     
   37   18   19 1     
   38   18   42 1     
   39   18   43 1     
   40   19   24 ar    
   41   19   20 ar    
   42   20   21 ar    
   43   20   44 1     
   44   21   22 ar    
   45   21   45 1     
   46   22   23 ar    
   47   22   46 1     
   48   23   24 ar    
   49   23   47 1     
   50    1   48 1     
   51    1   49 1     
   52    7   50 1     
   53    7   51 1     
   54   15   52 1     
   55   15   53 1     
   56   24   54 1     
@<TRIPOS>SUBSTRUCTURE
      1 S1             1
@<TRIPOS>SET
LONE_PAIRS      STATIC     ATOMS    <user>   **** ""
7 48 49 50 51 52 53 54
DONOR_HYDROGENS      STATIC     ATOMS    <user>   **** ""
1 39
ATOM$BLUE        STATIC     ATOMS    COLORGROUP SYSTEM
7 48 49 50 51 52 53 54
ATOM$RED        STATIC     ATOMS    COLORGROUP SYSTEM
1 39
