AV-unprocessed.smi:2937|AV-procd|sdf|11259|dock5
  -GOLD-   2272016153D 1   1.00000     0.00000
 Structure written by MMmdl.
 33 34  0  0  0  0  0  0  0  0  1 V2000
  152.2253  144.4956  160.3915 C   0  0  0  0  0  0  0  0  0  0  0  0
  151.7550  143.5923  159.3975 O   0  0  0  0  0  0  0  0  0  0  0  0
  152.4242  142.3962  159.2286 C   0  0  0  0  0  0  0  0  0  0  0  0
  153.5298  142.1544  159.9755 N   0  0  0  0  0  0  0  0  0  0  0  0
  154.1492  140.9921  159.7793 C   0  0  0  0  0  0  0  0  0  0  0  0
  155.2708  140.7574  160.5362 N   0  0  0  0  0  0  0  0  0  0  0  0
  153.7943  140.0329  158.9260 N   0  0  0  0  0  0  0  0  0  0  0  0
  152.6896  140.2450  158.1696 C   0  0  0  0  0  0  0  0  0  0  0  0
  152.2911  139.2231  157.2875 N   0  0  0  0  0  0  0  0  0  0  0  0
  152.9205  137.9392  157.5708 C   0  0  0  0  0  0  0  0  0  0  0  0
  152.2588  136.8329  156.7310 C   0  0  0  0  0  0  0  0  0  0  0  0
  152.3169  137.1777  155.3494 O   0  0  0  0  0  0  0  0  0  0  0  0
  151.6339  138.3972  155.0719 C   0  0  0  0  0  0  0  0  0  0  0  0
  152.2861  139.5434  155.8634 C   0  0  0  0  0  0  0  0  0  0  0  0
  151.9501  141.4534  158.2854 C   0  0  0  0  0  0  0  0  0  0  0  0
  150.7219  141.7626  157.4386 C   0  0  0  0  0  0  0  0  0  0  0  0
  150.9098  142.8800  156.5967 O   0  0  0  0  0  0  0  0  0  0  0  0
  151.5930  145.3833  160.3997 H   0  0  0  0  0  0  0  0  0  0  0  0
  153.2469  144.8188  160.1873 H   0  0  0  0  0  0  0  0  0  0  0  0
  152.1825  144.0500  161.3864 H   0  0  0  0  0  0  0  0  0  0  0  0
  155.5912  141.4457  161.2017 H   0  0  0  0  0  0  0  0  0  0  0  0
  155.7923  139.9001  160.4247 H   0  0  0  0  0  0  0  0  0  0  0  0
  153.9836  138.0028  157.3346 H   0  0  0  0  0  0  0  0  0  0  0  0
  152.8455  137.6950  158.6299 H   0  0  0  0  0  0  0  0  0  0  0  0
  152.7759  135.8855  156.8831 H   0  0  0  0  0  0  0  0  0  0  0  0
  151.2218  136.6830  157.0357 H   0  0  0  0  0  0  0  0  0  0  0  0
  151.6888  138.5997  154.0023 H   0  0  0  0  0  0  0  0  0  0  0  0
  150.5770  138.3005  155.3251 H   0  0  0  0  0  0  0  0  0  0  0  0
  151.7427  140.4737  155.6933 H   0  0  0  0  0  0  0  0  0  0  0  0
  153.3087  139.6939  155.5143 H   0  0  0  0  0  0  0  0  0  0  0  0
  150.4872  140.8967  156.8186 H   0  0  0  0  0  0  0  0  0  0  0  0
  149.8441  141.9315  158.0616 H   0  0  0  0  0  0  0  0  0  0  0  0
  150.0620  143.2280  156.3657 H   0  0  0  0  0  0  0  0  0  0  0  0
  1  2  1  0  0  0  0
  1 18  1  0  0  0  0
  1 19  1  0  0  0  0
  1 20  1  0  0  0  0
  2  3  1  0  0  0  0
  3 15  1  0  0  0  0
  3  4  2  0  0  0  0
  4  5  1  0  0  0  0
  5  6  1  0  0  0  0
  5  7  2  0  0  0  0
  6 21  1  0  0  0  0
  6 22  1  0  0  0  0
  7  8  1  0  0  0  0
  8  9  1  0  0  0  0
  8 15  2  0  0  0  0
  9 14  1  0  0  0  0
  9 10  1  0  0  0  0
 10 11  1  0  0  0  0
 10 23  1  0  0  0  0
 10 24  1  0  0  0  0
 11 12  1  0  0  0  0
 11 25  1  0  0  0  0
 11 26  1  0  0  0  0
 12 13  1  0  0  0  0
 13 14  1  0  0  0  0
 13 27  1  0  0  0  0
 13 28  1  0  0  0  0
 14 29  1  0  0  0  0
 14 30  1  0  0  0  0
 15 16  1  0  0  0  0
 16 17  1  0  0  0  0
 16 31  1  0  0  0  0
 16 32  1  0  0  0  0
 17 33  1  0  0  0  0
M  END
> <s_m_source_file>
AV-unprocessed.smi

> <i_m_source_file_index>
2937

> <i_lp_mmshare_version>
43012

> <i_f3d_flags>
0

> <s_epik_input>
W0NIM11PYzFuYyhbTkgyXSluYyhjMVtDSDJdW09IXSlOMltDSDJdW0NIMl1PW0NIMl1bQ0gyXTI=

> <s_epik_cmdline>
J2VwaWtfcHl0aG9uJywgJy1waCcsICc3LjAnLCAnLXRuJywgJzgnLCAnLW1hJywgJzIwMCcsICctbWV0YWxfYmluZGluZycsICctaW1hZScsICc8aW5maWxlLm1hZT4nLCAnLW9tYWUnLCAnPG91dGZpbGUubWFlPic=

> <r_lp_tautomer_probability>
1

> <r_epik_Ionization_Penalty>
0.000679252

> <r_epik_Ionization_Penalty_Charging>
0

> <r_epik_Ionization_Penalty_Neutral>
0.000679252

> <r_epik_State_Penalty>
0.00040271

> <r_epik_Charging_Adjusted_Penalty>
0.00040271

> <i_epik_Tot_Q>
0

> <i_epik_Tot_abs_Q>
0

> <r_epik_Metal_State_Penalty>
-0

> <b_epik_Metal_Only>
0

> <s_lp_Force_Field>
OPLS_2005

> <r_lp_Energy>
14.7013

> <b_lp_Chiralities_Consistent>
1

> <s_lp_Variant>
AV-unprocessed.smi:2937-1

> <Gold.Version>
5.8.1

> <Gold.Id.Protein>
6NUR|6NUR_protein|mol2

> <Gold.PLP.Fitness>
35.5548

> <Gold.PLP.PLP>
-28.0494

> <Gold.PLP.part.hbond>
-3.0000

> <Gold.PLP.part.metal>
0.0000

> <Gold.PLP.part.buried>
-6.0401

> <Gold.PLP.part.nonpolar>
-19.2193

> <Gold.PLP.part.repulsive>
0.1369

> <Gold.PLP.ligand.clash>
0.0000

> <Gold.PLP.ligand.torsion>
0.2282

> <Gold.PLP.Chemscore.Hbond>
2.5936

> <Gold.PLP.Chemscore.CHOScore>
0.0000

> <Gold.PLP.Chemscore.Metal>
0.0000

> <Gold.Chemscore.Hbonds>
donor molecule, donor type, donor heavy atom, donor atom, acceptor molecule, acceptor atom, score
      L1  H    17    33       P1  8028  1.00
      P1  H  7997  8008       L1     7  0.50
      P1  H 10752 10765       L1    12  0.61

> <Gold.PLP.Chemscore.Internal.Correction>
0.1809

> <Gold.Rescore>
     Score         DG    S(hbond)    S(metal)    S(lipo)     H(rot)  DE(clash)    DE(int)     intcor
     11.39     -11.81       1.95        0.00      48.86       2.31       0.05       0.37       ----

> <Gold.Chemscore.Fitness>
11.3870

> <Gold.Chemscore.DG>
-11.8077

> <Gold.Chemscore.ZeroCoef>
-5.4800

> <Gold.Chemscore.Hbond>
1.9548

> <Gold.Chemscore.Metal>
0.0000

> <Gold.Chemscore.Lipo>
48.8607

> <Gold.Chemscore.Internal_Hbond>
0.0000

> <Gold.Chemscore.DEClash>
0.0462

> <Gold.Chemscore.DEInternal>
0.3745

> <Gold.Chemscore.Rot>
2.3118

> <Gold.Chemscore.Internal.Correction>
   9.000000E+99

> <Gold.Chemscore.Hbonds>
donor molecule, donor type, donor heavy atom, donor atom, acceptor molecule, acceptor atom, score
      L1  H    17    33       P1  8028  0.89
      P1  H  7997  8008       L1     7  0.02
      P1  H 10752 10765       L1    12  0.43

> <Gold.Chemscore.Hbond.Weighted>
-6.5291

> <Gold.Chemscore.Metal.Weighted>
-0.0000

> <Gold.Chemscore.Lipo.Weighted>
-5.7167

> <Gold.Chemscore.Internal_Hbond.Weighted>
0.0000

> <Gold.Chemscore.DEClash.Weighted>
0.0462

> <Gold.Chemscore.DEInternal.Weighted>
0.3745

> <Gold.Chemscore.Rot.Weighted>
5.9181

> <Gold.Chemscore.Internal.Correction.Weighted>
   9.000000E+99

> <Gold.Protein.RotatedTorsions>
[ 6907 6896 6895 6894 ] final  137.50 input  -60.11 | X-H torsion
[ 7974 7965 7964 7962 ] final  -51.34 input  175.53 | X-H torsion
[ 8008 7997 7996 7995 ] final -108.77 input   59.86 | X-H torsion
[ 10167 10162 10161 10158 ] final  -77.08 input  -65.29 | X-H torsion
[ 10718 10713 10712 10709 ] final   93.77 input   66.30 | X-H torsion
[ 10763 10752 10751 10750 ] final  165.02 input  -60.55 | X-H torsion
[ 11005 11000 10999 10996 ] final  179.81 input  -57.11 | X-H torsion

> <Gold.Protein.ActiveResidues>
 VAL166  LYS551  ARG553  GLY616  TRP617  ASP618  TYR619  PRO620  LYS621  CYS622 
 ASP623  PHE694  ASN695  SER759  ASP760  ASP761  ALA762  ILE779  LEU786  VAL792 
 PHE793  MET794  SER795  GLU796  ALA797  LYS798  CYS799  TRP800  GLU811  SER814 

> <Gold.Protein.RotatedAtoms>
  152.2774  133.5438  159.5476 H   0  0  0  0  0  0  0  0  0  0  0  0  # atno 6907 bound_to 6896
  150.7182  134.0612  159.3841 H   0  0  0  0  0  0  0  0  0  0  0  0  # atno 6908 bound_to 6896
  151.8525  135.0553  160.0511 H   0  0  0  0  0  0  0  0  0  0  0  0  # atno 6909 bound_to 6896
  145.9200  140.7842  142.9652 H   0  0  0  0  0  0  0  0  0  0  0  0  # atno 7974 bound_to 7965
  154.9492  140.0401  157.2135 H   0  0  0  0  0  0  0  0  0  0  0  0  # atno 8008 bound_to 7997
  154.7995  140.2849  155.5910 H   0  0  0  0  0  0  0  0  0  0  0  0  # atno 8009 bound_to 7997
  156.2959  140.2558  156.2860 H   0  0  0  0  0  0  0  0  0  0  0  0  # atno 8010 bound_to 7997
  140.4802  143.2404  151.8070 H   0  0  0  0  0  0  0  0  0  0  0  0  # atno 10167 bound_to 10162
  157.6952  131.0490  150.4085 H   0  0  0  0  0  0  0  0  0  0  0  0  # atno 10718 bound_to 10713
  154.3177  135.2756  155.2535 H   0  0  0  0  0  0  0  0  0  0  0  0  # atno 10763 bound_to 10752
  154.4902  135.5835  153.6457 H   0  0  0  0  0  0  0  0  0  0  0  0  # atno 10764 bound_to 10752
  152.9880  135.6132  154.3359 H   0  0  0  0  0  0  0  0  0  0  0  0  # atno 10765 bound_to 10752
  140.4102  134.6698  157.4610 H   0  0  0  0  0  0  0  0  0  0  0  0  # atno 11005 bound_to 11000
  144.6752  140.1960  143.7392 LP  0  0  0  0  0  0  0  0  0  0  0  0  # atno 17320 bound_to 7965
  145.8562  139.2200  143.1743 LP  0  0  0  0  0  0  0  0  0  0  0  0  # atno 17321 bound_to 7965
  139.4832  144.4782  151.9339 LP  0  0  0  0  0  0  0  0  0  0  0  0  # atno 17342 bound_to 10162
  140.3868  144.2666  150.5903 LP  0  0  0  0  0  0  0  0  0  0  0  0  # atno 17343 bound_to 10162
  156.4471  130.4004  149.6659 LP  0  0  0  0  0  0  0  0  0  0  0  0  # atno 17370 bound_to 10713
  156.3822  130.7585  151.2578 LP  0  0  0  0  0  0  0  0  0  0  0  0  # atno 17371 bound_to 10713
  140.0273  134.6459  155.9155 LP  0  0  0  0  0  0  0  0  0  0  0  0  # atno 17394 bound_to 11000
  141.1824  133.6549  156.5074 LP  0  0  0  0  0  0  0  0  0  0  0  0  # atno 17395 bound_to 11000

$$$$
