AV-unprocessed.smi:1092|AV-procd|sdf|4737|dock6
  -GOLD-   22720 3273D 1   1.00000     0.00000
 Structure written by MMmdl.
 43 45  0  0  0  0  0  0  0  0  1 V2000
  148.4434  139.9076  156.1501 C   0  0  0  0  0  0  0  0  0  0  0  0
  148.7647  141.3276  155.6439 C   0  0  0  0  0  0  0  0  0  0  0  0
  147.8742  141.6761  154.4390 C   0  0  0  0  0  0  0  0  0  0  0  0
  148.4043  142.2450  156.6593 O   0  0  0  0  0  0  0  0  0  0  0  0
  150.2579  141.5635  155.2825 C   0  0  0  0  0  0  0  0  0  0  0  0
  151.2059  141.0632  156.2888 N   0  0  0  0  0  0  0  0  0  0  0  0
  151.3044  141.8540  157.4097 N   0  0  0  0  0  0  0  0  0  0  0  0
  152.0689  141.5354  158.4053 C   0  0  0  0  0  0  0  0  0  0  0  0
  152.1176  142.4918  159.5358 C   0  0  0  0  0  0  0  0  0  0  0  0
  152.4663  142.0217  160.8225 C   0  0  0  0  0  0  0  0  0  0  0  0
  152.5105  142.9264  161.9012 C   0  0  0  0  0  0  0  0  0  0  0  0
  152.2011  144.2862  161.6975 C   0  0  0  0  0  0  0  0  0  0  0  0
  151.8412  144.7471  160.4155 C   0  0  0  0  0  0  0  0  0  0  0  0
  151.7940  143.8515  159.3294 C   0  0  0  0  0  0  0  0  0  0  0  0
  152.8412  140.2543  158.2634 C   0  0  0  0  0  0  0  0  0  0  0  0
  153.7021  139.7142  159.3547 C   0  0  0  0  0  0  0  0  0  0  0  0
  153.3816  138.4723  159.9521 C   0  0  0  0  0  0  0  0  0  0  0  0
  154.1781  137.9540  160.9916 C   0  0  0  0  0  0  0  0  0  0  0  0
  155.2967  138.6745  161.4502 C   0  0  0  0  0  0  0  0  0  0  0  0
  155.6159  139.9173  160.8722 C   0  0  0  0  0  0  0  0  0  0  0  0
  154.8205  140.4375  159.8331 C   0  0  0  0  0  0  0  0  0  0  0  0
  152.7567  139.5488  157.1883 N   0  0  0  0  0  0  0  0  0  0  0  0
  151.9313  139.9187  156.1220 C   0  0  0  0  0  0  0  0  0  0  0  0
  151.8489  139.2442  155.0958 O   0  0  0  0  0  0  0  0  0  0  0  0
  148.7225  139.1543  155.4131 H   0  0  0  0  0  0  0  0  0  0  0  0
  147.3779  139.7912  156.3505 H   0  0  0  0  0  0  0  0  0  0  0  0
  148.9694  139.6778  157.0774 H   0  0  0  0  0  0  0  0  0  0  0  0
  148.0680  141.0054  153.6012 H   0  0  0  0  0  0  0  0  0  0  0  0
  148.0520  142.6948  154.0923 H   0  0  0  0  0  0  0  0  0  0  0  0
  146.8152  141.5924  154.6865 H   0  0  0  0  0  0  0  0  0  0  0  0
  148.6199  143.1173  156.3670 H   0  0  0  0  0  0  0  0  0  0  0  0
  150.4687  141.0991  154.3178 H   0  0  0  0  0  0  0  0  0  0  0  0
  150.4396  142.6262  155.1112 H   0  0  0  0  0  0  0  0  0  0  0  0
  152.7101  140.9823  160.9918 H   0  0  0  0  0  0  0  0  0  0  0  0
  152.7827  142.5769  162.8861 H   0  0  0  0  0  0  0  0  0  0  0  0
  152.2356  144.9766  162.5275 H   0  0  0  0  0  0  0  0  0  0  0  0
  151.5976  145.7887  160.2658 H   0  0  0  0  0  0  0  0  0  0  0  0
  151.5018  144.2163  158.3555 H   0  0  0  0  0  0  0  0  0  0  0  0
  152.5281  137.9027  159.6130 H   0  0  0  0  0  0  0  0  0  0  0  0
  153.9292  137.0025  161.4380 H   0  0  0  0  0  0  0  0  0  0  0  0
  155.9059  138.2771  162.2485 H   0  0  0  0  0  0  0  0  0  0  0  0
  156.4692  140.4751  161.2288 H   0  0  0  0  0  0  0  0  0  0  0  0
  155.0737  141.4014  159.4164 H   0  0  0  0  0  0  0  0  0  0  0  0
  1  2  1  0  0  0  0
  1 25  1  0  0  0  0
  1 26  1  0  0  0  0
  1 27  1  0  0  0  0
  2  3  1  0  0  0  0
  2  4  1  0  0  0  0
  2  5  1  0  0  0  0
  3 28  1  0  0  0  0
  3 29  1  0  0  0  0
  3 30  1  0  0  0  0
  4 31  1  0  0  0  0
  5  6  1  0  0  0  0
  5 32  1  0  0  0  0
  5 33  1  0  0  0  0
  6 23  1  0  0  0  0
  6  7  1  0  0  0  0
  7  8  2  0  0  0  0
  8  9  1  0  0  0  0
  8 15  1  0  0  0  0
  9 14  1  0  0  0  0
  9 10  2  0  0  0  0
 10 11  1  0  0  0  0
 10 34  1  0  0  0  0
 11 12  2  0  0  0  0
 11 35  1  0  0  0  0
 12 13  1  0  0  0  0
 12 36  1  0  0  0  0
 13 14  2  0  0  0  0
 13 37  1  0  0  0  0
 14 38  1  0  0  0  0
 15 16  1  0  0  0  0
 15 22  2  0  0  0  0
 16 21  1  0  0  0  0
 16 17  2  0  0  0  0
 17 18  1  0  0  0  0
 17 39  1  0  0  0  0
 18 19  2  0  0  0  0
 18 40  1  0  0  0  0
 19 20  1  0  0  0  0
 19 41  1  0  0  0  0
 20 21  2  0  0  0  0
 20 42  1  0  0  0  0
 21 43  1  0  0  0  0
 22 23  1  0  0  0  0
 23 24  2  0  0  0  0
M  END
> <s_m_source_file>
AV-unprocessed.smi

> <i_m_source_file_index>
1092

> <i_lp_mmshare_version>
43012

> <i_f3d_flags>
0

> <s_epik_input>
W2NIXTFbY0hdW2NIXVtjSF1bY0hdYzEtYyhubjJbQ0gyXUMoW0NIM10pKFtDSDNdKVtPSF0pYyhuYzI9TyktYzNbY0hdW2NIXVtjSF1bY0hdW2NIXTM=

> <s_epik_cmdline>
J2VwaWtfcHl0aG9uJywgJy1waCcsICc3LjAnLCAnLXRuJywgJzgnLCAnLW1hJywgJzIwMCcsICctbWV0YWxfYmluZGluZycsICctaW1hZScsICc8aW5maWxlLm1hZT4nLCAnLW9tYWUnLCAnPG91dGZpbGUubWFlPic=

> <r_lp_tautomer_probability>
1

> <r_epik_Ionization_Penalty>
4.51197e-08

> <r_epik_Ionization_Penalty_Charging>
4.64162e-09

> <r_epik_Ionization_Penalty_Neutral>
4.04781e-08

> <r_epik_State_Penalty>
-0

> <r_epik_Charging_Adjusted_Penalty>
4.64162e-09

> <i_epik_Tot_Q>
0

> <i_epik_Tot_abs_Q>
0

> <r_epik_Metal_State_Penalty>
-0

> <b_epik_Metal_Only>
0

> <s_lp_Force_Field>
OPLS_2005

> <r_lp_Energy>
39.3317

> <b_lp_Chiralities_Consistent>
1

> <s_lp_Variant>
AV-unprocessed.smi:1092-1

> <Gold.Version>
5.8.1

> <Gold.Id.Protein>
6NUR|6NUR_protein|mol2

> <Gold.PLP.Fitness>
53.4065

> <Gold.PLP.PLP>
-47.9044

> <Gold.PLP.part.hbond>
-2.5581

> <Gold.PLP.part.metal>
0.0000

> <Gold.PLP.part.buried>
-3.0215

> <Gold.PLP.part.nonpolar>
-41.7604

> <Gold.PLP.part.repulsive>
0.0682

> <Gold.PLP.ligand.clash>
0.0000

> <Gold.PLP.ligand.torsion>
1.7649

> <Gold.PLP.Chemscore.Hbond>
2.2375

> <Gold.PLP.Chemscore.CHOScore>
0.0000

> <Gold.PLP.Chemscore.Metal>
0.0000

> <Gold.Chemscore.Hbonds>
donor molecule, donor type, donor heavy atom, donor atom, acceptor molecule, acceptor atom, score
      L1  H     4    31       P1  8028  1.00
      P1  H  7989  7998       L1    24  0.39
      P1  H  7997  8008       L1    22  0.71

> <Gold.PLP.Chemscore.Internal.Correction>
2.3194

> <Gold.Rescore>
     Score         DG    S(hbond)    S(metal)    S(lipo)     H(rot)  DE(clash)    DE(int)     intcor
     18.60     -21.68       0.99        0.00     145.06       1.59       0.10       2.98       ----

> <Gold.Chemscore.Fitness>
18.6000

> <Gold.Chemscore.DG>
-21.6808

> <Gold.Chemscore.ZeroCoef>
-5.4800

> <Gold.Chemscore.Hbond>
0.9891

> <Gold.Chemscore.Metal>
0.0000

> <Gold.Chemscore.Lipo>
145.0617

> <Gold.Chemscore.Internal_Hbond>
0.0000

> <Gold.Chemscore.DEClash>
0.0969

> <Gold.Chemscore.DEInternal>
2.9839

> <Gold.Chemscore.Rot>
1.5918

> <Gold.Chemscore.Internal.Correction>
   9.000000E+99

> <Gold.Chemscore.Hbonds>
donor molecule, donor type, donor heavy atom, donor atom, acceptor molecule, acceptor atom, score
      L1  H     4    31       P1  8028  0.91
      P1  H  7989  7998       L1    24  0.13
      P1  H  7997  8008       L1    22  0.02

> <Gold.Chemscore.Hbond.Weighted>
-3.3035

> <Gold.Chemscore.Metal.Weighted>
-0.0000

> <Gold.Chemscore.Lipo.Weighted>
-16.9722

> <Gold.Chemscore.Internal_Hbond.Weighted>
0.0000

> <Gold.Chemscore.DEClash.Weighted>
0.0969

> <Gold.Chemscore.DEInternal.Weighted>
2.9839

> <Gold.Chemscore.Rot.Weighted>
4.0749

> <Gold.Chemscore.Internal.Correction.Weighted>
   9.000000E+99

> <Gold.Protein.RotatedTorsions>
[ 6907 6896 6895 6894 ] final  171.57 input  -60.11 | X-H torsion
[ 7974 7965 7964 7962 ] final  136.28 input  175.53 | X-H torsion
[ 8008 7997 7996 7995 ] final  -52.41 input   59.86 | X-H torsion
[ 10167 10162 10161 10158 ] final -144.89 input  -65.29 | X-H torsion
[ 10718 10713 10712 10709 ] final   21.82 input   66.30 | X-H torsion
[ 10763 10752 10751 10750 ] final  146.13 input  -60.55 | X-H torsion
[ 11005 11000 10999 10996 ] final  157.38 input  -57.11 | X-H torsion

> <Gold.Protein.ActiveResidues>
 VAL166  LYS551  ARG553  GLY616  TRP617  ASP618  TYR619  PRO620  LYS621  CYS622 
 ASP623  PHE694  ASN695  SER759  ASP760  ASP761  ALA762  ILE779  LEU786  VAL792 
 PHE793  MET794  SER795  GLU796  ALA797  LYS798  CYS799  TRP800  GLU811  SER814 

> <Gold.Protein.RotatedAtoms>
  151.7981  133.3367  159.3518 H   0  0  0  0  0  0  0  0  0  0  0  0  # atno 6907 bound_to 6896
  150.7368  134.5779  159.5933 H   0  0  0  0  0  0  0  0  0  0  0  0  # atno 6908 bound_to 6896
  152.3162  134.7438  160.0376 H   0  0  0  0  0  0  0  0  0  0  0  0  # atno 6909 bound_to 6896
  144.9581  139.4742  143.5493 H   0  0  0  0  0  0  0  0  0  0  0  0  # atno 7974 bound_to 7965
  154.4106  140.1224  156.4986 H   0  0  0  0  0  0  0  0  0  0  0  0  # atno 8008 bound_to 7997
  155.6917  140.3495  155.4877 H   0  0  0  0  0  0  0  0  0  0  0  0  # atno 8009 bound_to 7997
  155.9463  140.1096  157.1004 H   0  0  0  0  0  0  0  0  0  0  0  0  # atno 8010 bound_to 7997
  139.7857  143.8038  152.2644 H   0  0  0  0  0  0  0  0  0  0  0  0  # atno 10167 bound_to 10162
  157.1437  130.6644  149.5989 H   0  0  0  0  0  0  0  0  0  0  0  0  # atno 10718 bound_to 10713
  154.0168  135.2909  155.3386 H   0  0  0  0  0  0  0  0  0  0  0  0  # atno 10763 bound_to 10752
  154.7070  135.5165  153.8613 H   0  0  0  0  0  0  0  0  0  0  0  0  # atno 10764 bound_to 10752
  153.0698  135.6644  154.0394 H   0  0  0  0  0  0  0  0  0  0  0  0  # atno 10765 bound_to 10752
  140.1764  134.8507  157.2751 H   0  0  0  0  0  0  0  0  0  0  0  0  # atno 11005 bound_to 11000
  146.3344  139.8712  142.8840 LP  0  0  0  0  0  0  0  0  0  0  0  0  # atno 17320 bound_to 7965
  145.2742  141.0118  143.3754 LP  0  0  0  0  0  0  0  0  0  0  0  0  # atno 17321 bound_to 7965
  139.8114  144.7334  150.9692 LP  0  0  0  0  0  0  0  0  0  0  0  0  # atno 17342 bound_to 10162
  140.7819  143.4247  151.0786 LP  0  0  0  0  0  0  0  0  0  0  0  0  # atno 17343 bound_to 10162
  155.9783  130.4769  150.6650 LP  0  0  0  0  0  0  0  0  0  0  0  0  # atno 17370 bound_to 10713
  157.4284  131.0846  151.1063 LP  0  0  0  0  0  0  0  0  0  0  0  0  # atno 17371 bound_to 10713
  140.2318  134.3900  155.7518 LP  0  0  0  0  0  0  0  0  0  0  0  0  # atno 17394 bound_to 11000
  141.2220  133.7219  156.8652 LP  0  0  0  0  0  0  0  0  0  0  0  0  # atno 17395 bound_to 11000

$$$$
