AV-unprocessed.smi:937|AV-procd|sdf|4211|dock9
  -GOLD-   22720 2123D 1   1.00000     0.00000
 Structure written by MMmdl.
 45 46  0  0  0  0  0  0  0  0  1 V2000
  150.4877  130.5781  154.9065 C   0  0  0  0  0  0  0  0  0  0  0  0
  150.3077  132.0649  155.1306 C   0  0  0  0  0  0  0  0  0  0  0  0
  150.8635  132.6983  156.2621 C   0  0  0  0  0  0  0  0  0  0  0  0
  150.6621  134.0826  156.4215 C   0  0  0  0  0  0  0  0  0  0  0  0
  149.9156  134.7783  155.4485 C   0  0  0  0  0  0  0  0  0  0  0  0
  149.6746  136.2696  155.5771 C   0  0  0  0  0  0  0  0  0  0  0  0
  150.9849  137.0593  155.6936 C   0  0  0  0  0  0  0  0  0  0  0  0
  150.8565  138.1219  156.6804 N   0  0  0  0  0  0  0  0  0  0  0  0
  151.8429  138.9680  157.0175 C   0  0  0  0  0  0  0  0  0  0  0  0
  152.9682  138.9249  156.5238 O   0  0  0  0  0  0  0  0  0  0  0  0
  151.5117  139.8817  157.9482 N   0  0  0  0  0  0  0  0  0  0  0  0
  152.3461  140.9361  158.5284 C   0  0  2  0  0  0  0  0  0  0  0  0
  152.8799  140.5093  159.9111 C   0  0  0  0  0  0  0  0  0  0  0  0
  153.6847  141.6379  160.5708 C   0  0  0  0  0  0  0  0  0  0  0  0
  152.8527  142.9249  160.6802 C   0  0  0  0  0  0  0  0  0  0  0  0
  152.3209  143.3767  159.3037 C   0  0  2  0  0  0  0  0  0  0  0  0
  151.4963  144.6770  159.4020 C   0  0  0  0  0  0  0  0  0  0  0  0
  150.3931  144.4860  160.1262 F   0  0  0  0  0  0  0  0  0  0  0  0
  152.2241  145.6379  159.9714 F   0  0  0  0  0  0  0  0  0  0  0  0
  151.1456  145.0883  158.1834 F   0  0  0  0  0  0  0  0  0  0  0  0
  151.5209  142.2329  158.6428 C   0  0  0  0  0  0  0  0  0  0  0  0
  149.4032  134.0504  154.3539 C   0  0  0  0  0  0  0  0  0  0  0  0
  149.5907  132.7227  154.1929 N   0  0  0  0  0  0  0  0  0  0  0  0
  151.1815  130.1510  155.6310 H   0  0  0  0  0  0  0  0  0  0  0  0
  150.8805  130.3874  153.9074 H   0  0  0  0  0  0  0  0  0  0  0  0
  149.5317  130.0635  155.0050 H   0  0  0  0  0  0  0  0  0  0  0  0
  151.4311  132.1396  156.9917 H   0  0  0  0  0  0  0  0  0  0  0  0
  151.0749  134.6002  157.2751 H   0  0  0  0  0  0  0  0  0  0  0  0
  149.1023  136.6174  154.7157 H   0  0  0  0  0  0  0  0  0  0  0  0
  149.0509  136.4471  156.4544 H   0  0  0  0  0  0  0  0  0  0  0  0
  151.7992  136.3914  155.9805 H   0  0  0  0  0  0  0  0  0  0  0  0
  151.2491  137.4965  154.7293 H   0  0  0  0  0  0  0  0  0  0  0  0
  149.9606  138.2247  157.1342 H   0  0  0  0  0  0  0  0  0  0  0  0
  150.5669  139.8318  158.3015 H   0  0  0  0  0  0  0  0  0  0  0  0
  153.1893  141.1376  157.8653 H   0  0  0  0  0  0  0  0  0  0  0  0
  152.0469  140.2334  160.5594 H   0  0  0  0  0  0  0  0  0  0  0  0
  153.5071  139.6218  159.8218 H   0  0  0  0  0  0  0  0  0  0  0  0
  154.0175  141.3258  161.5610 H   0  0  0  0  0  0  0  0  0  0  0  0
  154.5863  141.8325  159.9888 H   0  0  0  0  0  0  0  0  0  0  0  0
  152.0185  142.7598  161.3630 H   0  0  0  0  0  0  0  0  0  0  0  0
  153.4624  143.7119  161.1246 H   0  0  0  0  0  0  0  0  0  0  0  0
  153.1833  143.5869  158.6690 H   0  0  0  0  0  0  0  0  0  0  0  0
  151.1901  142.5402  157.6500 H   0  0  0  0  0  0  0  0  0  0  0  0
  150.6157  142.0417  159.2212 H   0  0  0  0  0  0  0  0  0  0  0  0
  148.8276  134.5445  153.5850 H   0  0  0  0  0  0  0  0  0  0  0  0
  1  2  1  0  0  0  0
  1 24  1  0  0  0  0
  1 25  1  0  0  0  0
  1 26  1  0  0  0  0
  2 23  1  0  0  0  0
  2  3  2  0  0  0  0
  3  4  1  0  0  0  0
  3 27  1  0  0  0  0
  4  5  2  0  0  0  0
  4 28  1  0  0  0  0
  5  6  1  0  0  0  0
  5 22  1  0  0  0  0
  6  7  1  0  0  0  0
  6 29  1  0  0  0  0
  6 30  1  0  0  0  0
  7  8  1  0  0  0  0
  7 31  1  0  0  0  0
  7 32  1  0  0  0  0
  8  9  1  0  0  0  0
  8 33  1  0  0  0  0
  9 10  2  0  0  0  0
  9 11  1  0  0  0  0
 11 12  1  0  0  0  0
 11 34  1  0  0  0  0
 12 21  1  0  0  0  0
 12 13  1  0  0  0  0
 12 35  1  0  0  0  0
 13 14  1  0  0  0  0
 13 36  1  0  0  0  0
 13 37  1  0  0  0  0
 14 15  1  0  0  0  0
 14 38  1  0  0  0  0
 14 39  1  0  0  0  0
 15 16  1  0  0  0  0
 15 40  1  0  0  0  0
 15 41  1  0  0  0  0
 16 17  1  0  0  0  0
 16 21  1  0  0  0  0
 16 42  1  0  0  0  0
 17 18  1  0  0  0  0
 17 19  1  0  0  0  0
 17 20  1  0  0  0  0
 21 43  1  0  0  0  0
 21 44  1  0  0  0  0
 22 23  2  0  0  0  0
 22 45  1  0  0  0  0
M  END
> <s_m_source_file>
AV-unprocessed.smi

> <i_m_source_file_index>
937

> <i_lp_mmshare_version>
43012

> <i_f3d_flags>
0

> <s_epik_input>
W0NIM11jMVtjSF1bY0hdYyhbY0hdbjEpW0NIMl1bQ0gyXVtOSF1DKD1PKVtOSF1bQ0BASF0yW0NIMl1bQ0gyXVtDSDJdW0NAQEhdKEMoRikoRilGKVtDSDJdMg==

> <s_epik_cmdline>
J2VwaWtfcHl0aG9uJywgJy1waCcsICc3LjAnLCAnLXRuJywgJzgnLCAnLW1hJywgJzIwMCcsICctbWV0YWxfYmluZGluZycsICctaW1hZScsICc8aW5maWxlLm1hZT4nLCAnLW9tYWUnLCAnPG91dGZpbGUubWFlPic=

> <r_epik_Ionization_Penalty>
0.0563445

> <r_epik_Ionization_Penalty_Charging>
0

> <r_epik_Ionization_Penalty_Neutral>
0.0563445

> <r_epik_State_Penalty>
0.0485409

> <r_epik_Charging_Adjusted_Penalty>
0.0485409

> <i_epik_Tot_Q>
0

> <i_epik_Tot_abs_Q>
0

> <r_epik_Metal_State_Penalty>
0.0443056

> <b_epik_Metal_Only>
0

> <s_lp_Force_Field>
OPLS_2005

> <r_lp_Energy>
18.9934

> <b_lp_Chiralities_Consistent>
1

> <s_lp_Variant>
AV-unprocessed.smi:937-3

> <Gold.Version>
5.8.1

> <Gold.Id.Protein>
6NUR|6NUR_protein|mol2

> <Gold.PLP.Fitness>
51.3365

> <Gold.PLP.PLP>
-46.6257

> <Gold.PLP.part.hbond>
-1.0000

> <Gold.PLP.part.metal>
0.0000

> <Gold.PLP.part.buried>
-7.6937

> <Gold.PLP.part.nonpolar>
-38.2638

> <Gold.PLP.part.repulsive>
0.1819

> <Gold.PLP.ligand.clash>
0.0000

> <Gold.PLP.ligand.torsion>
0.5807

> <Gold.PLP.Chemscore.Hbond>
0.9440

> <Gold.PLP.Chemscore.CHOScore>
1.0000

> <Gold.PLP.Chemscore.Metal>
0.0000

> <Gold.Chemscore.Hbonds>
donor molecule, donor type, donor heavy atom, donor atom, acceptor molecule, acceptor atom, score
      P1  H  7997  8009       L1    10  0.94
      L1  C    22    45       P1  7948  1.00

> <Gold.PLP.Chemscore.Internal.Correction>
0.0402

> <Gold.Rescore>
     Score         DG    S(hbond)    S(metal)    S(lipo)     H(rot)  DE(clash)    DE(int)     intcor
     16.91     -17.47       0.96        0.00     109.72       1.58       0.06       0.50       ----

> <Gold.Chemscore.Fitness>
16.9106

> <Gold.Chemscore.DG>
-17.4732

> <Gold.Chemscore.ZeroCoef>
-5.4800

> <Gold.Chemscore.Hbond>
0.9621

> <Gold.Chemscore.Metal>
0.0000

> <Gold.Chemscore.Lipo>
109.7205

> <Gold.Chemscore.Internal_Hbond>
0.0000

> <Gold.Chemscore.DEClash>
0.0591

> <Gold.Chemscore.DEInternal>
0.5035

> <Gold.Chemscore.Rot>
1.5849

> <Gold.Chemscore.Internal.Correction>
   9.000000E+99

> <Gold.Chemscore.Hbonds>
donor molecule, donor type, donor heavy atom, donor atom, acceptor molecule, acceptor atom, score
      P1  H  7997  8009       L1    10  0.91

> <Gold.Chemscore.Hbond.Weighted>
-3.2133

> <Gold.Chemscore.Metal.Weighted>
-0.0000

> <Gold.Chemscore.Lipo.Weighted>
-12.8373

> <Gold.Chemscore.Internal_Hbond.Weighted>
0.0000

> <Gold.Chemscore.DEClash.Weighted>
0.0591

> <Gold.Chemscore.DEInternal.Weighted>
0.5035

> <Gold.Chemscore.Rot.Weighted>
4.0574

> <Gold.Chemscore.Internal.Correction.Weighted>
   9.000000E+99

> <Gold.Protein.RotatedTorsions>
[ 6907 6896 6895 6894 ] final -133.07 input  -60.11 | X-H torsion
[ 7974 7965 7964 7962 ] final  120.02 input  175.53 | X-H torsion
[ 8008 7997 7996 7995 ] final  167.33 input   59.86 | X-H torsion
[ 10167 10162 10161 10158 ] final   68.56 input  -65.29 | X-H torsion
[ 10718 10713 10712 10709 ] final  -50.76 input   66.30 | X-H torsion
[ 10763 10752 10751 10750 ] final  160.23 input  -60.55 | X-H torsion
[ 11005 11000 10999 10996 ] final  125.16 input  -57.11 | X-H torsion

> <Gold.Protein.ActiveResidues>
 VAL166  LYS551  ARG553  GLY616  TRP617  ASP618  TYR619  PRO620  LYS621  CYS622 
 ASP623  PHE694  ASN695  SER759  ASP760  ASP761  ALA762  ILE779  LEU786  VAL792 
 PHE793  MET794  SER795  GLU796  ALA797  LYS798  CYS799  TRP800  GLU811  SER814 

> <Gold.Protein.RotatedAtoms>
  150.9697  133.6356  159.2739 H   0  0  0  0  0  0  0  0  0  0  0  0  # atno 6907 bound_to 6896
  151.3650  135.0910  159.9456 H   0  0  0  0  0  0  0  0  0  0  0  0  # atno 6908 bound_to 6896
  152.5178  133.9263  159.7613 H   0  0  0  0  0  0  0  0  0  0  0  0  # atno 6909 bound_to 6896
  145.1362  139.3296  143.4639 H   0  0  0  0  0  0  0  0  0  0  0  0  # atno 7974 bound_to 7965
  156.1643  140.1619  156.8559 H   0  0  0  0  0  0  0  0  0  0  0  0  # atno 8008 bound_to 7997
  154.5191  140.0782  156.8173 H   0  0  0  0  0  0  0  0  0  0  0  0  # atno 8009 bound_to 7997
  155.3644  140.3397  155.4244 H   0  0  0  0  0  0  0  0  0  0  0  0  # atno 8010 bound_to 7997
  140.0773  144.5101  150.7186 H   0  0  0  0  0  0  0  0  0  0  0  0  # atno 10167 bound_to 10162
  156.1771  130.4150  149.9560 H   0  0  0  0  0  0  0  0  0  0  0  0  # atno 10718 bound_to 10713
  154.2442  135.2773  155.2842 H   0  0  0  0  0  0  0  0  0  0  0  0  # atno 10763 bound_to 10752
  154.5519  135.5672  153.6933 H   0  0  0  0  0  0  0  0  0  0  0  0  # atno 10764 bound_to 10752
  152.9993  135.6276  154.2587 H   0  0  0  0  0  0  0  0  0  0  0  0  # atno 10765 bound_to 10752
  139.9393  134.9637  156.8517 H   0  0  0  0  0  0  0  0  0  0  0  0  # atno 11005 bound_to 11000
  146.3509  140.1380  142.8595 LP  0  0  0  0  0  0  0  0  0  0  0  0  # atno 17320 bound_to 7965
  145.0582  140.9068  143.4955 LP  0  0  0  0  0  0  0  0  0  0  0  0  # atno 17321 bound_to 7965
  140.7095  143.2494  151.4624 LP  0  0  0  0  0  0  0  0  0  0  0  0  # atno 17342 bound_to 10162
  139.5800  144.1731  152.1955 LP  0  0  0  0  0  0  0  0  0  0  0  0  # atno 17343 bound_to 10162
  156.7342  130.9055  151.3628 LP  0  0  0  0  0  0  0  0  0  0  0  0  # atno 17370 bound_to 10713
  157.6843  130.9170  150.0347 LP  0  0  0  0  0  0  0  0  0  0  0  0  # atno 17371 bound_to 10713
  140.5993  134.0187  155.7531 LP  0  0  0  0  0  0  0  0  0  0  0  0  # atno 17394 bound_to 11000
  141.1021  133.9752  157.3061 LP  0  0  0  0  0  0  0  0  0  0  0  0  # atno 17395 bound_to 11000

$$$$
