AV-unprocessed.smi:373|AV-procd|sdf|2449|dock3
  -GOLD-   2262022383D 1   1.00000     0.00000
 Structure written by MMmdl.
 40 41  0  0  0  0  0  0  0  0  1 V2000
  152.4572  142.9828  160.2097 C   0  0  0  0  0  0  0  0  0  0  0  0
  152.6343  142.2977  158.8504 C   0  0  0  0  0  0  0  0  0  0  0  0
  151.3071  141.8108  158.2587 C   0  0  0  0  0  0  0  0  0  0  0  0
  151.5727  141.1424  157.0345 O   0  0  0  0  0  0  0  0  0  0  0  0
  150.4317  140.5478  156.4308 C   0  0  2  0  0  0  0  0  0  0  0  0
  150.8184  139.8006  155.1377 C   0  0  0  0  0  0  0  0  0  0  0  0
  149.5582  139.3034  154.4115 C   0  0  0  0  0  0  0  0  0  0  0  0
  148.5748  140.4576  154.1577 C   0  0  0  0  0  0  0  0  0  0  0  0
  148.2677  141.1599  155.4015 N   0  0  0  0  0  0  0  0  0  0  0  0
  147.1681  142.0305  155.2874 C   0  0  0  0  0  0  0  0  0  0  0  0
  146.7167  142.3164  154.0421 N   0  0  0  0  0  0  0  0  0  0  0  0
  145.6503  143.1324  153.9075 C   0  0  0  0  0  0  0  0  0  0  0  0
  144.9632  143.7029  155.0001 C   0  0  0  0  0  0  0  0  0  0  0  0
  143.7960  144.6198  154.7745 C   0  0  0  0  0  0  0  0  0  0  0  0
  143.0002  144.3197  153.7434 N   0  0  0  0  0  0  0  0  0  0  0  0
  143.6234  145.6175  155.4717 O   0  0  0  0  0  0  0  0  0  0  0  0
  145.4438  143.4166  156.2970 C   0  0  0  0  0  0  0  0  0  0  0  0
  146.5574  142.5672  156.4481 C   0  0  0  0  0  0  0  0  0  0  0  0
  147.1576  142.2319  158.0356 Cl  0  0  0  0  0  0  0  0  0  0  0  0
  149.4360  141.6773  156.1134 C   0  0  0  0  0  0  0  0  0  0  0  0
  153.4180  143.3102  160.6076 H   0  0  0  0  0  0  0  0  0  0  0  0
  152.0088  142.3056  160.9370 H   0  0  0  0  0  0  0  0  0  0  0  0
  151.8150  143.8600  160.1270 H   0  0  0  0  0  0  0  0  0  0  0  0
  153.1098  142.9913  158.1560 H   0  0  0  0  0  0  0  0  0  0  0  0
  153.3152  141.4528  158.9576 H   0  0  0  0  0  0  0  0  0  0  0  0
  150.8105  141.1441  158.9641 H   0  0  0  0  0  0  0  0  0  0  0  0
  150.6441  142.6592  158.0825 H   0  0  0  0  0  0  0  0  0  0  0  0
  149.9539  139.8578  157.1292 H   0  0  0  0  0  0  0  0  0  0  0  0
  151.3781  140.4683  154.4815 H   0  0  0  0  0  0  0  0  0  0  0  0
  151.4714  138.9558  155.3546 H   0  0  0  0  0  0  0  0  0  0  0  0
  149.8308  138.8319  153.4670 H   0  0  0  0  0  0  0  0  0  0  0  0
  149.0701  138.5352  155.0127 H   0  0  0  0  0  0  0  0  0  0  0  0
  149.0075  141.1664  153.4501 H   0  0  0  0  0  0  0  0  0  0  0  0
  147.6648  140.0712  153.6979 H   0  0  0  0  0  0  0  0  0  0  0  0
  145.3370  143.3267  152.8919 H   0  0  0  0  0  0  0  0  0  0  0  0
  142.1944  144.8932  153.5415 H   0  0  0  0  0  0  0  0  0  0  0  0
  143.2063  143.5130  153.1718 H   0  0  0  0  0  0  0  0  0  0  0  0
  144.9755  143.8437  157.1721 H   0  0  0  0  0  0  0  0  0  0  0  0
  149.1186  142.1606  157.0385 H   0  0  0  0  0  0  0  0  0  0  0  0
  149.9246  142.4390  155.5036 H   0  0  0  0  0  0  0  0  0  0  0  0
  1  2  1  0  0  0  0
  1 21  1  0  0  0  0
  1 22  1  0  0  0  0
  1 23  1  0  0  0  0
  2  3  1  0  0  0  0
  2 24  1  0  0  0  0
  2 25  1  0  0  0  0
  3  4  1  0  0  0  0
  3 26  1  0  0  0  0
  3 27  1  0  0  0  0
  4  5  1  0  0  0  0
  5 20  1  0  0  0  0
  5  6  1  0  0  0  0
  5 28  1  0  0  0  0
  6  7  1  0  0  0  0
  6 29  1  0  0  0  0
  6 30  1  0  0  0  0
  7  8  1  0  0  0  0
  7 31  1  0  0  0  0
  7 32  1  0  0  0  0
  8  9  1  0  0  0  0
  8 33  1  0  0  0  0
  8 34  1  0  0  0  0
  9 10  1  0  0  0  0
  9 20  1  0  0  0  0
 10 18  1  0  0  0  0
 10 11  2  0  0  0  0
 11 12  1  0  0  0  0
 12 13  2  0  0  0  0
 12 35  1  0  0  0  0
 13 14  1  0  0  0  0
 13 17  1  0  0  0  0
 14 15  1  0  0  0  0
 14 16  2  0  0  0  0
 15 36  1  0  0  0  0
 15 37  1  0  0  0  0
 17 18  2  0  0  0  0
 17 38  1  0  0  0  0
 18 19  1  0  0  0  0
 20 39  1  0  0  0  0
 20 40  1  0  0  0  0
M  END
> <s_m_source_file>
AV-unprocessed.smi

> <i_m_source_file_index>
373

> <i_lp_mmshare_version>
43012

> <i_f3d_flags>
0

> <s_epik_input>
W0NIM11bQ0gyXVtDSDJdT1tDQEBIXTFbQ0gyXVtDSDJdW0NIMl1OKFtDSDJdMSljMm5bY0hdYyhDKD1PKVtOSDJdKVtjSF1jMkNs

> <s_epik_cmdline>
J2VwaWtfcHl0aG9uJywgJy1waCcsICc3LjAnLCAnLXRuJywgJzgnLCAnLW1hJywgJzIwMCcsICctbWV0YWxfYmluZGluZycsICctaW1hZScsICc8aW5maWxlLm1hZT4nLCAnLW9tYWUnLCAnPG91dGZpbGUubWFlPic=

> <r_lp_tautomer_probability>
1

> <r_epik_Ionization_Penalty>
3.23666e-05

> <r_epik_Ionization_Penalty_Charging>
0

> <r_epik_Ionization_Penalty_Neutral>
3.23666e-05

> <r_epik_State_Penalty>
-0

> <r_epik_Charging_Adjusted_Penalty>
0

> <i_epik_Tot_Q>
0

> <i_epik_Tot_abs_Q>
0

> <r_epik_Metal_State_Penalty>
-0

> <b_epik_Metal_Only>
0

> <s_lp_Force_Field>
OPLS_2005

> <r_lp_Energy>
19.8682

> <b_lp_Chiralities_Consistent>
1

> <s_lp_Variant>
AV-unprocessed.smi:373-1

> <Gold.Version>
5.8.1

> <Gold.Id.Protein>
6NUR|6NUR_protein|mol2

> <Gold.PLP.Fitness>
35.2543

> <Gold.PLP.PLP>
-33.5476

> <Gold.PLP.part.hbond>
-1.0000

> <Gold.PLP.part.metal>
0.0000

> <Gold.PLP.part.buried>
-2.5411

> <Gold.PLP.part.nonpolar>
-29.4231

> <Gold.PLP.part.repulsive>
0.4073

> <Gold.PLP.ligand.clash>
0.0000

> <Gold.PLP.ligand.torsion>
0.7002

> <Gold.PLP.Chemscore.Hbond>
0.9440

> <Gold.PLP.Chemscore.CHOScore>
0.0000

> <Gold.PLP.Chemscore.Metal>
0.0000

> <Gold.Chemscore.Hbonds>
donor molecule, donor type, donor heavy atom, donor atom, acceptor molecule, acceptor atom, score
      L1  H    15    37       P1 10174  0.93

> <Gold.PLP.Chemscore.Internal.Correction>
0.2750

> <Gold.Rescore>
     Score         DG    S(hbond)    S(metal)    S(lipo)     H(rot)  DE(clash)    DE(int)     intcor
     12.91     -13.85       0.91        0.00      79.81       1.57       0.08       0.86       ----

> <Gold.Chemscore.Fitness>
12.9127

> <Gold.Chemscore.DG>
-13.8479

> <Gold.Chemscore.ZeroCoef>
-5.4800

> <Gold.Chemscore.Hbond>
0.9120

> <Gold.Chemscore.Metal>
0.0000

> <Gold.Chemscore.Lipo>
79.8086

> <Gold.Chemscore.Internal_Hbond>
0.0000

> <Gold.Chemscore.DEClash>
0.0781

> <Gold.Chemscore.DEInternal>
0.8571

> <Gold.Chemscore.Rot>
1.5687

> <Gold.Chemscore.Internal.Correction>
   9.000000E+99

> <Gold.Chemscore.Hbonds>
donor molecule, donor type, donor heavy atom, donor atom, acceptor molecule, acceptor atom, score
      L1  H    15    37       P1 10174  0.84

> <Gold.Chemscore.Hbond.Weighted>
-3.0461

> <Gold.Chemscore.Metal.Weighted>
-0.0000

> <Gold.Chemscore.Lipo.Weighted>
-9.3376

> <Gold.Chemscore.Internal_Hbond.Weighted>
0.0000

> <Gold.Chemscore.DEClash.Weighted>
0.0781

> <Gold.Chemscore.DEInternal.Weighted>
0.8571

> <Gold.Chemscore.Rot.Weighted>
4.0158

> <Gold.Chemscore.Internal.Correction.Weighted>
   9.000000E+99

> <Gold.Protein.RotatedTorsions>
[ 6907 6896 6895 6894 ] final   41.66 input  -60.11 | X-H torsion
[ 7974 7965 7964 7962 ] final  -41.04 input  175.53 | X-H torsion
[ 8008 7997 7996 7995 ] final -126.92 input   59.86 | X-H torsion
[ 10167 10162 10161 10158 ] final -122.95 input  -65.29 | X-H torsion
[ 10718 10713 10712 10709 ] final   13.65 input   66.30 | X-H torsion
[ 10763 10752 10751 10750 ] final   24.34 input  -60.55 | X-H torsion
[ 11005 11000 10999 10996 ] final  101.03 input  -57.11 | X-H torsion

> <Gold.Protein.ActiveResidues>
 VAL166  LYS551  ARG553  GLY616  TRP617  ASP618  TYR619  PRO620  LYS621  CYS622 
 ASP623  PHE694  ASN695  SER759  ASP760  ASP761  ALA762  ILE779  LEU786  VAL792 
 PHE793  MET794  SER795  GLU796  ALA797  LYS798  CYS799  TRP800  GLU811  SER814 

> <Gold.Protein.RotatedAtoms>
  152.1981  134.8612  160.0510 H   0  0  0  0  0  0  0  0  0  0  0  0  # atno 6907 bound_to 6896
  151.9476  133.3651  159.3996 H   0  0  0  0  0  0  0  0  0  0  0  0  # atno 6908 bound_to 6896
  150.6949  134.4298  159.5287 H   0  0  0  0  0  0  0  0  0  0  0  0  # atno 6909 bound_to 6896
  146.0248  140.6805  142.9161 H   0  0  0  0  0  0  0  0  0  0  0  0  # atno 7974 bound_to 7965
  155.2376  140.0427  157.2970 H   0  0  0  0  0  0  0  0  0  0  0  0  # atno 8008 bound_to 7997
  154.5849  140.2411  155.7972 H   0  0  0  0  0  0  0  0  0  0  0  0  # atno 8009 bound_to 7997
  156.2219  140.2967  155.9981 H   0  0  0  0  0  0  0  0  0  0  0  0  # atno 8010 bound_to 7997
  140.0087  143.5464  152.2272 H   0  0  0  0  0  0  0  0  0  0  0  0  # atno 10167 bound_to 10162
  157.0277  130.6180  149.5730 H   0  0  0  0  0  0  0  0  0  0  0  0  # atno 10718 bound_to 10713
  153.0771  135.6607  154.0123 H   0  0  0  0  0  0  0  0  0  0  0  0  # atno 10763 bound_to 10752
  153.9754  135.2960  155.3425 H   0  0  0  0  0  0  0  0  0  0  0  0  # atno 10764 bound_to 10752
  154.7162  135.5184  153.8812 H   0  0  0  0  0  0  0  0  0  0  0  0  # atno 10765 bound_to 10752
  139.8772  134.9166  156.4846 H   0  0  0  0  0  0  0  0  0  0  0  0  # atno 11005 bound_to 11000
  144.7005  140.3631  143.7160 LP  0  0  0  0  0  0  0  0  0  0  0  0  # atno 17320 bound_to 7965
  145.7135  139.1691  143.2525 LP  0  0  0  0  0  0  0  0  0  0  0  0  # atno 17321 bound_to 7965
  139.6220  144.7631  151.2719 LP  0  0  0  0  0  0  0  0  0  0  0  0  # atno 17342 bound_to 10162
  140.7390  143.6631  150.8147 LP  0  0  0  0  0  0  0  0  0  0  0  0  # atno 17343 bound_to 10162
  156.0080  130.5169  150.7895 LP  0  0  0  0  0  0  0  0  0  0  0  0  # atno 17370 bound_to 10713
  157.5201  131.0931  151.0089 LP  0  0  0  0  0  0  0  0  0  0  0  0  # atno 17371 bound_to 10713
  140.8703  133.7993  155.9357 LP  0  0  0  0  0  0  0  0  0  0  0  0  # atno 17394 bound_to 11000
  140.8960  134.2437  157.5068 LP  0  0  0  0  0  0  0  0  0  0  0  0  # atno 17395 bound_to 11000

$$$$
