AV-unprocessed.smi:2422|AV-procd|sdf|9557|dock7
  -GOLD-   2272013193D 1   1.00000     0.00000
 Structure written by MMmdl.
 46 47  0  0  0  0  0  0  0  0  1 V2000
  146.8827  133.1802  152.1264 C   0  0  0  0  0  0  0  0  0  0  0  0
  147.2263  133.9113  153.2902 O   0  0  0  0  0  0  0  0  0  0  0  0
  148.4679  133.5016  153.8443 C   0  0  0  0  0  0  0  0  0  0  0  0
  148.8949  134.4639  154.9784 C   0  0  0  0  0  0  0  0  0  0  0  0
  147.7796  134.5380  156.0382 C   0  0  0  0  0  0  0  0  0  0  0  0
  150.1820  133.9481  155.6570 C   0  0  0  0  0  0  0  0  0  0  0  0
  149.0987  135.8257  154.4667 N   0  0  0  0  0  0  0  0  0  0  0  0
  149.3311  136.9525  155.1614 C   0  0  0  0  0  0  0  0  0  0  0  0
  149.3931  137.0041  156.3897 O   0  0  0  0  0  0  0  0  0  0  0  0
  149.4865  138.0013  154.3352 N   0  0  0  0  0  0  0  0  0  0  0  0
  149.7538  139.3535  154.6731 C   0  0  0  0  0  0  0  0  0  0  0  0
  149.2117  140.4318  154.0277 N   0  0  0  0  0  0  0  0  0  0  0  0
  149.7790  141.4042  154.7289 C   0  0  0  0  0  0  0  0  0  0  0  0
  150.5815  140.9736  155.7067 N   0  0  0  0  0  0  0  0  0  0  0  0
  151.3774  141.7256  156.6647 C   0  0  0  0  0  0  0  0  0  0  0  0
  152.0911  140.7892  157.6611 C   0  0  0  0  0  0  0  0  0  0  0  0
  152.9442  141.5868  158.6613 C   0  0  0  0  0  0  0  0  0  0  0  0
  152.1010  142.6395  159.3989 C   0  0  0  0  0  0  0  0  0  0  0  0
  151.3866  143.5746  158.4099 C   0  0  0  0  0  0  0  0  0  0  0  0
  150.5308  142.7783  157.4115 C   0  0  0  0  0  0  0  0  0  0  0  0
  150.5850  139.6174  155.6791 N   0  0  0  0  0  0  0  0  0  0  0  0
  145.9261  133.5331  151.7414 H   0  0  0  0  0  0  0  0  0  0  0  0
  146.7870  132.1156  152.3432 H   0  0  0  0  0  0  0  0  0  0  0  0
  147.6300  133.3126  151.3429 H   0  0  0  0  0  0  0  0  0  0  0  0
  148.3756  132.4867  154.2346 H   0  0  0  0  0  0  0  0  0  0  0  0
  149.2258  133.4638  153.0607 H   0  0  0  0  0  0  0  0  0  0  0  0
  147.5614  133.5540  156.4542 H   0  0  0  0  0  0  0  0  0  0  0  0
  146.8517  134.9291  155.6189 H   0  0  0  0  0  0  0  0  0  0  0  0
  148.0620  135.1881  156.8674 H   0  0  0  0  0  0  0  0  0  0  0  0
  150.0186  132.9735  156.1181 H   0  0  0  0  0  0  0  0  0  0  0  0
  150.5191  134.6284  156.4400 H   0  0  0  0  0  0  0  0  0  0  0  0
  151.0015  133.8308  154.9479 H   0  0  0  0  0  0  0  0  0  0  0  0
  149.0748  135.9139  153.4616 H   0  0  0  0  0  0  0  0  0  0  0  0
  149.4133  137.8098  153.3471 H   0  0  0  0  0  0  0  0  0  0  0  0
  149.6061  142.4508  154.5254 H   0  0  0  0  0  0  0  0  0  0  0  0
  152.1426  142.2548  156.0942 H   0  0  0  0  0  0  0  0  0  0  0  0
  151.3574  140.1945  158.2071 H   0  0  0  0  0  0  0  0  0  0  0  0
  152.7228  140.0820  157.1222 H   0  0  0  0  0  0  0  0  0  0  0  0
  153.4054  140.9093  159.3805 H   0  0  0  0  0  0  0  0  0  0  0  0
  153.7615  142.0792  158.1328 H   0  0  0  0  0  0  0  0  0  0  0  0
  151.3624  142.1405  160.0278 H   0  0  0  0  0  0  0  0  0  0  0  0
  152.7350  143.2211  160.0687 H   0  0  0  0  0  0  0  0  0  0  0  0
  150.7609  144.2830  158.9538 H   0  0  0  0  0  0  0  0  0  0  0  0
  152.1247  144.1673  157.8678 H   0  0  0  0  0  0  0  0  0  0  0  0
  150.0670  143.4605  156.6980 H   0  0  0  0  0  0  0  0  0  0  0  0
  149.7151  142.2928  157.9495 H   0  0  0  0  0  0  0  0  0  0  0  0
  1  2  1  0  0  0  0
  1 22  1  0  0  0  0
  1 23  1  0  0  0  0
  1 24  1  0  0  0  0
  2  3  1  0  0  0  0
  3  4  1  0  0  0  0
  3 25  1  0  0  0  0
  3 26  1  0  0  0  0
  4  5  1  0  0  0  0
  4  6  1  0  0  0  0
  4  7  1  0  0  0  0
  5 27  1  0  0  0  0
  5 28  1  0  0  0  0
  5 29  1  0  0  0  0
  6 30  1  0  0  0  0
  6 31  1  0  0  0  0
  6 32  1  0  0  0  0
  7  8  1  0  0  0  0
  7 33  1  0  0  0  0
  8  9  2  0  0  0  0
  8 10  1  0  0  0  0
 10 11  1  0  0  0  0
 10 34  1  0  0  0  0
 11 21  2  0  0  0  0
 11 12  1  0  0  0  0
 12 13  2  0  0  0  0
 13 14  1  0  0  0  0
 13 35  1  0  0  0  0
 14 15  1  0  0  0  0
 14 21  1  0  0  0  0
 15 20  1  0  0  0  0
 15 16  1  0  0  0  0
 15 36  1  0  0  0  0
 16 17  1  0  0  0  0
 16 37  1  0  0  0  0
 16 38  1  0  0  0  0
 17 18  1  0  0  0  0
 17 39  1  0  0  0  0
 17 40  1  0  0  0  0
 18 19  1  0  0  0  0
 18 41  1  0  0  0  0
 18 42  1  0  0  0  0
 19 20  1  0  0  0  0
 19 43  1  0  0  0  0
 19 44  1  0  0  0  0
 20 45  1  0  0  0  0
 20 46  1  0  0  0  0
M  END
> <s_m_source_file>
AV-unprocessed.smi

> <i_m_source_file_index>
2422

> <i_lp_mmshare_version>
43012

> <i_f3d_flags>
0

> <s_epik_input>
W0NIM11PW0NIMl1DKFtDSDNdKShbQ0gzXSlbTkhdQyg9TylbTkhdYzFuW2NIXW4objEpW0NIXTJbQ0gyXVtDSDJdW0NIMl1bQ0gyXVtDSDJdMg==

> <s_epik_cmdline>
J2VwaWtfcHl0aG9uJywgJy1waCcsICc3LjAnLCAnLXRuJywgJzgnLCAnLW1hJywgJzIwMCcsICctbWV0YWxfYmluZGluZycsICctaW1hZScsICc8aW5maWxlLm1hZT4nLCAnLW9tYWUnLCAnPG91dGZpbGUubWFlPic=

> <r_lp_tautomer_probability>
1

> <r_epik_Ionization_Penalty>
0.000103736

> <r_epik_Ionization_Penalty_Charging>
0

> <r_epik_Ionization_Penalty_Neutral>
0.000103736

> <r_epik_State_Penalty>
-0

> <r_epik_Charging_Adjusted_Penalty>
0

> <i_epik_Tot_Q>
0

> <i_epik_Tot_abs_Q>
0

> <r_epik_Metal_State_Penalty>
-0

> <b_epik_Metal_Only>
0

> <s_lp_Force_Field>
OPLS_2005

> <r_lp_Energy>
18.085

> <b_lp_Chiralities_Consistent>
1

> <s_lp_Variant>
AV-unprocessed.smi:2422-1

> <Gold.Version>
5.8.1

> <Gold.Id.Protein>
6NUR|6NUR_protein|mol2

> <Gold.PLP.Fitness>
39.0917

> <Gold.PLP.PLP>
-32.3714

> <Gold.PLP.part.hbond>
-1.8873

> <Gold.PLP.part.metal>
0.0000

> <Gold.PLP.part.buried>
-5.0997

> <Gold.PLP.part.nonpolar>
-26.7692

> <Gold.PLP.part.repulsive>
0.3568

> <Gold.PLP.ligand.clash>
0.0000

> <Gold.PLP.ligand.torsion>
0.4668

> <Gold.PLP.Chemscore.Hbond>
1.5291

> <Gold.PLP.Chemscore.CHOScore>
1.0000

> <Gold.PLP.Chemscore.Metal>
0.0000

> <Gold.Chemscore.Hbonds>
donor molecule, donor type, donor heavy atom, donor atom, acceptor molecule, acceptor atom, score
      L1  H     7    33       P1  7948  1.00
      L1  H    10    34       P1  7948  0.55
      L1  C    13    35       P1  8028  0.77

> <Gold.PLP.Chemscore.Internal.Correction>
0.0665

> <Gold.Rescore>
     Score         DG    S(hbond)    S(metal)    S(lipo)     H(rot)  DE(clash)    DE(int)     intcor
     12.41     -15.47       1.85        0.00      69.71       1.70       0.04       3.01       ----

> <Gold.Chemscore.Fitness>
12.4133

> <Gold.Chemscore.DG>
-15.4654

> <Gold.Chemscore.ZeroCoef>
-5.4800

> <Gold.Chemscore.Hbond>
1.8473

> <Gold.Chemscore.Metal>
0.0000

> <Gold.Chemscore.Lipo>
69.7055

> <Gold.Chemscore.Internal_Hbond>
0.0000

> <Gold.Chemscore.DEClash>
0.0419

> <Gold.Chemscore.DEInternal>
3.0102

> <Gold.Chemscore.Rot>
1.6954

> <Gold.Chemscore.Internal.Correction>
   9.000000E+99

> <Gold.Chemscore.Hbonds>
donor molecule, donor type, donor heavy atom, donor atom, acceptor molecule, acceptor atom, score
      L1  H     7    33       P1  7948  0.87
      L1  H    10    34       P1  7948  0.51

> <Gold.Chemscore.Hbond.Weighted>
-6.1700

> <Gold.Chemscore.Metal.Weighted>
-0.0000

> <Gold.Chemscore.Lipo.Weighted>
-8.1555

> <Gold.Chemscore.Internal_Hbond.Weighted>
0.0000

> <Gold.Chemscore.DEClash.Weighted>
0.0419

> <Gold.Chemscore.DEInternal.Weighted>
3.0102

> <Gold.Chemscore.Rot.Weighted>
4.3402

> <Gold.Chemscore.Internal.Correction.Weighted>
   9.000000E+99

> <Gold.Protein.RotatedTorsions>
[ 6907 6896 6895 6894 ] final  162.11 input  -60.11 | X-H torsion
[ 7974 7965 7964 7962 ] final -112.68 input  175.53 | X-H torsion
[ 8008 7997 7996 7995 ] final -110.14 input   59.86 | X-H torsion
[ 10167 10162 10161 10158 ] final   82.43 input  -65.29 | X-H torsion
[ 10718 10713 10712 10709 ] final   93.77 input   66.30 | X-H torsion
[ 10763 10752 10751 10750 ] final  -92.24 input  -60.55 | X-H torsion
[ 11005 11000 10999 10996 ] final   41.88 input  -57.11 | X-H torsion

> <Gold.Protein.ActiveResidues>
 VAL166  LYS551  ARG553  GLY616  TRP617  ASP618  TYR619  PRO620  LYS621  CYS622 
 ASP623  PHE694  ASN695  SER759  ASP760  ASP761  ALA762  ILE779  LEU786  VAL792 
 PHE793  MET794  SER795  GLU796  ALA797  LYS798  CYS799  TRP800  GLU811  SER814 

> <Gold.Protein.RotatedAtoms>
  151.9454  133.3650  159.3979 H   0  0  0  0  0  0  0  0  0  0  0  0  # atno 6907 bound_to 6896
  150.6990  134.4396  159.5295 H   0  0  0  0  0  0  0  0  0  0  0  0  # atno 6908 bound_to 6896
  152.2060  134.8545  160.0553 H   0  0  0  0  0  0  0  0  0  0  0  0  # atno 6909 bound_to 6896
  145.1411  140.8778  143.3702 H   0  0  0  0  0  0  0  0  0  0  0  0  # atno 7974 bound_to 7965
  154.9700  140.0398  157.2230 H   0  0  0  0  0  0  0  0  0  0  0  0  # atno 8008 bound_to 7997
  154.7810  140.2819  155.6041 H   0  0  0  0  0  0  0  0  0  0  0  0  # atno 8009 bound_to 7997
  156.2936  140.2591  156.2635 H   0  0  0  0  0  0  0  0  0  0  0  0  # atno 8010 bound_to 7997
  139.9289  144.6165  150.8365 H   0  0  0  0  0  0  0  0  0  0  0  0  # atno 10167 bound_to 10162
  157.6952  131.0489  150.4084 H   0  0  0  0  0  0  0  0  0  0  0  0  # atno 10718 bound_to 10713
  154.6841  135.5238  153.8303 H   0  0  0  0  0  0  0  0  0  0  0  0  # atno 10763 bound_to 10752
  153.0585  135.6559  154.0529 H   0  0  0  0  0  0  0  0  0  0  0  0  # atno 10764 bound_to 10752
  154.0412  135.2977  155.3334 H   0  0  0  0  0  0  0  0  0  0  0  0  # atno 10765 bound_to 10752
  140.1792  134.4124  155.8210 H   0  0  0  0  0  0  0  0  0  0  0  0  # atno 11005 bound_to 11000
  145.0531  139.3165  143.5918 LP  0  0  0  0  0  0  0  0  0  0  0  0  # atno 17320 bound_to 7965
  146.3505  139.9947  142.8682 LP  0  0  0  0  0  0  0  0  0  0  0  0  # atno 17321 bound_to 7965
  140.7643  143.3244  151.2549 LP  0  0  0  0  0  0  0  0  0  0  0  0  # atno 17342 bound_to 10162
  139.6799  143.9873  152.2802 LP  0  0  0  0  0  0  0  0  0  0  0  0  # atno 17343 bound_to 10162
  156.4470  130.4003  149.6660 LP  0  0  0  0  0  0  0  0  0  0  0  0  # atno 17370 bound_to 10713
  156.3823  130.7585  151.2579 LP  0  0  0  0  0  0  0  0  0  0  0  0  # atno 17371 bound_to 10713
  141.2222  133.6992  156.7901 LP  0  0  0  0  0  0  0  0  0  0  0  0  # atno 17394 bound_to 11000
  140.2286  134.8702  157.3453 LP  0  0  0  0  0  0  0  0  0  0  0  0  # atno 17395 bound_to 11000

$$$$
