#       Name:                AV-unprocessed.smi:992
#       Creating user name   scv26
#       Creation time:       Fri Mar 27 02:23:37 2020


#       File generated by GOLD software.
#

@<TRIPOS>MOLECULE
AV-unprocessed.smi:992
    36    37     1
SMALL
NO_CHARGES


@<TRIPOS>ATOM
      1 ****        -2.9048  -1.8359  -0.1813 C.3            1 S1                 0.0000
      2 ****        -2.3470  -0.9557   0.9511 C.3            1 S1                 0.0000
      3 ****        -0.8066  -0.9465   1.0227 C.3            1 S1                 0.0000
      4 ****        -0.2439  -0.1405  -0.0530 N.3            1 S1                 0.0000
      5 ****         1.1555  -0.1978  -0.1145 C.ar           1 S1                 0.0000
      6 ****         1.7650  -0.8513  -1.2063 C.ar           1 S1                 0.0000
      7 ****         3.1710  -0.9048  -1.2649 C.ar           1 S1                 0.0000
      8 ****         3.9161  -0.3065  -0.2299 C.ar           1 S1                 0.0000
      9 ****         5.3099  -0.3330  -0.2450 N.pl3          1 S1                 0.0000
     10 ****         3.2167   0.3201   0.8218 C.ar           1 S1                 0.0000
     11 ****         1.8691   0.3771   0.8838 N.ar           1 S1                 0.0000
     12 ****        -0.7783   1.2142  -0.0646 C.3            1 S1                 0.0000
     13 ****        -2.3128   1.1725  -0.1784 C.3            1 S1                 0.0000
     14 ****        -2.9319   2.5712  -0.0901 C.3            1 S1                 0.0000
     15 ****        -2.8459   0.3835   0.8861 O.3            1 S1                 0.0000
     16 ****        -2.6099  -2.8762  -0.0419 H              1 S1                 0.0000
     17 ****        -2.5440  -1.5272  -1.1621 H              1 S1                 0.0000
     18 ****        -3.9942  -1.8019  -0.1981 H              1 S1                 0.0000
     19 ****        -2.7194  -1.3737   1.8868 H              1 S1                 0.0000
     20 ****        -0.4912  -0.5315   1.9812 H              1 S1                 0.0000
     21 ****        -0.4171  -1.9643   0.9742 H              1 S1                 0.0000
     22 ****         1.1679  -1.3010  -1.9862 H              1 S1                 0.0000
     23 ****         3.6642  -1.3966  -2.0908 H              1 S1                 0.0000
     24 ****         5.8193  -0.7794  -0.9943 H              1 S1                 0.0000
     25 ****         5.8528   0.0167   0.5316 H              1 S1                 0.0000
     26 ****         3.7502   0.7895   1.6355 H              1 S1                 0.0000
     27 ****        -0.4864   1.7326   0.8501 H              1 S1                 0.0000
     28 ****        -0.3536   1.7707  -0.9012 H              1 S1                 0.0000
     29 ****        -2.5973   0.7375  -1.1368 H              1 S1                 0.0000
     30 ****        -2.5606   3.2153  -0.8876 H              1 S1                 0.0000
     31 ****        -2.6967   3.0475   0.8620 H              1 S1                 0.0000
     32 ****        -4.0174   2.5230  -0.1793 H              1 S1                 0.0000
     33 ****        -0.5493  -0.5594  -0.9081 LP             1 S1                 0.0000
     34 ****         1.4095   0.8318   1.6467 LP             1 S1                 0.0000
     35 ****        -2.6278   0.8386   1.7495 LP             1 S1                 0.0000
     36 ****        -3.8386   0.3401   0.7737 LP             1 S1                 0.0000
@<TRIPOS>BOND
    1    1    2 1     
    2    1   16 1     
    3    1   17 1     
    4    1   18 1     
    5    2   15 1     
    6    2    3 1     
    7    2   19 1     
    8    3    4 1     
    9    3   20 1     
   10    3   21 1     
   11    4    5 1     
   12    4   12 1     
   13    5   11 ar    
   14    5    6 ar    
   15    6    7 ar    
   16    6   22 1     
   17    7    8 ar    
   18    7   23 1     
   19    8    9 1     
   20    8   10 ar    
   21    9   24 1     
   22    9   25 1     
   23   10   11 ar    
   24   10   26 1     
   25   12   13 1     
   26   12   27 1     
   27   12   28 1     
   28   13   14 1     
   29   13   15 1     
   30   13   29 1     
   31   14   30 1     
   32   14   31 1     
   33   14   32 1     
   34    4   33 1     
   35   11   34 1     
   36   15   35 1     
   37   15   36 1     
@<TRIPOS>SUBSTRUCTURE
      1 S1             1
@<TRIPOS>SET
LONE_PAIRS      STATIC     ATOMS    <user>   **** ""
4 33 34 35 36
DONOR_HYDROGENS      STATIC     ATOMS    <user>   **** ""
2 24 25
ATOM$BLUE        STATIC     ATOMS    COLORGROUP SYSTEM
4 33 34 35 36
ATOM$RED        STATIC     ATOMS    COLORGROUP SYSTEM
2 24 25
