#       Name:                AV-unprocessed.smi:47
#       Creating user name   scv26
#       Creation time:       Thu Mar 26 16:30:28 2020


#       File generated by GOLD software.
#

@<TRIPOS>MOLECULE
AV-unprocessed.smi:47
    36    38     1
SMALL
NO_CHARGES


@<TRIPOS>ATOM
      1 ****        -4.4057  -0.9097   1.2230 O.3            1 S1                 0.0000
      2 ****        -3.2480  -0.4672   0.5464 C.3            1 S1                 0.0000
      3 ****        -3.4818   0.8405  -0.2076 C.3            1 S1                 0.0000
      4 ****        -2.4747   0.8522  -1.2840 N.4            1 S1                 1.0000
      5 ****        -2.0266  -0.5356  -1.5294 C.3            1 S1                 0.0000
      6 ****        -0.5326  -0.6495  -1.2996 C.2            1 S1                 0.0000
      7 ****         0.2608  -1.5479  -1.9133 N.2            1 S1                 0.0000
      8 ****         1.4728  -1.3560  -1.4290 N.pl3          1 S1                -1.0000
      9 ****         1.4030  -0.3631  -0.5292 C.2            1 S1                 0.0000
     10 ****         2.5859   0.1121   0.2171 C.ar           1 S1                 0.0000
     11 ****         2.4638   1.1582   1.1612 C.ar           1 S1                 0.0000
     12 ****         3.5823   1.6223   1.8803 C.ar           1 S1                 0.0000
     13 ****         4.8465   1.0444   1.6653 C.ar           1 S1                 0.0000
     14 ****         4.9871   0.0030   0.7303 C.ar           1 S1                 0.0000
     15 ****         3.8654  -0.4575   0.0136 C.ar           1 S1                 0.0000
     16 ****         0.1634   0.0941  -0.4237 N.2            1 S1                 0.0000
     17 ****        -2.8308  -1.4231  -0.5677 C.3            1 S1                 0.0000
     18 ****        -2.4293  -0.3463   1.2576 H              1 S1                 0.0000
     19 ****        -2.2395  -0.8075  -2.5638 H              1 S1                 0.0000
     20 ****        -4.2055  -1.7221   1.6632 H              1 S1                 0.0000
     21 ****        -4.4704   0.8446  -0.6693 H              1 S1                 0.0000
     22 ****        -3.4017   1.7198   0.4319 H              1 S1                 0.0000
     23 ****        -2.8459   1.2709  -2.1242 H              1 S1                 0.0000
     24 ****         1.5017   1.6150   1.3409 H              1 S1                 0.0000
     25 ****         3.4691   2.4222   2.5971 H              1 S1                 0.0000
     26 ****         5.7054   1.3988   2.2158 H              1 S1                 0.0000
     27 ****         5.9555  -0.4445   0.5617 H              1 S1                 0.0000
     28 ****         3.9977  -1.2585  -0.6988 H              1 S1                 0.0000
     29 ****        -2.2804  -2.2954  -0.2125 H              1 S1                 0.0000
     30 ****        -3.7214  -1.7857  -1.0838 H              1 S1                 0.0000
     31 ****        -1.6672   1.3730  -0.9697 H              1 S1                 0.0000
     32 ****        -5.1449  -1.0560   0.5657 LP             1 S1                 0.0000
     33 ****        -4.6870  -0.2235   1.8938 LP             1 S1                 0.0000
     34 ****        -0.0132  -2.2237  -2.5976 LP             1 S1                 0.0000
     35 ****         2.2968  -1.8607  -1.6866 LP             1 S1                 0.0000
     36 ****        -0.1753   0.8236   0.1704 LP             1 S1                 0.0000
@<TRIPOS>BOND
    1    1    2 1     
    2    1   20 1     
    3    2   18 1     
    4    2   17 1     
    5    2    3 1     
    6    3    4 1     
    7    3   21 1     
    8    3   22 1     
    9    4    5 1     
   10    4   23 1     
   11    4   31 1     
   12    5   19 1     
   13    5    6 1     
   14    5   17 1     
   15    6   16 1     
   16    6    7 2     
   17    7    8 1     
   18    8    9 1     
   19    9   10 1     
   20    9   16 2     
   21   10   15 ar    
   22   10   11 ar    
   23   11   12 ar    
   24   11   24 1     
   25   12   13 ar    
   26   12   25 1     
   27   13   14 ar    
   28   13   26 1     
   29   14   15 ar    
   30   14   27 1     
   31   15   28 1     
   32   17   29 1     
   33   17   30 1     
   34    1   32 1     
   35    1   33 1     
   36    7   34 1     
   37    8   35 1     
   38   16   36 1     
@<TRIPOS>SUBSTRUCTURE
      1 S1             1
@<TRIPOS>SET
LONE_PAIRS      STATIC     ATOMS    <user>   **** ""
5 32 33 34 35 36
DONOR_HYDROGENS      STATIC     ATOMS    <user>   **** ""
3 20 23 31
ATOM$BLUE        STATIC     ATOMS    COLORGROUP SYSTEM
5 32 33 34 35 36
ATOM$RED        STATIC     ATOMS    COLORGROUP SYSTEM
3 20 23 31
