#       Name:                AV-unprocessed.smi:2405
#       Creating user name   scv26
#       Creation time:       Fri Mar 27 13:14:16 2020


#       File generated by GOLD software.
#

@<TRIPOS>MOLECULE
AV-unprocessed.smi:2405
    43    44     1
SMALL
NO_CHARGES


@<TRIPOS>ATOM
      1 ****        -3.6150   1.7160  -1.3616 C.3            1 S1                 0.0000
      2 ****        -3.3840   0.9953  -2.6941 C.3            1 S1                 0.0000
      3 ****        -2.3496  -0.0744  -2.5911 C.2            1 S1                 0.0000
      4 ****        -1.0432   0.1476  -2.7552 N.2            1 S1                 0.0000
      5 ****        -0.2700  -1.0007  -2.5522 C.2            1 S1                 0.0000
      6 ****         1.2264  -0.9340  -2.6755 C.3            1 S1                 0.0000
      7 ****         1.8411  -0.2300  -1.4623 C.2            1 S1                 0.0000
      8 ****         2.5458   0.7663  -1.6223 O.2            1 S1                 0.0000
      9 ****         1.5680  -0.7564  -0.2578 N.am           1 S1                 0.0000
     10 ****         1.9997  -0.2025   1.0212 C.3            1 S1                 0.0000
     11 ****         1.8720  -1.2590   2.1346 C.3            1 S1                 0.0000
     12 ****         0.7258  -0.7874   3.0349 C.3            1 S1                 0.0000
     13 ****         0.7426   0.7424   2.9291 C.3            1 S1                 0.0000
     14 ****         1.7598   1.3424   3.9212 C.2            1 S1                 0.0000
     15 ****         2.8468   1.7808   3.4826 O.co2          1 S1                 0.0000
     16 ****         1.4254   1.3408   5.1264 O.co2          1 S1                -1.0000
     17 ****         1.1086   0.9829   1.4523 C.3            1 S1                 0.0000
     18 ****        -1.0207  -2.1072  -2.2383 C.2            1 S1                 0.0000
     19 ****        -2.7218  -1.7403  -2.1639 S.3            1 S1                 0.0000
     20 ****        -4.3744   2.4912  -1.4649 H              1 S1                 0.0000
     21 ****        -2.6994   2.1914  -1.0079 H              1 S1                 0.0000
     22 ****        -3.9499   1.0207  -0.5913 H              1 S1                 0.0000
     23 ****        -4.3155   0.5481  -3.0418 H              1 S1                 0.0000
     24 ****        -3.0767   1.7117  -3.4569 H              1 S1                 0.0000
     25 ****         1.6539  -1.9342  -2.7542 H              1 S1                 0.0000
     26 ****         1.5111  -0.4041  -3.5855 H              1 S1                 0.0000
     27 ****         0.9819  -1.5775  -0.2215 H              1 S1                 0.0000
     28 ****         3.0424   0.1137   0.9529 H              1 S1                 0.0000
     29 ****         1.7046  -2.2690   1.7581 H              1 S1                 0.0000
     30 ****         2.7967  -1.2846   2.7128 H              1 S1                 0.0000
     31 ****        -0.2227  -1.1648   2.6507 H              1 S1                 0.0000
     32 ****         0.8284  -1.1559   4.0568 H              1 S1                 0.0000
     33 ****        -0.2377   1.1622   3.1587 H              1 S1                 0.0000
     34 ****         1.5904   1.9445   1.2702 H              1 S1                 0.0000
     35 ****         0.1852   0.9952   0.8703 H              1 S1                 0.0000
     36 ****        -0.6755  -3.1096  -2.0335 H              1 S1                 0.0000
     37 ****        -0.6589   1.0385  -2.9971 LP             1 S1                 0.0000
     38 ****         2.7164   1.1152  -2.5438 LP             1 S1                 0.0000
     39 ****         2.9477   1.2268  -0.8309 LP             1 S1                 0.0000
     40 ****         3.5216   2.1652   4.1125 LP             1 S1                 0.0000
     41 ****         3.0406   1.7466   2.5021 LP             1 S1                 0.0000
     42 ****         2.0467   1.7087   5.8181 LP             1 S1                 0.0000
     43 ****         0.5367   0.9715   5.3982 LP             1 S1                 0.0000
@<TRIPOS>BOND
    1    1    2 1     
    2    1   20 1     
    3    1   21 1     
    4    1   22 1     
    5    2    3 1     
    6    2   23 1     
    7    2   24 1     
    8    3   19 1     
    9    3    4 2     
   10    4    5 1     
   11    5    6 1     
   12    5   18 2     
   13    6    7 1     
   14    6   25 1     
   15    6   26 1     
   16    7    8 2     
   17    7    9 am    
   18    9   10 1     
   19    9   27 1     
   20   10   17 1     
   21   10   11 1     
   22   10   28 1     
   23   11   12 1     
   24   11   29 1     
   25   11   30 1     
   26   12   13 1     
   27   12   31 1     
   28   12   32 1     
   29   13   14 1     
   30   13   17 1     
   31   13   33 1     
   32   14   15 ar    
   33   14   16 ar    
   34   17   34 1     
   35   17   35 1     
   36   18   19 1     
   37   18   36 1     
   38    4   37 1     
   39    8   38 1     
   40    8   39 1     
   41   15   40 1     
   42   15   41 1     
   43   16   42 1     
   44   16   43 1     
@<TRIPOS>SUBSTRUCTURE
      1 S1             1
@<TRIPOS>SET
LONE_PAIRS      STATIC     ATOMS    <user>   **** ""
7 37 38 39 40 41 42 43
DONOR_HYDROGENS      STATIC     ATOMS    <user>   **** ""
1 27
ATOM$BLUE        STATIC     ATOMS    COLORGROUP SYSTEM
7 37 38 39 40 41 42 43
ATOM$RED        STATIC     ATOMS    COLORGROUP SYSTEM
1 27
