AV-unprocessed.smi:3132|AV-procd|sdf|11932|dock9
  -GOLD-   2272017323D 1   1.00000     0.00000
 Structure written by MMmdl.
 34 35  0  0  0  0  0  0  0  0  2 V2000
  149.5561  141.7211  156.5491 C   0  0  0  0  0  0  0  0  0  0  0  0
  150.7039  140.8428  157.0649 C   0  0  1  0  0  0  0  0  0  0  0  0
  151.5732  140.3156  155.9024 C   0  0  0  0  0  0  0  0  0  0  0  0
  151.0787  139.0529  155.3429 N   0  0  0  0  0  0  0  0  0  0  0  0
  151.1407  137.8079  155.9155 C   0  0  0  0  0  0  0  0  0  0  0  0
  150.5375  136.9440  155.0384 C   0  0  0  0  0  0  0  0  0  0  0  0
  150.1391  137.6961  153.9658 N   0  3  0  0  0  0  0  0  0  0  0  0
  150.4717  138.9776  154.1515 C   0  0  0  0  0  0  0  0  0  0  0  0
  151.5092  141.6177  158.0083 N   0  0  0  0  0  0  0  0  0  0  0  0
  152.5446  141.1491  158.7236 C   0  0  0  0  0  0  0  0  0  0  0  0
  152.9221  139.9773  158.6786 O   0  0  0  0  0  0  0  0  0  0  0  0
  153.2887  142.1761  159.5834 C   0  0  1  0  0  0  0  0  0  0  0  0
  152.7448  143.6130  159.4725 C   0  0  0  0  0  0  0  0  0  0  0  0
  152.0204  143.8194  160.7875 C   0  0  0  0  0  0  0  0  0  0  0  0
  152.8426  142.9511  161.7291 C   0  0  0  0  0  0  0  0  0  0  0  0
  153.1235  141.7980  160.9499 O   0  0  0  0  0  0  0  0  0  0  0  0
  148.9147  141.1662  155.8638 H   0  0  0  0  0  0  0  0  0  0  0  0
  149.9316  142.5962  156.0174 H   0  0  0  0  0  0  0  0  0  0  0  0
  148.9307  142.0729  157.3705 H   0  0  0  0  0  0  0  0  0  0  0  0
  150.2507  139.9932  157.5787 H   0  0  0  0  0  0  0  0  0  0  0  0
  151.6050  141.0426  155.0895 H   0  0  0  0  0  0  0  0  0  0  0  0
  152.6031  140.1613  156.2280 H   0  0  0  0  0  0  0  0  0  0  0  0
  151.5882  137.6357  156.8838 H   0  0  0  0  0  0  0  0  0  0  0  0
  150.3651  135.8791  155.0964 H   0  0  0  0  0  0  0  0  0  0  0  0
  150.2769  139.7927  153.4775 H   0  0  0  0  0  0  0  0  0  0  0  0
  151.2770  142.5957  158.1072 H   0  0  0  0  0  0  0  0  0  0  0  0
  154.3509  142.1671  159.3331 H   0  0  0  0  0  0  0  0  0  0  0  0
  153.5771  144.3139  159.3943 H   0  0  0  0  0  0  0  0  0  0  0  0
  152.0966  143.7844  158.6119 H   0  0  0  0  0  0  0  0  0  0  0  0
  151.9784  144.8646  161.0956 H   0  0  0  0  0  0  0  0  0  0  0  0
  151.0000  143.4389  160.7201 H   0  0  0  0  0  0  0  0  0  0  0  0
  153.7775  143.4460  161.9969 H   0  0  0  0  0  0  0  0  0  0  0  0
  152.3097  142.6974  162.6458 H   0  0  0  0  0  0  0  0  0  0  0  0
  149.6583  137.3373  153.1504 H   0  0  0  0  0  0  0  0  0  0  0  0
  1  2  1  0  0  0  0
  1 17  1  0  0  0  0
  1 18  1  0  0  0  0
  1 19  1  0  0  0  0
  2  3  1  0  0  0  0
  2  9  1  0  0  0  0
  2 20  1  0  0  0  0
  3  4  1  0  0  0  0
  3 21  1  0  0  0  0
  3 22  1  0  0  0  0
  4  8  1  0  0  0  0
  4  5  1  0  0  0  0
  5  6  2  0  0  0  0
  5 23  1  0  0  0  0
  6  7  1  0  0  0  0
  6 24  1  0  0  0  0
  7  8  2  0  0  0  0
  7 34  1  0  0  0  0
  8 25  1  0  0  0  0
  9 10  1  0  0  0  0
  9 26  1  0  0  0  0
 10 11  2  0  0  0  0
 10 12  1  0  0  0  0
 12 16  1  0  0  0  0
 12 13  1  0  0  0  0
 12 27  1  0  0  0  0
 13 14  1  0  0  0  0
 13 28  1  0  0  0  0
 13 29  1  0  0  0  0
 14 15  1  0  0  0  0
 14 30  1  0  0  0  0
 14 31  1  0  0  0  0
 15 16  1  0  0  0  0
 15 32  1  0  0  0  0
 15 33  1  0  0  0  0
M  CHG  1   7   1
M  END
> <s_m_source_file>
AV-unprocessed.smi

> <i_m_source_file_index>
3132

> <i_lp_mmshare_version>
43012

> <i_f3d_flags>
0

> <s_epik_input>
W2NIXTFuW2NIXVtjSF1uMVtDSDJdW0NAQEhdKFtDSDNdKVtOSF1DKD1PKVtDQEBIXTJbQ0gyXVtDSDJdW0NIMl1PMg==

> <s_epik_cmdline>
J2VwaWtfcHl0aG9uJywgJy1waCcsICc3LjAnLCAnLXRuJywgJzgnLCAnLW1hJywgJzIwMCcsICctbWV0YWxfYmluZGluZycsICctaW1hZScsICc8aW5maWxlLm1hZT4nLCAnLW9tYWUnLCAnPG91dGZpbGUubWFlPic=

> <r_lp_tautomer_probability>
1

> <r_epik_Ionization_Penalty>
0.250802

> <r_epik_Ionization_Penalty_Charging>
0

> <r_epik_Ionization_Penalty_Neutral>
0.250802

> <r_epik_State_Penalty>
0.242139

> <r_epik_Charging_Adjusted_Penalty>
0.242139

> <i_epik_Tot_Q>
1

> <i_epik_Tot_abs_Q>
1

> <r_epik_Metal_State_Penalty>
0.533361

> <b_epik_Metal_Only>
0

> <s_lp_Force_Field>
OPLS_2005

> <r_lp_Energy>
20.1872

> <b_lp_Chiralities_Consistent>
1

> <s_lp_Variant>
AV-unprocessed.smi:3132-4

> <Gold.Version>
5.8.1

> <Gold.Id.Protein>
6NUR|6NUR_protein|mol2

> <Gold.PLP.Fitness>
46.6271

> <Gold.PLP.PLP>
-35.7693

> <Gold.PLP.part.hbond>
-2.9606

> <Gold.PLP.part.metal>
0.0000

> <Gold.PLP.part.buried>
-3.3245

> <Gold.PLP.part.nonpolar>
-28.3951

> <Gold.PLP.part.repulsive>
0.1496

> <Gold.PLP.ligand.clash>
0.0000

> <Gold.PLP.ligand.torsion>
0.5447

> <Gold.PLP.Chemscore.Hbond>
3.0000

> <Gold.PLP.Chemscore.CHOScore>
0.9754

> <Gold.PLP.Chemscore.Metal>
0.0000

> <Gold.Chemscore.Hbonds>
donor molecule, donor type, donor heavy atom, donor atom, acceptor molecule, acceptor atom, score
      L1  H     7    34       P1  7948  2.00
      P1  H  7997  8008       L1    11  0.21
      L1  C     8    25       P1  7957  1.00

> <Gold.PLP.Chemscore.Internal.Correction>
0.0210

> <Gold.Rescore>
     Score         DG    S(hbond)    S(metal)    S(lipo)     H(rot)  DE(clash)    DE(int)     intcor
     14.94     -15.65       1.82        0.00      77.35       1.93       0.06       0.65       ----

> <Gold.Chemscore.Fitness>
14.9373

> <Gold.Chemscore.DG>
-15.6504

> <Gold.Chemscore.ZeroCoef>
-5.4800

> <Gold.Chemscore.Hbond>
1.8153

> <Gold.Chemscore.Metal>
0.0000

> <Gold.Chemscore.Lipo>
77.3527

> <Gold.Chemscore.Internal_Hbond>
0.0000

> <Gold.Chemscore.DEClash>
0.0632

> <Gold.Chemscore.DEInternal>
0.6499

> <Gold.Chemscore.Rot>
1.9308

> <Gold.Chemscore.Internal.Correction>
   9.000000E+99

> <Gold.Chemscore.Hbonds>
donor molecule, donor type, donor heavy atom, donor atom, acceptor molecule, acceptor atom, score
      L1  H     7    34       P1  7948  0.65
      P1  H  7997  8008       L1    11  0.07

> <Gold.Chemscore.Hbond.Weighted>
-6.0631

> <Gold.Chemscore.Metal.Weighted>
-0.0000

> <Gold.Chemscore.Lipo.Weighted>
-9.0503

> <Gold.Chemscore.Internal_Hbond.Weighted>
0.0000

> <Gold.Chemscore.DEClash.Weighted>
0.0632

> <Gold.Chemscore.DEInternal.Weighted>
0.6499

> <Gold.Chemscore.Rot.Weighted>
4.9429

> <Gold.Chemscore.Internal.Correction.Weighted>
   9.000000E+99

> <Gold.Protein.RotatedTorsions>
[ 6907 6896 6895 6894 ] final   19.68 input  -60.11 | X-H torsion
[ 7974 7965 7964 7962 ] final  100.46 input  175.53 | X-H torsion
[ 8008 7997 7996 7995 ] final  -83.31 input   59.86 | X-H torsion
[ 10167 10162 10161 10158 ] final   -6.33 input  -65.29 | X-H torsion
[ 10718 10713 10712 10709 ] final  -47.09 input   66.30 | X-H torsion
[ 10763 10752 10751 10750 ] final  -75.32 input  -60.55 | X-H torsion
[ 11005 11000 10999 10996 ] final  101.46 input  -57.11 | X-H torsion

> <Gold.Protein.ActiveResidues>
 VAL166  LYS551  ARG553  GLY616  TRP617  ASP618  TYR619  PRO620  LYS621  CYS622 
 ASP623  PHE694  ASN695  SER759  ASP760  ASP761  ALA762  ILE779  LEU786  VAL792 
 PHE793  MET794  SER795  GLU796  ALA797  LYS798  CYS799  TRP800  GLU811  SER814 

> <Gold.Protein.RotatedAtoms>
  151.8846  135.0440  160.0491 H   0  0  0  0  0  0  0  0  0  0  0  0  # atno 6907 bound_to 6896
  152.2485  133.5190  159.5319 H   0  0  0  0  0  0  0  0  0  0  0  0  # atno 6908 bound_to 6896
  150.7076  134.0909  159.3974 H   0  0  0  0  0  0  0  0  0  0  0  0  # atno 6909 bound_to 6896
  145.3853  139.2372  143.3381 H   0  0  0  0  0  0  0  0  0  0  0  0  # atno 7974 bound_to 7965
  154.6178  140.0620  156.9576 H   0  0  0  0  0  0  0  0  0  0  0  0  # atno 8008 bound_to 7997
  155.1867  140.3304  155.4347 H   0  0  0  0  0  0  0  0  0  0  0  0  # atno 8009 bound_to 7997
  156.2414  140.1888  156.6960 H   0  0  0  0  0  0  0  0  0  0  0  0  # atno 8010 bound_to 7997
  140.6993  143.6206  150.8616 H   0  0  0  0  0  0  0  0  0  0  0  0  # atno 10167 bound_to 10162
  156.2118  130.4161  149.9104 H   0  0  0  0  0  0  0  0  0  0  0  0  # atno 10718 bound_to 10713
  154.4849  135.5835  153.6416 H   0  0  0  0  0  0  0  0  0  0  0  0  # atno 10763 bound_to 10752
  152.9853  135.6099  154.3199 H   0  0  0  0  0  0  0  0  0  0  0  0  # atno 10764 bound_to 10752
  154.3093  135.2845  155.2553 H   0  0  0  0  0  0  0  0  0  0  0  0  # atno 10765 bound_to 10752
  139.8773  134.9184  156.4911 H   0  0  0  0  0  0  0  0  0  0  0  0  # atno 11005 bound_to 11000
  146.2823  140.4527  142.8771 LP  0  0  0  0  0  0  0  0  0  0  0  0  # atno 17320 bound_to 7965
  144.8478  140.6956  143.6187 LP  0  0  0  0  0  0  0  0  0  0  0  0  # atno 17321 bound_to 7965
  139.9927  143.5830  152.2904 LP  0  0  0  0  0  0  0  0  0  0  0  0  # atno 17342 bound_to 10162
  139.6490  144.7660  151.2185 LP  0  0  0  0  0  0  0  0  0  0  0  0  # atno 17343 bound_to 10162
  156.6780  130.8847  151.3572 LP  0  0  0  0  0  0  0  0  0  0  0  0  # atno 17370 bound_to 10713
  157.7042  130.9367  150.0880 LP  0  0  0  0  0  0  0  0  0  0  0  0  # atno 17371 bound_to 10713
  140.8658  133.8025  155.9312 LP  0  0  0  0  0  0  0  0  0  0  0  0  # atno 17394 bound_to 11000
  140.9003  134.2386  157.5045 LP  0  0  0  0  0  0  0  0  0  0  0  0  # atno 17395 bound_to 11000

$$$$
