AV-unprocessed.smi:1208|AV-procd|sdf|5066|dock6
  -GOLD-   22720 4103D 1   1.00000     0.00000
 Structure written by MMmdl.
 36 37  0  0  0  0  0  0  0  0  1 V2000
  152.9052  142.3674  162.2096 C   0  0  0  0  0  0  0  0  0  0  0  0
  153.3958  142.6286  160.7782 C   0  0  1  0  0  0  0  0  0  0  0  0
  153.8045  141.3590  160.1803 N   0  0  0  0  0  0  0  0  0  0  0  0
  152.9860  140.4451  159.6357 C   0  0  0  0  0  0  0  0  0  0  0  0
  151.7667  140.5939  159.5446 O   0  0  0  0  0  0  0  0  0  0  0  0
  153.6569  139.1711  159.1042 C   0  0  0  0  0  0  0  0  0  0  0  0
  152.8554  138.4873  158.0795 N   0  0  0  0  0  0  0  0  0  0  0  0
  152.8178  139.1417  156.8574 N   0  0  0  0  0  0  0  0  0  0  0  0
  152.1348  138.6459  155.8817 C   0  0  0  0  0  0  0  0  0  0  0  0
  152.1210  139.3288  154.6907 O   0  0  0  0  0  0  0  0  0  0  0  0
  151.4038  137.4069  156.0328 C   0  0  0  0  0  0  0  0  0  0  0  0
  151.4496  136.7747  157.2258 C   0  0  0  0  0  0  0  0  0  0  0  0
  152.2121  137.3108  158.3547 C   0  0  0  0  0  0  0  0  0  0  0  0
  152.2699  136.7575  159.4530 O   0  0  0  0  0  0  0  0  0  0  0  0
  152.3097  143.3035  159.9153 C   0  0  2  0  0  0  0  0  0  0  0  0
  152.7572  143.7242  158.5146 C   0  0  0  0  0  0  0  0  0  0  0  0
  151.7677  144.8159  158.1452 C   0  0  0  0  0  0  0  0  0  0  0  0
  151.1928  145.2663  159.4916 C   0  0  0  0  0  0  0  0  0  0  0  0
  151.9200  144.5462  160.4787 O   0  0  0  0  0  0  0  0  0  0  0  0
  152.4322  138.7127  154.0454 H   0  0  0  0  0  0  0  0  0  0  0  0
  152.6189  143.2965  162.7032 H   0  0  0  0  0  0  0  0  0  0  0  0
  153.6856  141.9037  162.8138 H   0  0  0  0  0  0  0  0  0  0  0  0
  152.0383  141.7057  162.2187 H   0  0  0  0  0  0  0  0  0  0  0  0
  154.2537  143.3003  160.8429 H   0  0  0  0  0  0  0  0  0  0  0  0
  154.7916  141.1481  160.2041 H   0  0  0  0  0  0  0  0  0  0  0  0
  154.6333  139.4473  158.7023 H   0  0  0  0  0  0  0  0  0  0  0  0
  153.8626  138.4863  159.9295 H   0  0  0  0  0  0  0  0  0  0  0  0
  150.8381  137.0048  155.2054 H   0  0  0  0  0  0  0  0  0  0  0  0
  150.9085  135.8485  157.3526 H   0  0  0  0  0  0  0  0  0  0  0  0
  151.4307  142.6599  159.8411 H   0  0  0  0  0  0  0  0  0  0  0  0
  153.7640  144.1422  158.5514 H   0  0  0  0  0  0  0  0  0  0  0  0
  152.7613  142.8974  157.8036 H   0  0  0  0  0  0  0  0  0  0  0  0
  152.2575  145.6322  157.6134 H   0  0  0  0  0  0  0  0  0  0  0  0
  150.9748  144.4258  157.5060 H   0  0  0  0  0  0  0  0  0  0  0  0
  151.2915  146.3409  159.6483 H   0  0  0  0  0  0  0  0  0  0  0  0
  150.1354  145.0082  159.5624 H   0  0  0  0  0  0  0  0  0  0  0  0
  1  2  1  0  0  0  0
  1 21  1  0  0  0  0
  1 22  1  0  0  0  0
  1 23  1  0  0  0  0
  2  3  1  0  0  0  0
  2 15  1  0  0  0  0
  2 24  1  0  0  0  0
  3  4  1  0  0  0  0
  3 25  1  0  0  0  0
  4  5  2  0  0  0  0
  4  6  1  0  0  0  0
  6 26  1  0  0  0  0
  6 27  1  0  0  0  0
  6  7  1  0  0  0  0
  7  8  1  0  0  0  0
  7 13  1  0  0  0  0
  8  9  2  0  0  0  0
  9 10  1  0  0  0  0
  9 11  1  0  0  0  0
 10 20  1  0  0  0  0
 11 28  1  0  0  0  0
 11 12  2  0  0  0  0
 12 29  1  0  0  0  0
 12 13  1  0  0  0  0
 13 14  2  0  0  0  0
 15 19  1  0  0  0  0
 15 16  1  0  0  0  0
 15 30  1  0  0  0  0
 16 17  1  0  0  0  0
 16 31  1  0  0  0  0
 16 32  1  0  0  0  0
 17 18  1  0  0  0  0
 17 33  1  0  0  0  0
 17 34  1  0  0  0  0
 18 19  1  0  0  0  0
 18 35  1  0  0  0  0
 18 36  1  0  0  0  0
M  END
> <s_m_source_file>
AV-unprocessed.smi

> <i_m_source_file_index>
1208

> <i_lp_mmshare_version>
43012

> <i_f3d_flags>
0

> <s_epik_input>
TzFbQ0gyXVtDSDJdW0NIMl1bQ0BIXTFbQ0BIXShbQ0gzXSlbTkhdQyg9TylbQ0gyXW4yW25IXWMoPU8pW2NIXVtjSF1jMj1P

> <s_epik_cmdline>
J2VwaWtfcHl0aG9uJywgJy1waCcsICc3LjAnLCAnLXRuJywgJzgnLCAnLW1hJywgJzIwMCcsICctbWV0YWxfYmluZGluZycsICctaW1hZScsICc8aW5maWxlLm1hZT4nLCAnLW9tYWUnLCAnPG91dGZpbGUubWFlPic=

> <r_lp_tautomer_probability>
0.9996

> <r_epik_Ionization_Penalty>
2.12735

> <r_epik_Ionization_Penalty_Charging>
3.86665e-08

> <r_epik_Ionization_Penalty_Neutral>
2.12735

> <r_epik_State_Penalty>
1.70441

> <r_epik_Charging_Adjusted_Penalty>
1.70441

> <i_epik_Tot_Q>
0

> <i_epik_Tot_abs_Q>
0

> <r_epik_Metal_State_Penalty>
1.70441

> <b_epik_Metal_Only>
0

> <s_lp_Force_Field>
OPLS_2005

> <r_lp_Energy>
29.1408

> <b_lp_Chiralities_Consistent>
1

> <s_lp_Variant>
AV-unprocessed.smi:1208-6

> <Gold.Version>
5.8.1

> <Gold.Id.Protein>
6NUR|6NUR_protein|mol2

> <Gold.PLP.Fitness>
45.1921

> <Gold.PLP.PLP>
-38.0974

> <Gold.PLP.part.hbond>
-3.0000

> <Gold.PLP.part.metal>
0.0000

> <Gold.PLP.part.buried>
-7.0810

> <Gold.PLP.part.nonpolar>
-28.2605

> <Gold.PLP.part.repulsive>
0.1563

> <Gold.PLP.ligand.clash>
0.0000

> <Gold.PLP.ligand.torsion>
0.7426

> <Gold.PLP.Chemscore.Hbond>
2.8480

> <Gold.PLP.Chemscore.CHOScore>
0.0000

> <Gold.PLP.Chemscore.Metal>
0.0000

> <Gold.Chemscore.Hbonds>
donor molecule, donor type, donor heavy atom, donor atom, acceptor molecule, acceptor atom, score
      P1  H  6896  6909       L1    14  1.00
      P1  H  7989  7998       L1    10  0.81
      P1  H  7997  8009       L1     8  1.00

> <Gold.PLP.Chemscore.Internal.Correction>
0.0358

> <Gold.Rescore>
     Score         DG    S(hbond)    S(metal)    S(lipo)     H(rot)  DE(clash)    DE(int)     intcor
     14.13     -16.38       2.16        0.00      88.97       2.63       0.05       2.20       ----

> <Gold.Chemscore.Fitness>
14.1271

> <Gold.Chemscore.DG>
-16.3750

> <Gold.Chemscore.ZeroCoef>
-5.4800

> <Gold.Chemscore.Hbond>
2.1585

> <Gold.Chemscore.Metal>
0.0000

> <Gold.Chemscore.Lipo>
88.9686

> <Gold.Chemscore.Internal_Hbond>
0.0000

> <Gold.Chemscore.DEClash>
0.0504

> <Gold.Chemscore.DEInternal>
2.1976

> <Gold.Chemscore.Rot>
2.6264

> <Gold.Chemscore.Internal.Correction>
   9.000000E+99

> <Gold.Chemscore.Hbonds>
donor molecule, donor type, donor heavy atom, donor atom, acceptor molecule, acceptor atom, score
      P1  H  6896  6909       L1    14  0.98
      P1  H  7989  7998       L1    10  0.18
      P1  H  7997  8009       L1     8  0.65

> <Gold.Chemscore.Hbond.Weighted>
-7.2094

> <Gold.Chemscore.Metal.Weighted>
-0.0000

> <Gold.Chemscore.Lipo.Weighted>
-10.4093

> <Gold.Chemscore.Internal_Hbond.Weighted>
0.0000

> <Gold.Chemscore.DEClash.Weighted>
0.0504

> <Gold.Chemscore.DEInternal.Weighted>
2.1976

> <Gold.Chemscore.Rot.Weighted>
6.7237

> <Gold.Chemscore.Internal.Correction.Weighted>
   9.000000E+99

> <Gold.Protein.RotatedTorsions>
[ 6907 6896 6895 6894 ] final  123.90 input  -60.11 | X-H torsion
[ 7974 7965 7964 7962 ] final -166.11 input  175.53 | X-H torsion
[ 8008 7997 7996 7995 ] final  178.01 input   59.86 | X-H torsion
[ 10167 10162 10161 10158 ] final  -32.22 input  -65.29 | X-H torsion
[ 10718 10713 10712 10709 ] final  -69.71 input   66.30 | X-H torsion
[ 10763 10752 10751 10750 ] final  144.42 input  -60.55 | X-H torsion
[ 11005 11000 10999 10996 ] final -117.85 input  -57.11 | X-H torsion

> <Gold.Protein.ActiveResidues>
 VAL166  LYS551  ARG553  GLY616  TRP617  ASP618  TYR619  PRO620  LYS621  CYS622 
 ASP623  PHE694  ASN695  SER759  ASP760  ASP761  ALA762  ILE779  LEU786  VAL792 
 PHE793  MET794  SER795  GLU796  ALA797  LYS798  CYS799  TRP800  GLU811  SER814 

> <Gold.Protein.RotatedAtoms>
  152.4123  133.6983  159.6408 H   0  0  0  0  0  0  0  0  0  0  0  0  # atno 6907 bound_to 6896
  150.8002  133.8602  159.3238 H   0  0  0  0  0  0  0  0  0  0  0  0  # atno 6908 bound_to 6896
  151.6341  135.1021  160.0179 H   0  0  0  0  0  0  0  0  0  0  0  0  # atno 6909 bound_to 6896
  144.7253  140.2714  143.6250 H   0  0  0  0  0  0  0  0  0  0  0  0  # atno 7974 bound_to 7965
  156.0594  140.1344  156.9959 H   0  0  0  0  0  0  0  0  0  0  0  0  # atno 8008 bound_to 7997
  154.4474  140.0994  156.6565 H   0  0  0  0  0  0  0  0  0  0  0  0  # atno 8009 bound_to 7997
  155.5401  140.3460  155.4447 H   0  0  0  0  0  0  0  0  0  0  0  0  # atno 8010 bound_to 7997
  140.7224  143.3711  151.1777 H   0  0  0  0  0  0  0  0  0  0  0  0  # atno 10167 bound_to 10162
  156.0442  130.4317  150.2188 H   0  0  0  0  0  0  0  0  0  0  0  0  # atno 10718 bound_to 10713
  153.9885  135.2934  155.3414 H   0  0  0  0  0  0  0  0  0  0  0  0  # atno 10763 bound_to 10752
  154.7228  135.5102  153.8842 H   0  0  0  0  0  0  0  0  0  0  0  0  # atno 10764 bound_to 10752
  153.0821  135.6682  154.0140 H   0  0  0  0  0  0  0  0  0  0  0  0  # atno 10765 bound_to 10752
  141.0327  133.9957  157.3119 H   0  0  0  0  0  0  0  0  0  0  0  0  # atno 11005 bound_to 11000
  145.8039  139.1975  143.2032 LP  0  0  0  0  0  0  0  0  0  0  0  0  # atno 17320 bound_to 7965
  146.0653  140.7927  142.9714 LP  0  0  0  0  0  0  0  0  0  0  0  0  # atno 17321 bound_to 7965
  139.7282  143.9114  152.3010 LP  0  0  0  0  0  0  0  0  0  0  0  0  # atno 17342 bound_to 10162
  139.8894  144.6974  150.8787 LP  0  0  0  0  0  0  0  0  0  0  0  0  # atno 17343 bound_to 10162
  157.0279  130.9999  151.3321 LP  0  0  0  0  0  0  0  0  0  0  0  0  # atno 17370 bound_to 10713
  157.5298  130.8051  149.7904 LP  0  0  0  0  0  0  0  0  0  0  0  0  # atno 17371 bound_to 10713
  139.9219  135.0200  156.8094 LP  0  0  0  0  0  0  0  0  0  0  0  0  # atno 17394 bound_to 11000
  140.6378  133.9846  155.7693 LP  0  0  0  0  0  0  0  0  0  0  0  0  # atno 17395 bound_to 11000

$$$$
