AV-unprocessed.smi:2117|AV-procd|sdf|8627|dock2
  -GOLD-   2272011373D 1   1.00000     0.00000
 Structure written by MMmdl.
 27 28  0  0  0  0  0  0  0  0  2 V2000
  151.9504  140.6249  158.3066 N   0  0  0  0  0  0  0  0  0  0  0  0
  151.8698  142.0184  158.2652 C   0  0  0  0  0  0  0  0  0  0  0  0
  152.7012  142.7887  159.1073 C   0  0  0  0  0  0  0  0  0  0  0  0
  152.6204  144.1953  159.0666 C   0  0  0  0  0  0  0  0  0  0  0  0
  151.7079  144.8028  158.1826 C   0  0  0  0  0  0  0  0  0  0  0  0
  150.9283  144.0351  157.3913 N   0  3  0  0  0  0  0  0  0  0  0  0
  150.9687  142.6799  157.3934 C   0  0  0  0  0  0  0  0  0  0  0  0
  150.1126  141.9755  156.5317 N   0  0  0  0  0  0  0  0  0  0  0  0
  150.8181  141.1915  155.5260 C   0  0  0  0  0  0  0  0  0  0  0  0
  149.8104  140.5604  154.5499 C   0  0  0  0  0  0  0  0  0  0  0  0
  148.8623  139.7863  155.2792 O   0  0  0  0  0  0  0  0  0  0  0  0
  148.1228  140.5776  156.2050 C   0  0  0  0  0  0  0  0  0  0  0  0
  149.0861  141.2078  157.2255 C   0  0  0  0  0  0  0  0  0  0  0  0
  151.3712  140.0421  157.7187 H   0  0  0  0  0  0  0  0  0  0  0  0
  152.5868  140.1510  158.9317 H   0  0  0  0  0  0  0  0  0  0  0  0
  153.3966  142.3088  159.7806 H   0  0  0  0  0  0  0  0  0  0  0  0
  153.2493  144.7988  159.7048 H   0  0  0  0  0  0  0  0  0  0  0  0
  151.5782  145.8709  158.0848 H   0  0  0  0  0  0  0  0  0  0  0  0
  151.5171  141.8293  154.9832 H   0  0  0  0  0  0  0  0  0  0  0  0
  151.4031  140.4083  156.0103 H   0  0  0  0  0  0  0  0  0  0  0  0
  149.2983  141.3283  153.9675 H   0  0  0  0  0  0  0  0  0  0  0  0
  150.3281  139.9144  153.8405 H   0  0  0  0  0  0  0  0  0  0  0  0
  147.5593  141.3466  155.6740 H   0  0  0  0  0  0  0  0  0  0  0  0
  147.3963  139.9445  156.7146 H   0  0  0  0  0  0  0  0  0  0  0  0
  149.5508  140.4247  157.8265 H   0  0  0  0  0  0  0  0  0  0  0  0
  148.5369  141.8574  157.9080 H   0  0  0  0  0  0  0  0  0  0  0  0
  150.2753  144.4999  156.7601 H   0  0  0  0  0  0  0  0  0  0  0  0
  1  2  1  0  0  0  0
  1 14  1  0  0  0  0
  1 15  1  0  0  0  0
  2  7  1  0  0  0  0
  2  3  2  0  0  0  0
  3  4  1  0  0  0  0
  3 16  1  0  0  0  0
  4  5  2  0  0  0  0
  4 17  1  0  0  0  0
  5  6  1  0  0  0  0
  5 18  1  0  0  0  0
  6  7  2  0  0  0  0
  6 27  1  0  0  0  0
  7  8  1  0  0  0  0
  8 13  1  0  0  0  0
  8  9  1  0  0  0  0
  9 10  1  0  0  0  0
  9 19  1  0  0  0  0
  9 20  1  0  0  0  0
 10 11  1  0  0  0  0
 10 21  1  0  0  0  0
 10 22  1  0  0  0  0
 11 12  1  0  0  0  0
 12 13  1  0  0  0  0
 12 23  1  0  0  0  0
 12 24  1  0  0  0  0
 13 25  1  0  0  0  0
 13 26  1  0  0  0  0
M  CHG  1   6   1
M  END
> <s_m_source_file>
AV-unprocessed.smi

> <i_m_source_file_index>
2117

> <i_lp_mmshare_version>
43012

> <i_f3d_flags>
0

> <s_epik_input>
W05IMl1jMVtjSF1bY0hdW2NIXW5jMU4yW0NIMl1bQ0gyXU9bQ0gyXVtDSDJdMg==

> <s_epik_cmdline>
J2VwaWtfcHl0aG9uJywgJy1waCcsICc3LjAnLCAnLXRuJywgJzgnLCAnLW1hJywgJzIwMCcsICctbWV0YWxfYmluZGluZycsICctaW1hZScsICc8aW5maWxlLm1hZT4nLCAnLW9tYWUnLCAnPG91dGZpbGUubWFlPic=

> <r_lp_tautomer_probability>
0.999846

> <r_epik_Ionization_Penalty>
2.4501

> <r_epik_Ionization_Penalty_Charging>
2.4501

> <r_epik_Ionization_Penalty_Neutral>
1.97984e-07

> <r_epik_State_Penalty>
2.61152

> <r_epik_Charging_Adjusted_Penalty>
5.06162

> <i_epik_Tot_Q>
1

> <i_epik_Tot_abs_Q>
1

> <r_epik_Metal_State_Penalty>
6.69701

> <b_epik_Metal_Only>
0

> <s_lp_Force_Field>
OPLS_2005

> <r_lp_Energy>
27.6682

> <b_lp_Chiralities_Consistent>
1

> <s_lp_Variant>
AV-unprocessed.smi:2117-2

> <Gold.Version>
5.8.1

> <Gold.Id.Protein>
6NUR|6NUR_protein|mol2

> <Gold.PLP.Fitness>
32.4385

> <Gold.PLP.PLP>
-26.4493

> <Gold.PLP.part.hbond>
-1.0000

> <Gold.PLP.part.metal>
0.0000

> <Gold.PLP.part.buried>
-3.7194

> <Gold.PLP.part.nonpolar>
-21.4195

> <Gold.PLP.part.repulsive>
0.2312

> <Gold.PLP.ligand.clash>
0.0000

> <Gold.PLP.ligand.torsion>
0.0610

> <Gold.PLP.Chemscore.Hbond>
2.0000

> <Gold.PLP.Chemscore.CHOScore>
0.0000

> <Gold.PLP.Chemscore.Metal>
0.0000

> <Gold.Chemscore.Hbonds>
donor molecule, donor type, donor heavy atom, donor atom, acceptor molecule, acceptor atom, score
      L1  H     6    27       P1  8028  2.00

> <Gold.PLP.Chemscore.Internal.Correction>
0.1112

> <Gold.Rescore>
     Score         DG    S(hbond)    S(metal)    S(lipo)     H(rot)  DE(clash)    DE(int)     intcor
     13.46     -14.21       0.99        0.00      68.21       1.00       0.02       0.74       ----

> <Gold.Chemscore.Fitness>
13.4556

> <Gold.Chemscore.DG>
-14.2135

> <Gold.Chemscore.ZeroCoef>
-5.4800

> <Gold.Chemscore.Hbond>
0.9920

> <Gold.Chemscore.Metal>
0.0000

> <Gold.Chemscore.Lipo>
68.2061

> <Gold.Chemscore.Internal_Hbond>
0.0000

> <Gold.Chemscore.DEClash>
0.0196

> <Gold.Chemscore.DEInternal>
0.7383

> <Gold.Chemscore.Rot>
1.0000

> <Gold.Chemscore.Internal.Correction>
   9.000000E+99

> <Gold.Chemscore.Hbonds>
donor molecule, donor type, donor heavy atom, donor atom, acceptor molecule, acceptor atom, score
      L1  H     6    27       P1  8028  0.90

> <Gold.Chemscore.Hbond.Weighted>
-3.3134

> <Gold.Chemscore.Metal.Weighted>
-0.0000

> <Gold.Chemscore.Lipo.Weighted>
-7.9801

> <Gold.Chemscore.Internal_Hbond.Weighted>
0.0000

> <Gold.Chemscore.DEClash.Weighted>
0.0196

> <Gold.Chemscore.DEInternal.Weighted>
0.7383

> <Gold.Chemscore.Rot.Weighted>
2.5600

> <Gold.Chemscore.Internal.Correction.Weighted>
   9.000000E+99

> <Gold.Protein.RotatedTorsions>
[ 6907 6896 6895 6894 ] final -119.23 input  -60.11 | X-H torsion
[ 7974 7965 7964 7962 ] final   73.25 input  175.53 | X-H torsion
[ 8008 7997 7996 7995 ] final  -78.38 input   59.86 | X-H torsion
[ 10167 10162 10161 10158 ] final   81.97 input  -65.29 | X-H torsion
[ 10718 10713 10712 10709 ] final  -45.74 input   66.30 | X-H torsion
[ 10763 10752 10751 10750 ] final -134.24 input  -60.55 | X-H torsion
[ 11005 11000 10999 10996 ] final -110.94 input  -57.11 | X-H torsion

> <Gold.Protein.ActiveResidues>
 VAL166  LYS551  ARG553  GLY616  TRP617  ASP618  TYR619  PRO620  LYS621  CYS622 
 ASP623  PHE694  ASN695  SER759  ASP760  ASP761  ALA762  ILE779  LEU786  VAL792 
 PHE793  MET794  SER795  GLU796  ALA797  LYS798  CYS799  TRP800  GLU811  SER814 

> <Gold.Protein.RotatedAtoms>
  150.8287  133.8128  159.3107 H   0  0  0  0  0  0  0  0  0  0  0  0  # atno 6907 bound_to 6896
  151.5864  135.1054  160.0038 H   0  0  0  0  0  0  0  0  0  0  0  0  # atno 6908 bound_to 6896
  152.4369  133.7336  159.6657 H   0  0  0  0  0  0  0  0  0  0  0  0  # atno 6909 bound_to 6896
  145.7432  139.2729  143.1474 H   0  0  0  0  0  0  0  0  0  0  0  0  # atno 7974 bound_to 7965
  154.5684  140.0695  156.8926 H   0  0  0  0  0  0  0  0  0  0  0  0  # atno 8008 bound_to 7997
  155.2681  140.3363  155.4249 H   0  0  0  0  0  0  0  0  0  0  0  0  # atno 8009 bound_to 7997
  156.2098  140.1755  156.7704 H   0  0  0  0  0  0  0  0  0  0  0  0  # atno 8010 bound_to 7997
  139.9337  144.6135  150.8320 H   0  0  0  0  0  0  0  0  0  0  0  0  # atno 10167 bound_to 10162
  156.2253  130.4169  149.8942 H   0  0  0  0  0  0  0  0  0  0  0  0  # atno 10718 bound_to 10713
  154.8722  135.3741  154.4703 H   0  0  0  0  0  0  0  0  0  0  0  0  # atno 10763 bound_to 10752
  153.5364  135.7027  153.5663 H   0  0  0  0  0  0  0  0  0  0  0  0  # atno 10764 bound_to 10752
  153.3844  135.3988  155.1844 H   0  0  0  0  0  0  0  0  0  0  0  0  # atno 10765 bound_to 10752
  141.0763  133.9295  157.2382 H   0  0  0  0  0  0  0  0  0  0  0  0  # atno 11005 bound_to 11000
  146.0428  140.8148  142.9820 LP  0  0  0  0  0  0  0  0  0  0  0  0  # atno 17320 bound_to 7965
  144.6866  140.2935  143.7274 LP  0  0  0  0  0  0  0  0  0  0  0  0  # atno 17321 bound_to 7965
  140.7630  143.3213  151.2616 LP  0  0  0  0  0  0  0  0  0  0  0  0  # atno 17342 bound_to 10162
  139.6761  143.9935  152.2782 LP  0  0  0  0  0  0  0  0  0  0  0  0  # atno 17343 bound_to 10162
  156.6574  130.8768  151.3542 LP  0  0  0  0  0  0  0  0  0  0  0  0  # atno 17370 bound_to 10713
  157.7107  130.9437  150.1080 LP  0  0  0  0  0  0  0  0  0  0  0  0  # atno 17371 bound_to 10713
  139.9576  135.0162  156.9170 LP  0  0  0  0  0  0  0  0  0  0  0  0  # atno 17394 bound_to 11000
  140.5566  134.0576  155.7385 LP  0  0  0  0  0  0  0  0  0  0  0  0  # atno 17395 bound_to 11000

$$$$
