#       Name:                AV-unprocessed.smi:618
#       Creating user name   scv26
#       Creation time:       Fri Mar 27 00:00:04 2020


#       File generated by GOLD software.
#

@<TRIPOS>MOLECULE
AV-unprocessed.smi:618
    46    48     1
SMALL
NO_CHARGES


@<TRIPOS>ATOM
      1 ****        -0.8568   1.5727  -1.5701 O.2            1 S1                 0.0000
      2 ****        -1.3736   0.4755  -1.7793 C.2            1 S1                 0.0000
      3 ****        -0.6668  -0.6510  -1.9453 N.am           1 S1                 0.0000
      4 ****         0.7884  -0.7415  -1.8900 C.3            1 S1                 0.0000
      5 ****         1.3125  -0.6729  -0.4446 C.3            1 S1                 0.0000
      6 ****         2.8515  -0.7090  -0.3879 C.3            1 S1                 0.0000
      7 ****         3.3505  -0.7731   1.0058 N.4            1 S1                 1.0000
      8 ****         3.3922   0.5048   1.7507 C.3            1 S1                 0.0000
      9 ****         3.1656   0.1503   3.2288 C.3            1 S1                 0.0000
     10 ****         3.0754  -1.3788   3.2735 C.3            1 S1                 0.0000
     11 ****         2.6662  -1.7714   1.8531 C.3            1 S1                 0.0000
     12 ****         1.1342  -1.7267   1.6528 C.3            1 S1                 0.0000
     13 ****         0.8155  -1.7986   0.2704 O.3            1 S1                 0.0000
     14 ****        -2.6925   0.2412  -1.8846 N.am           1 S1                 0.0000
     15 ****        -3.7691   1.1590  -1.7501 C.ar           1 S1                 0.0000
     16 ****        -5.0179   0.7957  -2.2951 C.ar           1 S1                 0.0000
     17 ****        -6.1080   1.6763  -2.1619 C.ar           1 S1                 0.0000
     18 ****        -5.9080   2.8899  -1.4762 C.ar           1 S1                 0.0000
     19 ****        -4.7244   3.2475  -0.9351 N.ar           1 S1                 0.0000
     20 ****        -3.6823   2.3988  -1.0687 C.ar           1 S1                 0.0000
     21 ****        -1.1703  -1.5093  -2.1167 H              1 S1                 0.0000
     22 ****         1.0923  -1.6792  -2.3561 H              1 S1                 0.0000
     23 ****         1.2252   0.0585  -2.4903 H              1 S1                 0.0000
     24 ****         0.9516   0.2459   0.0206 H              1 S1                 0.0000
     25 ****         3.2115  -1.5958  -0.9111 H              1 S1                 0.0000
     26 ****         3.2842   0.1524  -0.8979 H              1 S1                 0.0000
     27 ****         4.3544   0.9924   1.5921 H              1 S1                 0.0000
     28 ****         2.6146   1.1886   1.4078 H              1 S1                 0.0000
     29 ****         3.9623   0.5275   3.8707 H              1 S1                 0.0000
     30 ****         2.2302   0.5915   3.5753 H              1 S1                 0.0000
     31 ****         4.0600  -1.7931   3.4953 H              1 S1                 0.0000
     32 ****         2.3861  -1.7423   4.0366 H              1 S1                 0.0000
     33 ****         3.0304  -2.7683   1.6016 H              1 S1                 0.0000
     34 ****         0.6671  -2.5670   2.1666 H              1 S1                 0.0000
     35 ****         0.6992  -0.8216   2.0803 H              1 S1                 0.0000
     36 ****        -2.9568  -0.6991  -2.1394 H              1 S1                 0.0000
     37 ****        -5.1413  -0.1444  -2.8132 H              1 S1                 0.0000
     38 ****        -7.0745   1.4275  -2.5745 H              1 S1                 0.0000
     39 ****        -6.7216   3.5895  -1.3540 H              1 S1                 0.0000
     40 ****        -2.7722   2.7287  -0.5929 H              1 S1                 0.0000
     41 ****         4.3140  -1.0724   0.9539 H              1 S1                 0.0000
     42 ****         0.1384   1.6547  -1.5168 LP             1 S1                 0.0000
     43 ****        -1.4321   2.3823  -1.4535 LP             1 S1                 0.0000
     44 ****         1.2194  -2.6295  -0.1123 LP             1 S1                 0.0000
     45 ****        -0.1787  -1.8338   0.1686 LP             1 S1                 0.0000
     46 ****        -4.6220   4.1156  -0.4494 LP             1 S1                 0.0000
@<TRIPOS>BOND
    1    1    2 2     
    2    2    3 am    
    3    2   14 am    
    4    3    4 1     
    5    3   21 1     
    6    4    5 1     
    7    4   22 1     
    8    4   23 1     
    9    5   13 1     
   10    5    6 1     
   11    5   24 1     
   12    6    7 1     
   13    6   25 1     
   14    6   26 1     
   15    7   11 1     
   16    7    8 1     
   17    7   41 1     
   18    8    9 1     
   19    8   27 1     
   20    8   28 1     
   21    9   10 1     
   22    9   29 1     
   23    9   30 1     
   24   10   11 1     
   25   10   31 1     
   26   10   32 1     
   27   11   12 1     
   28   11   33 1     
   29   12   13 1     
   30   12   34 1     
   31   12   35 1     
   32   14   15 1     
   33   14   36 1     
   34   15   20 ar    
   35   15   16 ar    
   36   16   17 ar    
   37   16   37 1     
   38   17   18 ar    
   39   17   38 1     
   40   18   19 ar    
   41   18   39 1     
   42   19   20 ar    
   43   20   40 1     
   44    1   42 1     
   45    1   43 1     
   46   13   44 1     
   47   13   45 1     
   48   19   46 1     
@<TRIPOS>SUBSTRUCTURE
      1 S1             1
@<TRIPOS>SET
LONE_PAIRS      STATIC     ATOMS    <user>   **** ""
5 42 43 44 45 46
DONOR_HYDROGENS      STATIC     ATOMS    <user>   **** ""
3 21 41 36
ATOM$BLUE        STATIC     ATOMS    COLORGROUP SYSTEM
5 42 43 44 45 46
ATOM$RED        STATIC     ATOMS    COLORGROUP SYSTEM
3 21 41 36
