AV-unprocessed.smi:2837|AV-procd|sdf|10924|dock4
  -GOLD-   2272015373D 1   1.00000     0.00000
 Structure written by MMmdl.
 33 35  0  0  0  0  0  0  0  0  2 V2000
  137.6794  137.0039  156.2890 F   0  0  0  0  0  0  0  0  0  0  0  0
  137.4180  137.3206  154.9982 C   0  0  0  0  0  0  0  0  0  0  0  0
  136.0992  137.6228  154.9113 F   0  0  0  0  0  0  0  0  0  0  0  0
  138.1750  138.3866  154.6252 O   0  0  0  0  0  0  0  0  0  0  0  0
  139.4363  138.1762  154.1151 C   0  0  0  0  0  0  0  0  0  0  0  0
  139.9914  136.8836  154.2186 C   0  0  0  0  0  0  0  0  0  0  0  0
  141.2873  136.6321  153.7228 C   0  0  0  0  0  0  0  0  0  0  0  0
  142.0216  137.6870  153.1312 C   0  0  0  0  0  0  0  0  0  0  0  0
  143.3156  137.5581  152.6076 N   0  0  0  0  0  0  0  0  0  0  0  0
  144.0226  136.2838  152.6358 C   0  0  2  0  0  0  0  0  0  0  0  0
  145.4520  136.3732  152.0837 C   0  0  0  0  0  0  0  0  0  0  0  0
  145.4298  135.3174  150.9715 C   0  0  1  0  0  0  0  0  0  0  0  0
  145.3309  133.8898  151.5257 C   0  0  0  0  0  0  0  0  0  0  0  0
  143.8776  133.8371  151.9958 C   0  0  0  0  0  0  0  0  0  0  0  0
  143.3912  135.2579  151.6793 C   0  0  2  0  0  0  0  0  0  0  0  0
  144.1135  135.5030  150.4833 O   0  0  0  0  0  0  0  0  0  0  0  0
  141.4588  138.9131  153.0581 N   0  3  0  0  0  0  0  0  0  0  0  0
  140.2210  139.1940  153.5208 C   0  0  0  0  0  0  0  0  0  0  0  0
  137.6321  136.4415  154.3898 H   0  0  0  0  0  0  0  0  0  0  0  0
  139.4242  136.0862  154.6758 H   0  0  0  0  0  0  0  0  0  0  0  0
  141.6966  135.6366  153.8064 H   0  0  0  0  0  0  0  0  0  0  0  0
  143.8223  138.3813  152.3145 H   0  0  0  0  0  0  0  0  0  0  0  0
  144.0072  135.8912  153.6533 H   0  0  0  0  0  0  0  0  0  0  0  0
  145.6610  137.3570  151.6604 H   0  0  0  0  0  0  0  0  0  0  0  0
  146.2093  136.1634  152.8398 H   0  0  0  0  0  0  0  0  0  0  0  0
  146.2097  135.4491  150.2209 H   0  0  0  0  0  0  0  0  0  0  0  0
  145.5049  133.1535  150.7401 H   0  0  0  0  0  0  0  0  0  0  0  0
  146.0445  133.7074  152.3300 H   0  0  0  0  0  0  0  0  0  0  0  0
  143.3174  133.1004  151.4187 H   0  0  0  0  0  0  0  0  0  0  0  0
  143.7813  133.5865  153.0527 H   0  0  0  0  0  0  0  0  0  0  0  0
  142.3077  135.3351  151.5806 H   0  0  0  0  0  0  0  0  0  0  0  0
  139.9090  140.2218  153.4044 H   0  0  0  0  0  0  0  0  0  0  0  0
  141.9970  139.6696  152.6348 H   0  0  0  0  0  0  0  0  0  0  0  0
  1  2  1  0  0  0  0
  2  3  1  0  0  0  0
  2  4  1  0  0  0  0
  2 19  1  0  0  0  0
  4  5  1  0  0  0  0
  5 18  1  0  0  0  0
  5  6  2  0  0  0  0
  6  7  1  0  0  0  0
  6 20  1  0  0  0  0
  7  8  2  0  0  0  0
  7 21  1  0  0  0  0
  8  9  1  0  0  0  0
  8 17  1  0  0  0  0
  9 10  1  0  0  0  0
  9 22  1  0  0  0  0
 10 15  1  0  0  0  0
 10 11  1  0  0  0  0
 10 23  1  0  0  0  0
 11 12  1  0  0  0  0
 11 24  1  0  0  0  0
 11 25  1  0  0  0  0
 12 16  1  0  0  0  0
 12 13  1  0  0  0  0
 12 26  1  0  0  0  0
 13 14  1  0  0  0  0
 13 27  1  0  0  0  0
 13 28  1  0  0  0  0
 14 15  1  0  0  0  0
 14 29  1  0  0  0  0
 14 30  1  0  0  0  0
 15 16  1  0  0  0  0
 15 31  1  0  0  0  0
 17 18  2  0  0  0  0
 17 33  1  0  0  0  0
 18 32  1  0  0  0  0
M  CHG  1  17   1
M  END
> <s_m_source_file>
AV-unprocessed.smi

> <i_m_source_file_index>
2837

> <i_lp_mmshare_version>
43012

> <i_f3d_flags>
0

> <s_epik_input>
RltDSF0oRilPYzFbY0hdW2NIXWMobltjSF0xKVtOSF1bQ0BIXShbQ0gyXVtDQEBIXTIzKVtDQEBIXShPMylbQ0gyXVtDSDJdMg==

> <s_epik_cmdline>
J2VwaWtfcHl0aG9uJywgJy1waCcsICc3LjAnLCAnLXRuJywgJzgnLCAnLW1hJywgJzIwMCcsICctbWV0YWxfYmluZGluZycsICctaW1hZScsICc8aW5maWxlLm1hZT4nLCAnLW9tYWUnLCAnPG91dGZpbGUubWFlPic=

> <r_lp_tautomer_probability>
0.999429

> <r_epik_Ionization_Penalty>
2.29716

> <r_epik_Ionization_Penalty_Charging>
2.29716

> <r_epik_Ionization_Penalty_Neutral>
1.42285e-06

> <r_epik_State_Penalty>
2.44762

> <r_epik_Charging_Adjusted_Penalty>
4.74478

> <i_epik_Tot_Q>
1

> <i_epik_Tot_abs_Q>
1

> <r_epik_Metal_State_Penalty>
6.53078

> <b_epik_Metal_Only>
0

> <s_lp_Force_Field>
OPLS_2005

> <r_lp_Energy>
46.2914

> <b_lp_Chiralities_Consistent>
1

> <s_lp_Variant>
AV-unprocessed.smi:2837-5

> <Gold.Version>
5.8.1

> <Gold.Id.Protein>
6NUR|6NUR_protein|mol2

> <Gold.PLP.Fitness>
43.0435

> <Gold.PLP.PLP>
-34.3365

> <Gold.PLP.part.hbond>
-3.9904

> <Gold.PLP.part.metal>
0.0000

> <Gold.PLP.part.buried>
-5.2254

> <Gold.PLP.part.nonpolar>
-26.1670

> <Gold.PLP.part.repulsive>
0.5304

> <Gold.PLP.ligand.clash>
0.9330

> <Gold.PLP.ligand.torsion>
0.4720

> <Gold.PLP.Chemscore.Hbond>
3.5200

> <Gold.PLP.Chemscore.CHOScore>
0.0000

> <Gold.PLP.Chemscore.Metal>
0.0000

> <Gold.Chemscore.Hbonds>
donor molecule, donor type, donor heavy atom, donor atom, acceptor molecule, acceptor atom, score
      L1  H     9    22       P1 10175  1.42
      L1  H    17    33       P1 10175  1.92

> <Gold.PLP.Chemscore.Internal.Correction>
0.0240

> <Gold.Rescore>
     Score         DG    S(hbond)    S(metal)    S(lipo)     H(rot)  DE(clash)    DE(int)     intcor
     12.47     -13.71       1.53        0.00      55.89       1.34       0.19       1.04       ----

> <Gold.Chemscore.Fitness>
12.4697

> <Gold.Chemscore.DG>
-13.7052

> <Gold.Chemscore.ZeroCoef>
-5.4800

> <Gold.Chemscore.Hbond>
1.5295

> <Gold.Chemscore.Metal>
0.0000

> <Gold.Chemscore.Lipo>
55.8882

> <Gold.Chemscore.Internal_Hbond>
0.0000

> <Gold.Chemscore.DEClash>
0.1943

> <Gold.Chemscore.DEInternal>
1.0412

> <Gold.Chemscore.Rot>
1.3368

> <Gold.Chemscore.Internal.Correction>
   9.000000E+99

> <Gold.Chemscore.Hbonds>
donor molecule, donor type, donor heavy atom, donor atom, acceptor molecule, acceptor atom, score
      L1  H     9    22       P1 10175  0.67
      L1  H    17    33       P1 10175  0.32

> <Gold.Chemscore.Hbond.Weighted>
-5.1086

> <Gold.Chemscore.Metal.Weighted>
-0.0000

> <Gold.Chemscore.Lipo.Weighted>
-6.5389

> <Gold.Chemscore.Internal_Hbond.Weighted>
0.0000

> <Gold.Chemscore.DEClash.Weighted>
0.1943

> <Gold.Chemscore.DEInternal.Weighted>
1.0412

> <Gold.Chemscore.Rot.Weighted>
3.4223

> <Gold.Chemscore.Internal.Correction.Weighted>
   9.000000E+99

> <Gold.Protein.RotatedTorsions>
[ 6907 6896 6895 6894 ] final  -82.56 input  -60.11 | X-H torsion
[ 7974 7965 7964 7962 ] final -121.28 input  175.53 | X-H torsion
[ 8008 7997 7996 7995 ] final  -36.49 input   59.86 | X-H torsion
[ 10167 10162 10161 10158 ] final   62.78 input  -65.29 | X-H torsion
[ 10718 10713 10712 10709 ] final   42.71 input   66.30 | X-H torsion
[ 10763 10752 10751 10750 ] final    9.48 input  -60.55 | X-H torsion
[ 11005 11000 10999 10996 ] final   39.43 input  -57.11 | X-H torsion

> <Gold.Protein.ActiveResidues>
 VAL166  LYS551  ARG553  GLY616  TRP617  ASP618  TYR619  PRO620  LYS621  CYS622 
 ASP623  PHE694  ASN695  SER759  ASP760  ASP761  ALA762  ILE779  LEU786  VAL792 
 PHE793  MET794  SER795  GLU796  ALA797  LYS798  CYS799  TRP800  GLU811  SER814 

> <Gold.Protein.RotatedAtoms>
  150.6896  134.3647  159.4965 H   0  0  0  0  0  0  0  0  0  0  0  0  # atno 6907 bound_to 6896
  152.1471  134.9015  160.0559 H   0  0  0  0  0  0  0  0  0  0  0  0  # atno 6908 bound_to 6896
  152.0127  133.3833  159.4263 H   0  0  0  0  0  0  0  0  0  0  0  0  # atno 6909 bound_to 6896
  145.0421  140.8152  143.4260 H   0  0  0  0  0  0  0  0  0  0  0  0  # atno 7974 bound_to 7965
  154.4072  140.1629  156.2383 H   0  0  0  0  0  0  0  0  0  0  0  0  # atno 8008 bound_to 7997
  155.9223  140.3420  155.6160 H   0  0  0  0  0  0  0  0  0  0  0  0  # atno 8009 bound_to 7997
  155.7207  140.0768  157.2322 H   0  0  0  0  0  0  0  0  0  0  0  0  # atno 8010 bound_to 7997
  140.1402  144.4561  150.6815 H   0  0  0  0  0  0  0  0  0  0  0  0  # atno 10167 bound_to 10162
  157.4079  130.7897  149.7405 H   0  0  0  0  0  0  0  0  0  0  0  0  # atno 10718 bound_to 10713
  153.2136  135.6872  153.8084 H   0  0  0  0  0  0  0  0  0  0  0  0  # atno 10763 bound_to 10752
  153.7308  135.3253  155.3286 H   0  0  0  0  0  0  0  0  0  0  0  0  # atno 10764 bound_to 10752
  154.8234  135.4635  154.0954 H   0  0  0  0  0  0  0  0  0  0  0  0  # atno 10765 bound_to 10752
  140.2029  134.3849  155.8087 H   0  0  0  0  0  0  0  0  0  0  0  0  # atno 11005 bound_to 11000
  145.1634  139.2445  143.5379 LP  0  0  0  0  0  0  0  0  0  0  0  0  # atno 17320 bound_to 7965
  146.3510  140.1367  142.8595 LP  0  0  0  0  0  0  0  0  0  0  0  0  # atno 17321 bound_to 7965
  140.6765  143.2307  151.5494 LP  0  0  0  0  0  0  0  0  0  0  0  0  # atno 17342 bound_to 10162
  139.5476  144.2480  152.1471 LP  0  0  0  0  0  0  0  0  0  0  0  0  # atno 17343 bound_to 10162
  155.9842  130.3994  150.3325 LP  0  0  0  0  0  0  0  0  0  0  0  0  # atno 17370 bound_to 10713
  157.1460  131.0308  151.2907 LP  0  0  0  0  0  0  0  0  0  0  0  0  # atno 17371 bound_to 10713
  141.2227  133.7103  156.8287 LP  0  0  0  0  0  0  0  0  0  0  0  0  # atno 17394 bound_to 11000
  140.2035  134.8880  157.3195 LP  0  0  0  0  0  0  0  0  0  0  0  0  # atno 17395 bound_to 11000

$$$$
