#       Name:                AV-unprocessed.smi:1565
#       Creating user name   scv26
#       Creation time:       Fri Mar 27 06:49:52 2020


#       File generated by GOLD software.
#

@<TRIPOS>MOLECULE
AV-unprocessed.smi:1565
    46    47     1
SMALL
NO_CHARGES


@<TRIPOS>ATOM
      1 ****        -4.5041  -1.8141  -1.6546 C.3            1 S1                 0.0000
      2 ****        -3.8476  -0.7744  -0.7404 C.3            1 S1                 0.0000
      3 ****        -2.3153  -0.7527  -0.8968 C.3            1 S1                 0.0000
      4 ****        -1.7365   0.3285  -0.1039 N.3            1 S1                 0.0000
      5 ****        -0.3349   0.2824   0.0568 C.ar           1 S1                 0.0000
      6 ****         0.2862  -0.8893   0.5498 C.ar           1 S1                 0.0000
      7 ****         1.6858  -0.9150   0.6999 C.ar           1 S1                 0.0000
      8 ****         2.4348   0.2341   0.3642 C.ar           1 S1                 0.0000
      9 ****         3.9315   0.2631   0.4764 C.2            1 S1                 0.0000
     10 ****         4.6067   0.9693  -0.2723 O.2            1 S1                 0.0000
     11 ****         4.4528  -0.4787   1.4666 N.am           1 S1                 0.0000
     12 ****         5.8752  -0.5966   1.7695 C.3            1 S1                 0.0000
     13 ****         6.5409  -1.7335   0.9756 C.3            1 S1                 0.0000
     14 ****         7.8169  -1.8350   1.3450 F              1 S1                 0.0000
     15 ****         5.9304  -2.8915   1.2279 F              1 S1                 0.0000
     16 ****         6.4960  -1.4899  -0.3340 F              1 S1                 0.0000
     17 ****         1.7287   1.3531  -0.1263 C.ar           1 S1                 0.0000
     18 ****         0.3869   1.3828  -0.2696 N.ar           1 S1                 0.0000
     19 ****        -2.3528   1.6275  -0.3650 C.3            1 S1                 0.0000
     20 ****        -3.8830   1.5363  -0.2186 C.3            1 S1                 0.0000
     21 ****        -4.5765   2.8489  -0.5979 C.3            1 S1                 0.0000
     22 ****        -4.3726   0.5077  -1.0742 O.3            1 S1                 0.0000
     23 ****        -4.1426  -2.8182  -1.4309 H              1 S1                 0.0000
     24 ****        -4.2916  -1.6073  -2.7039 H              1 S1                 0.0000
     25 ****        -5.5869  -1.8148  -1.5282 H              1 S1                 0.0000
     26 ****        -4.1075  -1.0093   0.2934 H              1 S1                 0.0000
     27 ****        -1.9152  -1.7230  -0.6059 H              1 S1                 0.0000
     28 ****        -2.0463  -0.6003  -1.9430 H              1 S1                 0.0000
     29 ****        -0.2916  -1.7594   0.8231 H              1 S1                 0.0000
     30 ****         2.1658  -1.8100   1.0681 H              1 S1                 0.0000
     31 ****         3.8195  -1.0110   2.0452 H              1 S1                 0.0000
     32 ****         6.3872   0.3491   1.5824 H              1 S1                 0.0000
     33 ****         5.9724  -0.7903   2.8382 H              1 S1                 0.0000
     34 ****         2.2482   2.2572  -0.4093 H              1 S1                 0.0000
     35 ****        -1.9665   2.3726   0.3317 H              1 S1                 0.0000
     36 ****        -2.0896   1.9543  -1.3721 H              1 S1                 0.0000
     37 ****        -4.1393   1.2949   0.8145 H              1 S1                 0.0000
     38 ****        -4.2414   3.6680   0.0388 H              1 S1                 0.0000
     39 ****        -5.6579   2.7638  -0.4882 H              1 S1                 0.0000
     40 ****        -4.3668   3.1213  -1.6326 H              1 S1                 0.0000
     41 ****        -2.0085   0.1482   0.8414 LP             1 S1                 0.0000
     42 ****         4.1590   1.5332  -0.9662 LP             1 S1                 0.0000
     43 ****         5.6030   0.9791  -0.1866 LP             1 S1                 0.0000
     44 ****        -0.0684   2.2048  -0.6117 LP             1 S1                 0.0000
     45 ****        -5.3693   0.4756  -0.9996 LP             1 S1                 0.0000
     46 ****        -4.1156   0.7244  -2.0160 LP             1 S1                 0.0000
@<TRIPOS>BOND
    1    1    2 1     
    2    1   23 1     
    3    1   24 1     
    4    1   25 1     
    5    2   22 1     
    6    2    3 1     
    7    2   26 1     
    8    3    4 1     
    9    3   27 1     
   10    3   28 1     
   11    4    5 1     
   12    4   19 1     
   13    5   18 ar    
   14    5    6 ar    
   15    6    7 ar    
   16    6   29 1     
   17    7    8 ar    
   18    7   30 1     
   19    8    9 1     
   20    8   17 ar    
   21    9   10 2     
   22    9   11 am    
   23   11   12 1     
   24   11   31 1     
   25   12   13 1     
   26   12   32 1     
   27   12   33 1     
   28   13   14 1     
   29   13   15 1     
   30   13   16 1     
   31   17   18 ar    
   32   17   34 1     
   33   19   20 1     
   34   19   35 1     
   35   19   36 1     
   36   20   21 1     
   37   20   22 1     
   38   20   37 1     
   39   21   38 1     
   40   21   39 1     
   41   21   40 1     
   42    4   41 1     
   43   10   42 1     
   44   10   43 1     
   45   18   44 1     
   46   22   45 1     
   47   22   46 1     
@<TRIPOS>SUBSTRUCTURE
      1 S1             1
@<TRIPOS>SET
LONE_PAIRS      STATIC     ATOMS    <user>   **** ""
6 41 42 43 44 45 46
DONOR_HYDROGENS      STATIC     ATOMS    <user>   **** ""
1 31
ATOM$BLUE        STATIC     ATOMS    COLORGROUP SYSTEM
6 41 42 43 44 45 46
ATOM$RED        STATIC     ATOMS    COLORGROUP SYSTEM
1 31
