AV-unprocessed.smi:235|AV-procd|sdf|1803|dock9
  -GOLD-   2262020373D 1   1.00000     0.00000
 Structure written by MMmdl.
 54 58  0  0  0  0  0  0  0  0  1 V2000
  144.6546  134.8823  151.3292 O   0  0  0  0  0  0  0  0  0  0  0  0
  144.1924  134.2853  152.3025 C   0  0  0  0  0  0  0  0  0  0  0  0
  144.4817  133.0086  152.5925 N   0  0  0  0  0  0  0  0  0  0  0  0
  145.3572  132.1654  151.8455 C   0  0  0  0  0  0  0  0  0  0  0  0
  145.2644  132.2189  150.3359 C   0  0  0  0  0  0  0  0  0  0  0  0
  144.7388  131.0193  151.0748 C   0  0  0  0  0  0  0  0  0  0  0  0
  143.2145  134.9851  153.2569 C   0  0  2  0  0  0  0  0  0  0  0  0
  141.7533  134.6491  152.9327 C   0  0  0  0  0  0  0  0  0  0  0  0
  140.9941  135.8296  153.5252 C   0  0  0  0  0  0  0  0  0  0  0  0
  141.9329  137.0078  153.2657 C   0  0  0  0  0  0  0  0  0  0  0  0
  143.2751  136.4444  153.1462 N   0  0  0  0  0  0  0  0  0  0  0  0
  144.2314  137.0461  153.8873 C   0  0  0  0  0  0  0  0  0  0  0  0
  144.0642  137.0488  155.2319 N   0  0  0  0  0  0  0  0  0  0  0  0
  144.9748  137.6341  156.0159 C   0  0  0  0  0  0  0  0  0  0  0  0
  146.1008  138.2604  155.6652 N   0  0  0  0  0  0  0  0  0  0  0  0
  146.2703  138.2561  154.3115 C   0  0  0  0  0  0  0  0  0  0  0  0
  145.3903  137.6777  153.3549 C   0  0  0  0  0  0  0  0  0  0  0  0
  145.8859  137.8747  152.0714 N   0  0  0  0  0  0  0  0  0  0  0  0
  146.9970  138.5333  152.2591 C   0  0  0  0  0  0  0  0  0  0  0  0
  147.3086  138.7972  153.5744 N   0  0  0  0  0  0  0  0  0  0  0  0
  148.4803  139.5033  154.0674 C   0  0  0  0  0  0  0  0  0  0  0  0
  149.6045  138.5696  154.5695 C   0  0  1  0  0  0  0  0  0  0  0  0
  150.3807  138.1428  153.4672 O   0  0  0  0  0  0  0  0  0  0  0  0
  150.5436  139.2213  155.6047 C   0  0  2  0  0  0  0  0  0  0  0  0
  149.9305  139.4034  156.9938 C   0  0  0  0  0  0  0  0  0  0  0  0
  150.7178  140.5642  157.5825 C   0  0  0  0  0  0  0  0  0  0  0  0
  151.4159  141.1934  156.3735 C   0  0  0  0  0  0  0  0  0  0  0  0
  150.8385  140.5608  155.2404 O   0  0  0  0  0  0  0  0  0  0  0  0
  144.0486  132.6024  153.4091 H   0  0  0  0  0  0  0  0  0  0  0  0
  146.3489  131.9828  152.2574 H   0  0  0  0  0  0  0  0  0  0  0  0
  144.5349  132.8947  149.8936 H   0  0  0  0  0  0  0  0  0  0  0  0
  146.1873  132.0972  149.7725 H   0  0  0  0  0  0  0  0  0  0  0  0
  145.3106  130.0961  151.0040 H   0  0  0  0  0  0  0  0  0  0  0  0
  143.6586  130.8950  151.1246 H   0  0  0  0  0  0  0  0  0  0  0  0
  143.4291  134.6789  154.2829 H   0  0  0  0  0  0  0  0  0  0  0  0
  141.5879  134.6104  151.8543 H   0  0  0  0  0  0  0  0  0  0  0  0
  141.4373  133.6956  153.3567 H   0  0  0  0  0  0  0  0  0  0  0  0
  140.0055  135.9682  153.0870 H   0  0  0  0  0  0  0  0  0  0  0  0
  140.8717  135.6842  154.5994 H   0  0  0  0  0  0  0  0  0  0  0  0
  141.6863  137.4828  152.3158 H   0  0  0  0  0  0  0  0  0  0  0  0
  141.8408  137.7695  154.0419 H   0  0  0  0  0  0  0  0  0  0  0  0
  144.7720  137.5947  157.0759 H   0  0  0  0  0  0  0  0  0  0  0  0
  147.6296  138.8402  151.4386 H   0  0  0  0  0  0  0  0  0  0  0  0
  148.8572  140.1367  153.2634 H   0  0  0  0  0  0  0  0  0  0  0  0
  148.1677  140.1801  154.8637 H   0  0  0  0  0  0  0  0  0  0  0  0
  149.1425  137.6851  155.0095 H   0  0  0  0  0  0  0  0  0  0  0  0
  149.7988  137.8187  152.7968 H   0  0  0  0  0  0  0  0  0  0  0  0
  151.4785  138.6641  155.6894 H   0  0  0  0  0  0  0  0  0  0  0  0
  148.8790  139.6818  156.9104 H   0  0  0  0  0  0  0  0  0  0  0  0
  149.9907  138.4993  157.6005 H   0  0  0  0  0  0  0  0  0  0  0  0
  150.0545  141.2721  158.0809 H   0  0  0  0  0  0  0  0  0  0  0  0
  151.4517  140.2197  158.3119 H   0  0  0  0  0  0  0  0  0  0  0  0
  151.2837  142.2746  156.3285 H   0  0  0  0  0  0  0  0  0  0  0  0
  152.4859  140.9814  156.3954 H   0  0  0  0  0  0  0  0  0  0  0  0
  1  2  2  0  0  0  0
  2  3  1  0  0  0  0
  2  7  1  0  0  0  0
  3  4  1  0  0  0  0
  3 29  1  0  0  0  0
  4  6  1  0  0  0  0
  4  5  1  0  0  0  0
  4 30  1  0  0  0  0
  5  6  1  0  0  0  0
  5 31  1  0  0  0  0
  5 32  1  0  0  0  0
  6 33  1  0  0  0  0
  6 34  1  0  0  0  0
  7 11  1  0  0  0  0
  7  8  1  0  0  0  0
  7 35  1  0  0  0  0
  8  9  1  0  0  0  0
  8 36  1  0  0  0  0
  8 37  1  0  0  0  0
  9 10  1  0  0  0  0
  9 38  1  0  0  0  0
  9 39  1  0  0  0  0
 10 11  1  0  0  0  0
 10 40  1  0  0  0  0
 10 41  1  0  0  0  0
 11 12  1  0  0  0  0
 12 17  1  0  0  0  0
 12 13  2  0  0  0  0
 13 14  1  0  0  0  0
 14 15  2  0  0  0  0
 14 42  1  0  0  0  0
 15 16  1  0  0  0  0
 16 20  1  0  0  0  0
 16 17  2  0  0  0  0
 17 18  1  0  0  0  0
 18 19  2  0  0  0  0
 19 20  1  0  0  0  0
 19 43  1  0  0  0  0
 20 21  1  0  0  0  0
 21 22  1  0  0  0  0
 21 44  1  0  0  0  0
 21 45  1  0  0  0  0
 22 23  1  0  0  0  0
 22 24  1  0  0  0  0
 22 46  1  0  0  0  0
 23 47  1  0  0  0  0
 24 28  1  0  0  0  0
 24 25  1  0  0  0  0
 24 48  1  0  0  0  0
 25 26  1  0  0  0  0
 25 49  1  0  0  0  0
 25 50  1  0  0  0  0
 26 27  1  0  0  0  0
 26 51  1  0  0  0  0
 26 52  1  0  0  0  0
 27 28  1  0  0  0  0
 27 53  1  0  0  0  0
 27 54  1  0  0  0  0
M  END
> <s_m_source_file>
AV-unprocessed.smi

> <i_m_source_file_index>
235

> <i_lp_mmshare_version>
43012

> <i_f3d_flags>
0

> <s_epik_input>
W0NIMl0xW0NIMl1bQ0hdMVtOSF1DKD1PKVtDQEBIXTJbQ0gyXVtDSDJdW0NIMl1OMmMobltjSF1uMyljKGMzNCluW2NIXW40W0NIMl1bQ0BIXShbT0hdKVtDQEBIXTVbQ0gyXVtDSDJdW0NIMl1PNQ==

> <s_epik_cmdline>
J2VwaWtfcHl0aG9uJywgJy1waCcsICc3LjAnLCAnLXRuJywgJzgnLCAnLW1hJywgJzIwMCcsICctbWV0YWxfYmluZGluZycsICctaW1hZScsICc8aW5maWxlLm1hZT4nLCAnLW9tYWUnLCAnPG91dGZpbGUubWFlPic=

> <r_lp_tautomer_probability>
1

> <r_epik_Ionization_Penalty>
0.000526714

> <r_epik_Ionization_Penalty_Charging>
0

> <r_epik_Ionization_Penalty_Neutral>
0.000526714

> <r_epik_State_Penalty>
0.000272704

> <r_epik_Charging_Adjusted_Penalty>
0.000272704

> <i_epik_Tot_Q>
0

> <i_epik_Tot_abs_Q>
0

> <r_epik_Metal_State_Penalty>
-0

> <b_epik_Metal_Only>
0

> <s_lp_Force_Field>
OPLS_2005

> <r_lp_Energy>
60.0351

> <b_lp_Chiralities_Consistent>
1

> <s_lp_Variant>
AV-unprocessed.smi:235-3

> <Gold.Version>
5.8.1

> <Gold.Id.Protein>
6NUR|6NUR_protein|mol2

> <Gold.PLP.Fitness>
46.3225

> <Gold.PLP.PLP>
-37.6504

> <Gold.PLP.part.hbond>
-4.7052

> <Gold.PLP.part.metal>
0.0000

> <Gold.PLP.part.buried>
-5.5881

> <Gold.PLP.part.nonpolar>
-28.2896

> <Gold.PLP.part.repulsive>
0.8294

> <Gold.PLP.ligand.clash>
0.0000

> <Gold.PLP.ligand.torsion>
1.6583

> <Gold.PLP.Chemscore.Hbond>
2.8943

> <Gold.PLP.Chemscore.CHOScore>
1.0162

> <Gold.PLP.Chemscore.Metal>
0.0000

> <Gold.Chemscore.Hbonds>
donor molecule, donor type, donor heavy atom, donor atom, acceptor molecule, acceptor atom, score
      L1  H     3    29       P1 10957  0.80
      L1  H    23    47       P1  7948  0.98
      P1  H  7989  7998       L1    28  0.96
      L1  C    19    43       P1  7948  0.01
      L1  C    19    43       P1  7957  1.00

> <Gold.PLP.Chemscore.Internal.Correction>
0.2573

> <Gold.Rescore>
     Score         DG    S(hbond)    S(metal)    S(lipo)     H(rot)  DE(clash)    DE(int)     intcor
     12.03     -14.97       2.39        0.00      78.59       3.00       0.16       2.78       ----

> <Gold.Chemscore.Fitness>
12.0314

> <Gold.Chemscore.DG>
-14.9657

> <Gold.Chemscore.ZeroCoef>
-5.4800

> <Gold.Chemscore.Hbond>
2.3854

> <Gold.Chemscore.Metal>
0.0000

> <Gold.Chemscore.Lipo>
78.5943

> <Gold.Chemscore.Internal_Hbond>
0.0000

> <Gold.Chemscore.DEClash>
0.1571

> <Gold.Chemscore.DEInternal>
2.7772

> <Gold.Chemscore.Rot>
2.9989

> <Gold.Chemscore.Internal.Correction>
   9.000000E+99

> <Gold.Chemscore.Hbonds>
donor molecule, donor type, donor heavy atom, donor atom, acceptor molecule, acceptor atom, score
      L1  H     3    29       P1 10957  0.27
      L1  H    23    47       P1  7948  0.36
      P1  H  7989  7998       L1    28  0.84

> <Gold.Chemscore.Hbond.Weighted>
-7.9674

> <Gold.Chemscore.Metal.Weighted>
-0.0000

> <Gold.Chemscore.Lipo.Weighted>
-9.1955

> <Gold.Chemscore.Internal_Hbond.Weighted>
0.0000

> <Gold.Chemscore.DEClash.Weighted>
0.1571

> <Gold.Chemscore.DEInternal.Weighted>
2.7772

> <Gold.Chemscore.Rot.Weighted>
7.6772

> <Gold.Chemscore.Internal.Correction.Weighted>
   9.000000E+99

> <Gold.Protein.RotatedTorsions>
[ 6907 6896 6895 6894 ] final  109.33 input  -60.11 | X-H torsion
[ 7974 7965 7964 7962 ] final  179.90 input  175.53 | X-H torsion
[ 8008 7997 7996 7995 ] final -115.04 input   59.86 | X-H torsion
[ 10167 10162 10161 10158 ] final  136.82 input  -65.29 | X-H torsion
[ 10718 10713 10712 10709 ] final  179.58 input   66.30 | X-H torsion
[ 10763 10752 10751 10750 ] final  139.54 input  -60.55 | X-H torsion
[ 11005 11000 10999 10996 ] final  -71.67 input  -57.11 | X-H torsion

> <Gold.Protein.ActiveResidues>
 VAL166  LYS551  ARG553  GLY616  TRP617  ASP618  TYR619  PRO620  LYS621  CYS622 
 ASP623  PHE694  ASN695  SER759  ASP760  ASP761  ALA762  ILE779  LEU786  VAL792 
 PHE793  MET794  SER795  GLU796  ALA797  LYS798  CYS799  TRP800  GLU811  SER814 

> <Gold.Protein.RotatedAtoms>
  152.5072  133.8960  159.7417 H   0  0  0  0  0  0  0  0  0  0  0  0  # atno 6907 bound_to 6896
  150.9387  133.6673  159.2802 H   0  0  0  0  0  0  0  0  0  0  0  0  # atno 6908 bound_to 6896
  151.3992  135.0973  159.9603 H   0  0  0  0  0  0  0  0  0  0  0  0  # atno 6909 bound_to 6896
  144.7141  140.0618  143.6432 H   0  0  0  0  0  0  0  0  0  0  0  0  # atno 7974 bound_to 7965
  155.0458  140.0392  157.2526 H   0  0  0  0  0  0  0  0  0  0  0  0  # atno 8008 bound_to 7997
  154.7179  140.2706  155.6545 H   0  0  0  0  0  0  0  0  0  0  0  0  # atno 8009 bound_to 7997
  156.2808  140.2709  156.1841 H   0  0  0  0  0  0  0  0  0  0  0  0  # atno 8010 bound_to 7997
  139.5166  144.6444  151.5481 H   0  0  0  0  0  0  0  0  0  0  0  0  # atno 10167 bound_to 10162
  156.8736  130.9792  151.3070 H   0  0  0  0  0  0  0  0  0  0  0  0  # atno 10718 bound_to 10713
  153.9079  135.3014  155.3448 H   0  0  0  0  0  0  0  0  0  0  0  0  # atno 10763 bound_to 10752
  154.7638  135.4921  153.9518 H   0  0  0  0  0  0  0  0  0  0  0  0  # atno 10764 bound_to 10752
  153.1209  135.6782  153.9439 H   0  0  0  0  0  0  0  0  0  0  0  0  # atno 10765 bound_to 10752
  141.1596  133.6824  156.6941 H   0  0  0  0  0  0  0  0  0  0  0  0  # atno 11005 bound_to 11000
  145.9858  139.2976  143.1014 LP  0  0  0  0  0  0  0  0  0  0  0  0  # atno 17320 bound_to 7965
  145.8959  140.9274  143.0528 LP  0  0  0  0  0  0  0  0  0  0  0  0  # atno 17321 bound_to 7965
  140.6223  143.9235  150.6536 LP  0  0  0  0  0  0  0  0  0  0  0  0  # atno 17342 bound_to 10162
  140.2513  143.3591  152.1403 LP  0  0  0  0  0  0  0  0  0  0  0  0  # atno 17343 bound_to 10162
  157.6181  130.8634  149.9063 LP  0  0  0  0  0  0  0  0  0  0  0  0  # atno 17370 bound_to 10713
  156.0713  130.3685  150.0769 LP  0  0  0  0  0  0  0  0  0  0  0  0  # atno 17371 bound_to 10713
  140.3008  134.8165  157.4096 LP  0  0  0  0  0  0  0  0  0  0  0  0  # atno 17394 bound_to 11000
  140.1264  134.5153  155.8141 LP  0  0  0  0  0  0  0  0  0  0  0  0  # atno 17395 bound_to 11000

$$$$
