AV-unprocessed.smi:1969|AV-procd|sdf|7957|dock2
  -GOLD-   2272010123D 1   1.00000     0.00000
 Structure written by MMmdl.
 44 45  0  0  0  0  0  0  0  0  1 V2000
  152.9543  144.3647  158.1094 C   0  0  0  0  0  0  0  0  0  0  0  0
  151.7509  143.7538  158.8495 C   0  0  2  0  0  0  0  0  0  0  0  0
  152.1226  142.5443  159.7296 C   0  0  0  0  0  0  0  0  0  0  0  0
  152.3621  141.3566  158.9146 N   0  0  0  0  0  0  0  0  0  0  0  0
  152.9871  140.2804  159.5801 C   0  0  0  0  0  0  0  0  0  0  0  0
  154.1383  140.5073  160.3700 C   0  0  0  0  0  0  0  0  0  0  0  0
  154.7411  139.4216  161.0325 C   0  0  0  0  0  0  0  0  0  0  0  0
  154.1806  138.1368  160.9004 C   0  0  0  0  0  0  0  0  0  0  0  0
  154.8197  137.0578  161.5685 N   0  0  0  0  0  0  0  0  0  0  0  0
  154.8534  135.7552  161.2277 C   0  0  0  0  0  0  0  0  0  0  0  0
  154.2842  135.2785  160.2469 O   0  0  0  0  0  0  0  0  0  0  0  0
  155.6395  134.8170  162.1498 C   0  0  0  0  0  0  0  0  0  0  0  0
  154.7984  134.3112  163.1777 O   0  0  0  0  0  0  0  0  0  0  0  0
  155.4437  133.3442  163.9908 C   0  0  0  0  0  0  0  0  0  0  0  0
  154.4037  132.6477  164.8767 C   0  0  0  0  0  0  0  0  0  0  0  0
  155.0103  131.7325  165.6309 F   0  0  0  0  0  0  0  0  0  0  0  0
  153.8105  133.5357  165.6739 F   0  0  0  0  0  0  0  0  0  0  0  0
  153.4876  132.0414  164.1221 F   0  0  0  0  0  0  0  0  0  0  0  0
  153.0411  138.0011  160.0729 C   0  0  0  0  0  0  0  0  0  0  0  0
  152.4618  139.0395  159.4339 N   0  0  0  0  0  0  0  0  0  0  0  0
  151.2636  141.0563  158.0006 C   0  0  0  0  0  0  0  0  0  0  0  0
  150.9445  142.2818  157.1258 C   0  0  1  0  0  0  0  0  0  0  0  0
  149.7119  142.0510  156.2454 C   0  0  0  0  0  0  0  0  0  0  0  0
  150.6863  143.4106  157.9597 O   0  0  0  0  0  0  0  0  0  0  0  0
  153.6925  144.7403  158.8182 H   0  0  0  0  0  0  0  0  0  0  0  0
  152.6420  145.2014  157.4845 H   0  0  0  0  0  0  0  0  0  0  0  0
  153.4601  143.6399  157.4719 H   0  0  0  0  0  0  0  0  0  0  0  0
  151.3588  144.5315  159.5053 H   0  0  0  0  0  0  0  0  0  0  0  0
  152.9825  142.7976  160.3482 H   0  0  0  0  0  0  0  0  0  0  0  0
  151.3018  142.3259  160.4138 H   0  0  0  0  0  0  0  0  0  0  0  0
  154.5706  141.4925  160.4633 H   0  0  0  0  0  0  0  0  0  0  0  0
  155.6233  139.5784  161.6361 H   0  0  0  0  0  0  0  0  0  0  0  0
  155.2609  137.2904  162.4467 H   0  0  0  0  0  0  0  0  0  0  0  0
  156.0476  133.9968  161.5573 H   0  0  0  0  0  0  0  0  0  0  0  0
  156.4769  135.3660  162.5829 H   0  0  0  0  0  0  0  0  0  0  0  0
  155.9520  132.6091  163.3645 H   0  0  0  0  0  0  0  0  0  0  0  0
  156.2010  133.8235  164.6134 H   0  0  0  0  0  0  0  0  0  0  0  0
  152.5790  137.0442  159.8876 H   0  0  0  0  0  0  0  0  0  0  0  0
  151.5256  140.2137  157.3592 H   0  0  0  0  0  0  0  0  0  0  0  0
  150.3852  140.7657  158.5789 H   0  0  0  0  0  0  0  0  0  0  0  0
  151.7903  142.4939  156.4715 H   0  0  0  0  0  0  0  0  0  0  0  0
  149.8602  141.2025  155.5772 H   0  0  0  0  0  0  0  0  0  0  0  0
  149.5042  142.9262  155.6295 H   0  0  0  0  0  0  0  0  0  0  0  0
  148.8267  141.8513  156.8497 H   0  0  0  0  0  0  0  0  0  0  0  0
  1  2  1  0  0  0  0
  1 25  1  0  0  0  0
  1 26  1  0  0  0  0
  1 27  1  0  0  0  0
  2 24  1  0  0  0  0
  2  3  1  0  0  0  0
  2 28  1  0  0  0  0
  3  4  1  0  0  0  0
  3 29  1  0  0  0  0
  3 30  1  0  0  0  0
  4  5  1  0  0  0  0
  4 21  1  0  0  0  0
  5 20  1  0  0  0  0
  5  6  2  0  0  0  0
  6  7  1  0  0  0  0
  6 31  1  0  0  0  0
  7  8  2  0  0  0  0
  7 32  1  0  0  0  0
  8  9  1  0  0  0  0
  8 19  1  0  0  0  0
  9 10  1  0  0  0  0
  9 33  1  0  0  0  0
 10 11  2  0  0  0  0
 10 12  1  0  0  0  0
 12 13  1  0  0  0  0
 12 34  1  0  0  0  0
 12 35  1  0  0  0  0
 13 14  1  0  0  0  0
 14 15  1  0  0  0  0
 14 36  1  0  0  0  0
 14 37  1  0  0  0  0
 15 16  1  0  0  0  0
 15 17  1  0  0  0  0
 15 18  1  0  0  0  0
 19 20  2  0  0  0  0
 19 38  1  0  0  0  0
 21 22  1  0  0  0  0
 21 39  1  0  0  0  0
 21 40  1  0  0  0  0
 22 23  1  0  0  0  0
 22 24  1  0  0  0  0
 22 41  1  0  0  0  0
 23 42  1  0  0  0  0
 23 43  1  0  0  0  0
 23 44  1  0  0  0  0
M  END
> <s_m_source_file>
AV-unprocessed.smi

> <i_m_source_file_index>
1969

> <i_lp_mmshare_version>
43012

> <i_f3d_flags>
0

> <s_epik_input>
W0NIM11bQ0BASF0xW0NIMl1OKFtDSDJdW0NASF0oTzEpW0NIM10pYzJbY0hdW2NIXWMoW2NIXW4yKVtOSF1DKD1PKVtDSDJdT1tDSDJdQyhGKShGKUY=

> <s_epik_cmdline>
J2VwaWtfcHl0aG9uJywgJy1waCcsICc3LjAnLCAnLXRuJywgJzgnLCAnLW1hJywgJzIwMCcsICctbWV0YWxfYmluZGluZycsICctaW1hZScsICc8aW5maWxlLm1hZT4nLCAnLW9tYWUnLCAnPG91dGZpbGUubWFlPic=

> <r_lp_tautomer_probability>
1

> <r_epik_Ionization_Penalty>
0.000531129

> <r_epik_Ionization_Penalty_Charging>
0

> <r_epik_Ionization_Penalty_Neutral>
0.000531129

> <r_epik_State_Penalty>
0.000331002

> <r_epik_Charging_Adjusted_Penalty>
0.000331002

> <i_epik_Tot_Q>
0

> <i_epik_Tot_abs_Q>
0

> <r_epik_Metal_State_Penalty>
-0

> <b_epik_Metal_Only>
0

> <s_lp_Force_Field>
OPLS_2005

> <r_lp_Energy>
25.1949

> <b_lp_Chiralities_Consistent>
1

> <s_lp_Variant>
AV-unprocessed.smi:1969-1

> <Gold.Version>
5.8.1

> <Gold.Id.Protein>
6NUR|6NUR_protein|mol2

> <Gold.PLP.Fitness>
42.9652

> <Gold.PLP.PLP>
-41.1232

> <Gold.PLP.part.hbond>
-1.0000

> <Gold.PLP.part.metal>
0.0000

> <Gold.PLP.part.buried>
-3.7870

> <Gold.PLP.part.nonpolar>
-37.4415

> <Gold.PLP.part.repulsive>
0.1871

> <Gold.PLP.ligand.clash>
0.0000

> <Gold.PLP.ligand.torsion>
0.7518

> <Gold.PLP.Chemscore.Hbond>
1.0000

> <Gold.PLP.Chemscore.CHOScore>
0.0000

> <Gold.PLP.Chemscore.Metal>
0.0000

> <Gold.Chemscore.Hbonds>
donor molecule, donor type, donor heavy atom, donor atom, acceptor molecule, acceptor atom, score
      P1  H  6896  6909       L1    11  1.00

> <Gold.PLP.Chemscore.Internal.Correction>
0.3456

> <Gold.Rescore>
     Score         DG    S(hbond)    S(metal)    S(lipo)     H(rot)  DE(clash)    DE(int)     intcor
     13.19     -15.81       1.00        0.00     102.32       1.94       0.79       1.83       ----

> <Gold.Chemscore.Fitness>
13.1925

> <Gold.Chemscore.DG>
-15.8083

> <Gold.Chemscore.ZeroCoef>
-5.4800

> <Gold.Chemscore.Hbond>
0.9977

> <Gold.Chemscore.Metal>
0.0000

> <Gold.Chemscore.Lipo>
102.3247

> <Gold.Chemscore.Internal_Hbond>
0.0000

> <Gold.Chemscore.DEClash>
0.7887

> <Gold.Chemscore.DEInternal>
1.8271

> <Gold.Chemscore.Rot>
1.9438

> <Gold.Chemscore.Internal.Correction>
   9.000000E+99

> <Gold.Chemscore.Hbonds>
donor molecule, donor type, donor heavy atom, donor atom, acceptor molecule, acceptor atom, score
      P1  H  6896  6909       L1    11  0.99

> <Gold.Chemscore.Hbond.Weighted>
-3.3324

> <Gold.Chemscore.Metal.Weighted>
-0.0000

> <Gold.Chemscore.Lipo.Weighted>
-11.9720

> <Gold.Chemscore.Internal_Hbond.Weighted>
0.0000

> <Gold.Chemscore.DEClash.Weighted>
0.7887

> <Gold.Chemscore.DEInternal.Weighted>
1.8271

> <Gold.Chemscore.Rot.Weighted>
4.9761

> <Gold.Chemscore.Internal.Correction.Weighted>
   9.000000E+99

> <Gold.Protein.RotatedTorsions>
[ 6907 6896 6895 6894 ] final  178.48 input  -60.11 | X-H torsion
[ 7974 7965 7964 7962 ] final   25.77 input  175.53 | X-H torsion
[ 8008 7997 7996 7995 ] final   32.24 input   59.86 | X-H torsion
[ 10167 10162 10161 10158 ] final   74.55 input  -65.29 | X-H torsion
[ 10718 10713 10712 10709 ] final -135.07 input   66.30 | X-H torsion
[ 10763 10752 10751 10750 ] final  147.00 input  -60.55 | X-H torsion
[ 11005 11000 10999 10996 ] final -179.70 input  -57.11 | X-H torsion

> <Gold.Protein.ActiveResidues>
 VAL166  LYS551  ARG553  GLY616  TRP617  ASP618  TYR619  PRO620  LYS621  CYS622 
 ASP623  PHE694  ASN695  SER759  ASP760  ASP761  ALA762  ILE779  LEU786  VAL792 
 PHE793  MET794  SER795  GLU796  ALA797  LYS798  CYS799  TRP800  GLU811  SER814 

> <Gold.Protein.RotatedAtoms>
  151.6871  133.3311  159.3233 H   0  0  0  0  0  0  0  0  0  0  0  0  # atno 6907 bound_to 6896
  150.7796  134.6730  159.6411 H   0  0  0  0  0  0  0  0  0  0  0  0  # atno 6908 bound_to 6896
  152.3849  134.6536  160.0181 H   0  0  0  0  0  0  0  0  0  0  0  0  # atno 6909 bound_to 6896
  146.1872  139.7420  142.8858 H   0  0  0  0  0  0  0  0  0  0  0  0  # atno 7974 bound_to 7965
  155.1192  140.3246  155.4501 H   0  0  0  0  0  0  0  0  0  0  0  0  # atno 8008 bound_to 7997
  156.2668  140.2030  156.6263 H   0  0  0  0  0  0  0  0  0  0  0  0  # atno 8009 bound_to 7997
  154.6696  140.0538  157.0138 H   0  0  0  0  0  0  0  0  0  0  0  0  # atno 8010 bound_to 7997
  140.0125  144.5603  150.7647 H   0  0  0  0  0  0  0  0  0  0  0  0  # atno 10167 bound_to 10162
  156.2622  130.7216  151.1154 H   0  0  0  0  0  0  0  0  0  0  0  0  # atno 10718 bound_to 10713
  154.0311  135.2897  155.3368 H   0  0  0  0  0  0  0  0  0  0  0  0  # atno 10763 bound_to 10752
  154.6987  135.5197  153.8499 H   0  0  0  0  0  0  0  0  0  0  0  0  # atno 10764 bound_to 10752
  153.0640  135.6624  154.0524 H   0  0  0  0  0  0  0  0  0  0  0  0  # atno 10765 bound_to 10752
  140.4158  134.6651  157.4638 H   0  0  0  0  0  0  0  0  0  0  0  0  # atno 11005 bound_to 11000
  145.3904  141.0371  143.3127 LP  0  0  0  0  0  0  0  0  0  0  0  0  # atno 17320 bound_to 7965
  144.8418  139.5460  143.6897 LP  0  0  0  0  0  0  0  0  0  0  0  0  # atno 17321 bound_to 7965
  140.7376  143.2767  151.3721 LP  0  0  0  0  0  0  0  0  0  0  0  0  # atno 17342 bound_to 10162
  139.6195  144.0935  152.2378 LP  0  0  0  0  0  0  0  0  0  0  0  0  # atno 17343 bound_to 10162
  157.7254  131.0653  150.5952 LP  0  0  0  0  0  0  0  0  0  0  0  0  # atno 17370 bound_to 10713
  156.6041  130.4362  149.5885 LP  0  0  0  0  0  0  0  0  0  0  0  0  # atno 17371 bound_to 10713
  140.0235  134.6511  155.9206 LP  0  0  0  0  0  0  0  0  0  0  0  0  # atno 17394 bound_to 11000
  141.1803  133.6545  156.4995 LP  0  0  0  0  0  0  0  0  0  0  0  0  # atno 17395 bound_to 11000

$$$$
