AV-unprocessed.smi:1318|AV-procd|sdf|5457|dock1
  -GOLD-   22720 5 23D 1   1.00000     0.00000
 Structure written by MMmdl.
 28 29  0  0  0  0  0  0  0  0  1 V2000
  152.7054  142.7825  161.8508 C   0  0  0  0  0  0  0  0  0  0  0  0
  152.2686  143.4855  160.6117 C   0  0  0  0  0  0  0  0  0  0  0  0
  152.1748  142.8857  159.4225 N   0  0  0  0  0  0  0  0  0  0  0  0
  151.7445  143.7534  158.4136 C   0  0  0  0  0  0  0  0  0  0  0  0
  151.5860  143.2499  157.0111 C   0  0  0  0  0  0  0  0  0  0  0  0
  150.6055  142.0681  156.9258 C   0  0  0  0  0  0  0  0  0  0  0  0
  149.7236  142.1815  155.7696 N   0  0  0  0  0  0  0  0  0  0  0  0
  149.6584  141.3014  154.7589 C   0  0  0  0  0  0  0  0  0  0  0  0
  150.3545  140.2866  154.7068 O   0  0  0  0  0  0  0  0  0  0  0  0
  148.6642  141.6626  153.7043 C   0  0  0  0  0  0  0  0  0  0  0  0
  147.2501  141.9757  154.1500 C   0  0  0  0  0  0  0  0  0  0  0  0
  147.5414  140.6823  153.4312 C   0  0  0  0  0  0  0  0  0  0  0  0
  151.5127  145.0303  158.8610 C   0  0  0  0  0  0  0  0  0  0  0  0
  151.8263  145.1882  160.5675 S   0  0  0  0  0  0  0  0  0  0  0  0
  152.0608  141.9246  162.0422 H   0  0  0  0  0  0  0  0  0  0  0  0
  152.6546  143.4555  162.7069 H   0  0  0  0  0  0  0  0  0  0  0  0
  153.7322  142.4334  161.7405 H   0  0  0  0  0  0  0  0  0  0  0  0
  151.2433  144.0608  156.3671 H   0  0  0  0  0  0  0  0  0  0  0  0
  152.5555  142.9447  156.6152 H   0  0  0  0  0  0  0  0  0  0  0  0
  151.1599  141.1337  156.8352 H   0  0  0  0  0  0  0  0  0  0  0  0
  150.0153  141.9913  157.8406 H   0  0  0  0  0  0  0  0  0  0  0  0
  149.1196  142.9899  155.7340 H   0  0  0  0  0  0  0  0  0  0  0  0
  149.0421  142.2227  152.8502 H   0  0  0  0  0  0  0  0  0  0  0  0
  147.0136  141.9169  155.2110 H   0  0  0  0  0  0  0  0  0  0  0  0
  146.7225  142.7556  153.6048 H   0  0  0  0  0  0  0  0  0  0  0  0
  147.2112  140.5860  152.3991 H   0  0  0  0  0  0  0  0  0  0  0  0
  147.4980  139.7643  154.0150 H   0  0  0  0  0  0  0  0  0  0  0  0
  151.1782  145.8850  158.2923 H   0  0  0  0  0  0  0  0  0  0  0  0
  1  2  1  0  0  0  0
  1 15  1  0  0  0  0
  1 16  1  0  0  0  0
  1 17  1  0  0  0  0
  2 14  1  0  0  0  0
  2  3  2  0  0  0  0
  3  4  1  0  0  0  0
  4  5  1  0  0  0  0
  4 13  2  0  0  0  0
  5  6  1  0  0  0  0
  5 18  1  0  0  0  0
  5 19  1  0  0  0  0
  6  7  1  0  0  0  0
  6 20  1  0  0  0  0
  6 21  1  0  0  0  0
  7  8  1  0  0  0  0
  7 22  1  0  0  0  0
  8  9  2  0  0  0  0
  8 10  1  0  0  0  0
 10 12  1  0  0  0  0
 10 11  1  0  0  0  0
 10 23  1  0  0  0  0
 11 12  1  0  0  0  0
 11 24  1  0  0  0  0
 11 25  1  0  0  0  0
 12 26  1  0  0  0  0
 12 27  1  0  0  0  0
 13 14  1  0  0  0  0
 13 28  1  0  0  0  0
M  END
> <s_m_source_file>
AV-unprocessed.smi

> <i_m_source_file_index>
1318

> <i_lp_mmshare_version>
43012

> <i_f3d_flags>
0

> <s_epik_input>
W0NIM11jMW5jKFtjSF1zMSlbQ0gyXVtDSDJdW05IXUMoPU8pW0NIXTJbQ0gyXVtDSDJdMg==

> <s_epik_cmdline>
J2VwaWtfcHl0aG9uJywgJy1waCcsICc3LjAnLCAnLXRuJywgJzgnLCAnLW1hJywgJzIwMCcsICctbWV0YWxfYmluZGluZycsICctaW1hZScsICc8aW5maWxlLm1hZT4nLCAnLW9tYWUnLCAnPG91dGZpbGUubWFlPic=

> <r_epik_Ionization_Penalty>
0.00109668

> <r_epik_Ionization_Penalty_Charging>
0

> <r_epik_Ionization_Penalty_Neutral>
0.00109668

> <r_epik_State_Penalty>
0.000719322

> <r_epik_Charging_Adjusted_Penalty>
0.000719322

> <i_epik_Tot_Q>
0

> <i_epik_Tot_abs_Q>
0

> <r_epik_Metal_State_Penalty>
-0

> <b_epik_Metal_Only>
0

> <s_lp_Force_Field>
OPLS_2005

> <r_lp_Energy>
0.582663

> <b_lp_Chiralities_Consistent>
1

> <s_lp_Variant>
AV-unprocessed.smi:1318-1

> <Gold.Version>
5.8.1

> <Gold.Id.Protein>
6NUR|6NUR_protein|mol2

> <Gold.PLP.Fitness>
43.1386

> <Gold.PLP.PLP>
-37.7922

> <Gold.PLP.part.hbond>
-2.0000

> <Gold.PLP.part.metal>
0.0000

> <Gold.PLP.part.buried>
-3.0556

> <Gold.PLP.part.nonpolar>
-32.9070

> <Gold.PLP.part.repulsive>
0.2177

> <Gold.PLP.ligand.clash>
0.0000

> <Gold.PLP.ligand.torsion>
0.3661

> <Gold.PLP.Chemscore.Hbond>
2.0000

> <Gold.PLP.Chemscore.CHOScore>
0.0000

> <Gold.PLP.Chemscore.Metal>
0.0000

> <Gold.Chemscore.Hbonds>
donor molecule, donor type, donor heavy atom, donor atom, acceptor molecule, acceptor atom, score
      L1  H     7    22       P1  8028  1.00
      P1  H  7989  7998       L1     9  0.95

> <Gold.PLP.Chemscore.Internal.Correction>
0.0785

> <Gold.Rescore>
     Score         DG    S(hbond)    S(metal)    S(lipo)     H(rot)  DE(clash)    DE(int)     intcor
     16.65     -17.61       1.21        0.00     101.63       1.49       0.56       0.39       ----

> <Gold.Chemscore.Fitness>
16.6486

> <Gold.Chemscore.DG>
-17.6055

> <Gold.Chemscore.ZeroCoef>
-5.4800

> <Gold.Chemscore.Hbond>
1.2137

> <Gold.Chemscore.Metal>
0.0000

> <Gold.Chemscore.Lipo>
101.6330

> <Gold.Chemscore.Internal_Hbond>
0.0000

> <Gold.Chemscore.DEClash>
0.5626

> <Gold.Chemscore.DEInternal>
0.3944

> <Gold.Chemscore.Rot>
1.4919

> <Gold.Chemscore.Internal.Correction>
   9.000000E+99

> <Gold.Chemscore.Hbonds>
donor molecule, donor type, donor heavy atom, donor atom, acceptor molecule, acceptor atom, score
      L1  H     7    22       P1  8028  0.95
      P1  H  7989  7998       L1     9  0.21

> <Gold.Chemscore.Hbond.Weighted>
-4.0536

> <Gold.Chemscore.Metal.Weighted>
-0.0000

> <Gold.Chemscore.Lipo.Weighted>
-11.8911

> <Gold.Chemscore.Internal_Hbond.Weighted>
0.0000

> <Gold.Chemscore.DEClash.Weighted>
0.5626

> <Gold.Chemscore.DEInternal.Weighted>
0.3944

> <Gold.Chemscore.Rot.Weighted>
3.8192

> <Gold.Chemscore.Internal.Correction.Weighted>
   9.000000E+99

> <Gold.Protein.RotatedTorsions>
[ 6907 6896 6895 6894 ] final  -27.73 input  -60.11 | X-H torsion
[ 7974 7965 7964 7962 ] final -111.20 input  175.53 | X-H torsion
[ 8008 7997 7996 7995 ] final -124.81 input   59.86 | X-H torsion
[ 10167 10162 10161 10158 ] final  -11.42 input  -65.29 | X-H torsion
[ 10718 10713 10712 10709 ] final  120.91 input   66.30 | X-H torsion
[ 10763 10752 10751 10750 ] final -110.48 input  -60.55 | X-H torsion
[ 11005 11000 10999 10996 ] final  110.84 input  -57.11 | X-H torsion

> <Gold.Protein.ActiveResidues>
 VAL166  LYS551  ARG553  GLY616  TRP617  ASP618  TYR619  PRO620  LYS621  CYS622 
 ASP623  PHE694  ASN695  SER759  ASP760  ASP761  ALA762  ILE779  LEU786  VAL792 
 PHE793  MET794  SER795  GLU796  ALA797  LYS798  CYS799  TRP800  GLU811  SER814 

> <Gold.Protein.RotatedAtoms>
  151.1429  135.0188  159.8633 H   0  0  0  0  0  0  0  0  0  0  0  0  # atno 6907 bound_to 6896
  152.5452  134.1478  159.8516 H   0  0  0  0  0  0  0  0  0  0  0  0  # atno 6908 bound_to 6896
  151.1556  133.4833  159.2627 H   0  0  0  0  0  0  0  0  0  0  0  0  # atno 6909 bound_to 6896
  145.1589  140.8868  143.3602 H   0  0  0  0  0  0  0  0  0  0  0  0  # atno 7974 bound_to 7965
  155.2029  140.0416  157.2920 H   0  0  0  0  0  0  0  0  0  0  0  0  # atno 8008 bound_to 7997
  154.6062  140.2465  155.7699 H   0  0  0  0  0  0  0  0  0  0  0  0  # atno 8009 bound_to 7997
  156.2352  140.2924  156.0302 H   0  0  0  0  0  0  0  0  0  0  0  0  # atno 8010 bound_to 7997
  140.7138  143.5641  150.9163 H   0  0  0  0  0  0  0  0  0  0  0  0  # atno 10167 bound_to 10162
  157.5856  131.1070  150.8100 H   0  0  0  0  0  0  0  0  0  0  0  0  # atno 10718 bound_to 10713
  154.8250  135.4562  154.0892 H   0  0  0  0  0  0  0  0  0  0  0  0  # atno 10763 bound_to 10752
  153.2213  135.6894  153.8003 H   0  0  0  0  0  0  0  0  0  0  0  0  # atno 10764 bound_to 10752
  153.7419  135.3311  155.3282 H   0  0  0  0  0  0  0  0  0  0  0  0  # atno 10765 bound_to 10752
  139.8890  134.9494  156.6341 H   0  0  0  0  0  0  0  0  0  0  0  0  # atno 11005 bound_to 11000
  145.0351  139.3307  143.6005 LP  0  0  0  0  0  0  0  0  0  0  0  0  # atno 17320 bound_to 7965
  146.3485  139.9704  142.8707 LP  0  0  0  0  0  0  0  0  0  0  0  0  # atno 17321 bound_to 7965
  139.9367  143.6430  152.3063 LP  0  0  0  0  0  0  0  0  0  0  0  0  # atno 17342 bound_to 10162
  139.6900  144.7648  151.1456 LP  0  0  0  0  0  0  0  0  0  0  0  0  # atno 17343 bound_to 10162
  156.8535  130.5088  149.5310 LP  0  0  0  0  0  0  0  0  0  0  0  0  # atno 17370 bound_to 10713
  156.0905  130.5892  150.9725 LP  0  0  0  0  0  0  0  0  0  0  0  0  # atno 17371 bound_to 10713
  140.7644  133.8791  155.8443 LP  0  0  0  0  0  0  0  0  0  0  0  0  # atno 17394 bound_to 11000
  140.9895  134.1298  157.4421 LP  0  0  0  0  0  0  0  0  0  0  0  0  # atno 17395 bound_to 11000

$$$$
