AV-unprocessed.smi:149|AV-procd|sdf|1235|dock1
  -GOLD-   2262018443D 1   1.00000     0.00000
 Structure written by MMmdl.
 60 64  0  0  0  0  0  0  0  0  2 V2000
  148.3084  141.5107  153.8290 C   0  0  0  0  0  0  0  0  0  0  0  0
  147.1463  141.3506  154.8304 C   0  0  1  0  0  0  0  0  0  0  0  0
  146.3704  140.0518  154.5538 C   0  0  0  0  0  0  0  0  0  0  0  0
  146.8826  139.0649  155.4970 N   0  0  0  0  0  0  0  0  0  0  0  0
  146.9029  137.7418  155.1902 C   0  0  0  0  0  0  0  0  0  0  0  0
  147.5523  136.8877  156.0250 N   0  0  0  0  0  0  0  0  0  0  0  0
  147.5944  135.5797  155.7578 C   0  0  0  0  0  0  0  0  0  0  0  0
  147.0578  134.9218  154.7298 N   0  0  0  0  0  0  0  0  0  0  0  0
  146.3913  135.7662  153.8913 C   0  0  0  0  0  0  0  0  0  0  0  0
  146.2649  137.1776  154.0461 C   0  0  0  0  0  0  0  0  0  0  0  0
  145.5049  137.6954  153.0035 N   0  0  0  0  0  0  0  0  0  0  0  0
  145.2088  136.6569  152.2721 C   0  0  0  0  0  0  0  0  0  0  0  0
  145.7003  135.4555  152.7300 N   0  0  0  0  0  0  0  0  0  0  0  0
  145.5153  134.1713  152.1128 C   0  0  0  0  0  0  0  0  0  0  0  0
  145.9742  133.8971  150.6795 C   0  0  0  0  0  0  0  0  0  0  0  0
  144.7927  132.9172  150.4976 C   0  0  0  0  0  0  0  0  0  0  0  0
  144.0656  133.0161  149.1464 C   0  0  0  0  0  0  0  0  0  0  0  0
  142.9388  132.1641  149.1050 O   0  0  0  0  0  0  0  0  0  0  0  0
  145.1181  131.4389  150.7925 C   0  0  0  0  0  0  0  0  0  0  0  0
  146.1802  130.9708  149.9860 O   0  0  0  0  0  0  0  0  0  0  0  0
  144.1343  133.6912  151.6636 C   0  0  0  0  0  0  0  0  0  0  0  0
  147.8941  139.6664  156.3527 C   0  0  0  0  0  0  0  0  0  0  0  0
  147.5890  141.1670  156.2966 C   0  0  1  0  0  0  0  0  0  0  0  0
  148.7001  142.0560  156.7383 N   0  3  0  0  0  0  0  0  0  0  0  0
  148.7115  142.2708  158.2084 C   0  0  0  0  0  0  0  0  0  0  0  0
  149.8387  143.2372  158.6077 C   0  0  0  0  0  0  0  0  0  0  0  0
  151.0860  142.7221  158.1620 O   0  0  0  0  0  0  0  0  0  0  0  0
  151.1279  142.5928  156.7475 C   0  0  0  0  0  0  0  0  0  0  0  0
  150.0414  141.6083  156.2831 C   0  0  0  0  0  0  0  0  0  0  0  0
  149.0035  140.6724  153.8795 H   0  0  0  0  0  0  0  0  0  0  0  0
  148.8756  142.4236  154.0072 H   0  0  0  0  0  0  0  0  0  0  0  0
  147.9324  141.5621  152.8069 H   0  0  0  0  0  0  0  0  0  0  0  0
  146.4824  142.2100  154.7305 H   0  0  0  0  0  0  0  0  0  0  0  0
  145.3066  140.1947  154.7462 H   0  0  0  0  0  0  0  0  0  0  0  0
  146.4848  139.7306  153.5176 H   0  0  0  0  0  0  0  0  0  0  0  0
  148.1354  134.9730  156.4692 H   0  0  0  0  0  0  0  0  0  0  0  0
  144.6169  136.7423  151.3725 H   0  0  0  0  0  0  0  0  0  0  0  0
  145.9584  133.4378  152.7889 H   0  0  0  0  0  0  0  0  0  0  0  0
  145.9012  134.7726  150.0326 H   0  0  0  0  0  0  0  0  0  0  0  0
  146.9617  133.4410  150.6026 H   0  0  0  0  0  0  0  0  0  0  0  0
  143.7477  134.0372  148.9348 H   0  0  0  0  0  0  0  0  0  0  0  0
  144.7284  132.7280  148.3297 H   0  0  0  0  0  0  0  0  0  0  0  0
  142.1619  132.6886  149.2258 H   0  0  0  0  0  0  0  0  0  0  0  0
  145.3811  131.2890  151.8399 H   0  0  0  0  0  0  0  0  0  0  0  0
  144.2541  130.8010  150.6056 H   0  0  0  0  0  0  0  0  0  0  0  0
  146.9810  131.0222  150.4851 H   0  0  0  0  0  0  0  0  0  0  0  0
  143.6168  133.0711  152.3962 H   0  0  0  0  0  0  0  0  0  0  0  0
  143.4904  134.5040  151.3243 H   0  0  0  0  0  0  0  0  0  0  0  0
  147.8297  139.2765  157.3692 H   0  0  0  0  0  0  0  0  0  0  0  0
  148.8889  139.4512  155.9602 H   0  0  0  0  0  0  0  0  0  0  0  0
  146.7276  141.3537  156.9415 H   0  0  0  0  0  0  0  0  0  0  0  0
  147.7577  142.6756  158.5454 H   0  0  0  0  0  0  0  0  0  0  0  0
  148.8468  141.3146  158.7163 H   0  0  0  0  0  0  0  0  0  0  0  0
  149.6688  144.2310  158.1899 H   0  0  0  0  0  0  0  0  0  0  0  0
  149.8710  143.3485  159.6916 H   0  0  0  0  0  0  0  0  0  0  0  0
  150.9968  143.5683  156.2763 H   0  0  0  0  0  0  0  0  0  0  0  0
  152.1135  142.2293  156.4564 H   0  0  0  0  0  0  0  0  0  0  0  0
  150.2474  140.6113  156.6755 H   0  0  0  0  0  0  0  0  0  0  0  0
  150.0762  141.5393  155.1961 H   0  0  0  0  0  0  0  0  0  0  0  0
  148.5374  142.9556  156.3090 H   0  0  0  0  0  0  0  0  0  0  0  0
  1  2  1  0  0  0  0
  1 30  1  0  0  0  0
  1 31  1  0  0  0  0
  1 32  1  0  0  0  0
  2 23  1  0  0  0  0
  2  3  1  0  0  0  0
  2 33  1  0  0  0  0
  3  4  1  0  0  0  0
  3 34  1  0  0  0  0
  3 35  1  0  0  0  0
  4  5  1  0  0  0  0
  4 22  1  0  0  0  0
  5 10  1  0  0  0  0
  5  6  2  0  0  0  0
  6  7  1  0  0  0  0
  7  8  2  0  0  0  0
  7 36  1  0  0  0  0
  8  9  1  0  0  0  0
  9 13  1  0  0  0  0
  9 10  2  0  0  0  0
 10 11  1  0  0  0  0
 11 12  2  0  0  0  0
 12 13  1  0  0  0  0
 12 37  1  0  0  0  0
 13 14  1  0  0  0  0
 14 21  1  0  0  0  0
 14 15  1  0  0  0  0
 14 38  1  0  0  0  0
 15 16  1  0  0  0  0
 15 39  1  0  0  0  0
 15 40  1  0  0  0  0
 16 17  1  0  0  0  0
 16 19  1  0  0  0  0
 16 21  1  0  0  0  0
 17 18  1  0  0  0  0
 17 41  1  0  0  0  0
 17 42  1  0  0  0  0
 18 43  1  0  0  0  0
 19 20  1  0  0  0  0
 19 44  1  0  0  0  0
 19 45  1  0  0  0  0
 20 46  1  0  0  0  0
 21 47  1  0  0  0  0
 21 48  1  0  0  0  0
 22 23  1  0  0  0  0
 22 49  1  0  0  0  0
 22 50  1  0  0  0  0
 23 24  1  0  0  0  0
 23 51  1  0  0  0  0
 24 29  1  0  0  0  0
 24 25  1  0  0  0  0
 24 60  1  0  0  0  0
 25 26  1  0  0  0  0
 25 52  1  0  0  0  0
 25 53  1  0  0  0  0
 26 27  1  0  0  0  0
 26 54  1  0  0  0  0
 26 55  1  0  0  0  0
 27 28  1  0  0  0  0
 28 29  1  0  0  0  0
 28 56  1  0  0  0  0
 28 57  1  0  0  0  0
 29 58  1  0  0  0  0
 29 59  1  0  0  0  0
M  CHG  1  24   1
M  END
> <s_m_source_file>
AV-unprocessed.smi

> <i_m_source_file_index>
149

> <i_lp_mmshare_version>
43012

> <i_f3d_flags>
0

> <s_epik_input>
W0NIMl0xW0NIMl1PW0NIMl1bQ0gyXU4xW0NAQEhdMltDSDJdTihbQ0gyXVtDQEhdMltDSDNdKWMobltjSF1uMyljKGMzNCluW2NIXW40W0NIXShbQ0gyXTUpW0NIMl1DNShbQ0gyXVtPSF0pW0NIMl1bT0hd

> <s_epik_cmdline>
J2VwaWtfcHl0aG9uJywgJy1waCcsICc3LjAnLCAnLXRuJywgJzgnLCAnLW1hJywgJzIwMCcsICctbWV0YWxfYmluZGluZycsICctaW1hZScsICc8aW5maWxlLm1hZT4nLCAnLW9tYWUnLCAnPG91dGZpbGUubWFlPic=

> <r_lp_tautomer_probability>
1

> <r_epik_Ionization_Penalty>
0.404847

> <r_epik_Ionization_Penalty_Charging>
0.404623

> <r_epik_Ionization_Penalty_Neutral>
0.000224096

> <r_epik_State_Penalty>
0.238803

> <r_epik_Charging_Adjusted_Penalty>
0.643425

> <i_epik_Tot_Q>
1

> <i_epik_Tot_abs_Q>
1

> <r_epik_Metal_State_Penalty>
0.239083

> <b_epik_Metal_Only>
0

> <s_lp_Force_Field>
OPLS_2005

> <r_lp_Energy>
70.5457

> <b_lp_Chiralities_Consistent>
1

> <s_lp_Variant>
AV-unprocessed.smi:149-2

> <Gold.Version>
5.8.1

> <Gold.Id.Protein>
6NUR|6NUR_protein|mol2

> <Gold.PLP.Fitness>
51.3122

> <Gold.PLP.PLP>
-35.7615

> <Gold.PLP.part.hbond>
-4.9861

> <Gold.PLP.part.metal>
0.0000

> <Gold.PLP.part.buried>
-3.7700

> <Gold.PLP.part.nonpolar>
-27.3811

> <Gold.PLP.part.repulsive>
0.3928

> <Gold.PLP.ligand.clash>
0.0000

> <Gold.PLP.ligand.torsion>
0.9949

> <Gold.PLP.Chemscore.Hbond>
4.6033

> <Gold.PLP.Chemscore.CHOScore>
0.9952

> <Gold.PLP.Chemscore.Metal>
0.0000

> <Gold.Chemscore.Hbonds>
donor molecule, donor type, donor heavy atom, donor atom, acceptor molecule, acceptor atom, score
      L1  H    18    43       P1 10186  0.84
      L1  H    20    46       P1 10747  0.80
      L1  H    24    60       P1  8028  2.00
      P1  H 10785 10796       L1    18  0.91
      L1  C    12    37       P1 10171  1.00

> <Gold.PLP.Chemscore.Internal.Correction>
0.7452

> <Gold.Rescore>
     Score         DG    S(hbond)    S(metal)    S(lipo)     H(rot)  DE(clash)    DE(int)     intcor
     15.73     -19.19       3.33        0.00      89.62       3.09       0.34       3.12       ----

> <Gold.Chemscore.Fitness>
15.7313

> <Gold.Chemscore.DG>
-19.1905

> <Gold.Chemscore.ZeroCoef>
-5.4800

> <Gold.Chemscore.Hbond>
3.3347

> <Gold.Chemscore.Metal>
0.0000

> <Gold.Chemscore.Lipo>
89.6235

> <Gold.Chemscore.Internal_Hbond>
0.0000

> <Gold.Chemscore.DEClash>
0.3420

> <Gold.Chemscore.DEInternal>
3.1172

> <Gold.Chemscore.Rot>
3.0912

> <Gold.Chemscore.Internal.Correction>
   9.000000E+99

> <Gold.Chemscore.Hbonds>
donor molecule, donor type, donor heavy atom, donor atom, acceptor molecule, acceptor atom, score
      L1  H    18    43       P1 10186  0.82
      L1  H    20    46       P1 10747  0.76
      L1  H    24    60       P1  8028  0.92
      P1  H 10785 10796       L1    18  0.84

> <Gold.Chemscore.Hbond.Weighted>
-11.1380

> <Gold.Chemscore.Metal.Weighted>
-0.0000

> <Gold.Chemscore.Lipo.Weighted>
-10.4859

> <Gold.Chemscore.Internal_Hbond.Weighted>
0.0000

> <Gold.Chemscore.DEClash.Weighted>
0.3420

> <Gold.Chemscore.DEInternal.Weighted>
3.1172

> <Gold.Chemscore.Rot.Weighted>
7.9135

> <Gold.Chemscore.Internal.Correction.Weighted>
   9.000000E+99

> <Gold.Protein.RotatedTorsions>
[ 6907 6896 6895 6894 ] final -149.94 input  -60.11 | X-H torsion
[ 7974 7965 7964 7962 ] final  154.95 input  175.53 | X-H torsion
[ 8008 7997 7996 7995 ] final    4.03 input   59.86 | X-H torsion
[ 10167 10162 10161 10158 ] final   16.62 input  -65.29 | X-H torsion
[ 10718 10713 10712 10709 ] final   69.18 input   66.30 | X-H torsion
[ 10763 10752 10751 10750 ] final   -9.72 input  -60.55 | X-H torsion
[ 11005 11000 10999 10996 ] final   50.55 input  -57.11 | X-H torsion

> <Gold.Protein.ActiveResidues>
 VAL166  LYS551  ARG553  GLY616  TRP617  ASP618  TYR619  PRO620  LYS621  CYS622 
 ASP623  PHE694  ASN695  SER759  ASP760  ASP761  ALA762  ILE779  LEU786  VAL792 
 PHE793  MET794  SER795  GLU796  ALA797  LYS798  CYS799  TRP800  GLU811  SER814 

> <Gold.Protein.RotatedAtoms>
  151.1914  133.4665  159.2594 H   0  0  0  0  0  0  0  0  0  0  0  0  # atno 6907 bound_to 6896
  151.1160  135.0053  159.8526 H   0  0  0  0  0  0  0  0  0  0  0  0  # atno 6908 bound_to 6896
  152.5453  134.1829  159.8696 H   0  0  0  0  0  0  0  0  0  0  0  0  # atno 6909 bound_to 6896
  144.8056  139.7002  143.6163 H   0  0  0  0  0  0  0  0  0  0  0  0  # atno 7974 bound_to 7965
  154.7109  140.2692  155.6630 H   0  0  0  0  0  0  0  0  0  0  0  0  # atno 8008 bound_to 7997
  156.2795  140.2753  156.1675 H   0  0  0  0  0  0  0  0  0  0  0  0  # atno 8009 bound_to 7997
  155.0636  140.0371  157.2575 H   0  0  0  0  0  0  0  0  0  0  0  0  # atno 8010 bound_to 7997
  140.5785  143.9027  150.6769 H   0  0  0  0  0  0  0  0  0  0  0  0  # atno 10167 bound_to 10162
  157.6332  130.9412  150.0479 H   0  0  0  0  0  0  0  0  0  0  0  0  # atno 10718 bound_to 10713
  153.4588  135.7016  153.6063 H   0  0  0  0  0  0  0  0  0  0  0  0  # atno 10763 bound_to 10752
  153.4366  135.3790  155.2203 H   0  0  0  0  0  0  0  0  0  0  0  0  # atno 10764 bound_to 10752
  154.8727  135.3964  154.4010 H   0  0  0  0  0  0  0  0  0  0  0  0  # atno 10765 bound_to 10752
  140.1008  134.5084  155.8764 H   0  0  0  0  0  0  0  0  0  0  0  0  # atno 11005 bound_to 11000
  146.2346  139.5881  142.9532 LP  0  0  0  0  0  0  0  0  0  0  0  0  # atno 17320 bound_to 7965
  145.5447  141.0418  143.2311 LP  0  0  0  0  0  0  0  0  0  0  0  0  # atno 17321 bound_to 7965
  140.2520  143.3586  152.1397 LP  0  0  0  0  0  0  0  0  0  0  0  0  # atno 17342 bound_to 10162
  139.5156  144.6965  151.5615 LP  0  0  0  0  0  0  0  0  0  0  0  0  # atno 17343 bound_to 10162
  156.1550  130.3643  149.9382 LP  0  0  0  0  0  0  0  0  0  0  0  0  # atno 17370 bound_to 10713
  156.7393  130.9073  151.3631 LP  0  0  0  0  0  0  0  0  0  0  0  0  # atno 17371 bound_to 10713
  141.2105  133.6695  156.6514 LP  0  0  0  0  0  0  0  0  0  0  0  0  # atno 17394 bound_to 11000
  140.3222  134.7998  157.4261 LP  0  0  0  0  0  0  0  0  0  0  0  0  # atno 17395 bound_to 11000

$$$$
