AV-unprocessed.smi:356|AV-procd|sdf|2408|dock4
  -GOLD-   2262022343D 1   1.00000     0.00000
 Structure written by MMmdl.
 41 43  0  0  0  0  0  0  0  0  1 V2000
  154.6426  139.3225  161.5455 C   0  0  0  0  0  0  0  0  0  0  0  0
  153.9290  140.6073  161.2656 C   0  0  0  0  0  0  0  0  0  0  0  0
  153.8161  141.5718  162.1789 N   0  0  0  0  0  0  0  0  0  0  0  0
  153.0986  142.5423  161.5062 C   0  0  0  0  0  0  0  0  0  0  0  0
  152.6540  143.8148  161.9313 C   0  0  0  0  0  0  0  0  0  0  0  0
  151.9263  144.6460  161.0548 C   0  0  0  0  0  0  0  0  0  0  0  0
  151.6326  144.2179  159.7439 C   0  0  0  0  0  0  0  0  0  0  0  0
  152.0651  142.9534  159.3004 C   0  0  0  0  0  0  0  0  0  0  0  0
  152.7917  142.1272  160.1788 C   0  0  0  0  0  0  0  0  0  0  0  0
  153.3540  140.8592  160.0640 N   0  0  0  0  0  0  0  0  0  0  0  0
  153.3218  139.9953  158.8921 C   0  0  0  0  0  0  0  0  0  0  0  0
  151.8955  139.8019  158.3365 C   0  0  2  0  0  0  0  0  0  0  0  0
  151.2312  138.8046  159.0856 O   0  0  0  0  0  0  0  0  0  0  0  0
  151.8869  139.3660  156.8576 C   0  0  0  0  0  0  0  0  0  0  0  0
  150.7718  139.8747  156.0574 N   0  0  0  0  0  0  0  0  0  0  0  0
  150.7520  139.3269  154.7024 C   0  0  0  0  0  0  0  0  0  0  0  0
  149.5902  139.8963  153.8695 C   0  0  0  0  0  0  0  0  0  0  0  0
  149.6695  141.3175  153.8428 O   0  0  0  0  0  0  0  0  0  0  0  0
  149.6427  141.8924  155.1448 C   0  0  0  0  0  0  0  0  0  0  0  0
  150.8075  141.3313  155.9787 C   0  0  0  0  0  0  0  0  0  0  0  0
  155.0579  139.3277  162.5537 H   0  0  0  0  0  0  0  0  0  0  0  0
  155.4605  139.1798  160.8398 H   0  0  0  0  0  0  0  0  0  0  0  0
  153.9539  138.4816  161.4634 H   0  0  0  0  0  0  0  0  0  0  0  0
  152.8743  144.1517  162.9335 H   0  0  0  0  0  0  0  0  0  0  0  0
  151.5926  145.6171  161.3905 H   0  0  0  0  0  0  0  0  0  0  0  0
  151.0757  144.8614  159.0786 H   0  0  0  0  0  0  0  0  0  0  0  0
  151.8432  142.6239  158.2964 H   0  0  0  0  0  0  0  0  0  0  0  0
  153.9731  140.4235  158.1301 H   0  0  0  0  0  0  0  0  0  0  0  0
  153.7626  139.0327  159.1540 H   0  0  0  0  0  0  0  0  0  0  0  0
  151.3194  140.7176  158.4618 H   0  0  0  0  0  0  0  0  0  0  0  0
  150.5133  139.2061  159.5505 H   0  0  0  0  0  0  0  0  0  0  0  0
  152.8245  139.6944  156.4064 H   0  0  0  0  0  0  0  0  0  0  0  0
  151.8978  138.2761  156.8032 H   0  0  0  0  0  0  0  0  0  0  0  0
  151.6965  139.5442  154.2013 H   0  0  0  0  0  0  0  0  0  0  0  0
  150.6547  138.2429  154.7315 H   0  0  0  0  0  0  0  0  0  0  0  0
  149.6338  139.5176  152.8484 H   0  0  0  0  0  0  0  0  0  0  0  0
  148.6301  139.5863  154.2850 H   0  0  0  0  0  0  0  0  0  0  0  0
  149.7253  142.9757  155.0578 H   0  0  0  0  0  0  0  0  0  0  0  0
  148.6860  141.6807  155.6247 H   0  0  0  0  0  0  0  0  0  0  0  0
  150.7682  141.7572  156.9817 H   0  0  0  0  0  0  0  0  0  0  0  0
  151.7525  141.6550  155.5392 H   0  0  0  0  0  0  0  0  0  0  0  0
  1  2  1  0  0  0  0
  1 21  1  0  0  0  0
  1 22  1  0  0  0  0
  1 23  1  0  0  0  0
  2 10  1  0  0  0  0
  2  3  2  0  0  0  0
  3  4  1  0  0  0  0
  4  9  2  0  0  0  0
  4  5  1  0  0  0  0
  5  6  2  0  0  0  0
  5 24  1  0  0  0  0
  6  7  1  0  0  0  0
  6 25  1  0  0  0  0
  7  8  2  0  0  0  0
  7 26  1  0  0  0  0
  8  9  1  0  0  0  0
  8 27  1  0  0  0  0
  9 10  1  0  0  0  0
 10 11  1  0  0  0  0
 11 12  1  0  0  0  0
 11 28  1  0  0  0  0
 11 29  1  0  0  0  0
 12 13  1  0  0  0  0
 12 14  1  0  0  0  0
 12 30  1  0  0  0  0
 13 31  1  0  0  0  0
 14 15  1  0  0  0  0
 14 32  1  0  0  0  0
 14 33  1  0  0  0  0
 15 20  1  0  0  0  0
 15 16  1  0  0  0  0
 16 17  1  0  0  0  0
 16 34  1  0  0  0  0
 16 35  1  0  0  0  0
 17 18  1  0  0  0  0
 17 36  1  0  0  0  0
 17 37  1  0  0  0  0
 18 19  1  0  0  0  0
 19 20  1  0  0  0  0
 19 38  1  0  0  0  0
 19 39  1  0  0  0  0
 20 40  1  0  0  0  0
 20 41  1  0  0  0  0
M  END
> <s_m_source_file>
AV-unprocessed.smi

> <i_m_source_file_index>
356

> <i_lp_mmshare_version>
43012

> <i_f3d_flags>
0

> <s_epik_input>
W2NIXTFbY0hdW2NIXVtjSF1jKGMxMiluKGMobjIpW0NIM10pW0NIMl1bQ0BIXShbT0hdKVtDSDJdTjNbQ0gyXVtDSDJdT1tDSDJdW0NIMl0z

> <s_epik_cmdline>
J2VwaWtfcHl0aG9uJywgJy1waCcsICc3LjAnLCAnLXRuJywgJzgnLCAnLW1hJywgJzIwMCcsICctbWV0YWxfYmluZGluZycsICctaW1hZScsICc8aW5maWxlLm1hZT4nLCAnLW9tYWUnLCAnPG91dGZpbGUubWFlPic=

> <r_epik_Ionization_Penalty>
0.355661

> <r_epik_Ionization_Penalty_Charging>
0

> <r_epik_Ionization_Penalty_Neutral>
0.355661

> <r_epik_State_Penalty>
0.325123

> <r_epik_Charging_Adjusted_Penalty>
0.325123

> <i_epik_Tot_Q>
0

> <i_epik_Tot_abs_Q>
0

> <r_epik_Metal_State_Penalty>
0.239925

> <b_epik_Metal_Only>
0

> <s_lp_Force_Field>
OPLS_2005

> <r_lp_Energy>
27.9323

> <b_lp_Chiralities_Consistent>
1

> <s_lp_Variant>
AV-unprocessed.smi:356-1

> <Gold.Version>
5.8.1

> <Gold.Id.Protein>
6NUR|6NUR_protein|mol2

> <Gold.PLP.Fitness>
45.7713

> <Gold.PLP.PLP>
-44.1270

> <Gold.PLP.part.hbond>
-2.2817

> <Gold.PLP.part.metal>
0.0000

> <Gold.PLP.part.buried>
-1.3958

> <Gold.PLP.part.nonpolar>
-40.4016

> <Gold.PLP.part.repulsive>
1.7429

> <Gold.PLP.ligand.clash>
0.0000

> <Gold.PLP.ligand.torsion>
0.7348

> <Gold.PLP.Chemscore.Hbond>
1.0224

> <Gold.PLP.Chemscore.CHOScore>
0.0000

> <Gold.PLP.Chemscore.Metal>
0.0000

> <Gold.Chemscore.Hbonds>
donor molecule, donor type, donor heavy atom, donor atom, acceptor molecule, acceptor atom, score
      P1  H  7989  7998       L1    18  0.03
      P1  H  8011  8017       L1    18  0.78

> <Gold.PLP.Chemscore.Internal.Correction>
0.0466

> <Gold.Rescore>
     Score         DG    S(hbond)    S(metal)    S(lipo)     H(rot)  DE(clash)    DE(int)     intcor
     14.08     -17.53       0.83        0.00     122.91       1.99       2.84       0.61       ----

> <Gold.Chemscore.Fitness>
14.0832

> <Gold.Chemscore.DG>
-17.5325

> <Gold.Chemscore.ZeroCoef>
-5.4800

> <Gold.Chemscore.Hbond>
0.8255

> <Gold.Chemscore.Metal>
0.0000

> <Gold.Chemscore.Lipo>
122.9081

> <Gold.Chemscore.Internal_Hbond>
0.0000

> <Gold.Chemscore.DEClash>
2.8419

> <Gold.Chemscore.DEInternal>
0.6074

> <Gold.Chemscore.Rot>
1.9863

> <Gold.Chemscore.Internal.Correction>
   9.000000E+99

> <Gold.Chemscore.Hbonds>
donor molecule, donor type, donor heavy atom, donor atom, acceptor molecule, acceptor atom, score
      P1  H  8011  8017       L1    18  0.78

> <Gold.Chemscore.Hbond.Weighted>
-2.7573

> <Gold.Chemscore.Metal.Weighted>
-0.0000

> <Gold.Chemscore.Lipo.Weighted>
-14.3803

> <Gold.Chemscore.Internal_Hbond.Weighted>
0.0000

> <Gold.Chemscore.DEClash.Weighted>
2.8419

> <Gold.Chemscore.DEInternal.Weighted>
0.6074

> <Gold.Chemscore.Rot.Weighted>
5.0850

> <Gold.Chemscore.Internal.Correction.Weighted>
   9.000000E+99

> <Gold.Protein.RotatedTorsions>
[ 6907 6896 6895 6894 ] final   30.47 input  -60.11 | X-H torsion
[ 7974 7965 7964 7962 ] final  -29.72 input  175.53 | X-H torsion
[ 8008 7997 7996 7995 ] final   11.45 input   59.86 | X-H torsion
[ 10167 10162 10161 10158 ] final  -73.22 input  -65.29 | X-H torsion
[ 10718 10713 10712 10709 ] final   59.36 input   66.30 | X-H torsion
[ 10763 10752 10751 10750 ] final  -11.55 input  -60.55 | X-H torsion
[ 11005 11000 10999 10996 ] final   80.71 input  -57.11 | X-H torsion

> <Gold.Protein.ActiveResidues>
 VAL166  LYS551  ARG553  GLY616  TRP617  ASP618  TYR619  PRO620  LYS621  CYS622 
 ASP623  PHE694  ASN695  SER759  ASP760  ASP761  ALA762  ILE779  LEU786  VAL792 
 PHE793  MET794  SER795  GLU796  ALA797  LYS798  CYS799  TRP800  GLU811  SER814 

> <Gold.Protein.RotatedAtoms>
  152.0465  134.9680  160.0574 H   0  0  0  0  0  0  0  0  0  0  0  0  # atno 6907 bound_to 6896
  152.1098  133.4289  159.4634 H   0  0  0  0  0  0  0  0  0  0  0  0  # atno 6908 bound_to 6896
  150.6843  134.2581  159.4581 H   0  0  0  0  0  0  0  0  0  0  0  0  # atno 6909 bound_to 6896
  146.1195  140.5449  142.8741 H   0  0  0  0  0  0  0  0  0  0  0  0  # atno 7974 bound_to 7965
  154.8070  140.2862  155.5880 H   0  0  0  0  0  0  0  0  0  0  0  0  # atno 8008 bound_to 7997
  156.2984  140.2575  156.2880 H   0  0  0  0  0  0  0  0  0  0  0  0  # atno 8009 bound_to 7997
  154.9491  140.0379  157.2124 H   0  0  0  0  0  0  0  0  0  0  0  0  # atno 8010 bound_to 7997
  140.5128  143.2342  151.7564 H   0  0  0  0  0  0  0  0  0  0  0  0  # atno 10167 bound_to 10162
  157.5669  130.8878  149.9202 H   0  0  0  0  0  0  0  0  0  0  0  0  # atno 10718 bound_to 10713
  153.4855  135.7017  153.5914 H   0  0  0  0  0  0  0  0  0  0  0  0  # atno 10763 bound_to 10752
  153.4109  135.3849  155.2049 H   0  0  0  0  0  0  0  0  0  0  0  0  # atno 10764 bound_to 10752
  154.8719  135.3904  154.4309 H   0  0  0  0  0  0  0  0  0  0  0  0  # atno 10765 bound_to 10752
  139.9124  134.7941  156.1945 H   0  0  0  0  0  0  0  0  0  0  0  0  # atno 11005 bound_to 11000
  144.7584  140.5364  143.6752 LP  0  0  0  0  0  0  0  0  0  0  0  0  # atno 17320 bound_to 7965
  145.5495  139.1476  143.3402 LP  0  0  0  0  0  0  0  0  0  0  0  0  # atno 17321 bound_to 7965
  139.4901  144.4367  151.9811 LP  0  0  0  0  0  0  0  0  0  0  0  0  # atno 17342 bound_to 10162
  140.3460  144.3147  150.5958 LP  0  0  0  0  0  0  0  0  0  0  0  0  # atno 17343 bound_to 10162
  156.0717  130.3684  150.0762 LP  0  0  0  0  0  0  0  0  0  0  0  0  # atno 17370 bound_to 10713
  156.8920  130.9591  151.3587 LP  0  0  0  0  0  0  0  0  0  0  0  0  # atno 17371 bound_to 10713
  141.0563  133.6863  156.1867 LP  0  0  0  0  0  0  0  0  0  0  0  0  # atno 17394 bound_to 11000
  140.6731  134.4847  157.5587 LP  0  0  0  0  0  0  0  0  0  0  0  0  # atno 17395 bound_to 11000

$$$$
