AV-unprocessed.smi:3232|AV-procd|sdf|12343|dock6
  -GOLD-   2272018203D 1   1.00000     0.00000
 Structure written by MMmdl.
 40 41  0  0  0  0  0  0  0  0  2 V2000
  153.1386  142.4161  162.0446 C   0  0  0  0  0  0  0  0  0  0  0  0
  152.2081  143.4002  161.3235 C   0  0  0  0  0  0  0  0  0  0  0  0
  152.4501  143.4315  159.8608 N   0  3  2  0  0  0  0  0  0  0  0  0
  152.1730  144.7322  159.2147 C   0  0  0  0  0  0  0  0  0  0  0  0
  151.9062  144.3988  157.7525 C   0  0  0  0  0  0  0  0  0  0  0  0
  151.1604  143.0729  157.8397 C   0  0  0  0  0  0  0  0  0  0  0  0
  151.7234  142.3840  159.0995 C   0  0  1  0  0  0  0  0  0  0  0  0
  152.6632  141.1993  158.7902 C   0  0  0  0  0  0  0  0  0  0  0  0
  151.9282  139.9530  158.6120 N   0  0  0  0  0  0  0  0  0  0  0  0
  152.3725  138.8891  157.9239 C   0  0  0  0  0  0  0  0  0  0  0  0
  153.4282  138.8978  157.2896 O   0  0  0  0  0  0  0  0  0  0  0  0
  151.4961  137.6269  157.9876 C   0  0  1  0  0  0  0  0  0  0  0  0
  150.1869  137.8386  158.7747 C   0  0  0  0  0  0  0  0  0  0  0  0
  151.2441  137.1234  156.6420 N   0  0  0  0  0  0  0  0  0  0  0  0
  151.1055  135.8694  156.2059 C   0  0  0  0  0  0  0  0  0  0  0  0
  150.9401  135.7705  154.8944 N   0  0  0  0  0  0  0  0  0  0  0  0
  150.9924  137.0932  154.5571 C   0  0  0  0  0  0  0  0  0  0  0  0
  151.1852  137.9450  155.5639 N   0  0  0  0  0  0  0  0  0  0  0  0
  152.9022  142.3726  163.1080 H   0  0  0  0  0  0  0  0  0  0  0  0
  154.1844  142.7100  161.9548 H   0  0  0  0  0  0  0  0  0  0  0  0
  153.0353  141.4081  161.6415 H   0  0  0  0  0  0  0  0  0  0  0  0
  151.1758  143.0951  161.5001 H   0  0  0  0  0  0  0  0  0  0  0  0
  152.3144  144.4022  161.7422 H   0  0  0  0  0  0  0  0  0  0  0  0
  151.2822  145.1841  159.6543 H   0  0  0  0  0  0  0  0  0  0  0  0
  153.0024  145.4295  159.3370 H   0  0  0  0  0  0  0  0  0  0  0  0
  151.3383  145.1732  157.2359 H   0  0  0  0  0  0  0  0  0  0  0  0
  152.8499  144.2604  157.2231 H   0  0  0  0  0  0  0  0  0  0  0  0
  150.0956  143.2658  157.9783 H   0  0  0  0  0  0  0  0  0  0  0  0
  151.2631  142.4825  156.9285 H   0  0  0  0  0  0  0  0  0  0  0  0
  150.8791  142.0269  159.6925 H   0  0  0  0  0  0  0  0  0  0  0  0
  153.2242  141.3954  157.8759 H   0  0  0  0  0  0  0  0  0  0  0  0
  153.4011  141.0776  159.5852 H   0  0  0  0  0  0  0  0  0  0  0  0
  151.0460  139.8695  159.0964 H   0  0  0  0  0  0  0  0  0  0  0  0
  152.0730  136.8649  158.5141 H   0  0  0  0  0  0  0  0  0  0  0  0
  150.3898  138.1501  159.8000 H   0  0  0  0  0  0  0  0  0  0  0  0
  149.6103  136.9144  158.8244 H   0  0  0  0  0  0  0  0  0  0  0  0
  149.5521  138.5986  158.3168 H   0  0  0  0  0  0  0  0  0  0  0  0
  151.1376  135.0099  156.8596 H   0  0  0  0  0  0  0  0  0  0  0  0
  150.8958  137.4381  153.5382 H   0  0  0  0  0  0  0  0  0  0  0  0
  153.4318  143.2448  159.7138 H   0  0  0  0  0  0  0  0  0  0  0  0
  1  2  1  0  0  0  0
  1 19  1  0  0  0  0
  1 20  1  0  0  0  0
  1 21  1  0  0  0  0
  2  3  1  0  0  0  0
  2 22  1  0  0  0  0
  2 23  1  0  0  0  0
  3  7  1  0  0  0  0
  3  4  1  0  0  0  0
  3 40  1  0  0  0  0
  4  5  1  0  0  0  0
  4 24  1  0  0  0  0
  4 25  1  0  0  0  0
  5  6  1  0  0  0  0
  5 26  1  0  0  0  0
  5 27  1  0  0  0  0
  6  7  1  0  0  0  0
  6 28  1  0  0  0  0
  6 29  1  0  0  0  0
  7  8  1  0  0  0  0
  7 30  1  0  0  0  0
  8  9  1  0  0  0  0
  8 31  1  0  0  0  0
  8 32  1  0  0  0  0
  9 10  1  0  0  0  0
  9 33  1  0  0  0  0
 10 11  2  0  0  0  0
 10 12  1  0  0  0  0
 12 13  1  0  0  0  0
 12 14  1  0  0  0  0
 12 34  1  0  0  0  0
 13 35  1  0  0  0  0
 13 36  1  0  0  0  0
 13 37  1  0  0  0  0
 14 18  1  0  0  0  0
 14 15  1  0  0  0  0
 15 16  2  0  0  0  0
 15 38  1  0  0  0  0
 16 17  1  0  0  0  0
 17 18  2  0  0  0  0
 17 39  1  0  0  0  0
M  CHG  1   3   1
M  END
> <s_m_source_file>
AV-unprocessed.smi

> <i_m_source_file_index>
3232

> <i_lp_mmshare_version>
43012

> <i_f3d_flags>
0

> <s_epik_input>
W0NIM11bQ0gyXU4xW0NIMl1bQ0gyXVtDSDJdW0NASF0xW0NIMl1bTkhdQyg9TylbQ0BIXShbQ0gzXSluMltjSF1uW2NIXW4y

> <s_epik_cmdline>
J2VwaWtfcHl0aG9uJywgJy1waCcsICc3LjAnLCAnLXRuJywgJzgnLCAnLW1hJywgJzIwMCcsICctbWV0YWxfYmluZGluZycsICctaW1hZScsICc8aW5maWxlLm1hZT4nLCAnLW9tYWUnLCAnPG91dGZpbGUubWFlPic=

> <r_lp_tautomer_probability>
1

> <r_epik_Ionization_Penalty>
0.00177695

> <r_epik_Ionization_Penalty_Charging>
0.00176881

> <r_epik_Ionization_Penalty_Neutral>
8.13528e-06

> <r_epik_State_Penalty>
0.00119827

> <r_epik_Charging_Adjusted_Penalty>
0.00296709

> <i_epik_Tot_Q>
1

> <i_epik_Tot_abs_Q>
1

> <r_epik_Metal_State_Penalty>
-0

> <b_epik_Metal_Only>
0

> <s_lp_Force_Field>
OPLS_2005

> <r_lp_Energy>
32.1761

> <b_lp_Chiralities_Consistent>
1

> <s_lp_Variant>
AV-unprocessed.smi:3232-5

> <Gold.Version>
5.8.1

> <Gold.Id.Protein>
6NUR|6NUR_protein|mol2

> <Gold.PLP.Fitness>
39.6322

> <Gold.PLP.PLP>
-35.7727

> <Gold.PLP.part.hbond>
-2.0000

> <Gold.PLP.part.metal>
0.0000

> <Gold.PLP.part.buried>
-6.2353

> <Gold.PLP.part.nonpolar>
-28.6299

> <Gold.PLP.part.repulsive>
0.3349

> <Gold.PLP.ligand.clash>
0.2177

> <Gold.PLP.ligand.torsion>
1.6050

> <Gold.PLP.Chemscore.Hbond>
1.3750

> <Gold.PLP.Chemscore.CHOScore>
1.0070

> <Gold.PLP.Chemscore.Metal>
0.0000

> <Gold.Chemscore.Hbonds>
donor molecule, donor type, donor heavy atom, donor atom, acceptor molecule, acceptor atom, score
      P1  H  7997  8010       L1    11  1.00
      P1  H 10752 10764       L1    16  0.33
      L1  C    17    39       P1  7948  0.11
      L1  C    17    39       P1  7949  0.87

> <Gold.PLP.Chemscore.Internal.Correction>
0.1413

> <Gold.Rescore>
     Score         DG    S(hbond)    S(metal)    S(lipo)     H(rot)  DE(clash)    DE(int)     intcor
     10.60     -12.87       0.98        0.00      89.73       2.49       0.08       2.18       ----

> <Gold.Chemscore.Fitness>
10.6029

> <Gold.Chemscore.DG>
-12.8661

> <Gold.Chemscore.ZeroCoef>
-5.4800

> <Gold.Chemscore.Hbond>
0.9754

> <Gold.Chemscore.Metal>
0.0000

> <Gold.Chemscore.Lipo>
89.7264

> <Gold.Chemscore.Internal_Hbond>
0.0000

> <Gold.Chemscore.DEClash>
0.0801

> <Gold.Chemscore.DEInternal>
2.1831

> <Gold.Chemscore.Rot>
2.4882

> <Gold.Chemscore.Internal.Correction>
   9.000000E+99

> <Gold.Chemscore.Hbonds>
donor molecule, donor type, donor heavy atom, donor atom, acceptor molecule, acceptor atom, score
      P1  H  7997  8010       L1    11  0.99

> <Gold.Chemscore.Hbond.Weighted>
-3.2578

> <Gold.Chemscore.Metal.Weighted>
-0.0000

> <Gold.Chemscore.Lipo.Weighted>
-10.4980

> <Gold.Chemscore.Internal_Hbond.Weighted>
0.0000

> <Gold.Chemscore.DEClash.Weighted>
0.0801

> <Gold.Chemscore.DEInternal.Weighted>
2.1831

> <Gold.Chemscore.Rot.Weighted>
6.3697

> <Gold.Chemscore.Internal.Correction.Weighted>
   9.000000E+99

> <Gold.Protein.RotatedTorsions>
[ 6907 6896 6895 6894 ] final  131.55 input  -60.11 | X-H torsion
[ 7974 7965 7964 7962 ] final   10.20 input  175.53 | X-H torsion
[ 8008 7997 7996 7995 ] final   50.25 input   59.86 | X-H torsion
[ 10167 10162 10161 10158 ] final  -86.34 input  -65.29 | X-H torsion
[ 10718 10713 10712 10709 ] final   16.35 input   66.30 | X-H torsion
[ 10763 10752 10751 10750 ] final  -57.97 input  -60.55 | X-H torsion
[ 11005 11000 10999 10996 ] final -129.40 input  -57.11 | X-H torsion

> <Gold.Protein.ActiveResidues>
 VAL166  LYS551  ARG553  GLY616  TRP617  ASP618  TYR619  PRO620  LYS621  CYS622 
 ASP623  PHE694  ASN695  SER759  ASP760  ASP761  ALA762  ILE779  LEU786  VAL792 
 PHE793  MET794  SER795  GLU796  ALA797  LYS798  CYS799  TRP800  GLU811  SER814 

> <Gold.Protein.RotatedAtoms>
  152.3415  133.6072  159.5879 H   0  0  0  0  0  0  0  0  0  0  0  0  # atno 6907 bound_to 6896
  150.7481  133.9715  159.3556 H   0  0  0  0  0  0  0  0  0  0  0  0  # atno 6908 bound_to 6896
  151.7578  135.0818  160.0392 H   0  0  0  0  0  0  0  0  0  0  0  0  # atno 6909 bound_to 6896
  146.2392  139.9670  142.8451 H   0  0  0  0  0  0  0  0  0  0  0  0  # atno 7974 bound_to 7965
  155.4156  140.3444  155.4267 H   0  0  0  0  0  0  0  0  0  0  0  0  # atno 8008 bound_to 7997
  156.1423  140.1546  156.8932 H   0  0  0  0  0  0  0  0  0  0  0  0  # atno 8009 bound_to 7997
  154.4981  140.0822  156.7721 H   0  0  0  0  0  0  0  0  0  0  0  0  # atno 8010 bound_to 7997
  140.3951  143.2687  151.9215 H   0  0  0  0  0  0  0  0  0  0  0  0  # atno 10167 bound_to 10162
  157.0666  130.6331  149.5797 H   0  0  0  0  0  0  0  0  0  0  0  0  # atno 10718 bound_to 10713
  154.2309  135.6361  153.5175 H   0  0  0  0  0  0  0  0  0  0  0  0  # atno 10763 bound_to 10752
  152.9949  135.5519  154.6014 H   0  0  0  0  0  0  0  0  0  0  0  0  # atno 10764 bound_to 10752
  154.5497  135.2900  155.0994 H   0  0  0  0  0  0  0  0  0  0  0  0  # atno 10765 bound_to 10752
  140.9435  134.1162  157.4129 H   0  0  0  0  0  0  0  0  0  0  0  0  # atno 11005 bound_to 11000
  145.1717  140.9724  143.4318 LP  0  0  0  0  0  0  0  0  0  0  0  0  # atno 17320 bound_to 7965
  145.0022  139.3587  143.6161 LP  0  0  0  0  0  0  0  0  0  0  0  0  # atno 17321 bound_to 7965
  139.4787  144.5689  151.8120 LP  0  0  0  0  0  0  0  0  0  0  0  0  # atno 17342 bound_to 10162
  140.4799  144.1465  150.5931 LP  0  0  0  0  0  0  0  0  0  0  0  0  # atno 17343 bound_to 10162
  155.9963  130.5031  150.7490 LP  0  0  0  0  0  0  0  0  0  0  0  0  # atno 17370 bound_to 10713
  157.4912  131.0911  151.0425 LP  0  0  0  0  0  0  0  0  0  0  0  0  # atno 17371 bound_to 10713
  139.8827  135.0044  156.6246 LP  0  0  0  0  0  0  0  0  0  0  0  0  # atno 17394 bound_to 11000
  140.7702  133.8745  155.8485 LP  0  0  0  0  0  0  0  0  0  0  0  0  # atno 17395 bound_to 11000

$$$$
