#       Name:                AV-unprocessed.smi:2119
#       Creating user name   scv26
#       Creation time:       Fri Mar 27 11:38:18 2020


#       File generated by GOLD software.
#

@<TRIPOS>MOLECULE
AV-unprocessed.smi:2119
    55    57     1
SMALL
NO_CHARGES


@<TRIPOS>ATOM
      1 ****        -0.9222   0.9086  -1.9560 O.2            1 S1                 0.0000
      2 ****        -1.4558   1.2975  -0.9173 C.2            1 S1                 0.0000
      3 ****        -1.6250   0.5188   0.1601 N.am           1 S1                 0.0000
      4 ****        -1.2031  -0.8733   0.2608 C.3            1 S1                 0.0000
      5 ****         0.3353  -1.0598   0.4044 C.3            1 S1                 0.0000
      6 ****         0.9308  -0.4401   1.7014 C.3            1 S1                 0.0000
      7 ****         0.9276   1.0809   1.7785 C.3            1 S1                 0.0000
      8 ****         2.0343   1.3968   2.7855 C.3            1 S1                 0.0000
      9 ****         2.8432   0.2292   2.8698 O.3            1 S1                 0.0000
     10 ****         2.4285  -0.7025   1.8838 C.3            1 S1                 0.0000
     11 ****         0.7282  -2.4976   0.3004 N.4            1 S1                 1.0000
     12 ****         0.0319  -3.4337   1.2194 C.3            1 S1                 0.0000
     13 ****         0.6713  -4.8289   1.1268 C.3            1 S1                 0.0000
     14 ****         0.6159  -5.2883  -0.2187 O.3            1 S1                 0.0000
     15 ****         1.3383  -4.4420  -1.1055 C.3            1 S1                 0.0000
     16 ****         0.7318  -3.0284  -1.0849 C.3            1 S1                 0.0000
     17 ****        -1.9498   2.5290  -0.7065 N.am           1 S1                 0.0000
     18 ****        -1.9286   3.6522  -1.5763 C.ar           1 S1                 0.0000
     19 ****        -1.0113   3.8179  -2.6421 C.ar           1 S1                 0.0000
     20 ****        -1.0780   4.9902  -3.4193 C.ar           1 S1                 0.0000
     21 ****        -2.0531   5.9549  -3.1001 C.ar           1 S1                 0.0000
     22 ****        -2.9256   5.8155  -2.0799 N.ar           1 S1                 0.0000
     23 ****        -2.8548   4.6899  -1.3382 C.ar           1 S1                 0.0000
     24 ****        -2.0799   0.9173   0.9687 H              1 S1                 0.0000
     25 ****        -1.7165  -1.2962   1.1242 H              1 S1                 0.0000
     26 ****        -1.5829  -1.4069  -0.6110 H              1 S1                 0.0000
     27 ****         0.8194  -0.5533  -0.4316 H              1 S1                 0.0000
     28 ****         0.4031  -0.8254   2.5749 H              1 S1                 0.0000
     29 ****         1.1825   1.5108   0.8086 H              1 S1                 0.0000
     30 ****        -0.0313   1.4947   2.0899 H              1 S1                 0.0000
     31 ****         2.6263   2.2579   2.4738 H              1 S1                 0.0000
     32 ****         1.6207   1.6097   3.7716 H              1 S1                 0.0000
     33 ****         2.6460  -1.7235   2.1985 H              1 S1                 0.0000
     34 ****         2.9743  -0.5068   0.9591 H              1 S1                 0.0000
     35 ****         0.0887  -3.0761   2.2471 H              1 S1                 0.0000
     36 ****        -1.0247  -3.5061   0.9592 H              1 S1                 0.0000
     37 ****         1.7048  -4.8088   1.4765 H              1 S1                 0.0000
     38 ****         0.1331  -5.5318   1.7628 H              1 S1                 0.0000
     39 ****         2.3925  -4.4173  -0.8243 H              1 S1                 0.0000
     40 ****         1.2872  -4.8583  -2.1118 H              1 S1                 0.0000
     41 ****        -0.2834  -3.0585  -1.4810 H              1 S1                 0.0000
     42 ****         1.3121  -2.3741  -1.7364 H              1 S1                 0.0000
     43 ****        -2.4385   2.6690   0.1657 H              1 S1                 0.0000
     44 ****        -0.2539   3.0837  -2.8686 H              1 S1                 0.0000
     45 ****        -0.3928   5.1486  -4.2390 H              1 S1                 0.0000
     46 ****        -2.1300   6.8657  -3.6755 H              1 S1                 0.0000
     47 ****        -3.5655   4.6145  -0.5279 H              1 S1                 0.0000
     48 ****         1.6981  -2.5161   0.5820 H              1 S1                 0.0000
     49 ****        -0.5893  -0.0318  -2.0254 LP             1 S1                 0.0000
     50 ****        -0.8215   1.5330  -2.7306 LP             1 S1                 0.0000
     51 ****         2.7458  -0.1795   3.7772 LP             1 S1                 0.0000
     52 ****         3.8004   0.4744   2.7157 LP             1 S1                 0.0000
     53 ****        -0.3403  -5.3184  -0.5097 LP             1 S1                 0.0000
     54 ****         1.0064  -6.2079  -0.2614 LP             1 S1                 0.0000
     55 ****        -3.6029   6.5235  -1.8799 LP             1 S1                 0.0000
@<TRIPOS>BOND
    1    1    2 2     
    2    2    3 am    
    3    2   17 am    
    4    3    4 1     
    5    3   24 1     
    6    4    5 1     
    7    4   25 1     
    8    4   26 1     
    9    5    6 1     
   10    5   11 1     
   11    5   27 1     
   12    6   10 1     
   13    6    7 1     
   14    6   28 1     
   15    7    8 1     
   16    7   29 1     
   17    7   30 1     
   18    8    9 1     
   19    8   31 1     
   20    8   32 1     
   21    9   10 1     
   22   10   33 1     
   23   10   34 1     
   24   11   16 1     
   25   11   12 1     
   26   11   48 1     
   27   12   13 1     
   28   12   35 1     
   29   12   36 1     
   30   13   14 1     
   31   13   37 1     
   32   13   38 1     
   33   14   15 1     
   34   15   16 1     
   35   15   39 1     
   36   15   40 1     
   37   16   41 1     
   38   16   42 1     
   39   17   18 1     
   40   17   43 1     
   41   18   23 ar    
   42   18   19 ar    
   43   19   20 ar    
   44   19   44 1     
   45   20   21 ar    
   46   20   45 1     
   47   21   22 ar    
   48   21   46 1     
   49   22   23 ar    
   50   23   47 1     
   51    1   49 1     
   52    1   50 1     
   53    9   51 1     
   54    9   52 1     
   55   14   53 1     
   56   14   54 1     
   57   22   55 1     
@<TRIPOS>SUBSTRUCTURE
      1 S1             1
@<TRIPOS>SET
LONE_PAIRS      STATIC     ATOMS    <user>   **** ""
7 49 50 51 52 53 54 55
DONOR_HYDROGENS      STATIC     ATOMS    <user>   **** ""
3 24 48 43
ATOM$BLUE        STATIC     ATOMS    COLORGROUP SYSTEM
7 49 50 51 52 53 54 55
ATOM$RED        STATIC     ATOMS    COLORGROUP SYSTEM
3 24 48 43
