AV-unprocessed.smi:100|AV-procd|sdf|898|dock3
  -GOLD-   2262017393D 1   1.00000     0.00000
 Structure written by MMmdl.
 31 33  0  0  0  0  0  0  0  0  1 V2000
  153.3811  142.4647  160.0199 N   0  0  0  0  0  0  0  0  0  0  0  0
  152.4816  142.3610  159.0317 C   0  0  0  0  0  0  0  0  0  0  0  0
  152.1856  143.4692  158.3131 N   0  0  0  0  0  0  0  0  0  0  0  0
  151.2914  143.3913  157.3223 C   0  0  0  0  0  0  0  0  0  0  0  0
  150.6011  142.3281  156.9021 N   0  0  0  0  0  0  0  0  0  0  0  0
  150.8993  141.2110  157.6281 C   0  0  0  0  0  0  0  0  0  0  0  0
  151.8276  141.1463  158.7044 C   0  0  0  0  0  0  0  0  0  0  0  0
  151.8820  139.8533  159.2059 N   0  0  0  0  0  0  0  0  0  0  0  0
  151.0318  139.1939  158.4655 C   0  0  0  0  0  0  0  0  0  0  0  0
  150.3963  139.9316  157.4906 N   0  0  0  0  0  0  0  0  0  0  0  0
  149.3832  139.4421  156.5012 C   0  0  1  0  0  0  0  0  0  0  0  0
  148.2685  140.2770  156.5100 O   0  0  0  0  0  0  0  0  0  0  0  0
  147.7165  140.4019  155.1962 C   0  0  1  0  0  0  0  0  0  0  0  0
  147.7114  141.8904  154.8071 C   0  0  0  0  0  0  0  0  0  0  0  0
  149.0044  142.2928  154.4088 O   0  0  0  0  0  0  0  0  0  0  0  0
  148.6202  139.5564  154.2826 C   0  0  2  0  0  0  0  0  0  0  0  0
  148.0740  138.3508  154.1127 F   0  0  0  0  0  0  0  0  0  0  0  0
  149.9106  139.4062  155.0647 C   0  0  1  0  0  0  0  0  0  0  0  0
  150.8296  140.4384  154.7569 O   0  0  0  0  0  0  0  0  0  0  0  0
  153.6191  141.6518  160.5700 H   0  0  0  0  0  0  0  0  0  0  0  0
  153.8161  143.3547  160.2142 H   0  0  0  0  0  0  0  0  0  0  0  0
  151.1015  144.3114  156.7896 H   0  0  0  0  0  0  0  0  0  0  0  0
  150.8443  138.1399  158.6103 H   0  0  0  0  0  0  0  0  0  0  0  0
  149.0866  138.4558  156.8621 H   0  0  0  0  0  0  0  0  0  0  0  0
  146.6985  140.0090  155.1755 H   0  0  0  0  0  0  0  0  0  0  0  0
  146.9871  142.1005  154.0211 H   0  0  0  0  0  0  0  0  0  0  0  0
  147.4361  142.5030  155.6659 H   0  0  0  0  0  0  0  0  0  0  0  0
  149.1738  143.1520  154.7636 H   0  0  0  0  0  0  0  0  0  0  0  0
  148.7609  139.9757  153.2855 H   0  0  0  0  0  0  0  0  0  0  0  0
  150.4007  138.4500  154.8771 H   0  0  0  0  0  0  0  0  0  0  0  0
  151.2248  140.7357  155.5625 H   0  0  0  0  0  0  0  0  0  0  0  0
  1  2  1  0  0  0  0
  1 20  1  0  0  0  0
  1 21  1  0  0  0  0
  2  7  1  0  0  0  0
  2  3  2  0  0  0  0
  3  4  1  0  0  0  0
  4  5  2  0  0  0  0
  4 22  1  0  0  0  0
  5  6  1  0  0  0  0
  6 10  1  0  0  0  0
  6  7  2  0  0  0  0
  7  8  1  0  0  0  0
  8  9  2  0  0  0  0
  9 10  1  0  0  0  0
  9 23  1  0  0  0  0
 10 11  1  0  0  0  0
 11 18  1  0  0  0  0
 11 12  1  0  0  0  0
 11 24  1  0  0  0  0
 12 13  1  0  0  0  0
 13 14  1  0  0  0  0
 13 16  1  0  0  0  0
 13 25  1  0  0  0  0
 14 15  1  0  0  0  0
 14 26  1  0  0  0  0
 14 27  1  0  0  0  0
 15 28  1  0  0  0  0
 16 17  1  0  0  0  0
 16 18  1  0  0  0  0
 16 29  1  0  0  0  0
 18 19  1  0  0  0  0
 18 30  1  0  0  0  0
 19 31  1  0  0  0  0
M  END
> <s_m_source_file>
AV-unprocessed.smi

> <i_m_source_file_index>
100

> <i_lp_mmshare_version>
43012

> <i_f3d_flags>
0

> <s_epik_input>
bjFbY0hdbmMoW05IMl0pYyhjMTIpbltjSF1uMltDQEBIXTNPW0NAQEhdKFtDSDJdW09IXSlbQ0BIXShGKVtDQEhdM1tPSF0=

> <s_epik_cmdline>
J2VwaWtfcHl0aG9uJywgJy1waCcsICc3LjAnLCAnLXRuJywgJzgnLCAnLW1hJywgJzIwMCcsICctbWV0YWxfYmluZGluZycsICctaW1hZScsICc8aW5maWxlLm1hZT4nLCAnLW9tYWUnLCAnPG91dGZpbGUubWFlPic=

> <r_lp_tautomer_probability>
1

> <r_epik_Ionization_Penalty>
0.000750324

> <r_epik_Ionization_Penalty_Charging>
0

> <r_epik_Ionization_Penalty_Neutral>
0.000750324

> <r_epik_State_Penalty>
-0

> <r_epik_Charging_Adjusted_Penalty>
0

> <i_epik_Tot_Q>
0

> <i_epik_Tot_abs_Q>
0

> <r_epik_Metal_State_Penalty>
-0

> <b_epik_Metal_Only>
0

> <s_epik_Chemistry_Notes>
This compound contains an acetal/aminal-like group ( X-CH(R)-Y where X, Y are N, S, or O) that may be acid/base labile, releasing an aldehyde.

> <s_lp_Force_Field>
OPLS_2005

> <r_lp_Energy>
37.0589

> <b_lp_Chiralities_Consistent>
1

> <s_lp_Variant>
AV-unprocessed.smi:100-2

> <Gold.Version>
5.8.1

> <Gold.Id.Protein>
6NUR|6NUR_protein|mol2

> <Gold.PLP.Fitness>
31.9810

> <Gold.PLP.PLP>
-24.6653

> <Gold.PLP.part.hbond>
-2.9212

> <Gold.PLP.part.metal>
0.0000

> <Gold.PLP.part.buried>
-4.0423

> <Gold.PLP.part.nonpolar>
-17.7468

> <Gold.PLP.part.repulsive>
0.2076

> <Gold.PLP.ligand.clash>
0.8565

> <Gold.PLP.ligand.torsion>
0.3657

> <Gold.PLP.Chemscore.Hbond>
2.1165

> <Gold.PLP.Chemscore.CHOScore>
0.8504

> <Gold.PLP.Chemscore.Metal>
0.0000

> <Gold.Chemscore.Hbonds>
donor molecule, donor type, donor heavy atom, donor atom, acceptor molecule, acceptor atom, score
      L1  H    15    28       P1  8028  1.00
      P1  H  7989  7998       L1    19  1.00
      P1  H  8011  8017       L1    15  0.12
      L1  C     4    22       P1  8028  0.84

> <Gold.PLP.Chemscore.Internal.Correction>
0.0029

> <Gold.Rescore>
     Score         DG    S(hbond)    S(metal)    S(lipo)     H(rot)  DE(clash)    DE(int)     intcor
      6.00      -7.62       2.06        0.00      29.21       3.19       0.06       1.56       ----

> <Gold.Chemscore.Fitness>
5.9982

> <Gold.Chemscore.DG>
-7.6231

> <Gold.Chemscore.ZeroCoef>
-5.4800

> <Gold.Chemscore.Hbond>
2.0635

> <Gold.Chemscore.Metal>
0.0000

> <Gold.Chemscore.Lipo>
29.2112

> <Gold.Chemscore.Internal_Hbond>
0.0000

> <Gold.Chemscore.DEClash>
0.0639

> <Gold.Chemscore.DEInternal>
1.5610

> <Gold.Chemscore.Rot>
3.1901

> <Gold.Chemscore.Internal.Correction>
   9.000000E+99

> <Gold.Chemscore.Hbonds>
donor molecule, donor type, donor heavy atom, donor atom, acceptor molecule, acceptor atom, score
      L1  H    15    28       P1  8028  0.99
      P1  H  7989  7998       L1    19  0.80
      P1  H  8011  8017       L1    15  0.05

> <Gold.Chemscore.Hbond.Weighted>
-6.8921

> <Gold.Chemscore.Metal.Weighted>
-0.0000

> <Gold.Chemscore.Lipo.Weighted>
-3.4177

> <Gold.Chemscore.Internal_Hbond.Weighted>
0.0000

> <Gold.Chemscore.DEClash.Weighted>
0.0639

> <Gold.Chemscore.DEInternal.Weighted>
1.5610

> <Gold.Chemscore.Rot.Weighted>
8.1667

> <Gold.Chemscore.Internal.Correction.Weighted>
   9.000000E+99

> <Gold.Protein.RotatedTorsions>
[ 6907 6896 6895 6894 ] final  -54.41 input  -60.11 | X-H torsion
[ 7974 7965 7964 7962 ] final  -52.24 input  175.53 | X-H torsion
[ 8008 7997 7996 7995 ] final   56.73 input   59.86 | X-H torsion
[ 10167 10162 10161 10158 ] final   -5.49 input  -65.29 | X-H torsion
[ 10718 10713 10712 10709 ] final -162.70 input   66.30 | X-H torsion
[ 10763 10752 10751 10750 ] final   69.06 input  -60.55 | X-H torsion
[ 11005 11000 10999 10996 ] final  105.63 input  -57.11 | X-H torsion

> <Gold.Protein.ActiveResidues>
 VAL166  LYS551  ARG553  GLY616  TRP617  ASP618  TYR619  PRO620  LYS621  CYS622 
 ASP623  PHE694  ASN695  SER759  ASP760  ASP761  ALA762  ILE779  LEU786  VAL792 
 PHE793  MET794  SER795  GLU796  ALA797  LYS798  CYS799  TRP800  GLU811  SER814 

> <Gold.Protein.RotatedAtoms>
  150.8341  134.7606  159.6877 H   0  0  0  0  0  0  0  0  0  0  0  0  # atno 6907 bound_to 6896
  152.4440  134.5528  159.9881 H   0  0  0  0  0  0  0  0  0  0  0  0  # atno 6908 bound_to 6896
  151.5683  133.3356  159.3020 H   0  0  0  0  0  0  0  0  0  0  0  0  # atno 6909 bound_to 6896
  145.9102  140.7922  142.9699 H   0  0  0  0  0  0  0  0  0  0  0  0  # atno 7974 bound_to 7965
  155.5222  140.3480  155.4409 H   0  0  0  0  0  0  0  0  0  0  0  0  # atno 8008 bound_to 7997
  156.0777  140.1378  156.9778 H   0  0  0  0  0  0  0  0  0  0  0  0  # atno 8009 bound_to 7997
  154.4562  140.0952  156.6740 H   0  0  0  0  0  0  0  0  0  0  0  0  # atno 8010 bound_to 7997
  140.6965  143.6302  150.8530 H   0  0  0  0  0  0  0  0  0  0  0  0  # atno 10167 bound_to 10162
  156.6142  130.8863  151.2943 H   0  0  0  0  0  0  0  0  0  0  0  0  # atno 10718 bound_to 10713
  153.0267  135.5224  154.7229 H   0  0  0  0  0  0  0  0  0  0  0  0  # atno 10763 bound_to 10752
  154.6279  135.2897  155.0252 H   0  0  0  0  0  0  0  0  0  0  0  0  # atno 10764 bound_to 10752
  154.1215  135.6607  153.4956 H   0  0  0  0  0  0  0  0  0  0  0  0  # atno 10765 bound_to 10752
  139.8804  134.9342  156.5544 H   0  0  0  0  0  0  0  0  0  0  0  0  # atno 11005 bound_to 11000
  144.6742  140.1813  143.7405 LP  0  0  0  0  0  0  0  0  0  0  0  0  # atno 17320 bound_to 7965
  145.8681  139.2258  143.1677 LP  0  0  0  0  0  0  0  0  0  0  0  0  # atno 17321 bound_to 7965
  140.0021  143.5733  152.2871 LP  0  0  0  0  0  0  0  0  0  0  0  0  # atno 17342 bound_to 10162
  139.6426  144.7656  151.2308 LP  0  0  0  0  0  0  0  0  0  0  0  0  # atno 17343 bound_to 10162
  157.7246  130.9604  150.1579 LP  0  0  0  0  0  0  0  0  0  0  0  0  # atno 17370 bound_to 10713
  156.2364  130.3687  149.8386 LP  0  0  0  0  0  0  0  0  0  0  0  0  # atno 17371 bound_to 10713
  140.8216  133.8349  155.8901 LP  0  0  0  0  0  0  0  0  0  0  0  0  # atno 17394 bound_to 11000
  140.9413  134.1897  157.4795 LP  0  0  0  0  0  0  0  0  0  0  0  0  # atno 17395 bound_to 11000

$$$$
