AV-unprocessed.smi:37|AV-procd|sdf|313|dock4
  -GOLD-   2262016133D 1   1.00000     0.00000
 Structure written by MMmdl.
 44 45  0  0  0  0  0  0  0  0  1 V2000
  151.6664  144.7071  158.1686 C   0  0  0  0  0  0  0  0  0  0  0  0
  151.9213  144.3806  159.6475 C   0  0  0  0  0  0  0  0  0  0  0  0
  152.0758  142.8839  159.9247 C   0  0  0  0  0  0  0  0  0  0  0  0
  152.2872  142.4413  161.0551 O   0  0  0  0  0  0  0  0  0  0  0  0
  151.9571  142.1526  158.8048 O   0  0  0  0  0  0  0  0  0  0  0  0
  152.0027  140.7346  158.8678 C   0  0  0  0  0  0  0  0  0  0  0  0
  152.8004  140.2042  157.6669 C   0  0  2  0  0  0  0  0  0  0  0  0
  152.3423  140.7724  156.4398 O   0  0  0  0  0  0  0  0  0  0  0  0
  152.3824  139.8251  155.4096 C   0  0  2  0  0  0  0  0  0  0  0  0
  150.9702  139.5082  154.9542 N   0  0  0  0  0  0  0  0  0  0  0  0
  149.8723  140.2752  155.3299 C   0  0  0  0  0  0  0  0  0  0  0  0
  148.6051  139.9835  154.9533 C   0  0  0  0  0  0  0  0  0  0  0  0
  147.5940  140.7673  155.3643 F   0  0  0  0  0  0  0  0  0  0  0  0
  148.3263  138.8263  154.1086 C   0  0  0  0  0  0  0  0  0  0  0  0
  147.2133  138.4800  153.7185 O   0  0  0  0  0  0  0  0  0  0  0  0
  149.4580  138.0905  153.7468 N   0  0  0  0  0  0  0  0  0  0  0  0
  150.7687  138.3783  154.1305 C   0  0  0  0  0  0  0  0  0  0  0  0
  151.6923  137.6557  153.7583 O   0  0  0  0  0  0  0  0  0  0  0  0
  153.0513  138.5646  155.9788 C   0  0  1  0  0  0  0  0  0  0  0  0
  155.0186  138.6632  155.6808 Br  0  0  0  0  0  0  0  0  0  0  0  0
  152.7603  138.6850  157.4636 C   0  0  2  0  0  0  0  0  0  0  0  0
  151.4621  138.1825  157.7614 O   0  0  0  0  0  0  0  0  0  0  0  0
  151.2893  137.2157  158.6769 C   0  0  0  0  0  0  0  0  0  0  0  0
  152.1722  136.7096  159.3690 O   0  0  0  0  0  0  0  0  0  0  0  0
  149.8366  136.7540  158.7717 C   0  0  0  0  0  0  0  0  0  0  0  0
  149.6161  135.7442  159.9068 C   0  0  0  0  0  0  0  0  0  0  0  0
  149.3144  137.2811  153.1605 H   0  0  0  0  0  0  0  0  0  0  0  0
  151.5490  145.7816  158.0281 H   0  0  0  0  0  0  0  0  0  0  0  0
  150.7570  144.2265  157.8058 H   0  0  0  0  0  0  0  0  0  0  0  0
  152.4959  144.3815  157.5399 H   0  0  0  0  0  0  0  0  0  0  0  0
  152.8230  144.8907  159.9869 H   0  0  0  0  0  0  0  0  0  0  0  0
  151.0974  144.7603  160.2521 H   0  0  0  0  0  0  0  0  0  0  0  0
  152.4623  140.3923  159.7958 H   0  0  0  0  0  0  0  0  0  0  0  0
  150.9855  140.3429  158.8508 H   0  0  0  0  0  0  0  0  0  0  0  0
  153.8429  140.5058  157.7777 H   0  0  0  0  0  0  0  0  0  0  0  0
  152.8812  140.2409  154.5321 H   0  0  0  0  0  0  0  0  0  0  0  0
  150.0060  141.1428  155.9569 H   0  0  0  0  0  0  0  0  0  0  0  0
  152.6890  137.6432  155.5221 H   0  0  0  0  0  0  0  0  0  0  0  0
  153.5109  138.1842  158.0770 H   0  0  0  0  0  0  0  0  0  0  0  0
  149.1993  137.6261  158.9189 H   0  0  0  0  0  0  0  0  0  0  0  0
  149.5475  136.3074  157.8202 H   0  0  0  0  0  0  0  0  0  0  0  0
  148.5874  135.3842  159.9057 H   0  0  0  0  0  0  0  0  0  0  0  0
  149.8041  136.1930  160.8829 H   0  0  0  0  0  0  0  0  0  0  0  0
  150.2700  134.8778  159.8012 H   0  0  0  0  0  0  0  0  0  0  0  0
  1  2  1  0  0  0  0
  1 28  1  0  0  0  0
  1 29  1  0  0  0  0
  1 30  1  0  0  0  0
  2  3  1  0  0  0  0
  2 31  1  0  0  0  0
  2 32  1  0  0  0  0
  3  4  2  0  0  0  0
  3  5  1  0  0  0  0
  5  6  1  0  0  0  0
  6  7  1  0  0  0  0
  6 33  1  0  0  0  0
  6 34  1  0  0  0  0
  7 21  1  0  0  0  0
  7  8  1  0  0  0  0
  7 35  1  0  0  0  0
  8  9  1  0  0  0  0
  9 10  1  0  0  0  0
  9 19  1  0  0  0  0
  9 36  1  0  0  0  0
 10 17  1  0  0  0  0
 10 11  1  0  0  0  0
 11 12  2  0  0  0  0
 11 37  1  0  0  0  0
 12 13  1  0  0  0  0
 12 14  1  0  0  0  0
 14 15  2  0  0  0  0
 14 16  1  0  0  0  0
 16 27  1  0  0  0  0
 16 17  1  0  0  0  0
 17 18  2  0  0  0  0
 19 20  1  0  0  0  0
 19 21  1  0  0  0  0
 19 38  1  0  0  0  0
 21 22  1  0  0  0  0
 21 39  1  0  0  0  0
 22 23  1  0  0  0  0
 23 24  2  0  0  0  0
 23 25  1  0  0  0  0
 25 26  1  0  0  0  0
 25 40  1  0  0  0  0
 25 41  1  0  0  0  0
 26 42  1  0  0  0  0
 26 43  1  0  0  0  0
 26 44  1  0  0  0  0
M  END
> <s_m_source_file>
AV-unprocessed.smi

> <i_m_source_file_index>
37

> <i_lp_mmshare_version>
43012

> <i_f3d_flags>
0

> <s_epik_input>
W0NIM11bQ0gyXUMoPU8pT1tDSDJdW0NAQEhdMU9bQ0BASF0objJbY0hdYyhGKWMoPU8pW25IXWMyPU8pW0NAQEhdKEJyKVtDQEhdMU9DKD1PKVtDSDJdW0NIM10=

> <s_epik_cmdline>
J2VwaWtfcHl0aG9uJywgJy1waCcsICc3LjAnLCAnLXRuJywgJzgnLCAnLW1hJywgJzIwMCcsICctbWV0YWxfYmluZGluZycsICctaW1hZScsICc8aW5maWxlLm1hZT4nLCAnLW9tYWUnLCAnPG91dGZpbGUubWFlPic=

> <r_lp_tautomer_probability>
0.999537

> <r_epik_Ionization_Penalty>
0.104106

> <r_epik_Ionization_Penalty_Charging>
0.104106

> <r_epik_Ionization_Penalty_Neutral>
3.94675e-16

> <r_epik_State_Penalty>
0.0940182

> <r_epik_Charging_Adjusted_Penalty>
0.198124

> <i_epik_Tot_Q>
0

> <i_epik_Tot_abs_Q>
0

> <r_epik_Metal_State_Penalty>
3.05314

> <b_epik_Metal_Only>
0

> <s_epik_Chemistry_Notes>
This compound has an ester and may undergo hydrolysis at high or low pH. This compound contains an acetal/aminal-like group ( X-CH(R)-Y where X, Y are N, S, or O) that may be acid/base labile, releasing an aldehyde.

> <s_lp_Force_Field>
OPLS_2005

> <r_lp_Energy>
21.1206

> <b_lp_Chiralities_Consistent>
1

> <s_lp_Variant>
AV-unprocessed.smi:37-11

> <Gold.Version>
5.8.1

> <Gold.Id.Protein>
6NUR|6NUR_protein|mol2

> <Gold.PLP.Fitness>
51.0028

> <Gold.PLP.PLP>
-43.4422

> <Gold.PLP.part.hbond>
-5.9412

> <Gold.PLP.part.metal>
0.0000

> <Gold.PLP.part.buried>
-1.1857

> <Gold.PLP.part.nonpolar>
-38.5622

> <Gold.PLP.part.repulsive>
1.9314

> <Gold.PLP.ligand.clash>
0.0000

> <Gold.PLP.ligand.torsion>
1.3737

> <Gold.PLP.Chemscore.Hbond>
3.3546

> <Gold.PLP.Chemscore.CHOScore>
0.0000

> <Gold.PLP.Chemscore.Metal>
0.0000

> <Gold.Chemscore.Hbonds>
donor molecule, donor type, donor heavy atom, donor atom, acceptor molecule, acceptor atom, score
      L1  H    16    27       P1  7948  1.00
      P1  H  6896  6909       L1    24  0.18
      P1  H 10752 10765       L1    18  0.13

> <Gold.PLP.Chemscore.Internal.Correction>
0.2441

> <Gold.Rescore>
     Score         DG    S(hbond)    S(metal)    S(lipo)     H(rot)  DE(clash)    DE(int)     intcor
     11.71     -14.80       2.90        0.00      69.62       3.33       0.12       2.97       ----

> <Gold.Chemscore.Fitness>
11.7082

> <Gold.Chemscore.DG>
-14.7974

> <Gold.Chemscore.ZeroCoef>
-5.4800

> <Gold.Chemscore.Hbond>
2.9033

> <Gold.Chemscore.Metal>
0.0000

> <Gold.Chemscore.Lipo>
69.6224

> <Gold.Chemscore.Internal_Hbond>
0.0000

> <Gold.Chemscore.DEClash>
0.1214

> <Gold.Chemscore.DEInternal>
2.9678

> <Gold.Chemscore.Rot>
3.3303

> <Gold.Chemscore.Internal.Correction>
   9.000000E+99

> <Gold.Chemscore.Hbonds>
donor molecule, donor type, donor heavy atom, donor atom, acceptor molecule, acceptor atom, score
      L1  H    16    27       P1  7948  0.97
      P1  H  6896  6909       L1    24  0.02
      P1  H 10752 10765       L1    18  0.15

> <Gold.Chemscore.Hbond.Weighted>
-9.6971

> <Gold.Chemscore.Metal.Weighted>
-0.0000

> <Gold.Chemscore.Lipo.Weighted>
-8.1458

> <Gold.Chemscore.Internal_Hbond.Weighted>
0.0000

> <Gold.Chemscore.DEClash.Weighted>
0.1214

> <Gold.Chemscore.DEInternal.Weighted>
2.9678

> <Gold.Chemscore.Rot.Weighted>
8.5256

> <Gold.Chemscore.Internal.Correction.Weighted>
   9.000000E+99

> <Gold.Protein.RotatedTorsions>
[ 6907 6896 6895 6894 ] final   82.05 input  -60.11 | X-H torsion
[ 7974 7965 7964 7962 ] final   -6.90 input  175.53 | X-H torsion
[ 8008 7997 7996 7995 ] final -144.15 input   59.86 | X-H torsion
[ 10167 10162 10161 10158 ] final  108.80 input  -65.29 | X-H torsion
[ 10718 10713 10712 10709 ] final  170.85 input   66.30 | X-H torsion
[ 10763 10752 10751 10750 ] final  154.00 input  -60.55 | X-H torsion
[ 11005 11000 10999 10996 ] final  177.98 input  -57.11 | X-H torsion

> <Gold.Protein.ActiveResidues>
 VAL166  LYS551  ARG553  GLY616  TRP617  ASP618  TYR619  PRO620  LYS621  CYS622 
 ASP623  PHE694  ASN695  SER759  ASP760  ASP761  ALA762  ILE779  LEU786  VAL792 
 PHE793  MET794  SER795  GLU796  ALA797  LYS798  CYS799  TRP800  GLU811  SER814 

> <Gold.Protein.RotatedAtoms>
  152.5287  134.3109  159.9112 H   0  0  0  0  0  0  0  0  0  0  0  0  # atno 6907 bound_to 6896
  151.3059  133.4095  159.2651 H   0  0  0  0  0  0  0  0  0  0  0  0  # atno 6908 bound_to 6896
  151.0080  134.9391  159.8048 H   0  0  0  0  0  0  0  0  0  0  0  0  # atno 6909 bound_to 6896
  146.2320  140.2239  142.8338 H   0  0  0  0  0  0  0  0  0  0  0  0  # atno 7974 bound_to 7965
  155.5222  140.0592  157.2904 H   0  0  0  0  0  0  0  0  0  0  0  0  # atno 8008 bound_to 7997
  154.4513  140.1950  156.0456 H   0  0  0  0  0  0  0  0  0  0  0  0  # atno 8009 bound_to 7997
  156.0710  140.3260  155.7580 H   0  0  0  0  0  0  0  0  0  0  0  0  # atno 8010 bound_to 7997
  139.6817  144.7117  151.1504 H   0  0  0  0  0  0  0  0  0  0  0  0  # atno 10167 bound_to 10162
  157.0021  131.0179  151.2827 H   0  0  0  0  0  0  0  0  0  0  0  0  # atno 10718 bound_to 10713
  154.1452  135.2818  155.3150 H   0  0  0  0  0  0  0  0  0  0  0  0  # atno 10763 bound_to 10752
  154.6258  135.5452  153.7628 H   0  0  0  0  0  0  0  0  0  0  0  0  # atno 10764 bound_to 10752
  153.0238  135.6450  154.1598 H   0  0  0  0  0  0  0  0  0  0  0  0  # atno 10765 bound_to 10752
  140.3900  134.6870  157.4502 H   0  0  0  0  0  0  0  0  0  0  0  0  # atno 11005 bound_to 11000
  144.9611  140.8275  143.5513 LP  0  0  0  0  0  0  0  0  0  0  0  0  # atno 17320 bound_to 7965
  145.2209  139.2159  143.5093 LP  0  0  0  0  0  0  0  0  0  0  0  0  # atno 17321 bound_to 7965
  140.7654  143.5689  150.9017 LP  0  0  0  0  0  0  0  0  0  0  0  0  # atno 17342 bound_to 10162
  139.9362  143.6436  152.3065 LP  0  0  0  0  0  0  0  0  0  0  0  0  # atno 17343 bound_to 10162
  157.5382  130.8102  149.7997 LP  0  0  0  0  0  0  0  0  0  0  0  0  # atno 17370 bound_to 10713
  156.0167  130.3811  150.2089 LP  0  0  0  0  0  0  0  0  0  0  0  0  # atno 17371 bound_to 10713
  140.0414  134.6262  155.8976 LP  0  0  0  0  0  0  0  0  0  0  0  0  # atno 17394 bound_to 11000
  141.1894  133.6565  156.5366 LP  0  0  0  0  0  0  0  0  0  0  0  0  # atno 17395 bound_to 11000

$$$$
