AV-unprocessed.smi:1295|AV-procd|sdf|5406|dock5
  -GOLD-   22720 4563D 1   1.00000     0.00000
 Structure written by MMmdl.
 43 44  0  0  0  0  0  0  0  0  1 V2000
  146.8776  140.7788  152.8681 C   0  0  0  0  0  0  0  0  0  0  0  0
  147.7464  140.7620  154.1070 C   0  0  0  0  0  0  0  0  0  0  0  0
  147.1000  141.2127  155.2461 N   0  0  0  0  0  0  0  0  0  0  0  0
  147.8145  141.2327  156.4309 C   0  0  0  0  0  0  0  0  0  0  0  0
  147.0329  141.7384  157.6315 C   0  0  0  0  0  0  0  0  0  0  0  0
  149.1096  140.8289  156.4770 C   0  0  0  0  0  0  0  0  0  0  0  0
  149.9322  140.8423  157.7642 C   0  0  0  0  0  0  0  0  0  0  0  0
  151.1595  141.7565  157.7513 C   0  0  0  0  0  0  0  0  0  0  0  0
  151.4221  142.4249  156.7516 O   0  0  0  0  0  0  0  0  0  0  0  0
  151.8964  141.7765  158.8726 N   0  0  0  0  0  0  0  0  0  0  0  0
  153.0846  142.5978  159.1128 C   0  0  1  0  0  0  0  0  0  0  0  0
  152.8455  144.0228  158.5747 C   0  0  0  0  0  0  0  0  0  0  0  0
  151.8160  144.7968  159.4163 C   0  0  0  0  0  0  0  0  0  0  0  0
  152.2178  144.8256  160.8985 C   0  0  0  0  0  0  0  0  0  0  0  0
  152.4374  143.4069  161.4479 C   0  0  0  0  0  0  0  0  0  0  0  0
  153.4754  142.6286  160.6130 C   0  0  1  0  0  0  0  0  0  0  0  0
  153.7390  141.2311  161.1996 C   0  0  0  0  0  0  0  0  0  0  0  0
  149.7494  140.3633  155.2238 C   0  0  0  0  0  0  0  0  0  0  0  0
  150.9232  139.9958  155.1972 O   0  0  0  0  0  0  0  0  0  0  0  0
  148.9782  140.3559  154.0501 N   0  0  0  0  0  0  0  0  0  0  0  0
  146.1400  141.5259  155.2548 H   0  0  0  0  0  0  0  0  0  0  0  0
  147.3750  140.2785  152.0361 H   0  0  0  0  0  0  0  0  0  0  0  0
  146.6630  141.8056  152.5709 H   0  0  0  0  0  0  0  0  0  0  0  0
  145.9330  140.2672  153.0559 H   0  0  0  0  0  0  0  0  0  0  0  0
  146.9678  140.9656  158.3974 H   0  0  0  0  0  0  0  0  0  0  0  0
  146.0164  142.0236  157.3578 H   0  0  0  0  0  0  0  0  0  0  0  0
  147.5198  142.6130  158.0637 H   0  0  0  0  0  0  0  0  0  0  0  0
  150.2610  139.8364  158.0263 H   0  0  0  0  0  0  0  0  0  0  0  0
  149.2767  141.1401  158.5834 H   0  0  0  0  0  0  0  0  0  0  0  0
  151.6004  141.1857  159.6362 H   0  0  0  0  0  0  0  0  0  0  0  0
  153.9252  142.1827  158.5540 H   0  0  0  0  0  0  0  0  0  0  0  0
  153.7896  144.5691  158.5775 H   0  0  0  0  0  0  0  0  0  0  0  0
  152.5230  143.9834  157.5333 H   0  0  0  0  0  0  0  0  0  0  0  0
  151.7197  145.8151  159.0387 H   0  0  0  0  0  0  0  0  0  0  0  0
  150.8321  144.3375  159.3126 H   0  0  0  0  0  0  0  0  0  0  0  0
  153.1321  145.4085  161.0173 H   0  0  0  0  0  0  0  0  0  0  0  0
  151.4498  145.3347  161.4814 H   0  0  0  0  0  0  0  0  0  0  0  0
  152.7666  143.4682  162.4858 H   0  0  0  0  0  0  0  0  0  0  0  0
  151.4889  142.8683  161.4597 H   0  0  0  0  0  0  0  0  0  0  0  0
  154.4169  143.1754  160.6829 H   0  0  0  0  0  0  0  0  0  0  0  0
  152.8321  140.6266  161.2281 H   0  0  0  0  0  0  0  0  0  0  0  0
  154.1176  141.3010  162.2195 H   0  0  0  0  0  0  0  0  0  0  0  0
  154.4810  140.6923  160.6099 H   0  0  0  0  0  0  0  0  0  0  0  0
  1 22  1  0  0  0  0
  1 23  1  0  0  0  0
  1 24  1  0  0  0  0
  1  2  1  0  0  0  0
  2  3  1  0  0  0  0
  2 20  2  0  0  0  0
  3  4  1  0  0  0  0
  3 21  1  0  0  0  0
  4  6  2  0  0  0  0
  4  5  1  0  0  0  0
  5 25  1  0  0  0  0
  5 26  1  0  0  0  0
  5 27  1  0  0  0  0
  6 18  1  0  0  0  0
  6  7  1  0  0  0  0
  7  8  1  0  0  0  0
  7 28  1  0  0  0  0
  7 29  1  0  0  0  0
  8  9  2  0  0  0  0
  8 10  1  0  0  0  0
 10 11  1  0  0  0  0
 10 30  1  0  0  0  0
 11 16  1  0  0  0  0
 11 12  1  0  0  0  0
 11 31  1  0  0  0  0
 12 13  1  0  0  0  0
 12 32  1  0  0  0  0
 12 33  1  0  0  0  0
 13 14  1  0  0  0  0
 13 34  1  0  0  0  0
 13 35  1  0  0  0  0
 14 15  1  0  0  0  0
 14 36  1  0  0  0  0
 14 37  1  0  0  0  0
 15 16  1  0  0  0  0
 15 38  1  0  0  0  0
 15 39  1  0  0  0  0
 16 17  1  0  0  0  0
 16 40  1  0  0  0  0
 17 41  1  0  0  0  0
 17 42  1  0  0  0  0
 17 43  1  0  0  0  0
 18 19  2  0  0  0  0
 18 20  1  0  0  0  0
M  END
> <s_m_source_file>
AV-unprocessed.smi

> <i_m_source_file_index>
1295

> <i_lp_mmshare_version>
43012

> <i_f3d_flags>
0

> <s_epik_input>
W0NIM11jMW5jKFtDSDNdKWMoYyg9TylbbkhdMSlbQ0gyXUMoPU8pW05IXVtDQEBIXTJbQ0gyXVtDSDJdW0NIMl1bQ0gyXVtDQEhdMltDSDNd

> <s_epik_cmdline>
J2VwaWtfcHl0aG9uJywgJy1waCcsICc3LjAnLCAnLXRuJywgJzgnLCAnLW1hJywgJzIwMCcsICctbWV0YWxfYmluZGluZycsICctaW1hZScsICc8aW5maWxlLm1hZT4nLCAnLW9tYWUnLCAnPG91dGZpbGUubWFlPic=

> <r_lp_tautomer_probability>
0.156392

> <r_epik_Ionization_Penalty>
0.0136057

> <r_epik_Ionization_Penalty_Charging>
0.0134742

> <r_epik_Ionization_Penalty_Neutral>
0.000131572

> <r_epik_State_Penalty>
1.15342

> <r_epik_Charging_Adjusted_Penalty>
1.16689

> <i_epik_Tot_Q>
0

> <i_epik_Tot_abs_Q>
0

> <r_epik_Metal_State_Penalty>
1.31351

> <b_epik_Metal_Only>
0

> <s_lp_Force_Field>
OPLS_2005

> <r_lp_Energy>
15.3468

> <b_lp_Chiralities_Consistent>
1

> <s_lp_Variant>
AV-unprocessed.smi:1295-6

> <Gold.Version>
5.8.1

> <Gold.Id.Protein>
6NUR|6NUR_protein|mol2

> <Gold.PLP.Fitness>
41.6996

> <Gold.PLP.PLP>
-39.1068

> <Gold.PLP.part.hbond>
-1.0000

> <Gold.PLP.part.metal>
0.0000

> <Gold.PLP.part.buried>
-4.8551

> <Gold.PLP.part.nonpolar>
-35.0796

> <Gold.PLP.part.repulsive>
1.5270

> <Gold.PLP.ligand.clash>
0.0000

> <Gold.PLP.ligand.torsion>
0.2082

> <Gold.PLP.Chemscore.Hbond>
1.0000

> <Gold.PLP.Chemscore.CHOScore>
0.0000

> <Gold.PLP.Chemscore.Metal>
0.0000

> <Gold.Chemscore.Hbonds>
donor molecule, donor type, donor heavy atom, donor atom, acceptor molecule, acceptor atom, score
      P1  H  7989  7998       L1    19  0.99

> <Gold.PLP.Chemscore.Internal.Correction>
0.0093

> <Gold.Rescore>
     Score         DG    S(hbond)    S(metal)    S(lipo)     H(rot)  DE(clash)    DE(int)     intcor
     14.98     -16.63       0.95        0.00     100.46       1.48       0.15       1.50       ----

> <Gold.Chemscore.Fitness>
14.9773

> <Gold.Chemscore.DG>
-16.6316

> <Gold.Chemscore.ZeroCoef>
-5.4800

> <Gold.Chemscore.Hbond>
0.9543

> <Gold.Chemscore.Metal>
0.0000

> <Gold.Chemscore.Lipo>
100.4564

> <Gold.Chemscore.Internal_Hbond>
0.0000

> <Gold.Chemscore.DEClash>
0.1510

> <Gold.Chemscore.DEInternal>
1.5033

> <Gold.Chemscore.Rot>
1.4801

> <Gold.Chemscore.Internal.Correction>
   9.000000E+99

> <Gold.Chemscore.Hbonds>
donor molecule, donor type, donor heavy atom, donor atom, acceptor molecule, acceptor atom, score
      P1  H  7989  7998       L1    19  0.37

> <Gold.Chemscore.Hbond.Weighted>
-3.1873

> <Gold.Chemscore.Metal.Weighted>
-0.0000

> <Gold.Chemscore.Lipo.Weighted>
-11.7534

> <Gold.Chemscore.Internal_Hbond.Weighted>
0.0000

> <Gold.Chemscore.DEClash.Weighted>
0.1510

> <Gold.Chemscore.DEInternal.Weighted>
1.5033

> <Gold.Chemscore.Rot.Weighted>
3.7891

> <Gold.Chemscore.Internal.Correction.Weighted>
   9.000000E+99

> <Gold.Protein.RotatedTorsions>
[ 6907 6896 6895 6894 ] final  140.96 input  -60.11 | X-H torsion
[ 7974 7965 7964 7962 ] final  -77.54 input  175.53 | X-H torsion
[ 8008 7997 7996 7995 ] final  -60.79 input   59.86 | X-H torsion
[ 10167 10162 10161 10158 ] final   57.13 input  -65.29 | X-H torsion
[ 10718 10713 10712 10709 ] final -170.40 input   66.30 | X-H torsion
[ 10763 10752 10751 10750 ] final  -53.47 input  -60.55 | X-H torsion
[ 11005 11000 10999 10996 ] final   63.86 input  -57.11 | X-H torsion

> <Gold.Protein.ActiveResidues>
 VAL166  LYS551  ARG553  GLY616  TRP617  ASP618  TYR619  PRO620  LYS621  CYS622 
 ASP623  PHE694  ASN695  SER759  ASP760  ASP761  ALA762  ILE779  LEU786  VAL792 
 PHE793  MET794  SER795  GLU796  ALA797  LYS798  CYS799  TRP800  GLU811  SER814 

> <Gold.Protein.RotatedAtoms>
  152.2368  133.5102  159.5246 H   0  0  0  0  0  0  0  0  0  0  0  0  # atno 6907 bound_to 6896
  150.7053  134.1143  159.4020 H   0  0  0  0  0  0  0  0  0  0  0  0  # atno 6908 bound_to 6896
  151.9064  135.0357  160.0561 H   0  0  0  0  0  0  0  0  0  0  0  0  # atno 6909 bound_to 6896
  145.5983  140.9414  143.1254 H   0  0  0  0  0  0  0  0  0  0  0  0  # atno 7974 bound_to 7965
  154.4416  140.1032  156.6329 H   0  0  0  0  0  0  0  0  0  0  0  0  # atno 8008 bound_to 7997
  155.5585  140.3487  155.4467 H   0  0  0  0  0  0  0  0  0  0  0  0  # atno 8009 bound_to 7997
  156.0477  140.1296  157.0074 H   0  0  0  0  0  0  0  0  0  0  0  0  # atno 8010 bound_to 7997
  140.2012  144.3985  150.6528 H   0  0  0  0  0  0  0  0  0  0  0  0  # atno 10167 bound_to 10162
  156.7256  130.9286  151.3101 H   0  0  0  0  0  0  0  0  0  0  0  0  # atno 10718 bound_to 10713
  154.1593  135.6477  153.4982 H   0  0  0  0  0  0  0  0  0  0  0  0  # atno 10763 bound_to 10752
  153.0115  135.5357  154.6727 H   0  0  0  0  0  0  0  0  0  0  0  0  # atno 10764 bound_to 10752
  154.6036  135.2946  155.0480 H   0  0  0  0  0  0  0  0  0  0  0  0  # atno 10765 bound_to 10752
  139.9996  134.6462  155.9952 H   0  0  0  0  0  0  0  0  0  0  0  0  # atno 11005 bound_to 11000
  144.7321  139.7695  143.7343 LP  0  0  0  0  0  0  0  0  0  0  0  0  # atno 17320 bound_to 7965
  146.1595  139.4704  142.9997 LP  0  0  0  0  0  0  0  0  0  0  0  0  # atno 17321 bound_to 7965
  140.6389  143.2200  151.6335 LP  0  0  0  0  0  0  0  0  0  0  0  0  # atno 17342 bound_to 10162
  139.5216  144.3187  152.0929 LP  0  0  0  0  0  0  0  0  0  0  0  0  # atno 17343 bound_to 10162
  157.6880  130.9205  150.0438 LP  0  0  0  0  0  0  0  0  0  0  0  0  # atno 17370 bound_to 10713
  156.1564  130.3643  149.9362 LP  0  0  0  0  0  0  0  0  0  0  0  0  # atno 17371 bound_to 10713
  141.1632  133.6538  156.4389 LP  0  0  0  0  0  0  0  0  0  0  0  0  # atno 17394 bound_to 11000
  140.4752  134.6716  157.5147 LP  0  0  0  0  0  0  0  0  0  0  0  0  # atno 17395 bound_to 11000

$$$$
