AV-unprocessed.smi:2871|AV-procd|sdf|11031|dock6
  -GOLD-   2272015493D 1   1.00000     0.00000
 Structure written by MMmdl.
 38 40  0  0  0  0  0  0  0  0  1 V2000
  152.1075  144.3730  161.0485 C   0  0  0  0  0  0  0  0  0  0  0  0
  152.1702  143.8815  159.6759 N   0  0  0  0  0  0  0  0  0  0  0  0
  151.9325  144.7890  158.5606 C   0  0  0  0  0  0  0  0  0  0  0  0
  152.4646  142.5219  159.4324 C   0  0  0  0  0  0  0  0  0  0  0  0
  153.4250  141.8123  160.1939 C   0  0  0  0  0  0  0  0  0  0  0  0
  153.6331  140.4550  159.8598 C   0  0  0  0  0  0  0  0  0  0  0  0
  154.6383  139.5853  160.5996 C   0  0  0  0  0  0  0  0  0  0  0  0
  154.3971  139.6374  161.9097 F   0  0  0  0  0  0  0  0  0  0  0  0
  154.5702  138.3125  160.2076 F   0  0  0  0  0  0  0  0  0  0  0  0
  155.8740  140.0310  160.3715 F   0  0  0  0  0  0  0  0  0  0  0  0
  152.9471  139.8605  158.8579 N   0  0  0  0  0  0  0  0  0  0  0  0
  152.0632  140.6102  158.2009 C   0  0  0  0  0  0  0  0  0  0  0  0
  151.3723  139.9673  157.1907 N   0  0  0  0  0  0  0  0  0  0  0  0
  151.5614  138.5690  156.8211 C   0  0  1  0  0  0  0  0  0  0  0  0
  150.3602  137.6867  157.1679 C   0  0  0  0  0  0  0  0  0  0  0  0
  150.0635  137.0155  155.8191 C   0  0  1  0  0  0  0  0  0  0  0  0
  149.3903  137.9879  154.8420 C   0  0  0  0  0  0  0  0  0  0  0  0
  150.5516  138.9080  154.4707 C   0  0  0  0  0  0  0  0  0  0  0  0
  151.7025  138.3213  155.3059 C   0  0  2  0  0  0  0  0  0  0  0  0
  151.3641  136.9456  155.2587 O   0  0  0  0  0  0  0  0  0  0  0  0
  151.7929  141.8978  158.4350 N   0  0  0  0  0  0  0  0  0  0  0  0
  151.3208  143.8604  161.6029 H   0  0  0  0  0  0  0  0  0  0  0  0
  151.8962  145.4419  161.0797 H   0  0  0  0  0  0  0  0  0  0  0  0
  153.0563  144.2054  161.5597 H   0  0  0  0  0  0  0  0  0  0  0  0
  151.0938  144.4424  157.9560 H   0  0  0  0  0  0  0  0  0  0  0  0
  152.8167  144.8550  157.9260 H   0  0  0  0  0  0  0  0  0  0  0  0
  151.6968  145.7947  158.9095 H   0  0  0  0  0  0  0  0  0  0  0  0
  153.9804  142.2732  160.9965 H   0  0  0  0  0  0  0  0  0  0  0  0
  150.7930  140.5407  156.5952 H   0  0  0  0  0  0  0  0  0  0  0  0
  152.4425  138.1819  157.3351 H   0  0  0  0  0  0  0  0  0  0  0  0
  150.6400  136.9466  157.9185 H   0  0  0  0  0  0  0  0  0  0  0  0
  149.4996  138.2413  157.5450 H   0  0  0  0  0  0  0  0  0  0  0  0
  149.5574  136.0537  155.9042 H   0  0  0  0  0  0  0  0  0  0  0  0
  149.0229  137.4618  153.9603 H   0  0  0  0  0  0  0  0  0  0  0  0
  148.5544  138.5212  155.2955 H   0  0  0  0  0  0  0  0  0  0  0  0
  150.7726  138.8263  153.4060 H   0  0  0  0  0  0  0  0  0  0  0  0
  150.3526  139.9569  154.6915 H   0  0  0  0  0  0  0  0  0  0  0  0
  152.6932  138.5468  154.9102 H   0  0  0  0  0  0  0  0  0  0  0  0
  1  2  1  0  0  0  0
  1 22  1  0  0  0  0
  1 23  1  0  0  0  0
  1 24  1  0  0  0  0
  2  3  1  0  0  0  0
  2  4  1  0  0  0  0
  3 25  1  0  0  0  0
  3 26  1  0  0  0  0
  3 27  1  0  0  0  0
  4 21  1  0  0  0  0
  4  5  2  0  0  0  0
  5  6  1  0  0  0  0
  5 28  1  0  0  0  0
  6  7  1  0  0  0  0
  6 11  2  0  0  0  0
  7  8  1  0  0  0  0
  7  9  1  0  0  0  0
  7 10  1  0  0  0  0
 11 12  1  0  0  0  0
 12 13  1  0  0  0  0
 12 21  2  0  0  0  0
 13 14  1  0  0  0  0
 13 29  1  0  0  0  0
 14 19  1  0  0  0  0
 14 15  1  0  0  0  0
 14 30  1  0  0  0  0
 15 16  1  0  0  0  0
 15 31  1  0  0  0  0
 15 32  1  0  0  0  0
 16 20  1  0  0  0  0
 16 17  1  0  0  0  0
 16 33  1  0  0  0  0
 17 18  1  0  0  0  0
 17 34  1  0  0  0  0
 17 35  1  0  0  0  0
 18 19  1  0  0  0  0
 18 36  1  0  0  0  0
 18 37  1  0  0  0  0
 19 20  1  0  0  0  0
 19 38  1  0  0  0  0
M  END
> <s_m_source_file>
AV-unprocessed.smi

> <i_m_source_file_index>
2871

> <i_lp_mmshare_version>
43012

> <i_f3d_flags>
0

> <s_epik_input>
W0NIM11OKFtDSDNdKWMxW2NIXWMoQyhGKShGKUYpbmMobjEpW05IXVtDQEhdKFtDSDJdW0NAQEhdMjMpW0NAQEhdKE8zKVtDSDJdW0NIMl0y

> <s_epik_cmdline>
J2VwaWtfcHl0aG9uJywgJy1waCcsICc3LjAnLCAnLXRuJywgJzgnLCAnLW1hJywgJzIwMCcsICctbWV0YWxfYmluZGluZycsICctaW1hZScsICc8aW5maWxlLm1hZT4nLCAnLW9tYWUnLCAnPG91dGZpbGUubWFlPic=

> <r_lp_tautomer_probability>
1

> <r_epik_Ionization_Penalty>
0.00695968

> <r_epik_Ionization_Penalty_Charging>
0

> <r_epik_Ionization_Penalty_Neutral>
0.00695968

> <r_epik_State_Penalty>
0.0050343

> <r_epik_Charging_Adjusted_Penalty>
0.0050343

> <i_epik_Tot_Q>
0

> <i_epik_Tot_abs_Q>
0

> <r_epik_Metal_State_Penalty>
-0

> <b_epik_Metal_Only>
0

> <s_lp_Force_Field>
OPLS_2005

> <r_lp_Energy>
32.958

> <b_lp_Chiralities_Consistent>
1

> <s_lp_Variant>
AV-unprocessed.smi:2871-2

> <Gold.Version>
5.8.1

> <Gold.Id.Protein>
6NUR|6NUR_protein|mol2

> <Gold.PLP.Fitness>
46.6162

> <Gold.PLP.PLP>
-42.5287

> <Gold.PLP.part.hbond>
-2.0000

> <Gold.PLP.part.metal>
0.0000

> <Gold.PLP.part.buried>
-4.4726

> <Gold.PLP.part.nonpolar>
-35.1410

> <Gold.PLP.part.repulsive>
0.1900

> <Gold.PLP.ligand.clash>
0.0000

> <Gold.PLP.ligand.torsion>
0.8343

> <Gold.PLP.Chemscore.Hbond>
1.9116

> <Gold.PLP.Chemscore.CHOScore>
0.0000

> <Gold.PLP.Chemscore.Metal>
0.0000

> <Gold.Chemscore.Hbonds>
donor molecule, donor type, donor heavy atom, donor atom, acceptor molecule, acceptor atom, score
      P1  H 10752 10764       L1    20  0.63

> <Gold.PLP.Chemscore.Internal.Correction>
0.0213

> <Gold.Rescore>
     Score         DG    S(hbond)    S(metal)    S(lipo)     H(rot)  DE(clash)    DE(int)     intcor
     16.27     -17.21       1.27        0.00      85.80       1.00       0.08       0.86       ----

> <Gold.Chemscore.Fitness>
16.2694

> <Gold.Chemscore.DG>
-17.2059

> <Gold.Chemscore.ZeroCoef>
-5.4800

> <Gold.Chemscore.Hbond>
1.2715

> <Gold.Chemscore.Metal>
0.0000

> <Gold.Chemscore.Lipo>
85.8047

> <Gold.Chemscore.Internal_Hbond>
0.0000

> <Gold.Chemscore.DEClash>
0.0813

> <Gold.Chemscore.DEInternal>
0.8552

> <Gold.Chemscore.Rot>
1.0000

> <Gold.Chemscore.Internal.Correction>
   9.000000E+99

> <Gold.Chemscore.Hbonds>
donor molecule, donor type, donor heavy atom, donor atom, acceptor molecule, acceptor atom, score
      P1  H 10752 10764       L1    20  0.60

> <Gold.Chemscore.Hbond.Weighted>
-4.2467

> <Gold.Chemscore.Metal.Weighted>
-0.0000

> <Gold.Chemscore.Lipo.Weighted>
-10.0392

> <Gold.Chemscore.Internal_Hbond.Weighted>
0.0000

> <Gold.Chemscore.DEClash.Weighted>
0.0813

> <Gold.Chemscore.DEInternal.Weighted>
0.8552

> <Gold.Chemscore.Rot.Weighted>
2.5600

> <Gold.Chemscore.Internal.Correction.Weighted>
   9.000000E+99

> <Gold.Protein.RotatedTorsions>
[ 6907 6896 6895 6894 ] final   17.83 input  -60.11 | X-H torsion
[ 7974 7965 7964 7962 ] final   27.20 input  175.53 | X-H torsion
[ 8008 7997 7996 7995 ] final   15.72 input   59.86 | X-H torsion
[ 10167 10162 10161 10158 ] final   26.94 input  -65.29 | X-H torsion
[ 10718 10713 10712 10709 ] final   70.91 input   66.30 | X-H torsion
[ 10763 10752 10751 10750 ] final  -57.70 input  -60.55 | X-H torsion
[ 11005 11000 10999 10996 ] final  -92.91 input  -57.11 | X-H torsion

> <Gold.Protein.ActiveResidues>
 VAL166  LYS551  ARG553  GLY616  TRP617  ASP618  TYR619  PRO620  LYS621  CYS622 
 ASP623  PHE694  ASN695  SER759  ASP760  ASP761  ALA762  ILE779  LEU786  VAL792 
 PHE793  MET794  SER795  GLU796  ALA797  LYS798  CYS799  TRP800  GLU811  SER814 

> <Gold.Protein.RotatedAtoms>
  151.8558  135.0542  160.0463 H   0  0  0  0  0  0  0  0  0  0  0  0  # atno 6907 bound_to 6896
  152.2701  133.5370  159.5442 H   0  0  0  0  0  0  0  0  0  0  0  0  # atno 6908 bound_to 6896
  150.7148  134.0625  159.3878 H   0  0  0  0  0  0  0  0  0  0  0  0  # atno 6909 bound_to 6896
  146.1797  139.7223  142.8909 H   0  0  0  0  0  0  0  0  0  0  0  0  # atno 7974 bound_to 7965
  154.8666  140.2952  155.5506 H   0  0  0  0  0  0  0  0  0  0  0  0  # atno 8008 bound_to 7997
  156.3021  140.2468  156.3582 H   0  0  0  0  0  0  0  0  0  0  0  0  # atno 8009 bound_to 7997
  154.8861  140.0396  157.1800 H   0  0  0  0  0  0  0  0  0  0  0  0  # atno 8010 bound_to 7997
  140.4980  144.0361  150.6322 H   0  0  0  0  0  0  0  0  0  0  0  0  # atno 10167 bound_to 10162
  157.6425  130.9501  150.0716 H   0  0  0  0  0  0  0  0  0  0  0  0  # atno 10718 bound_to 10713
  154.2266  135.6368  153.5161 H   0  0  0  0  0  0  0  0  0  0  0  0  # atno 10763 bound_to 10752
  152.9957  135.5509  154.6057 H   0  0  0  0  0  0  0  0  0  0  0  0  # atno 10764 bound_to 10752
  154.5530  135.2903  155.0964 H   0  0  0  0  0  0  0  0  0  0  0  0  # atno 10765 bound_to 10752
  141.1510  133.7852  157.0085 H   0  0  0  0  0  0  0  0  0  0  0  0  # atno 11005 bound_to 11000
  145.4112  141.0396  143.3016 LP  0  0  0  0  0  0  0  0  0  0  0  0  # atno 17320 bound_to 7965
  144.8294  139.5654  143.6950 LP  0  0  0  0  0  0  0  0  0  0  0  0  # atno 17321 bound_to 7965
  140.3649  143.2887  152.0343 LP  0  0  0  0  0  0  0  0  0  0  0  0  # atno 17342 bound_to 10162
  139.4865  144.6275  151.7136 LP  0  0  0  0  0  0  0  0  0  0  0  0  # atno 17343 bound_to 10162
  156.1719  130.3647  149.9154 LP  0  0  0  0  0  0  0  0  0  0  0  0  # atno 17370 bound_to 10713
  156.7127  130.8976  151.3611 LP  0  0  0  0  0  0  0  0  0  0  0  0  # atno 17371 bound_to 10713
  140.0893  134.9602  157.1750 LP  0  0  0  0  0  0  0  0  0  0  0  0  # atno 17394 bound_to 11000
  140.3468  134.2643  155.7204 LP  0  0  0  0  0  0  0  0  0  0  0  0  # atno 17395 bound_to 11000

$$$$
