#       Name:                AV-unprocessed.smi:2926
#       Creating user name   scv26
#       Creation time:       Fri Mar 27 16:11:53 2020


#       File generated by GOLD software.
#

@<TRIPOS>MOLECULE
AV-unprocessed.smi:2926
    38    38     1
SMALL
NO_CHARGES


@<TRIPOS>ATOM
      1 ****        -1.6276  -1.3674   2.5095 C.3            1 S1                 0.0000
      2 ****        -1.9842  -1.7730   1.0689 C.3            1 S1                 0.0000
      3 ****        -1.3946  -3.1539   0.7238 C.3            1 S1                 0.0000
      4 ****        -1.6173  -0.6590   0.0517 C.3            1 S1                 0.0000
      5 ****        -2.1623  -0.8948  -1.3739 C.3            1 S1                 0.0000
      6 ****        -3.5730  -0.9477  -1.3734 O.3            1 S1                 0.0000
      7 ****        -0.1592  -0.4880   0.0059 N.3            1 S1                 0.0000
      8 ****         0.5117   0.9654  -0.6427 S.o2           1 S1                 0.0000
      9 ****         0.7373   0.7475  -2.0799 O.2            1 S1                 0.0000
     10 ****        -0.3186   2.0924  -0.1897 O.2            1 S1                 0.0000
     11 ****         2.1408   1.0622   0.2115 C.3            1 S1                 0.0000
     12 ****         2.8732   2.2917  -0.2440 C.2            1 S1                 0.0000
     13 ****         3.6151   2.4851  -1.4422 C.2            1 S1                 0.0000
     14 ****         4.0565   3.7727  -1.3390 C.2            1 S1                 0.0000
     15 ****         3.6310   4.3291  -0.1768 O.3            1 S1                 0.0000
     16 ****         2.8777   3.3750   0.5166 N.2            1 S1                 0.0000
     17 ****        -2.0509   0.2720   0.4194 H              1 S1                 0.0000
     18 ****        -0.5503  -1.2647   2.6436 H              1 S1                 0.0000
     19 ****        -1.9786  -2.1120   3.2245 H              1 S1                 0.0000
     20 ****        -2.0882  -0.4160   2.7768 H              1 S1                 0.0000
     21 ****        -3.0689  -1.8836   1.0516 H              1 S1                 0.0000
     22 ****        -0.3046  -3.1387   0.7207 H              1 S1                 0.0000
     23 ****        -1.7283  -3.5031  -0.2528 H              1 S1                 0.0000
     24 ****        -1.7079  -3.9016   1.4529 H              1 S1                 0.0000
     25 ****        -1.8676  -0.0814  -2.0371 H              1 S1                 0.0000
     26 ****        -1.7657  -1.8120  -1.8087 H              1 S1                 0.0000
     27 ****        -3.9041  -0.1198  -1.0597 H              1 S1                 0.0000
     28 ****         0.2918  -1.3103  -0.3946 H              1 S1                 0.0000
     29 ****         1.9649   1.0752   1.2877 H              1 S1                 0.0000
     30 ****         2.7075   0.1615  -0.0229 H              1 S1                 0.0000
     31 ****         3.7906   1.7910  -2.2506 H              1 S1                 0.0000
     32 ****         4.6544   4.4058  -1.9777 H              1 S1                 0.0000
     33 ****        -3.8827  -1.6844  -0.7723 LP             1 S1                 0.0000
     34 ****        -3.9047  -1.1135  -2.3021 LP             1 S1                 0.0000
     35 ****         0.0542  -0.3809   0.9770 LP             1 S1                 0.0000
     36 ****         3.0649   5.1299  -0.3725 LP             1 S1                 0.0000
     37 ****         4.4185   4.6043   0.3747 LP             1 S1                 0.0000
     38 ****         2.4335   3.4885   1.4053 LP             1 S1                 0.0000
@<TRIPOS>BOND
    1    1    2 1     
    2    1   18 1     
    3    1   19 1     
    4    1   20 1     
    5    2    3 1     
    6    2    4 1     
    7    2   21 1     
    8    3   22 1     
    9    3   23 1     
   10    3   24 1     
   11    4   17 1     
   12    4    5 1     
   13    4    7 1     
   14    5    6 1     
   15    5   25 1     
   16    5   26 1     
   17    6   27 1     
   18    7    8 1     
   19    7   28 1     
   20    8    9 2     
   21    8   10 2     
   22    8   11 1     
   23   11   12 1     
   24   11   29 1     
   25   11   30 1     
   26   12   16 2     
   27   12   13 1     
   28   13   14 2     
   29   13   31 1     
   30   14   15 1     
   31   14   32 1     
   32   15   16 1     
   33    6   33 1     
   34    6   34 1     
   35    7   35 1     
   36   15   36 1     
   37   15   37 1     
   38   16   38 1     
@<TRIPOS>SUBSTRUCTURE
      1 S1             1
@<TRIPOS>SET
LONE_PAIRS      STATIC     ATOMS    <user>   **** ""
8 33 34 35 9 10 36 37 38
DONOR_HYDROGENS      STATIC     ATOMS    <user>   **** ""
2 27 28
ATOM$BLUE        STATIC     ATOMS    COLORGROUP SYSTEM
8 33 34 35 9 10 36 37 38
ATOM$RED        STATIC     ATOMS    COLORGROUP SYSTEM
2 27 28
