AV-unprocessed.smi:2061|AV-procd|sdf|8377|dock9
  -GOLD-   2272011 53D 1   1.00000     0.00000
 Structure written by MMmdl.
 44 45  0  0  0  0  0  0  0  0  2 V2000
  148.9954  140.5740  155.4383 C   0  0  0  0  0  0  0  0  0  0  0  0
  149.8914  139.4173  155.1543 C   0  0  0  0  0  0  0  0  0  0  0  0
  149.6790  138.0687  155.1087 C   0  0  0  0  0  0  0  0  0  0  0  0
  150.9609  137.5488  154.7798 C   0  0  0  0  0  0  0  0  0  0  0  0
  151.2747  136.2518  154.6384 N   0  5  0  0  0  0  0  0  0  0  0  0
  150.3926  135.2918  155.0001 C   0  0  0  0  0  0  0  0  0  0  0  0
  150.4995  134.5261  155.9607 O   0  0  0  0  0  0  0  0  0  0  0  0
  149.3276  135.2106  154.1888 N   0  0  0  0  0  0  0  0  0  0  0  0
  148.2116  134.2731  154.3026 C   0  0  0  0  0  0  0  0  0  0  0  0
  148.0890  133.3266  153.0746 C   0  0  1  0  0  0  0  0  0  0  0  0
  148.6137  131.9213  153.4667 C   0  0  0  0  0  0  0  0  0  0  0  0
  146.7234  133.2875  152.4972 N   0  0  0  0  0  0  0  0  0  0  0  0
  146.7108  132.7956  151.1163 C   0  0  0  0  0  0  0  0  0  0  0  0
  145.2962  132.7356  150.5121 C   0  0  2  0  0  0  0  0  0  0  0  0
  145.3174  132.3028  149.0423 C   0  0  0  0  0  0  0  0  0  0  0  0
  144.6921  134.0224  150.5823 O   0  0  0  0  0  0  0  0  0  0  0  0
  144.6536  134.5910  151.8888 C   0  0  1  0  0  0  0  0  0  0  0  0
  143.5951  133.9164  152.7784 C   0  0  0  0  0  0  0  0  0  0  0  0
  146.0626  134.5978  152.5148 C   0  0  0  0  0  0  0  0  0  0  0  0
  151.8734  138.4971  154.6516 N   0  0  0  0  0  0  0  0  0  0  0  0
  151.1945  139.6990  154.8854 O   0  0  0  0  0  0  0  0  0  0  0  0
  148.7290  140.6035  156.4948 H   0  0  0  0  0  0  0  0  0  0  0  0
  148.0750  140.5007  154.8590 H   0  0  0  0  0  0  0  0  0  0  0  0
  149.4790  141.5175  155.1844 H   0  0  0  0  0  0  0  0  0  0  0  0
  148.7549  137.5377  155.2804 H   0  0  0  0  0  0  0  0  0  0  0  0
  149.2915  135.8612  153.4179 H   0  0  0  0  0  0  0  0  0  0  0  0
  148.2636  133.6892  155.2231 H   0  0  0  0  0  0  0  0  0  0  0  0
  147.3373  134.9134  154.3976 H   0  0  0  0  0  0  0  0  0  0  0  0
  148.7642  133.7134  152.3097 H   0  0  0  0  0  0  0  0  0  0  0  0
  149.6044  131.9587  153.9174 H   0  0  0  0  0  0  0  0  0  0  0  0
  148.7262  131.2623  152.6076 H   0  0  0  0  0  0  0  0  0  0  0  0
  147.9475  131.4377  154.1817 H   0  0  0  0  0  0  0  0  0  0  0  0
  147.3494  133.4260  150.4954 H   0  0  0  0  0  0  0  0  0  0  0  0
  147.1158  131.7870  151.0646 H   0  0  0  0  0  0  0  0  0  0  0  0
  144.6924  132.0189  151.0696 H   0  0  0  0  0  0  0  0  0  0  0  0
  145.7551  131.3103  148.9315 H   0  0  0  0  0  0  0  0  0  0  0  0
  145.9005  132.9956  148.4351 H   0  0  0  0  0  0  0  0  0  0  0  0
  144.3079  132.2680  148.6315 H   0  0  0  0  0  0  0  0  0  0  0  0
  144.3423  135.6279  151.7594 H   0  0  0  0  0  0  0  0  0  0  0  0
  143.4961  134.4425  153.7281 H   0  0  0  0  0  0  0  0  0  0  0  0
  143.8494  132.8816  153.0068 H   0  0  0  0  0  0  0  0  0  0  0  0
  142.6184  133.9227  152.2940 H   0  0  0  0  0  0  0  0  0  0  0  0
  145.9552  134.9673  153.5324 H   0  0  0  0  0  0  0  0  0  0  0  0
  146.6823  135.3212  151.9827 H   0  0  0  0  0  0  0  0  0  0  0  0
  1  2  1  0  0  0  0
  1 22  1  0  0  0  0
  1 23  1  0  0  0  0
  1 24  1  0  0  0  0
  2 21  1  0  0  0  0
  2  3  2  0  0  0  0
  3  4  1  0  0  0  0
  3 25  1  0  0  0  0
  4  5  1  0  0  0  0
  4 20  2  0  0  0  0
  5  6  1  0  0  0  0
  6  7  2  0  0  0  0
  6  8  1  0  0  0  0
  8  9  1  0  0  0  0
  8 26  1  0  0  0  0
  9 10  1  0  0  0  0
  9 27  1  0  0  0  0
  9 28  1  0  0  0  0
 10 11  1  0  0  0  0
 10 12  1  0  0  0  0
 10 29  1  0  0  0  0
 11 30  1  0  0  0  0
 11 31  1  0  0  0  0
 11 32  1  0  0  0  0
 12 19  1  0  0  0  0
 12 13  1  0  0  0  0
 13 14  1  0  0  0  0
 13 33  1  0  0  0  0
 13 34  1  0  0  0  0
 14 15  1  0  0  0  0
 14 16  1  0  0  0  0
 14 35  1  0  0  0  0
 15 36  1  0  0  0  0
 15 37  1  0  0  0  0
 15 38  1  0  0  0  0
 16 17  1  0  0  0  0
 17 18  1  0  0  0  0
 17 19  1  0  0  0  0
 17 39  1  0  0  0  0
 18 40  1  0  0  0  0
 18 41  1  0  0  0  0
 18 42  1  0  0  0  0
 19 43  1  0  0  0  0
 19 44  1  0  0  0  0
 20 21  1  0  0  0  0
M  CHG  1   5  -1
M  END
> <s_m_source_file>
AV-unprocessed.smi

> <i_m_source_file_index>
2061

> <i_lp_mmshare_version>
43012

> <i_f3d_flags>
0

> <s_epik_input>
W0NIM11jMVtjSF1jKG5vMSlbTkhdQyg9TylbTkhdW0NIMl1bQ0BIXShbQ0gzXSlOMltDSDJdW0NAQEhdKFtDSDNdKU9bQ0BASF0oW0NIM10pW0NIMl0y

> <s_epik_cmdline>
J2VwaWtfcHl0aG9uJywgJy1waCcsICc3LjAnLCAnLXRuJywgJzgnLCAnLW1hJywgJzIwMCcsICctbWV0YWxfYmluZGluZycsICctaW1hZScsICc8aW5maWxlLm1hZT4nLCAnLW9tYWUnLCAnPG91dGZpbGUubWFlPic=

> <r_epik_Ionization_Penalty>
6.88367

> <r_epik_Ionization_Penalty_Charging>
6.57198

> <r_epik_Ionization_Penalty_Neutral>
0.311681

> <r_epik_State_Penalty>
6.77619

> <r_epik_Charging_Adjusted_Penalty>
13.3482

> <i_epik_Tot_Q>
-1

> <i_epik_Tot_abs_Q>
1

> <r_epik_Metal_State_Penalty>
2.70524

> <b_epik_Metal_Only>
1

> <s_lp_Force_Field>
OPLS_2005

> <r_lp_Energy>
24.2039

> <b_lp_Chiralities_Consistent>
1

> <s_lp_Variant>
AV-unprocessed.smi:2061-18

> <Gold.Version>
5.8.1

> <Gold.Id.Protein>
6NUR|6NUR_protein|mol2

> <Gold.PLP.Fitness>
43.0126

> <Gold.PLP.PLP>
-34.3681

> <Gold.PLP.part.hbond>
-3.0000

> <Gold.PLP.part.metal>
0.0000

> <Gold.PLP.part.buried>
-3.3557

> <Gold.PLP.part.nonpolar>
-28.1234

> <Gold.PLP.part.repulsive>
0.6668

> <Gold.PLP.ligand.clash>
0.0000

> <Gold.PLP.ligand.torsion>
1.7081

> <Gold.PLP.Chemscore.Hbond>
4.0000

> <Gold.PLP.Chemscore.CHOScore>
0.0000

> <Gold.PLP.Chemscore.Metal>
0.0000

> <Gold.Chemscore.Hbonds>
donor molecule, donor type, donor heavy atom, donor atom, acceptor molecule, acceptor atom, score
      L1  H     8    26       P1  7948  1.00
      P1  H  7989  7998       L1    21  1.00
      P1  H 10752 10765       L1     5  2.00

> <Gold.PLP.Chemscore.Internal.Correction>
0.0606

> <Gold.Rescore>
     Score         DG    S(hbond)    S(metal)    S(lipo)     H(rot)  DE(clash)    DE(int)     intcor
     16.08     -19.05       2.77        0.00      70.20       1.52       0.01       2.96       ----

> <Gold.Chemscore.Fitness>
16.0790

> <Gold.Chemscore.DG>
-19.0545

> <Gold.Chemscore.ZeroCoef>
-5.4800

> <Gold.Chemscore.Hbond>
2.7693

> <Gold.Chemscore.Metal>
0.0000

> <Gold.Chemscore.Lipo>
70.2018

> <Gold.Chemscore.Internal_Hbond>
0.0000

> <Gold.Chemscore.DEClash>
0.0106

> <Gold.Chemscore.DEInternal>
2.9649

> <Gold.Chemscore.Rot>
1.5190

> <Gold.Chemscore.Internal.Correction>
   9.000000E+99

> <Gold.Chemscore.Hbonds>
donor molecule, donor type, donor heavy atom, donor atom, acceptor molecule, acceptor atom, score
      L1  H     8    26       P1  7948  0.57
      P1  H  7989  7998       L1    21  0.59
      P1  H 10752 10765       L1     5  0.74

> <Gold.Chemscore.Hbond.Weighted>
-9.2495

> <Gold.Chemscore.Metal.Weighted>
-0.0000

> <Gold.Chemscore.Lipo.Weighted>
-8.2136

> <Gold.Chemscore.Internal_Hbond.Weighted>
0.0000

> <Gold.Chemscore.DEClash.Weighted>
0.0106

> <Gold.Chemscore.DEInternal.Weighted>
2.9649

> <Gold.Chemscore.Rot.Weighted>
3.8886

> <Gold.Chemscore.Internal.Correction.Weighted>
   9.000000E+99

> <Gold.Protein.RotatedTorsions>
[ 6907 6896 6895 6894 ] final   94.11 input  -60.11 | X-H torsion
[ 7974 7965 7964 7962 ] final   44.66 input  175.53 | X-H torsion
[ 8008 7997 7996 7995 ] final   72.04 input   59.86 | X-H torsion
[ 10167 10162 10161 10158 ] final   16.87 input  -65.29 | X-H torsion
[ 10718 10713 10712 10709 ] final  122.14 input   66.30 | X-H torsion
[ 10763 10752 10751 10750 ] final -176.90 input  -60.55 | X-H torsion
[ 11005 11000 10999 10996 ] final   -9.24 input  -57.11 | X-H torsion

> <Gold.Protein.ActiveResidues>
 VAL166  LYS551  ARG553  GLY616  TRP617  ASP618  TYR619  PRO620  LYS621  CYS622 
 ASP623  PHE694  ASN695  SER759  ASP760  ASP761  ALA762  ILE779  LEU786  VAL792 
 PHE793  MET794  SER795  GLU796  ALA797  LYS798  CYS799  TRP800  GLU811  SER814 

> <Gold.Protein.RotatedAtoms>
  152.5450  134.1244  159.8412 H   0  0  0  0  0  0  0  0  0  0  0  0  # atno 6907 bound_to 6896
  151.1296  133.5039  159.2607 H   0  0  0  0  0  0  0  0  0  0  0  0  # atno 6908 bound_to 6896
  151.1690  135.0319  159.8798 H   0  0  0  0  0  0  0  0  0  0  0  0  # atno 6909 bound_to 6896
  146.0549  139.5049  142.9695 H   0  0  0  0  0  0  0  0  0  0  0  0  # atno 7974 bound_to 7965
  155.7629  140.3486  155.5207 H   0  0  0  0  0  0  0  0  0  0  0  0  # atno 8008 bound_to 7997
  155.8896  140.1015  157.1449 H   0  0  0  0  0  0  0  0  0  0  0  0  # atno 8009 bound_to 7997
  154.4032  140.1307  156.4286 H   0  0  0  0  0  0  0  0  0  0  0  0  # atno 8010 bound_to 7997
  140.5766  143.9060  150.6755 H   0  0  0  0  0  0  0  0  0  0  0  0  # atno 10167 bound_to 10162
  157.5765  131.1079  150.8270 H   0  0  0  0  0  0  0  0  0  0  0  0  # atno 10718 bound_to 10713
  154.5667  135.2824  155.0867 H   0  0  0  0  0  0  0  0  0  0  0  0  # atno 10763 bound_to 10752
  154.2255  135.6383  153.5162 H   0  0  0  0  0  0  0  0  0  0  0  0  # atno 10764 bound_to 10752
  153.0045  135.5525  154.6277 H   0  0  0  0  0  0  0  0  0  0  0  0  # atno 10765 bound_to 10752
  140.7320  133.8741  155.8900 H   0  0  0  0  0  0  0  0  0  0  0  0  # atno 11005 bound_to 11000
  145.6662  141.0228  143.1682 LP  0  0  0  0  0  0  0  0  0  0  0  0  # atno 17320 bound_to 7965
  144.7142  139.8257  143.7404 LP  0  0  0  0  0  0  0  0  0  0  0  0  # atno 17321 bound_to 7965
  140.2549  143.3566  152.1374 LP  0  0  0  0  0  0  0  0  0  0  0  0  # atno 17342 bound_to 10162
  139.5146  144.6951  151.5653 LP  0  0  0  0  0  0  0  0  0  0  0  0  # atno 17343 bound_to 10162
  156.8727  130.5152  149.5295 LP  0  0  0  0  0  0  0  0  0  0  0  0  # atno 17370 bound_to 10713
  156.0809  130.5820  150.9562 LP  0  0  0  0  0  0  0  0  0  0  0  0  # atno 17371 bound_to 10713
  140.9912  134.1275  157.4406 LP  0  0  0  0  0  0  0  0  0  0  0  0  # atno 17394 bound_to 11000
  139.8824  135.0041  156.6228 LP  0  0  0  0  0  0  0  0  0  0  0  0  # atno 17395 bound_to 11000

$$$$
