AV-unprocessed.smi:249|AV-procd|sdf|1919|dock7
  -GOLD-   2262021 23D 1   1.00000     0.00000
 Structure written by MMmdl.
 64 67  0  0  0  0  0  0  0  0  2 V2000
  146.1643  128.5149  151.7989 C   0  0  0  0  0  0  0  0  0  0  0  0
  146.4412  129.7068  152.7296 C   0  0  0  0  0  0  0  0  0  0  0  0
  146.7669  130.9662  151.9995 N   0  3  1  0  0  0  0  0  0  0  0  0
  145.5902  131.4802  151.2399 C   0  0  0  0  0  0  0  0  0  0  0  0
  145.9250  132.7385  150.4229 C   0  0  0  0  0  0  0  0  0  0  0  0
  146.4565  133.8674  151.3209 C   0  0  1  0  0  0  0  0  0  0  0  0
  145.4236  134.3885  152.2321 N   0  0  0  0  0  0  0  0  0  0  0  0
  144.1844  134.8833  151.6414 C   0  0  0  0  0  0  0  0  0  0  0  0
  145.8441  135.2167  153.2148 C   0  0  0  0  0  0  0  0  0  0  0  0
  145.9946  134.6810  154.4511 N   0  0  0  0  0  0  0  0  0  0  0  0
  146.4259  135.4439  155.4601 C   0  0  0  0  0  0  0  0  0  0  0  0
  146.7595  136.7361  155.4459 N   0  0  0  0  0  0  0  0  0  0  0  0
  146.5990  137.2781  154.2046 C   0  0  0  0  0  0  0  0  0  0  0  0
  146.1397  136.5982  153.0424 C   0  0  0  0  0  0  0  0  0  0  0  0
  146.0941  137.4752  151.9654 N   0  0  0  0  0  0  0  0  0  0  0  0
  146.5195  138.6063  152.4586 C   0  0  0  0  0  0  0  0  0  0  0  0
  146.8607  138.5724  153.7916 N   0  0  0  0  0  0  0  0  0  0  0  0
  147.3866  139.6746  154.5779 C   0  0  0  0  0  0  0  0  0  0  0  0
  148.8634  140.0079  154.2456 C   0  0  1  0  0  0  0  0  0  0  0  0
  149.1242  141.5256  154.3984 C   0  0  0  0  0  0  0  0  0  0  0  0
  148.9176  141.9370  155.7338 O   0  0  0  0  0  0  0  0  0  0  0  0
  149.8663  139.1149  155.0326 C   0  0  2  0  0  0  0  0  0  0  0  0
  151.3448  139.4879  154.9270 C   0  0  0  0  0  0  0  0  0  0  0  0
  152.0643  138.1403  154.8237 C   0  0  0  0  0  0  0  0  0  0  0  0
  151.0947  137.1764  155.2067 O   0  0  0  0  0  0  0  0  0  0  0  0
  149.8497  137.6212  154.6960 C   0  0  0  0  0  0  0  0  0  0  0  0
  147.6960  133.2963  152.0439 C   0  0  0  0  0  0  0  0  0  0  0  0
  147.3806  132.0252  152.8662 C   0  0  2  0  0  0  0  0  0  0  0  0
  148.6766  131.5609  153.5634 C   0  0  0  0  0  0  0  0  0  0  0  0
  146.0932  127.5920  152.3753 H   0  0  0  0  0  0  0  0  0  0  0  0
  146.9665  128.3863  151.0717 H   0  0  0  0  0  0  0  0  0  0  0  0
  145.2247  128.6197  151.2574 H   0  0  0  0  0  0  0  0  0  0  0  0
  145.5949  129.8730  153.3979 H   0  0  0  0  0  0  0  0  0  0  0  0
  147.2750  129.4036  153.3580 H   0  0  0  0  0  0  0  0  0  0  0  0
  145.2290  130.7251  150.5439 H   0  0  0  0  0  0  0  0  0  0  0  0
  144.7713  131.6857  151.9309 H   0  0  0  0  0  0  0  0  0  0  0  0
  146.6788  132.4870  149.6756 H   0  0  0  0  0  0  0  0  0  0  0  0
  145.0529  133.0638  149.8556 H   0  0  0  0  0  0  0  0  0  0  0  0
  146.7735  134.6876  150.6762 H   0  0  0  0  0  0  0  0  0  0  0  0
  143.6012  135.4789  152.3461 H   0  0  0  0  0  0  0  0  0  0  0  0
  143.5570  134.0493  151.3277 H   0  0  0  0  0  0  0  0  0  0  0  0
  144.3949  135.5022  150.7685 H   0  0  0  0  0  0  0  0  0  0  0  0
  146.5226  134.9470  156.4142 H   0  0  0  0  0  0  0  0  0  0  0  0
  146.6098  139.4993  151.8569 H   0  0  0  0  0  0  0  0  0  0  0  0
  146.7474  140.5395  154.3990 H   0  0  0  0  0  0  0  0  0  0  0  0
  147.2839  139.4318  155.6359 H   0  0  0  0  0  0  0  0  0  0  0  0
  149.0159  139.7655  153.1923 H   0  0  0  0  0  0  0  0  0  0  0  0
  150.1415  141.7858  154.1068 H   0  0  0  0  0  0  0  0  0  0  0  0
  148.4545  142.1156  153.7764 H   0  0  0  0  0  0  0  0  0  0  0  0
  148.6519  142.8438  155.7319 H   0  0  0  0  0  0  0  0  0  0  0  0
  149.6100  139.1563  156.0916 H   0  0  0  0  0  0  0  0  0  0  0  0
  151.5768  140.1116  154.0646 H   0  0  0  0  0  0  0  0  0  0  0  0
  151.6628  140.0319  155.8166 H   0  0  0  0  0  0  0  0  0  0  0  0
  152.3701  137.9495  153.7940 H   0  0  0  0  0  0  0  0  0  0  0  0
  152.9499  138.0874  155.4572 H   0  0  0  0  0  0  0  0  0  0  0  0
  149.0163  137.0967  155.1642 H   0  0  0  0  0  0  0  0  0  0  0  0
  149.8180  137.4233  153.6254 H   0  0  0  0  0  0  0  0  0  0  0  0
  148.4546  133.0554  151.2976 H   0  0  0  0  0  0  0  0  0  0  0  0
  148.1591  134.0517  152.6791 H   0  0  0  0  0  0  0  0  0  0  0  0
  146.6585  132.2846  153.6419 H   0  0  0  0  0  0  0  0  0  0  0  0
  149.1789  132.3983  154.0490 H   0  0  0  0  0  0  0  0  0  0  0  0
  149.3793  131.1270  152.8510 H   0  0  0  0  0  0  0  0  0  0  0  0
  148.4898  130.8304  154.3494 H   0  0  0  0  0  0  0  0  0  0  0  0
  147.4690  130.7263  151.3143 H   0  0  0  0  0  0  0  0  0  0  0  0
  1  2  1  0  0  0  0
  1 30  1  0  0  0  0
  1 31  1  0  0  0  0
  1 32  1  0  0  0  0
  2  3  1  0  0  0  0
  2 33  1  0  0  0  0
  2 34  1  0  0  0  0
  3 28  1  0  0  0  0
  3  4  1  0  0  0  0
  3 64  1  0  0  0  0
  4  5  1  0  0  0  0
  4 35  1  0  0  0  0
  4 36  1  0  0  0  0
  5  6  1  0  0  0  0
  5 37  1  0  0  0  0
  5 38  1  0  0  0  0
  6  7  1  0  0  0  0
  6 27  1  0  0  0  0
  6 39  1  0  0  0  0
  7  8  1  0  0  0  0
  7  9  1  0  0  0  0
  8 40  1  0  0  0  0
  8 41  1  0  0  0  0
  8 42  1  0  0  0  0
  9 14  1  0  0  0  0
  9 10  2  0  0  0  0
 10 11  1  0  0  0  0
 11 12  2  0  0  0  0
 11 43  1  0  0  0  0
 12 13  1  0  0  0  0
 13 17  1  0  0  0  0
 13 14  2  0  0  0  0
 14 15  1  0  0  0  0
 15 16  2  0  0  0  0
 16 17  1  0  0  0  0
 16 44  1  0  0  0  0
 17 18  1  0  0  0  0
 18 19  1  0  0  0  0
 18 45  1  0  0  0  0
 18 46  1  0  0  0  0
 19 20  1  0  0  0  0
 19 22  1  0  0  0  0
 19 47  1  0  0  0  0
 20 21  1  0  0  0  0
 20 48  1  0  0  0  0
 20 49  1  0  0  0  0
 21 50  1  0  0  0  0
 22 26  1  0  0  0  0
 22 23  1  0  0  0  0
 22 51  1  0  0  0  0
 23 24  1  0  0  0  0
 23 52  1  0  0  0  0
 23 53  1  0  0  0  0
 24 25  1  0  0  0  0
 24 54  1  0  0  0  0
 24 55  1  0  0  0  0
 25 26  1  0  0  0  0
 26 56  1  0  0  0  0
 26 57  1  0  0  0  0
 27 28  1  0  0  0  0
 27 58  1  0  0  0  0
 27 59  1  0  0  0  0
 28 29  1  0  0  0  0
 28 60  1  0  0  0  0
 29 61  1  0  0  0  0
 29 62  1  0  0  0  0
 29 63  1  0  0  0  0
M  CHG  1   3   1
M  END
> <s_m_source_file>
AV-unprocessed.smi

> <i_m_source_file_index>
249

> <i_lp_mmshare_version>
43012

> <i_f3d_flags>
0

> <s_epik_input>
W0NIM11bQ0gyXU4xW0NIMl1bQ0gyXVtDQEhdKFtDSDJdW0NASF0xW0NIM10pTihbQ0gzXSljKG5bY0hdbjIpYyhjMjMpbltjSF1uM1tDSDJdW0NASF0oW0NIMl1bT0hdKVtDQEBIXTRbQ0gyXVtDSDJdT1tDSDJdNA==

> <s_epik_cmdline>
J2VwaWtfcHl0aG9uJywgJy1waCcsICc3LjAnLCAnLXRuJywgJzgnLCAnLW1hJywgJzIwMCcsICctbWV0YWxfYmluZGluZycsICctaW1hZScsICc8aW5maWxlLm1hZT4nLCAnLW9tYWUnLCAnPG91dGZpbGUubWFlPic=

> <r_lp_tautomer_probability>
1

> <r_epik_Ionization_Penalty>
0.00294688

> <r_epik_Ionization_Penalty_Charging>
0.00169971

> <r_epik_Ionization_Penalty_Neutral>
0.00124717

> <r_epik_State_Penalty>
-0

> <r_epik_Charging_Adjusted_Penalty>
0.00169971

> <i_epik_Tot_Q>
1

> <i_epik_Tot_abs_Q>
1

> <r_epik_Metal_State_Penalty>
-0

> <b_epik_Metal_Only>
0

> <s_lp_Force_Field>
OPLS_2005

> <r_lp_Energy>
56.7339

> <b_lp_Chiralities_Consistent>
1

> <s_lp_Variant>
AV-unprocessed.smi:249-22

> <Gold.Version>
5.8.1

> <Gold.Id.Protein>
6NUR|6NUR_protein|mol2

> <Gold.PLP.Fitness>
47.8617

> <Gold.PLP.PLP>
-43.3200

> <Gold.PLP.part.hbond>
-2.0000

> <Gold.PLP.part.metal>
0.0000

> <Gold.PLP.part.buried>
-1.2078

> <Gold.PLP.part.nonpolar>
-40.0233

> <Gold.PLP.part.repulsive>
0.8004

> <Gold.PLP.ligand.clash>
0.0000

> <Gold.PLP.ligand.torsion>
1.0601

> <Gold.PLP.Chemscore.Hbond>
2.0000

> <Gold.PLP.Chemscore.CHOScore>
0.0000

> <Gold.PLP.Chemscore.Metal>
0.0000

> <Gold.Chemscore.Hbonds>
donor molecule, donor type, donor heavy atom, donor atom, acceptor molecule, acceptor atom, score
      L1  H     3    64       P1 10747  1.00
      L1  H    21    50       P1  8028  1.00

> <Gold.PLP.Chemscore.Internal.Correction>
0.6618

> <Gold.Rescore>
     Score         DG    S(hbond)    S(metal)    S(lipo)     H(rot)  DE(clash)    DE(int)     intcor
     16.79     -18.14       1.98        0.00     115.29       2.90       0.23       1.12       ----

> <Gold.Chemscore.Fitness>
16.7884

> <Gold.Chemscore.DG>
-18.1405

> <Gold.Chemscore.ZeroCoef>
-5.4800

> <Gold.Chemscore.Hbond>
1.9751

> <Gold.Chemscore.Metal>
0.0000

> <Gold.Chemscore.Lipo>
115.2928

> <Gold.Chemscore.Internal_Hbond>
0.0000

> <Gold.Chemscore.DEClash>
0.2338

> <Gold.Chemscore.DEInternal>
1.1183

> <Gold.Chemscore.Rot>
2.9006

> <Gold.Chemscore.Internal.Correction>
   9.000000E+99

> <Gold.Chemscore.Hbonds>
donor molecule, donor type, donor heavy atom, donor atom, acceptor molecule, acceptor atom, score
      L1  H     3    64       P1 10747  1.00
      L1  H    21    50       P1  8028  0.99

> <Gold.Chemscore.Hbond.Weighted>
-6.5969

> <Gold.Chemscore.Metal.Weighted>
-0.0000

> <Gold.Chemscore.Lipo.Weighted>
-13.4893

> <Gold.Chemscore.Internal_Hbond.Weighted>
0.0000

> <Gold.Chemscore.DEClash.Weighted>
0.2338

> <Gold.Chemscore.DEInternal.Weighted>
1.1183

> <Gold.Chemscore.Rot.Weighted>
7.4256

> <Gold.Chemscore.Internal.Correction.Weighted>
   9.000000E+99

> <Gold.Protein.RotatedTorsions>
[ 6907 6896 6895 6894 ] final -148.47 input  -60.11 | X-H torsion
[ 7974 7965 7964 7962 ] final  -97.70 input  175.53 | X-H torsion
[ 8008 7997 7996 7995 ] final   49.25 input   59.86 | X-H torsion
[ 10167 10162 10161 10158 ] final   -7.28 input  -65.29 | X-H torsion
[ 10718 10713 10712 10709 ] final  124.09 input   66.30 | X-H torsion
[ 10763 10752 10751 10750 ] final  -76.21 input  -60.55 | X-H torsion
[ 11005 11000 10999 10996 ] final   66.64 input  -57.11 | X-H torsion

> <Gold.Protein.ActiveResidues>
 VAL166  LYS551  ARG553  GLY616  TRP617  ASP618  TYR619  PRO620  LYS621  CYS622 
 ASP623  PHE694  ASN695  SER759  ASP760  ASP761  ALA762  ILE779  LEU786  VAL792 
 PHE793  MET794  SER795  GLU796  ALA797  LYS798  CYS799  TRP800  GLU811  SER814 

> <Gold.Protein.RotatedAtoms>
  151.1703  133.4788  159.2593 H   0  0  0  0  0  0  0  0  0  0  0  0  # atno 6907 bound_to 6896
  151.1362  135.0156  159.8615 H   0  0  0  0  0  0  0  0  0  0  0  0  # atno 6908 bound_to 6896
  152.5461  134.1601  159.8607 H   0  0  0  0  0  0  0  0  0  0  0  0  # atno 6909 bound_to 6896
  145.3302  140.9440  143.2666 H   0  0  0  0  0  0  0  0  0  0  0  0  # atno 7974 bound_to 7965
  155.3991  140.3437  155.4256 H   0  0  0  0  0  0  0  0  0  0  0  0  # atno 8008 bound_to 7997
  156.1514  140.1572  156.8796 H   0  0  0  0  0  0  0  0  0  0  0  0  # atno 8009 bound_to 7997
  154.5056  140.0803  156.7868 H   0  0  0  0  0  0  0  0  0  0  0  0  # atno 8010 bound_to 7997
  140.7024  143.6099  150.8714 H   0  0  0  0  0  0  0  0  0  0  0  0  # atno 10167 bound_to 10162
  157.5613  131.1089  150.8533 H   0  0  0  0  0  0  0  0  0  0  0  0  # atno 10718 bound_to 10713
  154.4968  135.5805  153.6501 H   0  0  0  0  0  0  0  0  0  0  0  0  # atno 10763 bound_to 10752
  152.9871  135.6126  154.3054 H   0  0  0  0  0  0  0  0  0  0  0  0  # atno 10764 bound_to 10752
  154.2958  135.2847  155.2613 H   0  0  0  0  0  0  0  0  0  0  0  0  # atno 10765 bound_to 10752
  139.9819  134.6729  156.0246 H   0  0  0  0  0  0  0  0  0  0  0  0  # atno 11005 bound_to 11000
  144.8870  139.4826  143.6696 LP  0  0  0  0  0  0  0  0  0  0  0  0  # atno 17320 bound_to 7965
  146.3048  139.7545  142.9064 LP  0  0  0  0  0  0  0  0  0  0  0  0  # atno 17321 bound_to 7965
  139.9822  143.5938  152.2939 LP  0  0  0  0  0  0  0  0  0  0  0  0  # atno 17342 bound_to 10162
  139.6564  144.7662  151.2048 LP  0  0  0  0  0  0  0  0  0  0  0  0  # atno 17343 bound_to 10162
  156.9030  130.5253  149.5282 LP  0  0  0  0  0  0  0  0  0  0  0  0  # atno 17370 bound_to 10713
  156.0665  130.5707  150.9300 LP  0  0  0  0  0  0  0  0  0  0  0  0  # atno 17371 bound_to 10713
  141.1490  133.6551  156.3955 LP  0  0  0  0  0  0  0  0  0  0  0  0  # atno 17394 bound_to 11000
  140.5079  134.6424  157.5273 LP  0  0  0  0  0  0  0  0  0  0  0  0  # atno 17395 bound_to 11000

$$$$
