AV-unprocessed.smi:13|AV-procd|sdf|72|dock8
  -GOLD-   2262015193D 1   1.00000     0.00000
 Structure written by MMmdl.
 54 58  0  0  0  0  0  0  0  0  1 V2000
  151.0787  143.9536  160.1532 C   0  0  0  0  0  0  0  0  0  0  0  0
  151.8378  143.0351  159.1963 C   0  0  0  0  0  0  0  0  0  0  0  0
  152.7616  143.9335  158.3619 C   0  0  0  0  0  0  0  0  0  0  0  0
  152.5101  141.8093  159.8380 C   0  0  0  0  0  0  0  0  0  0  0  0
  152.0829  141.0608  158.6689 N   0  0  0  0  0  0  0  0  0  0  0  0
  151.7473  139.7060  158.9367 C   0  0  0  0  0  0  0  0  0  0  0  0
  152.5856  138.8860  159.6268 N   0  0  0  0  0  0  0  0  0  0  0  0
  152.2496  137.6180  159.8800 C   0  0  0  0  0  0  0  0  0  0  0  0
  151.1385  136.9658  159.5357 N   0  0  0  0  0  0  0  0  0  0  0  0
  150.2945  137.7740  158.8337 C   0  0  0  0  0  0  0  0  0  0  0  0
  150.5210  139.1384  158.4980 C   0  0  0  0  0  0  0  0  0  0  0  0
  149.4376  139.6379  157.7876 N   0  0  0  0  0  0  0  0  0  0  0  0
  148.6155  138.6272  157.7103 C   0  0  0  0  0  0  0  0  0  0  0  0
  149.0559  137.4623  158.2988 N   0  0  0  0  0  0  0  0  0  0  0  0
  148.3456  136.1936  158.3735 C   0  0  0  0  0  0  0  0  0  0  0  0
  147.0453  136.2186  159.2181 C   0  0  2  0  0  0  0  0  0  0  0  0
  146.6173  134.8744  159.3429 O   0  0  0  0  0  0  0  0  0  0  0  0
  145.8917  137.0297  158.6260 C   0  0  0  0  0  0  0  0  0  0  0  0
  145.1439  137.5132  159.8608 C   0  0  0  0  0  0  0  0  0  0  0  0
  146.2004  137.8243  160.7516 O   0  0  0  0  0  0  0  0  0  0  0  0
  147.1890  136.8068  160.6391 C   0  0  0  0  0  0  0  0  0  0  0  0
  150.9815  141.9914  158.4465 C   0  0  2  0  0  0  0  0  0  0  0  0
  150.6428  142.1168  156.9608 C   0  0  2  0  0  0  0  0  0  0  0  0
  149.1461  142.2586  156.6740 C   0  0  0  0  0  0  0  0  0  0  0  0
  148.9581  141.5777  155.3250 C   0  0  0  0  0  0  0  0  0  0  0  0
  150.3225  140.9558  155.0243 C   0  0  0  0  0  0  0  0  0  0  0  0
  150.9740  140.9145  156.2833 O   0  0  0  0  0  0  0  0  0  0  0  0
  151.7589  144.5126  160.7965 H   0  0  0  0  0  0  0  0  0  0  0  0
  150.4113  143.3880  160.8043 H   0  0  0  0  0  0  0  0  0  0  0  0
  150.4657  144.6751  159.6122 H   0  0  0  0  0  0  0  0  0  0  0  0
  153.3185  143.3628  157.6181 H   0  0  0  0  0  0  0  0  0  0  0  0
  153.4956  144.4392  158.9898 H   0  0  0  0  0  0  0  0  0  0  0  0
  152.2037  144.7031  157.8283 H   0  0  0  0  0  0  0  0  0  0  0  0
  153.5930  141.8840  159.9408 H   0  0  0  0  0  0  0  0  0  0  0  0
  152.0292  141.4790  160.7612 H   0  0  0  0  0  0  0  0  0  0  0  0
  152.9747  137.0453  160.4388 H   0  0  0  0  0  0  0  0  0  0  0  0
  147.6560  138.7102  157.2212 H   0  0  0  0  0  0  0  0  0  0  0  0
  148.1180  135.8781  157.3542 H   0  0  0  0  0  0  0  0  0  0  0  0
  149.0335  135.4469  158.7724 H   0  0  0  0  0  0  0  0  0  0  0  0
  147.0310  134.4980  160.1046 H   0  0  0  0  0  0  0  0  0  0  0  0
  146.2537  137.9067  158.0927 H   0  0  0  0  0  0  0  0  0  0  0  0
  145.2632  136.4641  157.9368 H   0  0  0  0  0  0  0  0  0  0  0  0
  144.5146  138.3810  159.6620 H   0  0  0  0  0  0  0  0  0  0  0  0
  144.5228  136.7214  160.2826 H   0  0  0  0  0  0  0  0  0  0  0  0
  147.0143  136.0549  161.4106 H   0  0  0  0  0  0  0  0  0  0  0  0
  148.1707  137.2341  160.8334 H   0  0  0  0  0  0  0  0  0  0  0  0
  150.1033  141.7520  159.0488 H   0  0  0  0  0  0  0  0  0  0  0  0
  151.1843  142.9429  156.4951 H   0  0  0  0  0  0  0  0  0  0  0  0
  148.5604  141.7361  157.4319 H   0  0  0  0  0  0  0  0  0  0  0  0
  148.8245  143.3001  156.6642 H   0  0  0  0  0  0  0  0  0  0  0  0
  148.1865  140.8100  155.3950 H   0  0  0  0  0  0  0  0  0  0  0  0
  148.6636  142.2806  154.5452 H   0  0  0  0  0  0  0  0  0  0  0  0
  150.2457  139.9628  154.5808 H   0  0  0  0  0  0  0  0  0  0  0  0
  150.8944  141.5901  154.3452 H   0  0  0  0  0  0  0  0  0  0  0  0
  1  2  1  0  0  0  0
  1 28  1  0  0  0  0
  1 29  1  0  0  0  0
  1 30  1  0  0  0  0
  2 22  1  0  0  0  0
  2  3  1  0  0  0  0
  2  4  1  0  0  0  0
  3 31  1  0  0  0  0
  3 32  1  0  0  0  0
  3 33  1  0  0  0  0
  4  5  1  0  0  0  0
  4 34  1  0  0  0  0
  4 35  1  0  0  0  0
  5  6  1  0  0  0  0
  5 22  1  0  0  0  0
  6 11  1  0  0  0  0
  6  7  2  0  0  0  0
  7  8  1  0  0  0  0
  8  9  2  0  0  0  0
  8 36  1  0  0  0  0
  9 10  1  0  0  0  0
 10 14  1  0  0  0  0
 10 11  2  0  0  0  0
 11 12  1  0  0  0  0
 12 13  2  0  0  0  0
 13 14  1  0  0  0  0
 13 37  1  0  0  0  0
 14 15  1  0  0  0  0
 15 16  1  0  0  0  0
 15 38  1  0  0  0  0
 15 39  1  0  0  0  0
 16 21  1  0  0  0  0
 16 17  1  0  0  0  0
 16 18  1  0  0  0  0
 17 40  1  0  0  0  0
 18 19  1  0  0  0  0
 18 41  1  0  0  0  0
 18 42  1  0  0  0  0
 19 20  1  0  0  0  0
 19 43  1  0  0  0  0
 19 44  1  0  0  0  0
 20 21  1  0  0  0  0
 21 45  1  0  0  0  0
 21 46  1  0  0  0  0
 22 23  1  0  0  0  0
 22 47  1  0  0  0  0
 23 27  1  0  0  0  0
 23 24  1  0  0  0  0
 23 48  1  0  0  0  0
 24 25  1  0  0  0  0
 24 49  1  0  0  0  0
 24 50  1  0  0  0  0
 25 26  1  0  0  0  0
 25 51  1  0  0  0  0
 25 52  1  0  0  0  0
 26 27  1  0  0  0  0
 26 53  1  0  0  0  0
 26 54  1  0  0  0  0
M  END
> <s_m_source_file>
AV-unprocessed.smi

> <i_m_source_file_index>
13

> <i_lp_mmshare_version>
43012

> <i_f3d_flags>
0

> <s_epik_input>
TzFbQ0gyXVtDSDJdW0NIMl1bQ0BIXTFbQ0BASF0yTihbQ0gyXUMyKFtDSDNdKVtDSDNdKWMobltjSF1uMyljKGMzNCluW2NIXW40W0NIMl1bQ0BAXTUoW09IXSlbQ0gyXVtDSDJdT1tDSDJdNQ==

> <s_epik_cmdline>
J2VwaWtfcHl0aG9uJywgJy1waCcsICc3LjAnLCAnLXRuJywgJzgnLCAnLW1hJywgJzIwMCcsICctbWV0YWxfYmluZGluZycsICctaW1hZScsICc8aW5maWxlLm1hZT4nLCAnLW9tYWUnLCAnPG91dGZpbGUubWFlPic=

> <r_lp_tautomer_probability>
1

> <r_epik_Ionization_Penalty>
0.00202764

> <r_epik_Ionization_Penalty_Charging>
0

> <r_epik_Ionization_Penalty_Neutral>
0.00202764

> <r_epik_State_Penalty>
0.00134017

> <r_epik_Charging_Adjusted_Penalty>
0.00134017

> <i_epik_Tot_Q>
0

> <i_epik_Tot_abs_Q>
0

> <r_epik_Metal_State_Penalty>
-0

> <b_epik_Metal_Only>
0

> <s_lp_Force_Field>
OPLS_2005

> <r_lp_Energy>
64.4217

> <b_lp_Chiralities_Consistent>
1

> <s_lp_Variant>
AV-unprocessed.smi:13-4

> <Gold.Version>
5.8.1

> <Gold.Id.Protein>
6NUR|6NUR_protein|mol2

> <Gold.PLP.Fitness>
43.9074

> <Gold.PLP.PLP>
-40.8987

> <Gold.PLP.part.hbond>
-3.0000

> <Gold.PLP.part.metal>
0.0000

> <Gold.PLP.part.buried>
-2.8127

> <Gold.PLP.part.nonpolar>
-34.8590

> <Gold.PLP.part.repulsive>
0.0292

> <Gold.PLP.ligand.clash>
0.0000

> <Gold.PLP.ligand.torsion>
1.7254

> <Gold.PLP.Chemscore.Hbond>
2.0000

> <Gold.PLP.Chemscore.CHOScore>
0.0000

> <Gold.PLP.Chemscore.Metal>
0.0000

> <Gold.Chemscore.Hbonds>
donor molecule, donor type, donor heavy atom, donor atom, acceptor molecule, acceptor atom, score
      P1  H  6896  6907       L1     9  1.00
      P1  H  6934  6947       L1    20  0.95

> <Gold.PLP.Chemscore.Internal.Correction>
0.4595

> <Gold.Rescore>
     Score         DG    S(hbond)    S(metal)    S(lipo)     H(rot)  DE(clash)    DE(int)     intcor
      8.03     -16.30       1.70        0.00      94.20       2.30       0.33       7.93       ----

> <Gold.Chemscore.Fitness>
8.0310

> <Gold.Chemscore.DG>
-16.2963

> <Gold.Chemscore.ZeroCoef>
-5.4800

> <Gold.Chemscore.Hbond>
1.7011

> <Gold.Chemscore.Metal>
0.0000

> <Gold.Chemscore.Lipo>
94.2023

> <Gold.Chemscore.Internal_Hbond>
0.0000

> <Gold.Chemscore.DEClash>
0.3344

> <Gold.Chemscore.DEInternal>
7.9310

> <Gold.Chemscore.Rot>
2.2996

> <Gold.Chemscore.Internal.Correction>
   9.000000E+99

> <Gold.Chemscore.Hbonds>
donor molecule, donor type, donor heavy atom, donor atom, acceptor molecule, acceptor atom, score
      P1  H  6896  6907       L1     9  0.74
      P1  H  6934  6947       L1    20  0.20

> <Gold.Chemscore.Hbond.Weighted>
-5.6816

> <Gold.Chemscore.Metal.Weighted>
-0.0000

> <Gold.Chemscore.Lipo.Weighted>
-11.0217

> <Gold.Chemscore.Internal_Hbond.Weighted>
0.0000

> <Gold.Chemscore.DEClash.Weighted>
0.3344

> <Gold.Chemscore.DEInternal.Weighted>
7.9310

> <Gold.Chemscore.Rot.Weighted>
5.8869

> <Gold.Chemscore.Internal.Correction.Weighted>
   9.000000E+99

> <Gold.Protein.RotatedTorsions>
[ 6907 6896 6895 6894 ] final  -15.09 input  -60.11 | X-H torsion
[ 7974 7965 7964 7962 ] final  132.57 input  175.53 | X-H torsion
[ 8008 7997 7996 7995 ] final  176.80 input   59.86 | X-H torsion
[ 10167 10162 10161 10158 ] final  -70.14 input  -65.29 | X-H torsion
[ 10718 10713 10712 10709 ] final -116.48 input   66.30 | X-H torsion
[ 10763 10752 10751 10750 ] final  -58.85 input  -60.55 | X-H torsion
[ 11005 11000 10999 10996 ] final   -3.86 input  -57.11 | X-H torsion

> <Gold.Protein.ActiveResidues>
 VAL166  LYS551  ARG553  GLY616  TRP617  ASP618  TYR619  PRO620  LYS621  CYS622 
 ASP623  PHE694  ASN695  SER759  ASP760  ASP761  ALA762  ILE779  LEU786  VAL792 
 PHE793  MET794  SER795  GLU796  ALA797  LYS798  CYS799  TRP800  GLU811  SER814 

> <Gold.Protein.RotatedAtoms>
  151.3293  135.0838  159.9332 H   0  0  0  0  0  0  0  0  0  0  0  0  # atno 6907 bound_to 6896
  152.5238  133.9559  159.7704 H   0  0  0  0  0  0  0  0  0  0  0  0  # atno 6908 bound_to 6896
  150.9895  133.6111  159.2740 H   0  0  0  0  0  0  0  0  0  0  0  0  # atno 6909 bound_to 6896
  144.9955  139.4364  143.5318 H   0  0  0  0  0  0  0  0  0  0  0  0  # atno 7974 bound_to 7965
  156.0726  140.1374  156.9810 H   0  0  0  0  0  0  0  0  0  0  0  0  # atno 8008 bound_to 7997
  154.4540  140.0968  156.6753 H   0  0  0  0  0  0  0  0  0  0  0  0  # atno 8009 bound_to 7997
  155.5204  140.3456  155.4408 H   0  0  0  0  0  0  0  0  0  0  0  0  # atno 8010 bound_to 7997
  140.5375  143.2317  151.7149 H   0  0  0  0  0  0  0  0  0  0  0  0  # atno 10167 bound_to 10162
  156.0967  130.6138  150.9041 H   0  0  0  0  0  0  0  0  0  0  0  0  # atno 10718 bound_to 10713
  154.2446  135.6337  153.5219 H   0  0  0  0  0  0  0  0  0  0  0  0  # atno 10763 bound_to 10752
  152.9923  135.5550  154.5873 H   0  0  0  0  0  0  0  0  0  0  0  0  # atno 10764 bound_to 10752
  154.5387  135.2893  155.1090 H   0  0  0  0  0  0  0  0  0  0  0  0  # atno 10765 bound_to 10752
  140.6739  133.9212  155.8512 H   0  0  0  0  0  0  0  0  0  0  0  0  # atno 11005 bound_to 11000
  146.3441  139.9312  142.8753 LP  0  0  0  0  0  0  0  0  0  0  0  0  # atno 17320 bound_to 7965
  145.2226  140.9941  143.4037 LP  0  0  0  0  0  0  0  0  0  0  0  0  # atno 17321 bound_to 7965
  139.4976  144.4019  152.0172 LP  0  0  0  0  0  0  0  0  0  0  0  0  # atno 17342 bound_to 10162
  140.3126  144.3520  150.6030 LP  0  0  0  0  0  0  0  0  0  0  0  0  # atno 17343 bound_to 10162
  157.6129  131.0935  150.8763 LP  0  0  0  0  0  0  0  0  0  0  0  0  # atno 17370 bound_to 10713
  156.8899  130.5209  149.5287 LP  0  0  0  0  0  0  0  0  0  0  0  0  # atno 17371 bound_to 10713
  141.0370  134.0675  157.3947 LP  0  0  0  0  0  0  0  0  0  0  0  0  # atno 17394 bound_to 11000
  139.8973  135.0149  156.7092 LP  0  0  0  0  0  0  0  0  0  0  0  0  # atno 17395 bound_to 11000

$$$$
