AV-unprocessed.smi:3285|AV-procd|sdf|12580|dock4
  -GOLD-   2272018503D 1   1.00000     0.00000
 Structure written by MMmdl.
 45 46  0  0  0  0  0  0  0  0  2 V2000
  150.0374  131.0044  154.9432 C   0  0  0  0  0  0  0  0  0  0  0  0
  150.5751  132.1714  155.7210 C   0  0  0  0  0  0  0  0  0  0  0  0
  151.2936  131.9562  156.8099 N   0  0  0  0  0  0  0  0  0  0  0  0
  151.6398  133.2201  157.2971 O   0  0  0  0  0  0  0  0  0  0  0  0
  151.1083  134.1582  156.4730 C   0  0  0  0  0  0  0  0  0  0  0  0
  151.3682  135.5836  156.8260 C   0  0  0  0  0  0  0  0  0  0  0  0
  150.4194  133.5616  155.4528 C   0  0  0  0  0  0  0  0  0  0  0  0
  149.6734  134.2087  154.3175 C   0  0  0  0  0  0  0  0  0  0  0  0
  148.1790  133.8639  154.3570 C   0  0  0  0  0  0  0  0  0  0  0  0
  147.4126  134.7272  153.4345 N   0  3  0  0  0  0  0  0  0  0  0  0
  146.2970  134.0608  152.7265 C   0  0  2  0  0  0  0  0  0  0  0  0
  146.8464  132.9222  151.8485 C   0  0  0  0  0  0  0  0  0  0  0  0
  145.7314  132.2251  151.0529 C   0  0  0  0  0  0  0  0  0  0  0  0
  144.9384  133.2316  150.1972 C   0  0  1  0  0  0  0  0  0  0  0  0
  143.8785  132.5352  149.3281 C   0  0  0  0  0  0  0  0  0  0  0  0
  144.3657  134.3848  151.0597 C   0  0  1  0  0  0  0  0  0  0  0  0
  143.1905  133.9723  151.9690 C   0  0  0  0  0  0  0  0  0  0  0  0
  145.4965  135.0622  151.8632 C   0  0  0  0  0  0  0  0  0  0  0  0
  148.9477  130.9946  154.9606 H   0  0  0  0  0  0  0  0  0  0  0  0
  150.3836  130.0529  155.3489 H   0  0  0  0  0  0  0  0  0  0  0  0
  150.3530  131.0518  153.9010 H   0  0  0  0  0  0  0  0  0  0  0  0
  150.4824  136.1946  156.6542 H   0  0  0  0  0  0  0  0  0  0  0  0
  152.1806  135.9876  156.2219 H   0  0  0  0  0  0  0  0  0  0  0  0
  151.6453  135.6834  157.8756 H   0  0  0  0  0  0  0  0  0  0  0  0
  149.7937  135.2922  154.3535 H   0  0  0  0  0  0  0  0  0  0  0  0
  150.0900  133.8980  153.3586 H   0  0  0  0  0  0  0  0  0  0  0  0
  148.0305  132.8196  154.0788 H   0  0  0  0  0  0  0  0  0  0  0  0
  147.8039  133.9834  155.3732 H   0  0  0  0  0  0  0  0  0  0  0  0
  147.0472  135.5189  153.9442 H   0  0  0  0  0  0  0  0  0  0  0  0
  145.6403  133.6194  153.4775 H   0  0  0  0  0  0  0  0  0  0  0  0
  147.5892  133.3169  151.1535 H   0  0  0  0  0  0  0  0  0  0  0  0
  147.3641  132.1886  152.4678 H   0  0  0  0  0  0  0  0  0  0  0  0
  146.1711  131.4607  150.4114 H   0  0  0  0  0  0  0  0  0  0  0  0
  145.0626  131.7000  151.7356 H   0  0  0  0  0  0  0  0  0  0  0  0
  145.6483  133.6840  149.5025 H   0  0  0  0  0  0  0  0  0  0  0  0
  143.1656  131.9728  149.9315 H   0  0  0  0  0  0  0  0  0  0  0  0
  144.3439  131.8324  148.6363 H   0  0  0  0  0  0  0  0  0  0  0  0
  143.3192  133.2582  148.7335 H   0  0  0  0  0  0  0  0  0  0  0  0
  143.9704  135.1367  150.3750 H   0  0  0  0  0  0  0  0  0  0  0  0
  143.4632  133.1771  152.6621 H   0  0  0  0  0  0  0  0  0  0  0  0
  142.3373  133.6250  151.3866 H   0  0  0  0  0  0  0  0  0  0  0  0
  142.8432  134.8189  152.5621 H   0  0  0  0  0  0  0  0  0  0  0  0
  145.0731  135.8546  152.4800 H   0  0  0  0  0  0  0  0  0  0  0  0
  146.1764  135.5569  151.1675 H   0  0  0  0  0  0  0  0  0  0  0  0
  148.0589  135.0675  152.7367 H   0  0  0  0  0  0  0  0  0  0  0  0
  1  2  1  0  0  0  0
  1 19  1  0  0  0  0
  1 20  1  0  0  0  0
  1 21  1  0  0  0  0
  2  7  1  0  0  0  0
  2  3  2  0  0  0  0
  3  4  1  0  0  0  0
  4  5  1  0  0  0  0
  5  6  1  0  0  0  0
  5  7  2  0  0  0  0
  6 22  1  0  0  0  0
  6 23  1  0  0  0  0
  6 24  1  0  0  0  0
  7  8  1  0  0  0  0
  8  9  1  0  0  0  0
  8 25  1  0  0  0  0
  8 26  1  0  0  0  0
  9 10  1  0  0  0  0
  9 27  1  0  0  0  0
  9 28  1  0  0  0  0
 10 11  1  0  0  0  0
 10 29  1  0  0  0  0
 10 45  1  0  0  0  0
 11 18  1  0  0  0  0
 11 12  1  0  0  0  0
 11 30  1  0  0  0  0
 12 13  1  0  0  0  0
 12 31  1  0  0  0  0
 12 32  1  0  0  0  0
 13 14  1  0  0  0  0
 13 33  1  0  0  0  0
 13 34  1  0  0  0  0
 14 15  1  0  0  0  0
 14 16  1  0  0  0  0
 14 35  1  0  0  0  0
 15 36  1  0  0  0  0
 15 37  1  0  0  0  0
 15 38  1  0  0  0  0
 16 17  1  0  0  0  0
 16 18  1  0  0  0  0
 16 39  1  0  0  0  0
 17 40  1  0  0  0  0
 17 41  1  0  0  0  0
 17 42  1  0  0  0  0
 18 43  1  0  0  0  0
 18 44  1  0  0  0  0
M  CHG  1  10   1
M  END
> <s_m_source_file>
AV-unprocessed.smi

> <i_m_source_file_index>
3285

> <i_lp_mmshare_version>
43012

> <i_f3d_flags>
0

> <s_epik_input>
W0NIM11jMW5vYyhbQ0gzXSljMVtDSDJdW0NIMl1bTkhdW0NAQEhdMltDSDJdW0NIMl1bQ0BASF0oW0NIM10pW0NAQEhdKFtDSDNdKVtDSDJdMg==

> <s_epik_cmdline>
J2VwaWtfcHl0aG9uJywgJy1waCcsICc3LjAnLCAnLXRuJywgJzgnLCAnLW1hJywgJzIwMCcsICctbWV0YWxfYmluZGluZycsICctaW1hZScsICc8aW5maWxlLm1hZT4nLCAnLW9tYWUnLCAnPG91dGZpbGUubWFlPic=

> <r_lp_tautomer_probability>
1

> <r_epik_Ionization_Penalty>
0.000204615

> <r_epik_Ionization_Penalty_Charging>
0.000204615

> <r_epik_Ionization_Penalty_Neutral>
9.28663e-11

> <r_epik_State_Penalty>
-0

> <r_epik_Charging_Adjusted_Penalty>
0.000204615

> <i_epik_Tot_Q>
1

> <i_epik_Tot_abs_Q>
1

> <r_epik_Metal_State_Penalty>
-0

> <b_epik_Metal_Only>
0

> <s_lp_Force_Field>
OPLS_2005

> <r_lp_Energy>
12.1865

> <b_lp_Chiralities_Consistent>
1

> <s_lp_Variant>
AV-unprocessed.smi:3285-1

> <Gold.Version>
5.8.1

> <Gold.Id.Protein>
6NUR|6NUR_protein|mol2

> <Gold.PLP.Fitness>
41.3193

> <Gold.PLP.PLP>
-33.6124

> <Gold.PLP.part.hbond>
-2.0000

> <Gold.PLP.part.metal>
0.0000

> <Gold.PLP.part.buried>
-4.4016

> <Gold.PLP.part.nonpolar>
-27.6395

> <Gold.PLP.part.repulsive>
0.0000

> <Gold.PLP.ligand.clash>
0.0000

> <Gold.PLP.ligand.torsion>
0.3062

> <Gold.PLP.Chemscore.Hbond>
2.7680

> <Gold.PLP.Chemscore.CHOScore>
0.0000

> <Gold.PLP.Chemscore.Metal>
0.0000

> <Gold.Chemscore.Hbonds>
donor molecule, donor type, donor heavy atom, donor atom, acceptor molecule, acceptor atom, score
      L1  H    10    45       P1  7948  2.00
      P1  H  6896  6907       L1     4  0.72

> <Gold.PLP.Chemscore.Internal.Correction>
0.0152

> <Gold.Rescore>
     Score         DG    S(hbond)    S(metal)    S(lipo)     H(rot)  DE(clash)    DE(int)     intcor
     17.94     -18.29       1.75        0.00      88.95       1.35       0.02       0.33       ----

> <Gold.Chemscore.Fitness>
17.9417

> <Gold.Chemscore.DG>
-18.2888

> <Gold.Chemscore.ZeroCoef>
-5.4800

> <Gold.Chemscore.Hbond>
1.7510

> <Gold.Chemscore.Metal>
0.0000

> <Gold.Chemscore.Lipo>
88.9528

> <Gold.Chemscore.Internal_Hbond>
0.0000

> <Gold.Chemscore.DEClash>
0.0195

> <Gold.Chemscore.DEInternal>
0.3276

> <Gold.Chemscore.Rot>
1.3465

> <Gold.Chemscore.Internal.Correction>
   9.000000E+99

> <Gold.Chemscore.Hbonds>
donor molecule, donor type, donor heavy atom, donor atom, acceptor molecule, acceptor atom, score
      L1  H    10    45       P1  7948  0.94
      P1  H  6896  6907       L1     4  0.60

> <Gold.Chemscore.Hbond.Weighted>
-5.8483

> <Gold.Chemscore.Metal.Weighted>
-0.0000

> <Gold.Chemscore.Lipo.Weighted>
-10.4075

> <Gold.Chemscore.Internal_Hbond.Weighted>
0.0000

> <Gold.Chemscore.DEClash.Weighted>
0.0195

> <Gold.Chemscore.DEInternal.Weighted>
0.3276

> <Gold.Chemscore.Rot.Weighted>
3.4470

> <Gold.Chemscore.Internal.Correction.Weighted>
   9.000000E+99

> <Gold.Protein.RotatedTorsions>
[ 6907 6896 6895 6894 ] final -169.34 input  -60.11 | X-H torsion
[ 7974 7965 7964 7962 ] final -143.47 input  175.53 | X-H torsion
[ 8008 7997 7996 7995 ] final -176.49 input   59.86 | X-H torsion
[ 10167 10162 10161 10158 ] final  -95.96 input  -65.29 | X-H torsion
[ 10718 10713 10712 10709 ] final -130.89 input   66.30 | X-H torsion
[ 10763 10752 10751 10750 ] final   40.20 input  -60.55 | X-H torsion
[ 11005 11000 10999 10996 ] final   -1.69 input  -57.11 | X-H torsion

> <Gold.Protein.ActiveResidues>
 VAL166  LYS551  ARG553  GLY616  TRP617  ASP618  TYR619  PRO620  LYS621  CYS622 
 ASP623  PHE694  ASN695  SER759  ASP760  ASP761  ALA762  ILE779  LEU786  VAL792 
 PHE793  MET794  SER795  GLU796  ALA797  LYS798  CYS799  TRP800  GLU811  SER814 

> <Gold.Protein.RotatedAtoms>
  151.4901  133.3527  159.2851 H   0  0  0  0  0  0  0  0  0  0  0  0  # atno 6907 bound_to 6896
  150.8840  134.8238  159.7257 H   0  0  0  0  0  0  0  0  0  0  0  0  # atno 6908 bound_to 6896
  152.4781  134.4802  159.9715 H   0  0  0  0  0  0  0  0  0  0  0  0  # atno 6909 bound_to 6896
  144.8367  140.5830  143.5479 H   0  0  0  0  0  0  0  0  0  0  0  0  # atno 7974 bound_to 7965
  155.9955  140.1209  157.0598 H   0  0  0  0  0  0  0  0  0  0  0  0  # atno 8008 bound_to 7997
  154.4225  140.1117  156.5692 H   0  0  0  0  0  0  0  0  0  0  0  0  # atno 8009 bound_to 7997
  155.6285  140.3473  155.4677 H   0  0  0  0  0  0  0  0  0  0  0  0  # atno 8010 bound_to 7997
  140.2987  143.3176  152.0270 H   0  0  0  0  0  0  0  0  0  0  0  0  # atno 10167 bound_to 10162
  156.2189  130.6966  151.0734 H   0  0  0  0  0  0  0  0  0  0  0  0  # atno 10718 bound_to 10713
  152.9943  135.6198  154.2587 H   0  0  0  0  0  0  0  0  0  0  0  0  # atno 10763 bound_to 10752
  154.2324  135.2791  155.2887 H   0  0  0  0  0  0  0  0  0  0  0  0  # atno 10764 bound_to 10752
  154.5438  135.5753  153.6921 H   0  0  0  0  0  0  0  0  0  0  0  0  # atno 10765 bound_to 10752
  140.6501  133.9412  155.8375 H   0  0  0  0  0  0  0  0  0  0  0  0  # atno 11005 bound_to 11000
  145.4780  139.1497  143.3777 LP  0  0  0  0  0  0  0  0  0  0  0  0  # atno 17320 bound_to 7965
  146.2665  140.4915  142.8832 LP  0  0  0  0  0  0  0  0  0  0  0  0  # atno 17321 bound_to 7965
  139.4920  144.6471  151.6754 LP  0  0  0  0  0  0  0  0  0  0  0  0  # atno 17342 bound_to 10162
  140.5669  144.0174  150.6197 LP  0  0  0  0  0  0  0  0  0  0  0  0  # atno 17343 bound_to 10162
  157.7077  131.0748  150.6608 LP  0  0  0  0  0  0  0  0  0  0  0  0  # atno 17370 bound_to 10713
  156.6671  130.4528  149.5669 LP  0  0  0  0  0  0  0  0  0  0  0  0  # atno 17371 bound_to 10713
  141.0543  134.0439  157.3743 LP  0  0  0  0  0  0  0  0  0  0  0  0  # atno 17394 bound_to 11000
  139.9049  135.0176  156.7439 LP  0  0  0  0  0  0  0  0  0  0  0  0  # atno 17395 bound_to 11000

$$$$
