AV-unprocessed.smi:2323|AV-procd|sdf|9289|dock6
  -GOLD-   2272012513D 1   1.00000     0.00000
 Structure written by MMmdl.
 30 31  0  0  0  0  0  0  0  0  1 V2000
  153.9832  143.0554  164.0526 C   0  0  0  0  0  0  0  0  0  0  0  0
  153.3589  142.9196  162.7457 N   0  0  0  0  0  0  0  0  0  0  0  0
  153.6922  141.9850  161.8425 C   0  0  0  0  0  0  0  0  0  0  0  0
  154.5854  141.1566  162.0221 O   0  0  0  0  0  0  0  0  0  0  0  0
  152.9460  142.0443  160.5402 C   0  0  0  0  0  0  0  0  0  0  0  0
  152.1597  143.1718  160.2182 C   0  0  0  0  0  0  0  0  0  0  0  0
  151.4935  143.1997  158.9785 C   0  0  0  0  0  0  0  0  0  0  0  0
  151.5718  142.2031  158.0727 N   0  0  0  0  0  0  0  0  0  0  0  0
  152.3340  141.1225  158.3718 C   0  0  0  0  0  0  0  0  0  0  0  0
  152.4334  140.0957  157.4539 O   0  0  0  0  0  0  0  0  0  0  0  0
  151.2457  139.5379  156.8874 C   0  0  2  0  0  0  0  0  0  0  0  0
  151.5476  138.2374  156.1531 C   0  0  0  0  0  0  0  0  0  0  0  0
  151.9002  138.7225  154.7549 C   0  0  0  0  0  0  0  0  0  0  0  0
  150.9619  139.7619  154.5376 O   0  0  0  0  0  0  0  0  0  0  0  0
  150.7749  140.4693  155.7599 C   0  0  0  0  0  0  0  0  0  0  0  0
  153.0385  141.0038  159.5870 C   0  0  0  0  0  0  0  0  0  0  0  0
  153.5472  143.8993  164.5870 H   0  0  0  0  0  0  0  0  0  0  0  0
  155.0553  143.2307  163.9552 H   0  0  0  0  0  0  0  0  0  0  0  0
  153.8295  142.1564  164.6507 H   0  0  0  0  0  0  0  0  0  0  0  0
  152.6287  143.5758  162.5092 H   0  0  0  0  0  0  0  0  0  0  0  0
  152.0628  144.0012  160.9040 H   0  0  0  0  0  0  0  0  0  0  0  0
  150.8820  144.0471  158.7058 H   0  0  0  0  0  0  0  0  0  0  0  0
  150.4590  139.4211  157.6347 H   0  0  0  0  0  0  0  0  0  0  0  0
  152.3405  137.6437  156.6085 H   0  0  0  0  0  0  0  0  0  0  0  0
  150.6487  137.6211  156.1099 H   0  0  0  0  0  0  0  0  0  0  0  0
  152.9125  139.1290  154.7259 H   0  0  0  0  0  0  0  0  0  0  0  0
  151.8178  137.9396  154.0007 H   0  0  0  0  0  0  0  0  0  0  0  0
  149.7218  140.7310  155.8675 H   0  0  0  0  0  0  0  0  0  0  0  0
  151.3477  141.3977  155.7417 H   0  0  0  0  0  0  0  0  0  0  0  0
  153.6405  140.1256  159.7705 H   0  0  0  0  0  0  0  0  0  0  0  0
  1  2  1  0  0  0  0
  1 17  1  0  0  0  0
  1 18  1  0  0  0  0
  1 19  1  0  0  0  0
  2  3  1  0  0  0  0
  2 20  1  0  0  0  0
  3  4  2  0  0  0  0
  3  5  1  0  0  0  0
  5 16  1  0  0  0  0
  5  6  2  0  0  0  0
  6  7  1  0  0  0  0
  6 21  1  0  0  0  0
  7  8  2  0  0  0  0
  7 22  1  0  0  0  0
  8  9  1  0  0  0  0
  9 10  1  0  0  0  0
  9 16  2  0  0  0  0
 10 11  1  0  0  0  0
 11 15  1  0  0  0  0
 11 12  1  0  0  0  0
 11 23  1  0  0  0  0
 12 13  1  0  0  0  0
 12 24  1  0  0  0  0
 12 25  1  0  0  0  0
 13 14  1  0  0  0  0
 13 26  1  0  0  0  0
 13 27  1  0  0  0  0
 14 15  1  0  0  0  0
 15 28  1  0  0  0  0
 15 29  1  0  0  0  0
 16 30  1  0  0  0  0
M  END
> <s_m_source_file>
AV-unprocessed.smi

> <i_m_source_file_index>
2323

> <i_lp_mmshare_version>
43012

> <i_f3d_flags>
0

> <s_epik_input>
W0NIM11bTkhdQyg9TyljMVtjSF1bY0hdbmMoW2NIXTEpT1tDQEBIXTJbQ0gyXVtDSDJdT1tDSDJdMg==

> <s_epik_cmdline>
J2VwaWtfcHl0aG9uJywgJy1waCcsICc3LjAnLCAnLXRuJywgJzgnLCAnLW1hJywgJzIwMCcsICctbWV0YWxfYmluZGluZycsICctaW1hZScsICc8aW5maWxlLm1hZT4nLCAnLW9tYWUnLCAnPG91dGZpbGUubWFlPic=

> <r_lp_tautomer_probability>
1

> <r_epik_Ionization_Penalty>
2.2633e-06

> <r_epik_Ionization_Penalty_Charging>
0

> <r_epik_Ionization_Penalty_Neutral>
2.2633e-06

> <r_epik_State_Penalty>
-0

> <r_epik_Charging_Adjusted_Penalty>
0

> <i_epik_Tot_Q>
0

> <i_epik_Tot_abs_Q>
0

> <r_epik_Metal_State_Penalty>
-0

> <b_epik_Metal_Only>
0

> <s_lp_Force_Field>
OPLS_2005

> <r_lp_Energy>
16.8838

> <b_lp_Chiralities_Consistent>
1

> <s_lp_Variant>
AV-unprocessed.smi:2323-1

> <Gold.Version>
5.8.1

> <Gold.Id.Protein>
6NUR|6NUR_protein|mol2

> <Gold.PLP.Fitness>
40.2832

> <Gold.PLP.PLP>
-34.8588

> <Gold.PLP.part.hbond>
-3.0000

> <Gold.PLP.part.metal>
0.0000

> <Gold.PLP.part.buried>
-3.7048

> <Gold.PLP.part.nonpolar>
-27.0511

> <Gold.PLP.part.repulsive>
0.1992

> <Gold.PLP.ligand.clash>
0.0000

> <Gold.PLP.ligand.torsion>
0.2971

> <Gold.PLP.Chemscore.Hbond>
2.0000

> <Gold.PLP.Chemscore.CHOScore>
0.0000

> <Gold.PLP.Chemscore.Metal>
0.0000

> <Gold.Chemscore.Hbonds>
donor molecule, donor type, donor heavy atom, donor atom, acceptor molecule, acceptor atom, score
      P1  H  7989  7998       L1    14  1.00
      P1  H  7997  8009       L1    10  0.83

> <Gold.PLP.Chemscore.Internal.Correction>
0.0185

> <Gold.Rescore>
     Score         DG    S(hbond)    S(metal)    S(lipo)     H(rot)  DE(clash)    DE(int)     intcor
     14.08     -15.82       1.28        0.00      78.91       1.24       0.53       1.21       ----

> <Gold.Chemscore.Fitness>
14.0774

> <Gold.Chemscore.DG>
-15.8173

> <Gold.Chemscore.ZeroCoef>
-5.4800

> <Gold.Chemscore.Hbond>
1.2849

> <Gold.Chemscore.Metal>
0.0000

> <Gold.Chemscore.Lipo>
78.9094

> <Gold.Chemscore.Internal_Hbond>
0.0000

> <Gold.Chemscore.DEClash>
0.5295

> <Gold.Chemscore.DEInternal>
1.2104

> <Gold.Chemscore.Rot>
1.2448

> <Gold.Chemscore.Internal.Correction>
   9.000000E+99

> <Gold.Chemscore.Hbonds>
donor molecule, donor type, donor heavy atom, donor atom, acceptor molecule, acceptor atom, score
      P1  H  7989  7998       L1    14  0.33
      P1  H  7997  8009       L1    10  0.48

> <Gold.Chemscore.Hbond.Weighted>
-4.2915

> <Gold.Chemscore.Metal.Weighted>
-0.0000

> <Gold.Chemscore.Lipo.Weighted>
-9.2324

> <Gold.Chemscore.Internal_Hbond.Weighted>
0.0000

> <Gold.Chemscore.DEClash.Weighted>
0.5295

> <Gold.Chemscore.DEInternal.Weighted>
1.2104

> <Gold.Chemscore.Rot.Weighted>
3.1866

> <Gold.Chemscore.Internal.Correction.Weighted>
   9.000000E+99

> <Gold.Protein.RotatedTorsions>
[ 6907 6896 6895 6894 ] final -119.71 input  -60.11 | X-H torsion
[ 7974 7965 7964 7962 ] final  102.01 input  175.53 | X-H torsion
[ 8008 7997 7996 7995 ] final  173.11 input   59.86 | X-H torsion
[ 10167 10162 10161 10158 ] final  172.30 input  -65.29 | X-H torsion
[ 10718 10713 10712 10709 ] final -168.58 input   66.30 | X-H torsion
[ 10763 10752 10751 10750 ] final -174.08 input  -60.55 | X-H torsion
[ 11005 11000 10999 10996 ] final  154.05 input  -57.11 | X-H torsion

> <Gold.Protein.ActiveResidues>
 VAL166  LYS551  ARG553  GLY616  TRP617  ASP618  TYR619  PRO620  LYS621  CYS622 
 ASP623  PHE694  ASN695  SER759  ASP760  ASP761  ALA762  ILE779  LEU786  VAL792 
 PHE793  MET794  SER795  GLU796  ALA797  LYS798  CYS799  TRP800  GLU811  SER814 

> <Gold.Protein.RotatedAtoms>
  150.8329  133.8061  159.3091 H   0  0  0  0  0  0  0  0  0  0  0  0  # atno 6907 bound_to 6896
  151.5786  135.1058  160.0021 H   0  0  0  0  0  0  0  0  0  0  0  0  # atno 6908 bound_to 6896
  152.4406  133.7399  159.6691 H   0  0  0  0  0  0  0  0  0  0  0  0  # atno 6909 bound_to 6896
  145.3647  139.2410  143.3487 H   0  0  0  0  0  0  0  0  0  0  0  0  # atno 7974 bound_to 7965
  156.1108  140.1468  156.9341 H   0  0  0  0  0  0  0  0  0  0  0  0  # atno 8008 bound_to 7997
  154.4765  140.0893  156.7319 H   0  0  0  0  0  0  0  0  0  0  0  0  # atno 8009 bound_to 7997
  155.4600  140.3438  155.4314 H   0  0  0  0  0  0  0  0  0  0  0  0  # atno 8010 bound_to 7997
  139.5072  144.3389  152.0038 H   0  0  0  0  0  0  0  0  0  0  0  0  # atno 10167 bound_to 10162
  156.6990  130.9189  151.3077 H   0  0  0  0  0  0  0  0  0  0  0  0  # atno 10718 bound_to 10713
  154.6004  135.2854  155.0541 H   0  0  0  0  0  0  0  0  0  0  0  0  # atno 10763 bound_to 10752
  154.1808  135.6457  153.5037 H   0  0  0  0  0  0  0  0  0  0  0  0  # atno 10764 bound_to 10752
  153.0155  135.5423  154.6721 H   0  0  0  0  0  0  0  0  0  0  0  0  # atno 10765 bound_to 10752
  140.1453  134.8711  157.2385 H   0  0  0  0  0  0  0  0  0  0  0  0  # atno 11005 bound_to 11000
  146.2912  140.4288  142.8739 LP  0  0  0  0  0  0  0  0  0  0  0  0  # atno 17320 bound_to 7965
  144.8620  140.7153  143.6101 LP  0  0  0  0  0  0  0  0  0  0  0  0  # atno 17321 bound_to 7965
  140.2827  144.3841  150.6113 LP  0  0  0  0  0  0  0  0  0  0  0  0  # atno 17342 bound_to 10162
  140.6006  143.2167  151.7080 LP  0  0  0  0  0  0  0  0  0  0  0  0  # atno 17343 bound_to 10162
  157.6980  130.9303  150.0702 LP  0  0  0  0  0  0  0  0  0  0  0  0  # atno 17370 bound_to 10713
  156.1743  130.3647  149.9122 LP  0  0  0  0  0  0  0  0  0  0  0  0  # atno 17371 bound_to 10713
  140.2671  134.3504  155.7386 LP  0  0  0  0  0  0  0  0  0  0  0  0  # atno 17394 bound_to 11000
  141.2192  133.7402  156.9167 LP  0  0  0  0  0  0  0  0  0  0  0  0  # atno 17395 bound_to 11000

$$$$
