AV-unprocessed.smi:2336|AV-procd|sdf|9329|dock8
  -GOLD-   2272012553D 1   1.00000     0.00000
 Structure written by MMmdl.
 50 51  0  0  0  0  0  0  0  0  2 V2000
  147.0807  140.5835  152.6528 C   0  0  0  0  0  0  0  0  0  0  0  0
  146.6523  141.1815  154.0066 C   0  0  0  0  0  0  0  0  0  0  0  0
  146.2994  142.6685  153.8022 C   0  0  0  0  0  0  0  0  0  0  0  0
  147.7170  140.9860  155.1262 C   0  0  2  0  0  0  0  0  0  0  0  0
  149.1122  141.5545  154.7350 C   0  0  0  0  0  0  0  0  0  0  0  0
  149.8022  142.2054  155.8458 N   0  0  0  0  0  0  0  0  0  0  0  0
  150.6177  141.6028  156.7233 C   0  0  0  0  0  0  0  0  0  0  0  0
  150.8874  140.4027  156.6871 O   0  0  0  0  0  0  0  0  0  0  0  0
  151.0586  142.4725  157.6478 N   0  0  0  0  0  0  0  0  0  0  0  0
  151.9238  142.2354  158.7507 C   0  0  0  0  0  0  0  0  0  0  0  0
  152.5278  140.9861  159.0328 C   0  0  0  0  0  0  0  0  0  0  0  0
  153.3853  140.8882  160.1472 C   0  0  0  0  0  0  0  0  0  0  0  0
  153.6700  141.9269  160.9607 N   0  0  0  0  0  0  0  0  0  0  0  0
  153.1021  143.1193  160.6814 C   0  0  0  0  0  0  0  0  0  0  0  0
  152.2310  143.3251  159.5925 C   0  0  0  0  0  0  0  0  0  0  0  0
  151.6965  144.5495  159.3653 F   0  0  0  0  0  0  0  0  0  0  0  0
  147.7413  139.5517  155.5567 N   0  3  0  0  0  0  0  0  0  0  0  0
  148.3308  139.2962  156.8954 C   0  0  0  0  0  0  0  0  0  0  0  0
  148.0564  137.8414  157.3293 C   0  0  0  0  0  0  0  0  0  0  0  0
  148.5559  136.8706  156.3536 N   0  0  0  0  0  0  0  0  0  0  0  0
  150.0125  136.7873  156.3203 C   0  0  0  0  0  0  0  0  0  0  0  0
  147.9645  137.1330  155.0398 C   0  0  0  0  0  0  0  0  0  0  0  0
  148.2383  138.5718  154.5568 C   0  0  0  0  0  0  0  0  0  0  0  0
  148.0487  140.9719  152.3343 H   0  0  0  0  0  0  0  0  0  0  0  0
  146.3575  140.8220  151.8724 H   0  0  0  0  0  0  0  0  0  0  0  0
  147.1459  139.4963  152.6882 H   0  0  0  0  0  0  0  0  0  0  0  0
  145.7372  140.6674  154.3025 H   0  0  0  0  0  0  0  0  0  0  0  0
  147.1811  143.2515  153.5337 H   0  0  0  0  0  0  0  0  0  0  0  0
  145.8628  143.1140  154.6961 H   0  0  0  0  0  0  0  0  0  0  0  0
  145.5682  142.7918  153.0027 H   0  0  0  0  0  0  0  0  0  0  0  0
  147.3649  141.5691  155.9788 H   0  0  0  0  0  0  0  0  0  0  0  0
  149.7229  140.7733  154.2802 H   0  0  0  0  0  0  0  0  0  0  0  0
  149.0044  142.3263  153.9745 H   0  0  0  0  0  0  0  0  0  0  0  0
  149.6474  143.1974  155.9536 H   0  0  0  0  0  0  0  0  0  0  0  0
  150.6838  143.4083  157.5939 H   0  0  0  0  0  0  0  0  0  0  0  0
  152.3659  140.1141  158.4184 H   0  0  0  0  0  0  0  0  0  0  0  0
  153.8616  139.9489  160.3871 H   0  0  0  0  0  0  0  0  0  0  0  0
  153.3514  143.9345  161.3446 H   0  0  0  0  0  0  0  0  0  0  0  0
  149.4003  139.4955  156.9050 H   0  0  0  0  0  0  0  0  0  0  0  0
  147.8825  139.9709  157.6251 H   0  0  0  0  0  0  0  0  0  0  0  0
  148.5035  137.6443  158.3043 H   0  0  0  0  0  0  0  0  0  0  0  0
  146.9820  137.6928  157.4473 H   0  0  0  0  0  0  0  0  0  0  0  0
  150.3293  136.0061  155.6284 H   0  0  0  0  0  0  0  0  0  0  0  0
  150.3984  136.5298  157.3072 H   0  0  0  0  0  0  0  0  0  0  0  0
  150.4813  137.7204  156.0097 H   0  0  0  0  0  0  0  0  0  0  0  0
  148.3438  136.4104  154.3164 H   0  0  0  0  0  0  0  0  0  0  0  0
  146.8879  136.9691  155.1048 H   0  0  0  0  0  0  0  0  0  0  0  0
  147.7336  138.7282  153.6038 H   0  0  0  0  0  0  0  0  0  0  0  0
  149.3009  138.7076  154.3686 H   0  0  0  0  0  0  0  0  0  0  0  0
  146.7652  139.3224  155.6784 H   0  0  0  0  0  0  0  0  0  0  0  0
  1  2  1  0  0  0  0
  1 24  1  0  0  0  0
  1 25  1  0  0  0  0
  1 26  1  0  0  0  0
  2  3  1  0  0  0  0
  2  4  1  0  0  0  0
  2 27  1  0  0  0  0
  3 28  1  0  0  0  0
  3 29  1  0  0  0  0
  3 30  1  0  0  0  0
  4  5  1  0  0  0  0
  4 17  1  0  0  0  0
  4 31  1  0  0  0  0
  5  6  1  0  0  0  0
  5 32  1  0  0  0  0
  5 33  1  0  0  0  0
  6  7  1  0  0  0  0
  6 34  1  0  0  0  0
  7  8  2  0  0  0  0
  7  9  1  0  0  0  0
  9 10  1  0  0  0  0
  9 35  1  0  0  0  0
 10 15  1  0  0  0  0
 10 11  2  0  0  0  0
 11 12  1  0  0  0  0
 11 36  1  0  0  0  0
 12 13  2  0  0  0  0
 12 37  1  0  0  0  0
 13 14  1  0  0  0  0
 14 15  2  0  0  0  0
 14 38  1  0  0  0  0
 15 16  1  0  0  0  0
 17 23  1  0  0  0  0
 17 18  1  0  0  0  0
 17 50  1  0  0  0  0
 18 19  1  0  0  0  0
 18 39  1  0  0  0  0
 18 40  1  0  0  0  0
 19 20  1  0  0  0  0
 19 41  1  0  0  0  0
 19 42  1  0  0  0  0
 20 21  1  0  0  0  0
 20 22  1  0  0  0  0
 21 43  1  0  0  0  0
 21 44  1  0  0  0  0
 21 45  1  0  0  0  0
 22 23  1  0  0  0  0
 22 46  1  0  0  0  0
 22 47  1  0  0  0  0
 23 48  1  0  0  0  0
 23 49  1  0  0  0  0
M  CHG  1  17   1
M  END
> <s_m_source_file>
AV-unprocessed.smi

> <i_m_source_file_index>
2336

> <i_lp_mmshare_version>
43012

> <i_f3d_flags>
0

> <s_epik_input>
W0NIMl0xW0NIMl1OKFtDSDNdKVtDSDJdW0NIMl1OMVtDQEhdKFtDSF0oW0NIM10pW0NIM10pW0NIMl1bTkhdQyg9TylbTkhdYzJbY0hdW2NIXW5bY0hdYzJG

> <s_epik_cmdline>
J2VwaWtfcHl0aG9uJywgJy1waCcsICc3LjAnLCAnLXRuJywgJzgnLCAnLW1hJywgJzIwMCcsICctbWV0YWxfYmluZGluZycsICctaW1hZScsICc8aW5maWxlLm1hZT4nLCAnLW9tYWUnLCAnPG91dGZpbGUubWFlPic=

> <r_epik_Ionization_Penalty>
0.204575

> <r_epik_Ionization_Penalty_Charging>
0.20006

> <r_epik_Ionization_Penalty_Neutral>
0.00451444

> <r_epik_State_Penalty>
1.43207

> <r_epik_Charging_Adjusted_Penalty>
1.63213

> <i_epik_Tot_Q>
1

> <i_epik_Tot_abs_Q>
1

> <r_epik_Metal_State_Penalty>
1.43277

> <b_epik_Metal_Only>
0

> <s_lp_Force_Field>
OPLS_2005

> <r_lp_Energy>
38.6222

> <b_lp_Chiralities_Consistent>
1

> <s_lp_Variant>
AV-unprocessed.smi:2336-3

> <Gold.Version>
5.8.1

> <Gold.Id.Protein>
6NUR|6NUR_protein|mol2

> <Gold.PLP.Fitness>
38.4358

> <Gold.PLP.PLP>
-37.1119

> <Gold.PLP.part.hbond>
-1.0000

> <Gold.PLP.part.metal>
0.0000

> <Gold.PLP.part.buried>
-5.9082

> <Gold.PLP.part.nonpolar>
-30.6385

> <Gold.PLP.part.repulsive>
0.1894

> <Gold.PLP.ligand.clash>
0.0000

> <Gold.PLP.ligand.torsion>
0.9474

> <Gold.PLP.Chemscore.Hbond>
1.0000

> <Gold.PLP.Chemscore.CHOScore>
0.0000

> <Gold.PLP.Chemscore.Metal>
0.0000

> <Gold.Chemscore.Hbonds>
donor molecule, donor type, donor heavy atom, donor atom, acceptor molecule, acceptor atom, score
      L1  H     6    34       P1  8028  1.00

> <Gold.PLP.Chemscore.Internal.Correction>
0.2186

> <Gold.Rescore>
     Score         DG    S(hbond)    S(metal)    S(lipo)     H(rot)  DE(clash)    DE(int)     intcor
     13.02     -15.53       0.99        0.00      94.28       1.67       0.15       2.36       ----

> <Gold.Chemscore.Fitness>
13.0161

> <Gold.Chemscore.DG>
-15.5260

> <Gold.Chemscore.ZeroCoef>
-5.4800

> <Gold.Chemscore.Hbond>
0.9881

> <Gold.Chemscore.Metal>
0.0000

> <Gold.Chemscore.Lipo>
94.2805

> <Gold.Chemscore.Internal_Hbond>
0.0000

> <Gold.Chemscore.DEClash>
0.1519

> <Gold.Chemscore.DEInternal>
2.3580

> <Gold.Chemscore.Rot>
1.6739

> <Gold.Chemscore.Internal.Correction>
   9.000000E+99

> <Gold.Chemscore.Hbonds>
donor molecule, donor type, donor heavy atom, donor atom, acceptor molecule, acceptor atom, score
      L1  H     6    34       P1  8028  0.99

> <Gold.Chemscore.Hbond.Weighted>
-3.3003

> <Gold.Chemscore.Metal.Weighted>
-0.0000

> <Gold.Chemscore.Lipo.Weighted>
-11.0308

> <Gold.Chemscore.Internal_Hbond.Weighted>
0.0000

> <Gold.Chemscore.DEClash.Weighted>
0.1519

> <Gold.Chemscore.DEInternal.Weighted>
2.3580

> <Gold.Chemscore.Rot.Weighted>
4.2851

> <Gold.Chemscore.Internal.Correction.Weighted>
   9.000000E+99

> <Gold.Protein.RotatedTorsions>
[ 6907 6896 6895 6894 ] final -152.98 input  -60.11 | X-H torsion
[ 7974 7965 7964 7962 ] final  -46.10 input  175.53 | X-H torsion
[ 8008 7997 7996 7995 ] final   66.41 input   59.86 | X-H torsion
[ 10167 10162 10161 10158 ] final  -90.82 input  -65.29 | X-H torsion
[ 10718 10713 10712 10709 ] final   88.77 input   66.30 | X-H torsion
[ 10763 10752 10751 10750 ] final   72.00 input  -60.55 | X-H torsion
[ 11005 11000 10999 10996 ] final -111.13 input  -57.11 | X-H torsion

> <Gold.Protein.ActiveResidues>
 VAL166  LYS551  ARG553  GLY616  TRP617  ASP618  TYR619  PRO620  LYS621  CYS622 
 ASP623  PHE694  ASN695  SER759  ASP760  ASP761  ALA762  ILE779  LEU786  VAL792 
 PHE793  MET794  SER795  GLU796  ALA797  LYS798  CYS799  TRP800  GLU811  SER814 

> <Gold.Protein.RotatedAtoms>
  151.2358  133.4426  159.2605 H   0  0  0  0  0  0  0  0  0  0  0  0  # atno 6907 bound_to 6896
  151.0752  134.9823  159.8338 H   0  0  0  0  0  0  0  0  0  0  0  0  # atno 6908 bound_to 6896
  152.5417  134.2301  159.8874 H   0  0  0  0  0  0  0  0  0  0  0  0  # atno 6909 bound_to 6896
  145.9753  140.7340  142.9390 H   0  0  0  0  0  0  0  0  0  0  0  0  # atno 7974 bound_to 7965
  155.6769  140.3497  155.4840 H   0  0  0  0  0  0  0  0  0  0  0  0  # atno 8008 bound_to 7997
  155.9640  140.1143  157.0893 H   0  0  0  0  0  0  0  0  0  0  0  0  # atno 8009 bound_to 7997
  154.4150  140.1170  156.5203 H   0  0  0  0  0  0  0  0  0  0  0  0  # atno 8010 bound_to 7997
  140.3511  143.2891  151.9725 H   0  0  0  0  0  0  0  0  0  0  0  0  # atno 10167 bound_to 10162
  157.6951  131.0307  150.3324 H   0  0  0  0  0  0  0  0  0  0  0  0  # atno 10718 bound_to 10713
  153.0432  135.5116  154.7678 H   0  0  0  0  0  0  0  0  0  0  0  0  # atno 10763 bound_to 10752
  154.6599  135.2937  154.9882 H   0  0  0  0  0  0  0  0  0  0  0  0  # atno 10764 bound_to 10752
  154.0737  135.6674  153.4880 H   0  0  0  0  0  0  0  0  0  0  0  0  # atno 10765 bound_to 10752
  141.0752  133.9313  157.2404 H   0  0  0  0  0  0  0  0  0  0  0  0  # atno 11005 bound_to 11000
  144.6847  140.2818  143.7291 LP  0  0  0  0  0  0  0  0  0  0  0  0  # atno 17320 bound_to 7965
  145.7847  139.1904  143.2137 LP  0  0  0  0  0  0  0  0  0  0  0  0  # atno 17321 bound_to 7965
  139.4826  144.6075  151.7494 LP  0  0  0  0  0  0  0  0  0  0  0  0  # atno 17342 bound_to 10162
  140.5218  144.0867  150.6025 LP  0  0  0  0  0  0  0  0  0  0  0  0  # atno 17343 bound_to 10162
  156.3796  130.3878  149.7112 LP  0  0  0  0  0  0  0  0  0  0  0  0  # atno 17370 bound_to 10713
  156.4499  130.7901  151.2923 LP  0  0  0  0  0  0  0  0  0  0  0  0  # atno 17371 bound_to 10713
  139.9564  135.0164  156.9140 LP  0  0  0  0  0  0  0  0  0  0  0  0  # atno 17394 bound_to 11000
  140.5589  134.0554  155.7392 LP  0  0  0  0  0  0  0  0  0  0  0  0  # atno 17395 bound_to 11000

$$$$
