AV-unprocessed.smi:737|AV-procd|sdf|3537|dock10
  -GOLD-   22720 0533D 1   1.00000     0.00000
 Structure written by MMmdl.
 45 47  0  0  0  0  0  0  0  0  1 V2000
  148.2623  136.9502  155.4441 C   0  0  0  0  0  0  0  0  0  0  0  0
  148.8116  136.0470  154.4458 N   0  0  0  0  0  0  0  0  0  0  0  0
  149.2925  134.7824  154.8123 C   0  0  0  0  0  0  0  0  0  0  0  0
  148.7830  133.6721  154.2301 N   0  0  0  0  0  0  0  0  0  0  0  0
  149.2755  132.4849  154.6068 C   0  0  0  0  0  0  0  0  0  0  0  0
  150.2347  132.2137  155.5056 N   0  0  0  0  0  0  0  0  0  0  0  0
  150.7447  133.3066  156.0893 C   0  0  0  0  0  0  0  0  0  0  0  0
  151.7431  133.3244  157.0483 N   0  0  0  0  0  0  0  0  0  0  0  0
  151.8692  134.6279  157.2838 C   0  0  0  0  0  0  0  0  0  0  0  0
  151.0722  135.4649  156.5913 N   0  0  0  0  0  0  0  0  0  0  0  0
  151.0453  136.9137  156.6954 C   0  0  0  0  0  0  0  0  0  0  0  0
  150.3386  137.4022  157.9766 C   0  0  1  0  0  0  0  0  0  0  0  0
  149.7447  136.3390  158.6953 O   0  0  0  0  0  0  0  0  0  0  0  0
  151.2613  138.1860  158.9222 C   0  0  0  0  0  0  0  0  0  0  0  0
  151.9943  139.1534  158.1830 O   0  0  0  0  0  0  0  0  0  0  0  0
  152.4364  140.2083  158.9377 C   0  0  0  0  0  0  0  0  0  0  0  0
  151.9546  141.5101  158.6670 C   0  0  0  0  0  0  0  0  0  0  0  0
  150.9533  141.7430  157.5512 C   0  0  0  0  0  0  0  0  0  0  0  0
  152.4064  142.5997  159.4393 C   0  0  0  0  0  0  0  0  0  0  0  0
  153.3429  142.3975  160.4699 C   0  0  0  0  0  0  0  0  0  0  0  0
  153.8371  141.1054  160.7280 C   0  0  0  0  0  0  0  0  0  0  0  0
  153.3934  140.0081  159.9615 C   0  0  0  0  0  0  0  0  0  0  0  0
  153.9565  138.6274  160.2450 C   0  0  0  0  0  0  0  0  0  0  0  0
  150.3062  134.6293  155.7799 C   0  0  0  0  0  0  0  0  0  0  0  0
  147.9328  137.8736  154.9677 H   0  0  0  0  0  0  0  0  0  0  0  0
  149.0143  137.2020  156.1926 H   0  0  0  0  0  0  0  0  0  0  0  0
  147.4046  136.4997  155.9445 H   0  0  0  0  0  0  0  0  0  0  0  0
  148.7858  136.3162  153.4726 H   0  0  0  0  0  0  0  0  0  0  0  0
  148.8401  131.6257  154.1184 H   0  0  0  0  0  0  0  0  0  0  0  0
  152.5847  134.9978  158.0038 H   0  0  0  0  0  0  0  0  0  0  0  0
  152.0677  137.2856  156.6411 H   0  0  0  0  0  0  0  0  0  0  0  0
  150.5348  137.3116  155.8175 H   0  0  0  0  0  0  0  0  0  0  0  0
  149.5199  138.0619  157.6865 H   0  0  0  0  0  0  0  0  0  0  0  0
  149.1738  135.8631  158.1115 H   0  0  0  0  0  0  0  0  0  0  0  0
  150.6556  138.6954  159.6734 H   0  0  0  0  0  0  0  0  0  0  0  0
  151.9267  137.5088  159.4595 H   0  0  0  0  0  0  0  0  0  0  0  0
  150.8937  142.7995  157.2884 H   0  0  0  0  0  0  0  0  0  0  0  0
  149.9615  141.4115  157.8584 H   0  0  0  0  0  0  0  0  0  0  0  0
  151.2388  141.1909  156.6552 H   0  0  0  0  0  0  0  0  0  0  0  0
  152.0379  143.5961  159.2429 H   0  0  0  0  0  0  0  0  0  0  0  0
  153.6873  143.2349  161.0587 H   0  0  0  0  0  0  0  0  0  0  0  0
  154.5625  140.9601  161.5151 H   0  0  0  0  0  0  0  0  0  0  0  0
  154.9597  138.6960  160.6664 H   0  0  0  0  0  0  0  0  0  0  0  0
  154.0196  138.0316  159.3340 H   0  0  0  0  0  0  0  0  0  0  0  0
  153.3233  138.1005  160.9585 H   0  0  0  0  0  0  0  0  0  0  0  0
  1  2  1  0  0  0  0
  1 25  1  0  0  0  0
  1 26  1  0  0  0  0
  1 27  1  0  0  0  0
  2  3  1  0  0  0  0
  2 28  1  0  0  0  0
  3 24  1  0  0  0  0
  3  4  2  0  0  0  0
  4  5  1  0  0  0  0
  5  6  2  0  0  0  0
  5 29  1  0  0  0  0
  6  7  1  0  0  0  0
  7 24  2  0  0  0  0
  7  8  1  0  0  0  0
  8  9  2  0  0  0  0
  9 10  1  0  0  0  0
  9 30  1  0  0  0  0
 10 11  1  0  0  0  0
 10 24  1  0  0  0  0
 11 12  1  0  0  0  0
 11 31  1  0  0  0  0
 11 32  1  0  0  0  0
 12 13  1  0  0  0  0
 12 14  1  0  0  0  0
 12 33  1  0  0  0  0
 13 34  1  0  0  0  0
 14 15  1  0  0  0  0
 14 35  1  0  0  0  0
 14 36  1  0  0  0  0
 15 16  1  0  0  0  0
 16 22  1  0  0  0  0
 16 17  2  0  0  0  0
 17 18  1  0  0  0  0
 17 19  1  0  0  0  0
 18 37  1  0  0  0  0
 18 38  1  0  0  0  0
 18 39  1  0  0  0  0
 19 20  2  0  0  0  0
 19 40  1  0  0  0  0
 20 21  1  0  0  0  0
 20 41  1  0  0  0  0
 21 22  2  0  0  0  0
 21 42  1  0  0  0  0
 22 23  1  0  0  0  0
 23 43  1  0  0  0  0
 23 44  1  0  0  0  0
 23 45  1  0  0  0  0
M  END
> <s_m_source_file>
AV-unprocessed.smi

> <i_m_source_file_index>
737

> <i_lp_mmshare_version>
43012

> <i_f3d_flags>
0

> <s_epik_input>
bjFbY0hdbmMoW05IXVtDSDNdKWMoYzEyKW4oW2NIXW4yKVtDSDJdW0NASF0oW09IXSlbQ0gyXU9jM2MoW0NIM10pW2NIXVtjSF1bY0hdYzNbQ0gzXQ==

> <s_epik_cmdline>
J2VwaWtfcHl0aG9uJywgJy1waCcsICc3LjAnLCAnLXRuJywgJzgnLCAnLW1hJywgJzIwMCcsICctbWV0YWxfYmluZGluZycsICctaW1hZScsICc8aW5maWxlLm1hZT4nLCAnLW9tYWUnLCAnPG91dGZpbGUubWFlPic=

> <r_lp_tautomer_probability>
1

> <r_epik_Ionization_Penalty>
0.0070961

> <r_epik_Ionization_Penalty_Charging>
0

> <r_epik_Ionization_Penalty_Neutral>
0.0070961

> <r_epik_State_Penalty>
-0

> <r_epik_Charging_Adjusted_Penalty>
0

> <i_epik_Tot_Q>
0

> <i_epik_Tot_abs_Q>
0

> <r_epik_Metal_State_Penalty>
-0

> <b_epik_Metal_Only>
0

> <s_lp_Force_Field>
OPLS_2005

> <r_lp_Energy>
18.2804

> <b_lp_Chiralities_Consistent>
1

> <s_lp_Variant>
AV-unprocessed.smi:737-2

> <Gold.Version>
5.8.1

> <Gold.Id.Protein>
6NUR|6NUR_protein|mol2

> <Gold.PLP.Fitness>
38.6446

> <Gold.PLP.PLP>
-35.7444

> <Gold.PLP.part.hbond>
-2.5234

> <Gold.PLP.part.metal>
0.0000

> <Gold.PLP.part.buried>
-2.4536

> <Gold.PLP.part.nonpolar>
-29.9513

> <Gold.PLP.part.repulsive>
0.1475

> <Gold.PLP.ligand.clash>
0.0000

> <Gold.PLP.ligand.torsion>
1.6595

> <Gold.PLP.Chemscore.Hbond>
2.0000

> <Gold.PLP.Chemscore.CHOScore>
0.0000

> <Gold.PLP.Chemscore.Metal>
0.0000

> <Gold.Chemscore.Hbonds>
donor molecule, donor type, donor heavy atom, donor atom, acceptor molecule, acceptor atom, score
      L1  H     2    28       P1  7948  1.00
      P1  H  6896  6908       L1    13  0.83

> <Gold.PLP.Chemscore.Internal.Correction>
0.2191

> <Gold.Rescore>
     Score         DG    S(hbond)    S(metal)    S(lipo)     H(rot)  DE(clash)    DE(int)     intcor
     11.45     -13.31       1.89        0.00      76.42       2.91       0.16       1.70       ----

> <Gold.Chemscore.Fitness>
11.4469

> <Gold.Chemscore.DG>
-13.3058

> <Gold.Chemscore.ZeroCoef>
-5.4800

> <Gold.Chemscore.Hbond>
1.8941

> <Gold.Chemscore.Metal>
0.0000

> <Gold.Chemscore.Lipo>
76.4155

> <Gold.Chemscore.Internal_Hbond>
0.0000

> <Gold.Chemscore.DEClash>
0.1590

> <Gold.Chemscore.DEInternal>
1.6999

> <Gold.Chemscore.Rot>
2.9067

> <Gold.Chemscore.Internal.Correction>
   9.000000E+99

> <Gold.Chemscore.Hbonds>
donor molecule, donor type, donor heavy atom, donor atom, acceptor molecule, acceptor atom, score
      L1  H     2    28       P1  7948  0.98
      P1  H  6896  6908       L1    13  0.24

> <Gold.Chemscore.Hbond.Weighted>
-6.3263

> <Gold.Chemscore.Metal.Weighted>
-0.0000

> <Gold.Chemscore.Lipo.Weighted>
-8.9406

> <Gold.Chemscore.Internal_Hbond.Weighted>
0.0000

> <Gold.Chemscore.DEClash.Weighted>
0.1590

> <Gold.Chemscore.DEInternal.Weighted>
1.6999

> <Gold.Chemscore.Rot.Weighted>
7.4412

> <Gold.Chemscore.Internal.Correction.Weighted>
   9.000000E+99

> <Gold.Protein.RotatedTorsions>
[ 6907 6896 6895 6894 ] final -179.45 input  -60.11 | X-H torsion
[ 7974 7965 7964 7962 ] final -113.55 input  175.53 | X-H torsion
[ 8008 7997 7996 7995 ] final  -14.98 input   59.86 | X-H torsion
[ 10167 10162 10161 10158 ] final  -46.96 input  -65.29 | X-H torsion
[ 10718 10713 10712 10709 ] final -129.47 input   66.30 | X-H torsion
[ 10763 10752 10751 10750 ] final   63.13 input  -60.55 | X-H torsion
[ 11005 11000 10999 10996 ] final  -78.33 input  -57.11 | X-H torsion

> <Gold.Protein.ActiveResidues>
 VAL166  LYS551  ARG553  GLY616  TRP617  ASP618  TYR619  PRO620  LYS621  CYS622 
 ASP623  PHE694  ASN695  SER759  ASP760  ASP761  ALA762  ILE779  LEU786  VAL792 
 PHE793  MET794  SER795  GLU796  ALA797  LYS798  CYS799  TRP800  GLU811  SER814 

> <Gold.Protein.RotatedAtoms>
  151.6536  133.3320  159.3157 H   0  0  0  0  0  0  0  0  0  0  0  0  # atno 6907 bound_to 6896
  150.7948  134.7003  159.6556 H   0  0  0  0  0  0  0  0  0  0  0  0  # atno 6908 bound_to 6896
  152.4033  134.6253  160.0113 H   0  0  0  0  0  0  0  0  0  0  0  0  # atno 6909 bound_to 6896
  145.1307  140.8723  143.3759 H   0  0  0  0  0  0  0  0  0  0  0  0  # atno 7974 bound_to 7965
  154.5167  140.2208  155.9053 H   0  0  0  0  0  0  0  0  0  0  0  0  # atno 8008 bound_to 7997
  156.1615  140.3141  155.8781 H   0  0  0  0  0  0  0  0  0  0  0  0  # atno 8009 bound_to 7997
  155.3742  140.0468  157.3035 H   0  0  0  0  0  0  0  0  0  0  0  0  # atno 8010 bound_to 7997
  140.6795  143.2806  151.3857 H   0  0  0  0  0  0  0  0  0  0  0  0  # atno 10167 bound_to 10162
  156.2050  130.6882  151.0583 H   0  0  0  0  0  0  0  0  0  0  0  0  # atno 10718 bound_to 10713
  153.0007  135.5440  154.6303 H   0  0  0  0  0  0  0  0  0  0  0  0  # atno 10763 bound_to 10752
  154.5582  135.2832  155.0946 H   0  0  0  0  0  0  0  0  0  0  0  0  # atno 10764 bound_to 10752
  154.2159  135.6459  153.5182 H   0  0  0  0  0  0  0  0  0  0  0  0  # atno 10765 bound_to 10752
  141.1664  133.7059  156.7955 H   0  0  0  0  0  0  0  0  0  0  0  0  # atno 11005 bound_to 11000
  145.0638  139.3084  143.5866 LP  0  0  0  0  0  0  0  0  0  0  0  0  # atno 17320 bound_to 7965
  146.3514  140.0090  142.8669 LP  0  0  0  0  0  0  0  0  0  0  0  0  # atno 17321 bound_to 7965
  139.6109  144.1100  152.2297 LP  0  0  0  0  0  0  0  0  0  0  0  0  # atno 17342 bound_to 10162
  140.0514  144.5929  150.7333 LP  0  0  0  0  0  0  0  0  0  0  0  0  # atno 17343 bound_to 10162
  157.7007  131.0777  150.6829 LP  0  0  0  0  0  0  0  0  0  0  0  0  # atno 17370 bound_to 10713
  156.6887  130.4589  149.5606 LP  0  0  0  0  0  0  0  0  0  0  0  0  # atno 17371 bound_to 10713
  140.2294  134.8697  157.3461 LP  0  0  0  0  0  0  0  0  0  0  0  0  # atno 17394 bound_to 11000
  140.1906  134.4376  155.7718 LP  0  0  0  0  0  0  0  0  0  0  0  0  # atno 17395 bound_to 11000

$$$$
