AV-unprocessed.smi:362|AV-procd|sdf|2421|dock2
  -GOLD-   2262022353D 1   1.00000     0.00000
 Structure written by MMmdl.
 36 38  0  0  0  0  0  0  0  0  1 V2000
  153.2814  140.3255  157.6354 O   0  0  0  0  0  0  0  0  0  0  0  0
  152.0569  140.4502  157.6798 C   0  0  0  0  0  0  0  0  0  0  0  0
  151.1382  139.3848  157.0649 C   0  0  0  0  0  0  0  0  0  0  0  0
  150.0810  139.9571  156.2184 N   0  0  0  0  0  0  0  0  0  0  0  0
  148.8991  140.4131  156.7848 C   0  0  0  0  0  0  0  0  0  0  0  0
  147.8820  140.9413  156.0637 C   0  0  0  0  0  0  0  0  0  0  0  0
  147.9872  141.0573  154.6132 C   0  0  0  0  0  0  0  0  0  0  0  0
  147.1224  141.5220  153.8741 O   0  0  0  0  0  0  0  0  0  0  0  0
  149.1899  140.5856  154.0808 N   0  0  0  0  0  0  0  0  0  0  0  0
  150.2414  140.0391  154.8180 C   0  0  0  0  0  0  0  0  0  0  0  0
  151.2595  139.6490  154.2474 O   0  0  0  0  0  0  0  0  0  0  0  0
  151.4420  141.4865  158.2702 N   0  0  0  0  0  0  0  0  0  0  0  0
  152.1026  142.6130  158.9210 C   0  0  0  0  0  0  0  0  0  0  0  0
  152.2188  142.4289  160.4253 C   0  0  0  0  0  0  0  0  0  0  0  0
  152.9739  143.4180  161.2820 C   0  0  0  0  0  0  0  0  0  0  0  0
  153.5234  142.0258  161.0716 C   0  0  0  0  0  0  0  0  0  0  0  0
  151.4066  143.9235  158.6012 C   0  0  0  0  0  0  0  0  0  0  0  0
  151.9403  145.2356  159.1241 C   0  0  0  0  0  0  0  0  0  0  0  0
  150.6343  144.6856  159.6521 C   0  0  0  0  0  0  0  0  0  0  0  0
  149.3072  140.6427  153.0796 H   0  0  0  0  0  0  0  0  0  0  0  0
  151.7577  138.6986  156.4859 H   0  0  0  0  0  0  0  0  0  0  0  0
  150.6949  138.7752  157.8551 H   0  0  0  0  0  0  0  0  0  0  0  0
  148.7748  140.3427  157.8562 H   0  0  0  0  0  0  0  0  0  0  0  0
  146.9850  141.2786  156.5627 H   0  0  0  0  0  0  0  0  0  0  0  0
  150.4324  141.4993  158.2626 H   0  0  0  0  0  0  0  0  0  0  0  0
  153.1160  142.6904  158.5213 H   0  0  0  0  0  0  0  0  0  0  0  0
  151.3214  142.0112  160.8783 H   0  0  0  0  0  0  0  0  0  0  0  0
  153.4917  144.2359  160.7854 H   0  0  0  0  0  0  0  0  0  0  0  0
  152.5587  143.6541  162.2596 H   0  0  0  0  0  0  0  0  0  0  0  0
  153.4746  141.3321  161.9083 H   0  0  0  0  0  0  0  0  0  0  0  0
  154.3994  141.9262  160.4338 H   0  0  0  0  0  0  0  0  0  0  0  0
  150.9862  143.9550  157.5975 H   0  0  0  0  0  0  0  0  0  0  0  0
  152.8029  145.2041  159.7872 H   0  0  0  0  0  0  0  0  0  0  0  0
  151.8932  146.0967  158.4607 H   0  0  0  0  0  0  0  0  0  0  0  0
  149.7168  145.1801  159.3401 H   0  0  0  0  0  0  0  0  0  0  0  0
  150.6323  144.2974  160.6686 H   0  0  0  0  0  0  0  0  0  0  0  0
  1  2  2  0  0  0  0
  2  3  1  0  0  0  0
  2 12  1  0  0  0  0
  3  4  1  0  0  0  0
  3 21  1  0  0  0  0
  3 22  1  0  0  0  0
  4 10  1  0  0  0  0
  4  5  1  0  0  0  0
  5  6  2  0  0  0  0
  5 23  1  0  0  0  0
  6  7  1  0  0  0  0
  6 24  1  0  0  0  0
  7  8  2  0  0  0  0
  7  9  1  0  0  0  0
  9 20  1  0  0  0  0
  9 10  1  0  0  0  0
 10 11  2  0  0  0  0
 12 13  1  0  0  0  0
 12 25  1  0  0  0  0
 13 14  1  0  0  0  0
 13 17  1  0  0  0  0
 13 26  1  0  0  0  0
 14 16  1  0  0  0  0
 14 15  1  0  0  0  0
 14 27  1  0  0  0  0
 15 16  1  0  0  0  0
 15 28  1  0  0  0  0
 15 29  1  0  0  0  0
 16 30  1  0  0  0  0
 16 31  1  0  0  0  0
 17 19  1  0  0  0  0
 17 18  1  0  0  0  0
 17 32  1  0  0  0  0
 18 19  1  0  0  0  0
 18 33  1  0  0  0  0
 18 34  1  0  0  0  0
 19 35  1  0  0  0  0
 19 36  1  0  0  0  0
M  END
> <s_m_source_file>
AV-unprocessed.smi

> <i_m_source_file_index>
362

> <i_lp_mmshare_version>
43012

> <i_f3d_flags>
0

> <s_epik_input>
W0NIMl0xW0NIMl1bQ0hdMVtDSF0oW0NIXTJbQ0gyXVtDSDJdMilbTkhdQyg9TylbQ0gyXW4zW2NIXVtjSF1jKD1PKVtuSF1jMz1P

> <s_epik_cmdline>
J2VwaWtfcHl0aG9uJywgJy1waCcsICc3LjAnLCAnLXRuJywgJzgnLCAnLW1hJywgJzIwMCcsICctbWV0YWxfYmluZGluZycsICctaW1hZScsICc8aW5maWxlLm1hZT4nLCAnLW9tYWUnLCAnPG91dGZpbGUubWFlPic=

> <r_lp_tautomer_probability>
0.999537

> <r_epik_Ionization_Penalty>
0.00315598

> <r_epik_Ionization_Penalty_Charging>
0.00315596

> <r_epik_Ionization_Penalty_Neutral>
2.04126e-08

> <r_epik_State_Penalty>
0.00222351

> <r_epik_Charging_Adjusted_Penalty>
0.00537947

> <i_epik_Tot_Q>
0

> <i_epik_Tot_abs_Q>
0

> <r_epik_Metal_State_Penalty>
0.363464

> <b_epik_Metal_Only>
0

> <s_lp_Force_Field>
OPLS_2005

> <r_lp_Energy>
23.1626

> <b_lp_Chiralities_Consistent>
1

> <s_lp_Variant>
AV-unprocessed.smi:362-1

> <Gold.Version>
5.8.1

> <Gold.Id.Protein>
6NUR|6NUR_protein|mol2

> <Gold.PLP.Fitness>
42.9085

> <Gold.PLP.PLP>
-35.9375

> <Gold.PLP.part.hbond>
-3.0000

> <Gold.PLP.part.metal>
0.0000

> <Gold.PLP.part.buried>
-3.8495

> <Gold.PLP.part.nonpolar>
-29.2336

> <Gold.PLP.part.repulsive>
0.5844

> <Gold.PLP.ligand.clash>
0.0000

> <Gold.PLP.ligand.torsion>
2.0928

> <Gold.PLP.Chemscore.Hbond>
3.0000

> <Gold.PLP.Chemscore.CHOScore>
0.0000

> <Gold.PLP.Chemscore.Metal>
0.0000

> <Gold.Chemscore.Hbonds>
donor molecule, donor type, donor heavy atom, donor atom, acceptor molecule, acceptor atom, score
      L1  H     9    20       P1  7957  0.99
      P1  H  7989  7998       L1    11  0.86
      P1  H  7997  8008       L1     1  0.66

> <Gold.PLP.Chemscore.Internal.Correction>
2.1565

> <Gold.Rescore>
     Score         DG    S(hbond)    S(metal)    S(lipo)     H(rot)  DE(clash)    DE(int)     intcor
     14.53     -17.66       2.37        0.00      83.56       2.15       0.17       2.96       ----

> <Gold.Chemscore.Fitness>
14.5321

> <Gold.Chemscore.DG>
-17.6558

> <Gold.Chemscore.ZeroCoef>
-5.4800

> <Gold.Chemscore.Hbond>
2.3663

> <Gold.Chemscore.Metal>
0.0000

> <Gold.Chemscore.Lipo>
83.5582

> <Gold.Chemscore.Internal_Hbond>
0.0000

> <Gold.Chemscore.DEClash>
0.1658

> <Gold.Chemscore.DEInternal>
2.9579

> <Gold.Chemscore.Rot>
2.1500

> <Gold.Chemscore.Internal.Correction>
   9.000000E+99

> <Gold.Chemscore.Hbonds>
donor molecule, donor type, donor heavy atom, donor atom, acceptor molecule, acceptor atom, score
      L1  H     9    20       P1  7957  0.93
      P1  H  7989  7998       L1    11  0.29
      P1  H  7997  8008       L1     1  0.65

> <Gold.Chemscore.Hbond.Weighted>
-7.9035

> <Gold.Chemscore.Metal.Weighted>
-0.0000

> <Gold.Chemscore.Lipo.Weighted>
-9.7763

> <Gold.Chemscore.Internal_Hbond.Weighted>
0.0000

> <Gold.Chemscore.DEClash.Weighted>
0.1658

> <Gold.Chemscore.DEInternal.Weighted>
2.9579

> <Gold.Chemscore.Rot.Weighted>
5.5040

> <Gold.Chemscore.Internal.Correction.Weighted>
   9.000000E+99

> <Gold.Protein.RotatedTorsions>
[ 6907 6896 6895 6894 ] final  117.90 input  -60.11 | X-H torsion
[ 7974 7965 7964 7962 ] final -142.86 input  175.53 | X-H torsion
[ 8008 7997 7996 7995 ] final  -80.12 input   59.86 | X-H torsion
[ 10167 10162 10161 10158 ] final -124.28 input  -65.29 | X-H torsion
[ 10718 10713 10712 10709 ] final   82.97 input   66.30 | X-H torsion
[ 10763 10752 10751 10750 ] final -134.44 input  -60.55 | X-H torsion
[ 11005 11000 10999 10996 ] final  -28.40 input  -57.11 | X-H torsion

> <Gold.Protein.ActiveResidues>
 VAL166  LYS551  ARG553  GLY616  TRP617  ASP618  TYR619  PRO620  LYS621  CYS622 
 ASP623  PHE694  ASN695  SER759  ASP760  ASP761  ALA762  ILE779  LEU786  VAL792 
 PHE793  MET794  SER795  GLU796  ALA797  LYS798  CYS799  TRP800  GLU811  SER814 

> <Gold.Protein.RotatedAtoms>
  152.4580  133.7764  159.6826 H   0  0  0  0  0  0  0  0  0  0  0  0  # atno 6907 bound_to 6896
  150.8514  133.7772  159.3030 H   0  0  0  0  0  0  0  0  0  0  0  0  # atno 6908 bound_to 6896
  151.5366  135.1071  159.9968 H   0  0  0  0  0  0  0  0  0  0  0  0  # atno 6909 bound_to 6896
  144.8412  140.5905  143.5451 H   0  0  0  0  0  0  0  0  0  0  0  0  # atno 7974 bound_to 7965
  154.5852  140.0668  156.9161 H   0  0  0  0  0  0  0  0  0  0  0  0  # atno 8008 bound_to 7997
  155.2392  140.3343  155.4276 H   0  0  0  0  0  0  0  0  0  0  0  0  # atno 8009 bound_to 7997
  156.2217  140.1802  156.7445 H   0  0  0  0  0  0  0  0  0  0  0  0  # atno 8010 bound_to 7997
  139.9945  143.5606  152.2329 H   0  0  0  0  0  0  0  0  0  0  0  0  # atno 10167 bound_to 10162
  157.6869  131.0071  150.2453 H   0  0  0  0  0  0  0  0  0  0  0  0  # atno 10718 bound_to 10713
  154.8719  135.3734  154.4736 H   0  0  0  0  0  0  0  0  0  0  0  0  # atno 10763 bound_to 10752
  153.5394  135.7026  153.5649 H   0  0  0  0  0  0  0  0  0  0  0  0  # atno 10764 bound_to 10752
  153.3817  135.3995  155.1826 H   0  0  0  0  0  0  0  0  0  0  0  0  # atno 10765 bound_to 10752
  140.9205  133.7402  156.0795 H   0  0  0  0  0  0  0  0  0  0  0  0  # atno 11005 bound_to 11000
  145.4691  139.1505  143.3824 LP  0  0  0  0  0  0  0  0  0  0  0  0  # atno 17320 bound_to 7965
  146.2704  140.4824  142.8817 LP  0  0  0  0  0  0  0  0  0  0  0  0  # atno 17321 bound_to 7965
  139.6316  144.7645  151.2524 LP  0  0  0  0  0  0  0  0  0  0  0  0  # atno 17342 bound_to 10162
  140.7442  143.6470  150.8283 LP  0  0  0  0  0  0  0  0  0  0  0  0  # atno 17343 bound_to 10162
  156.3060  130.3765  149.7706 LP  0  0  0  0  0  0  0  0  0  0  0  0  # atno 17370 bound_to 10713
  156.5321  130.8262  151.3240 LP  0  0  0  0  0  0  0  0  0  0  0  0  # atno 17371 bound_to 10713
  140.7994  134.3526  157.5443 LP  0  0  0  0  0  0  0  0  0  0  0  0  # atno 17394 bound_to 11000
  139.8774  134.9188  156.3212 LP  0  0  0  0  0  0  0  0  0  0  0  0  # atno 17395 bound_to 11000

$$$$
