#       Name:                AV-unprocessed.smi:2520
#       Creating user name   scv26
#       Creation time:       Fri Mar 27 13:54:55 2020


#       File generated by GOLD software.
#

@<TRIPOS>MOLECULE
AV-unprocessed.smi:2520
    47    50     1
SMALL
NO_CHARGES


@<TRIPOS>ATOM
      1 ****        -1.9342  -1.9850  -0.8946 O.2            1 S1                 0.0000
      2 ****        -0.7106  -1.8631  -0.8848 C.2            1 S1                 0.0000
      3 ****         0.0973  -2.9438  -0.9208 N.am           1 S1                 0.0000
      4 ****        -0.1983  -4.3372  -0.9697 C.ar           1 S1                 0.0000
      5 ****         0.9270  -5.1844  -0.8817 C.ar           1 S1                 0.0000
      6 ****         0.7248  -6.5741  -0.9323 C.ar           1 S1                 0.0000
      7 ****        -0.5978  -7.0272  -1.0718 C.ar           1 S1                 0.0000
      8 ****        -1.6473  -6.1817  -1.1574 N.ar           1 S1                 0.0000
      9 ****        -1.4457  -4.8608  -1.1091 N.ar           1 S1                 0.0000
     10 ****        -0.1015  -0.6678  -0.8422 N.am           1 S1                 0.0000
     11 ****        -0.7902   0.6145  -0.7669 C.3            1 S1                 0.0000
     12 ****         0.1623   1.8038  -0.9712 C.3            1 S1                 0.0000
     13 ****         0.0127   2.6808  -2.1840 C.3            1 S1                 0.0000
     14 ****        -0.8576   3.8302  -1.6675 C.3            1 S1                 0.0000
     15 ****        -1.5175   3.2962  -0.5214 O.3            1 S1                 0.0000
     16 ****        -0.5760   2.4816   0.1735 C.3            1 S1                 0.0000
     17 ****        -1.0721   1.1072   0.6719 C.3            1 S1                 0.0000
     18 ****        -0.2850   0.5154   1.8449 C.3            1 S1                 0.0000
     19 ****        -0.9770   1.0000   3.1195 C.3            1 S1                 0.0000
     20 ****        -2.4360   1.2443   2.7212 C.3            1 S1                 0.0000
     21 ****        -2.4997   1.0256   1.2054 C.3            1 S1                 0.0000
     22 ****         1.0822  -2.7261  -0.9603 H              1 S1                 0.0000
     23 ****         1.9240  -4.7816  -0.7765 H              1 S1                 0.0000
     24 ****         1.5516  -7.2658  -0.8666 H              1 S1                 0.0000
     25 ****        -0.8189  -8.0833  -1.1164 H              1 S1                 0.0000
     26 ****         0.9085  -0.6482  -0.8395 H              1 S1                 0.0000
     27 ****        -1.6734   0.6857  -1.4060 H              1 S1                 0.0000
     28 ****         1.1935   1.5699  -0.6996 H              1 S1                 0.0000
     29 ****         0.9696   3.0408  -2.5628 H              1 S1                 0.0000
     30 ****        -0.4880   2.1459  -2.9914 H              1 S1                 0.0000
     31 ****        -0.2361   4.6719  -1.3585 H              1 S1                 0.0000
     32 ****        -1.5696   4.1868  -2.4119 H              1 S1                 0.0000
     33 ****         0.0688   3.0398   0.8539 H              1 S1                 0.0000
     34 ****        -0.3219  -0.5743   1.8224 H              1 S1                 0.0000
     35 ****         0.7684   0.7969   1.8297 H              1 S1                 0.0000
     36 ****        -0.8832   0.2797   3.9327 H              1 S1                 0.0000
     37 ****        -0.5264   1.9355   3.4536 H              1 S1                 0.0000
     38 ****        -3.1161   0.5698   3.2424 H              1 S1                 0.0000
     39 ****        -2.7273   2.2643   2.9746 H              1 S1                 0.0000
     40 ****        -3.1689   1.7422   0.7290 H              1 S1                 0.0000
     41 ****        -2.9111   0.0361   1.0016 H              1 S1                 0.0000
     42 ****        -2.3457  -2.8957  -0.9297 LP             1 S1                 0.0000
     43 ****        -2.5178  -1.1733  -0.8674 LP             1 S1                 0.0000
     44 ****        -2.5744  -6.5431  -1.2568 LP             1 S1                 0.0000
     45 ****        -2.2298  -4.2439  -1.1770 LP             1 S1                 0.0000
     46 ****        -2.3023   2.7451  -0.8050 LP             1 S1                 0.0000
     47 ****        -1.8288   4.0395   0.0708 LP             1 S1                 0.0000
@<TRIPOS>BOND
    1    1    2 2     
    2    2    3 am    
    3    2   10 am    
    4    3    4 1     
    5    3   22 1     
    6    4    9 ar    
    7    4    5 ar    
    8    5    6 ar    
    9    5   23 1     
   10    6    7 ar    
   11    6   24 1     
   12    7    8 ar    
   13    7   25 1     
   14    8    9 ar    
   15   10   11 1     
   16   10   26 1     
   17   11   17 1     
   18   11   12 1     
   19   11   27 1     
   20   12   16 1     
   21   12   13 1     
   22   12   28 1     
   23   13   14 1     
   24   13   29 1     
   25   13   30 1     
   26   14   15 1     
   27   14   31 1     
   28   14   32 1     
   29   15   16 1     
   30   16   17 1     
   31   16   33 1     
   32   17   21 1     
   33   17   18 1     
   34   18   19 1     
   35   18   34 1     
   36   18   35 1     
   37   19   20 1     
   38   19   36 1     
   39   19   37 1     
   40   20   21 1     
   41   20   38 1     
   42   20   39 1     
   43   21   40 1     
   44   21   41 1     
   45    1   42 1     
   46    1   43 1     
   47    8   44 1     
   48    9   45 1     
   49   15   46 1     
   50   15   47 1     
@<TRIPOS>SUBSTRUCTURE
      1 S1             1
@<TRIPOS>SET
LONE_PAIRS      STATIC     ATOMS    <user>   **** ""
6 42 43 44 45 46 47
DONOR_HYDROGENS      STATIC     ATOMS    <user>   **** ""
2 22 26
ATOM$BLUE        STATIC     ATOMS    COLORGROUP SYSTEM
6 42 43 44 45 46 47
ATOM$RED        STATIC     ATOMS    COLORGROUP SYSTEM
2 22 26
