AV-unprocessed.smi:1794|AV-procd|sdf|7236|dock10
  -GOLD-   22720 8483D 1   1.00000     0.00000
 Structure written by MMmdl.
 55 57  0  0  0  0  0  0  0  0  4 V2000
  146.8130  137.3284  158.8174 C   0  0  0  0  0  0  0  0  0  0  0  0
  147.6647  136.0254  158.8508 C   0  0  0  0  0  0  0  0  0  0  0  0
  147.3129  135.2293  157.5536 C   0  0  0  0  0  0  0  0  0  0  0  0
  149.2060  136.3347  158.8563 C   0  0  0  0  0  0  0  0  0  0  0  0
  149.5502  137.4516  157.9732 N   0  5  0  0  0  0  0  0  0  0  0  0
  150.2717  138.5395  158.3499 C   0  0  0  0  0  0  0  0  0  0  0  0
  151.1088  138.6165  159.2564 O   0  0  0  0  0  0  0  0  0  0  0  0
  149.9662  139.6220  157.6148 N   0  0  0  0  0  0  0  0  0  0  0  0
  150.4634  140.9495  157.7340 C   0  0  0  0  0  0  0  0  0  0  0  0
  151.5435  141.2498  158.6022 C   0  0  0  0  0  0  0  0  0  0  0  0
  152.0071  142.5740  158.7148 C   0  0  0  0  0  0  0  0  0  0  0  0
  151.3872  143.5779  157.9515 C   0  0  0  0  0  0  0  0  0  0  0  0
  150.3771  143.2562  157.1171 N   0  3  0  0  0  0  0  0  0  0  0  0
  149.8954  141.9981  156.9533 C   0  0  0  0  0  0  0  0  0  0  0  0
  148.8390  141.8139  156.0313 N   0  0  0  0  0  0  0  0  0  0  0  0
  149.1069  141.3154  154.6876 C   0  0  0  0  0  0  0  0  0  0  0  0
  147.7383  140.9445  154.1231 C   0  0  0  0  0  0  0  0  0  0  0  0
  147.0011  140.4335  155.3576 C   0  0  0  0  0  0  0  0  0  0  0  0
  147.5544  141.2986  156.4949 C   0  0  0  0  0  0  0  0  0  0  0  0
  147.3618  135.2197  160.1011 N   0  3  0  0  0  0  0  0  0  0  0  0
  147.7032  135.8695  161.4056 C   0  0  0  0  0  0  0  0  0  0  0  0
  147.5830  134.8659  162.5614 C   0  0  0  0  0  0  0  0  0  0  0  0
  146.2516  134.3759  162.6131 O   0  0  0  0  0  0  0  0  0  0  0  0
  145.9065  133.6795  161.4249 C   0  0  0  0  0  0  0  0  0  0  0  0
  146.0011  134.6164  160.2068 C   0  0  0  0  0  0  0  0  0  0  0  0
  146.9226  137.8662  157.8736 H   0  0  0  0  0  0  0  0  0  0  0  0
  147.0645  138.0355  159.6101 H   0  0  0  0  0  0  0  0  0  0  0  0
  145.7514  137.0987  158.9145 H   0  0  0  0  0  0  0  0  0  0  0  0
  147.5437  135.7830  156.6410 H   0  0  0  0  0  0  0  0  0  0  0  0
  146.2443  135.0232  157.4878 H   0  0  0  0  0  0  0  0  0  0  0  0
  147.8366  134.2733  157.4861 H   0  0  0  0  0  0  0  0  0  0  0  0
  149.5199  136.5383  159.8805 H   0  0  0  0  0  0  0  0  0  0  0  0
  149.7433  135.4295  158.5703 H   0  0  0  0  0  0  0  0  0  0  0  0
  149.2000  139.4992  156.9695 H   0  0  0  0  0  0  0  0  0  0  0  0
  152.0269  140.4775  159.1817 H   0  0  0  0  0  0  0  0  0  0  0  0
  152.8252  142.8139  159.3783 H   0  0  0  0  0  0  0  0  0  0  0  0
  151.6719  144.6198  157.9747 H   0  0  0  0  0  0  0  0  0  0  0  0
  149.6070  142.0670  154.0757 H   0  0  0  0  0  0  0  0  0  0  0  0
  149.7396  140.4278  154.7311 H   0  0  0  0  0  0  0  0  0  0  0  0
  147.2407  141.8344  153.7347 H   0  0  0  0  0  0  0  0  0  0  0  0
  147.7938  140.2081  153.3206 H   0  0  0  0  0  0  0  0  0  0  0  0
  145.9167  140.4996  155.2646 H   0  0  0  0  0  0  0  0  0  0  0  0
  147.2604  139.3884  155.5322 H   0  0  0  0  0  0  0  0  0  0  0  0
  147.6496  140.7252  157.4181 H   0  0  0  0  0  0  0  0  0  0  0  0
  146.8861  142.1400  156.6823 H   0  0  0  0  0  0  0  0  0  0  0  0
  148.7157  136.2724  161.4011 H   0  0  0  0  0  0  0  0  0  0  0  0
  147.0302  136.7063  161.5964 H   0  0  0  0  0  0  0  0  0  0  0  0
  148.2910  134.0439  162.4442 H   0  0  0  0  0  0  0  0  0  0  0  0
  147.8142  135.3545  163.5081 H   0  0  0  0  0  0  0  0  0  0  0  0
  146.5577  132.8133  161.2975 H   0  0  0  0  0  0  0  0  0  0  0  0
  144.8902  133.2979  161.5247 H   0  0  0  0  0  0  0  0  0  0  0  0
  145.2531  135.4076  160.2780 H   0  0  0  0  0  0  0  0  0  0  0  0
  145.7584  134.0119  159.3346 H   0  0  0  0  0  0  0  0  0  0  0  0
  147.9812  134.4252  160.0266 H   0  0  0  0  0  0  0  0  0  0  0  0
  149.9544  144.0050  156.5687 H   0  0  0  0  0  0  0  0  0  0  0  0
  1  2  1  0  0  0  0
  1 26  1  0  0  0  0
  1 27  1  0  0  0  0
  1 28  1  0  0  0  0
  2  3  1  0  0  0  0
  2  4  1  0  0  0  0
  2 20  1  0  0  0  0
  3 29  1  0  0  0  0
  3 30  1  0  0  0  0
  3 31  1  0  0  0  0
  4  5  1  0  0  0  0
  4 32  1  0  0  0  0
  4 33  1  0  0  0  0
  5  6  1  0  0  0  0
  6  7  2  0  0  0  0
  6  8  1  0  0  0  0
  8  9  1  0  0  0  0
  8 34  1  0  0  0  0
  9 14  1  0  0  0  0
  9 10  2  0  0  0  0
 10 11  1  0  0  0  0
 10 35  1  0  0  0  0
 11 12  2  0  0  0  0
 11 36  1  0  0  0  0
 12 13  1  0  0  0  0
 12 37  1  0  0  0  0
 13 14  2  0  0  0  0
 13 55  1  0  0  0  0
 14 15  1  0  0  0  0
 15 19  1  0  0  0  0
 15 16  1  0  0  0  0
 16 17  1  0  0  0  0
 16 38  1  0  0  0  0
 16 39  1  0  0  0  0
 17 18  1  0  0  0  0
 17 40  1  0  0  0  0
 17 41  1  0  0  0  0
 18 19  1  0  0  0  0
 18 42  1  0  0  0  0
 18 43  1  0  0  0  0
 19 44  1  0  0  0  0
 19 45  1  0  0  0  0
 20 25  1  0  0  0  0
 20 21  1  0  0  0  0
 20 54  1  0  0  0  0
 21 22  1  0  0  0  0
 21 46  1  0  0  0  0
 21 47  1  0  0  0  0
 22 23  1  0  0  0  0
 22 48  1  0  0  0  0
 22 49  1  0  0  0  0
 23 24  1  0  0  0  0
 24 25  1  0  0  0  0
 24 50  1  0  0  0  0
 24 51  1  0  0  0  0
 25 52  1  0  0  0  0
 25 53  1  0  0  0  0
M  CHG  1   5  -1
M  CHG  1  13   1
M  CHG  1  20   1
M  END
> <s_m_source_file>
AV-unprocessed.smi

> <i_m_source_file_index>
1794

> <i_lp_mmshare_version>
43012

> <i_f3d_flags>
0

> <s_epik_input>
W0NIMl0xW0NIMl1PW0NIMl1bQ0gyXU4xQyhbQ0gzXSkoW0NIM10pW0NIMl1bTkhdQyg9TylbTkhdYzJbY0hdW2NIXVtjSF1uYzJOM1tDSDJdW0NIMl1bQ0gyXVtDSDJdMw==

> <s_epik_cmdline>
J2VwaWtfcHl0aG9uJywgJy1waCcsICc3LjAnLCAnLXRuJywgJzgnLCAnLW1hJywgJzIwMCcsICctbWV0YWxfYmluZGluZycsICctaW1hZScsICc8aW5maWxlLm1hZT4nLCAnLW9tYWUnLCAnPG91dGZpbGUubWFlPic=

> <r_lp_tautomer_probability>
0.999994

> <r_epik_Ionization_Penalty>
8.57565

> <r_epik_Ionization_Penalty_Charging>
8.57565

> <r_epik_Ionization_Penalty_Neutral>
3.55275e-06

> <r_epik_State_Penalty>
8.56988

> <r_epik_Charging_Adjusted_Penalty>
17.1455

> <i_epik_Tot_Q>
1

> <i_epik_Tot_abs_Q>
3

> <r_epik_Metal_State_Penalty>
4.56715

> <b_epik_Metal_Only>
1

> <s_lp_Force_Field>
OPLS_2005

> <r_lp_Energy>
59.2957

> <b_lp_Chiralities_Consistent>
1

> <s_lp_Variant>
AV-unprocessed.smi:1794-5

> <Gold.Version>
5.8.1

> <Gold.Id.Protein>
6NUR|6NUR_protein|mol2

> <Gold.PLP.Fitness>
39.1587

> <Gold.PLP.PLP>
-34.2586

> <Gold.PLP.part.hbond>
-1.4981

> <Gold.PLP.part.metal>
0.0000

> <Gold.PLP.part.buried>
-7.0050

> <Gold.PLP.part.nonpolar>
-27.1279

> <Gold.PLP.part.repulsive>
0.9373

> <Gold.PLP.ligand.clash>
0.0734

> <Gold.PLP.ligand.torsion>
0.8177

> <Gold.PLP.Chemscore.Hbond>
2.0000

> <Gold.PLP.Chemscore.CHOScore>
0.0000

> <Gold.PLP.Chemscore.Metal>
0.0000

> <Gold.Chemscore.Hbonds>
donor molecule, donor type, donor heavy atom, donor atom, acceptor molecule, acceptor atom, score
      L1  H    13    55       P1  8028  2.00

> <Gold.PLP.Chemscore.Internal.Correction>
0.6089

> <Gold.Rescore>
     Score         DG    S(hbond)    S(metal)    S(lipo)     H(rot)  DE(clash)    DE(int)     intcor
     12.93     -15.44       0.97        0.00      92.58       1.60       0.32       2.18       ----

> <Gold.Chemscore.Fitness>
12.9330

> <Gold.Chemscore.DG>
-15.4396

> <Gold.Chemscore.ZeroCoef>
-5.4800

> <Gold.Chemscore.Hbond>
0.9685

> <Gold.Chemscore.Metal>
0.0000

> <Gold.Chemscore.Lipo>
92.5806

> <Gold.Chemscore.Internal_Hbond>
0.0000

> <Gold.Chemscore.DEClash>
0.3222

> <Gold.Chemscore.DEInternal>
2.1844

> <Gold.Chemscore.Rot>
1.6044

> <Gold.Chemscore.Internal.Correction>
   9.000000E+99

> <Gold.Chemscore.Hbonds>
donor molecule, donor type, donor heavy atom, donor atom, acceptor molecule, acceptor atom, score
      L1  H    13    55       P1  8028  0.95

> <Gold.Chemscore.Hbond.Weighted>
-3.2349

> <Gold.Chemscore.Metal.Weighted>
-0.0000

> <Gold.Chemscore.Lipo.Weighted>
-10.8319

> <Gold.Chemscore.Internal_Hbond.Weighted>
0.0000

> <Gold.Chemscore.DEClash.Weighted>
0.3222

> <Gold.Chemscore.DEInternal.Weighted>
2.1844

> <Gold.Chemscore.Rot.Weighted>
4.1072

> <Gold.Chemscore.Internal.Correction.Weighted>
   9.000000E+99

> <Gold.Protein.RotatedTorsions>
[ 6907 6896 6895 6894 ] final   15.91 input  -60.11 | X-H torsion
[ 7974 7965 7964 7962 ] final   99.41 input  175.53 | X-H torsion
[ 8008 7997 7996 7995 ] final -178.51 input   59.86 | X-H torsion
[ 10167 10162 10161 10158 ] final  -95.41 input  -65.29 | X-H torsion
[ 10718 10713 10712 10709 ] final   32.64 input   66.30 | X-H torsion
[ 10763 10752 10751 10750 ] final -115.36 input  -60.55 | X-H torsion
[ 11005 11000 10999 10996 ] final  132.17 input  -57.11 | X-H torsion

> <Gold.Protein.ActiveResidues>
 VAL166  LYS551  ARG553  GLY616  TRP617  ASP618  TYR619  PRO620  LYS621  CYS622 
 ASP623  PHE694  ASN695  SER759  ASP760  ASP761  ALA762  ILE779  LEU786  VAL792 
 PHE793  MET794  SER795  GLU796  ALA797  LYS798  CYS799  TRP800  GLU811  SER814 

> <Gold.Protein.RotatedAtoms>
  151.8256  135.0638  160.0430 H   0  0  0  0  0  0  0  0  0  0  0  0  # atno 6907 bound_to 6896
  152.2919  133.5565  159.5571 H   0  0  0  0  0  0  0  0  0  0  0  0  # atno 6908 bound_to 6896
  150.7234  134.0333  159.3783 H   0  0  0  0  0  0  0  0  0  0  0  0  # atno 6909 bound_to 6896
  145.3993  139.2350  143.3309 H   0  0  0  0  0  0  0  0  0  0  0  0  # atno 7974 bound_to 7965
  156.0196  140.1258  157.0371 H   0  0  0  0  0  0  0  0  0  0  0  0  # atno 8008 bound_to 7997
  154.4306  140.1071  156.6015 H   0  0  0  0  0  0  0  0  0  0  0  0  # atno 8009 bound_to 7997
  155.5963  140.3470  155.4583 H   0  0  0  0  0  0  0  0  0  0  0  0  # atno 8010 bound_to 7997
  140.3045  143.3142  152.0214 H   0  0  0  0  0  0  0  0  0  0  0  0  # atno 10167 bound_to 10162
  157.2878  130.7287  149.6593 H   0  0  0  0  0  0  0  0  0  0  0  0  # atno 10718 bound_to 10713
  154.8478  135.4384  154.1651 H   0  0  0  0  0  0  0  0  0  0  0  0  # atno 10763 bound_to 10752
  153.2778  135.6951  153.7422 H   0  0  0  0  0  0  0  0  0  0  0  0  # atno 10764 bound_to 10752
  153.6637  135.3430  155.3109 H   0  0  0  0  0  0  0  0  0  0  0  0  # atno 10765 bound_to 10752
  139.9774  134.9559  156.9544 H   0  0  0  0  0  0  0  0  0  0  0  0  # atno 11005 bound_to 11000
  146.2760  140.4688  142.8795 LP  0  0  0  0  0  0  0  0  0  0  0  0  # atno 17320 bound_to 7965
  144.8385  140.6820  143.6244 LP  0  0  0  0  0  0  0  0  0  0  0  0  # atno 17321 bound_to 7965
  139.4907  144.6431  151.6835 LP  0  0  0  0  0  0  0  0  0  0  0  0  # atno 17342 bound_to 10162
  140.5622  144.0249  150.6175 LP  0  0  0  0  0  0  0  0  0  0  0  0  # atno 17343 bound_to 10162
  155.9666  130.4318  150.4937 LP  0  0  0  0  0  0  0  0  0  0  0  0  # atno 17370 bound_to 10713
  157.2893  131.0623  151.2144 LP  0  0  0  0  0  0  0  0  0  0  0  0  # atno 17371 bound_to 10713
  140.5166  134.0949  155.7282 LP  0  0  0  0  0  0  0  0  0  0  0  0  # atno 17394 bound_to 11000
  141.1450  133.9071  157.2237 LP  0  0  0  0  0  0  0  0  0  0  0  0  # atno 17395 bound_to 11000

$$$$
