AV-unprocessed.smi:2307|AV-procd|sdf|9250|dock4
  -GOLD-   2272012473D 1   1.00000     0.00000
 Structure written by MMmdl.
 38 39  0  0  0  0  0  0  0  0  1 V2000
  151.7008  135.9243  156.5034 C   0  0  0  0  0  0  0  0  0  0  0  0
  150.6298  136.9031  156.0552 C   0  0  0  0  0  0  0  0  0  0  0  0
  150.8568  137.5242  154.8239 N   0  0  0  0  0  0  0  0  0  0  0  0
  150.0002  138.3760  154.3639 C   0  0  0  0  0  0  0  0  0  0  0  0
  148.8323  138.7066  155.0738 N   0  0  0  0  0  0  0  0  0  0  0  0
  147.9407  139.7091  154.4606 C   0  0  0  0  0  0  0  0  0  0  0  0
  148.5608  141.1263  154.4195 C   0  0  2  0  0  0  0  0  0  0  0  0
  149.4868  141.1752  153.3538 O   0  0  0  0  0  0  0  0  0  0  0  0
  149.1852  141.5408  155.7453 C   0  0  0  0  0  0  0  0  0  0  0  0
  150.5777  141.7362  155.8540 C   0  0  0  0  0  0  0  0  0  0  0  0
  151.1487  142.0942  157.0897 C   0  0  0  0  0  0  0  0  0  0  0  0
  150.3466  142.2604  158.2371 C   0  0  0  0  0  0  0  0  0  0  0  0
  150.9950  142.6068  159.4054 O   0  0  0  0  0  0  0  0  0  0  0  0
  151.3651  143.8931  159.6511 C   0  0  0  0  0  0  0  0  0  0  0  0
  150.2773  144.6971  159.5756 F   0  0  0  0  0  0  0  0  0  0  0  0
  151.8805  144.0424  160.8972 F   0  0  0  0  0  0  0  0  0  0  0  0
  152.2556  144.3478  158.7337 F   0  0  0  0  0  0  0  0  0  0  0  0
  148.9474  142.0632  158.1227 C   0  0  0  0  0  0  0  0  0  0  0  0
  148.3744  141.7071  156.8867 C   0  0  0  0  0  0  0  0  0  0  0  0
  148.5301  138.1388  156.2769 C   0  0  0  0  0  0  0  0  0  0  0  0
  147.5005  138.4297  156.8882 O   0  0  0  0  0  0  0  0  0  0  0  0
  149.5148  137.1716  156.7877 C   0  0  0  0  0  0  0  0  0  0  0  0
  149.2140  136.5248  158.1338 C   0  0  0  0  0  0  0  0  0  0  0  0
  151.2804  134.9246  156.6151 H   0  0  0  0  0  0  0  0  0  0  0  0
  152.1263  136.2335  157.4584 H   0  0  0  0  0  0  0  0  0  0  0  0
  152.5140  135.8651  155.7790 H   0  0  0  0  0  0  0  0  0  0  0  0
  150.1350  138.8899  153.4108 H   0  0  0  0  0  0  0  0  0  0  0  0
  147.6610  139.4116  153.4477 H   0  0  0  0  0  0  0  0  0  0  0  0
  146.9967  139.7368  155.0082 H   0  0  0  0  0  0  0  0  0  0  0  0
  147.7801  141.8469  154.1738 H   0  0  0  0  0  0  0  0  0  0  0  0
  149.2822  140.4790  152.7483 H   0  0  0  0  0  0  0  0  0  0  0  0
  151.2143  141.6050  154.9911 H   0  0  0  0  0  0  0  0  0  0  0  0
  152.2170  142.2394  157.1584 H   0  0  0  0  0  0  0  0  0  0  0  0
  148.2902  142.1764  158.9709 H   0  0  0  0  0  0  0  0  0  0  0  0
  147.3073  141.5521  156.8212 H   0  0  0  0  0  0  0  0  0  0  0  0
  149.1425  137.2881  158.9090 H   0  0  0  0  0  0  0  0  0  0  0  0
  149.9727  135.8093  158.4459 H   0  0  0  0  0  0  0  0  0  0  0  0
  148.2623  135.9941  158.0916 H   0  0  0  0  0  0  0  0  0  0  0  0
  1  2  1  0  0  0  0
  1 24  1  0  0  0  0
  1 25  1  0  0  0  0
  1 26  1  0  0  0  0
  2 22  2  0  0  0  0
  2  3  1  0  0  0  0
  3  4  2  0  0  0  0
  4  5  1  0  0  0  0
  4 27  1  0  0  0  0
  5  6  1  0  0  0  0
  5 20  1  0  0  0  0
  6  7  1  0  0  0  0
  6 28  1  0  0  0  0
  6 29  1  0  0  0  0
  7  8  1  0  0  0  0
  7  9  1  0  0  0  0
  7 30  1  0  0  0  0
  8 31  1  0  0  0  0
  9 19  1  0  0  0  0
  9 10  2  0  0  0  0
 10 11  1  0  0  0  0
 10 32  1  0  0  0  0
 11 12  2  0  0  0  0
 11 33  1  0  0  0  0
 12 13  1  0  0  0  0
 12 18  1  0  0  0  0
 13 14  1  0  0  0  0
 14 15  1  0  0  0  0
 14 16  1  0  0  0  0
 14 17  1  0  0  0  0
 18 19  2  0  0  0  0
 18 34  1  0  0  0  0
 19 35  1  0  0  0  0
 20 21  2  0  0  0  0
 20 22  1  0  0  0  0
 22 23  1  0  0  0  0
 23 36  1  0  0  0  0
 23 37  1  0  0  0  0
 23 38  1  0  0  0  0
M  END
> <s_m_source_file>
AV-unprocessed.smi

> <i_m_source_file_index>
2307

> <i_lp_mmshare_version>
43012

> <i_f3d_flags>
0

> <s_epik_input>
W0NIM11jMW5bY0hdbihjKD1PKWMxW0NIM10pW0NIMl1bQ0BIXShbT0hdKWMyW2NIXVtjSF1jKE9DKEYpKEYpRilbY0hdW2NIXTI=

> <s_epik_cmdline>
J2VwaWtfcHl0aG9uJywgJy1waCcsICc3LjAnLCAnLXRuJywgJzgnLCAnLW1hJywgJzIwMCcsICctbWV0YWxfYmluZGluZycsICctaW1hZScsICc8aW5maWxlLm1hZT4nLCAnLW9tYWUnLCAnPG91dGZpbGUubWFlPic=

> <r_lp_tautomer_probability>
1

> <r_epik_Ionization_Penalty>
5.07003e-05

> <r_epik_Ionization_Penalty_Charging>
7.56727e-08

> <r_epik_Ionization_Penalty_Neutral>
5.06246e-05

> <r_epik_State_Penalty>
-0

> <r_epik_Charging_Adjusted_Penalty>
7.56727e-08

> <i_epik_Tot_Q>
0

> <i_epik_Tot_abs_Q>
0

> <r_epik_Metal_State_Penalty>
-0

> <b_epik_Metal_Only>
0

> <s_lp_Force_Field>
OPLS_2005

> <r_lp_Energy>
16.6377

> <b_lp_Chiralities_Consistent>
1

> <s_lp_Variant>
AV-unprocessed.smi:2307-1

> <Gold.Version>
5.8.1

> <Gold.Id.Protein>
6NUR|6NUR_protein|mol2

> <Gold.PLP.Fitness>
45.0926

> <Gold.PLP.PLP>
-37.7367

> <Gold.PLP.part.hbond>
-3.4769

> <Gold.PLP.part.metal>
0.0000

> <Gold.PLP.part.buried>
-4.7986

> <Gold.PLP.part.nonpolar>
-28.7747

> <Gold.PLP.part.repulsive>
0.1661

> <Gold.PLP.ligand.clash>
0.0000

> <Gold.PLP.ligand.torsion>
0.5760

> <Gold.PLP.Chemscore.Hbond>
1.8907

> <Gold.PLP.Chemscore.CHOScore>
0.9166

> <Gold.PLP.Chemscore.Metal>
0.0000

> <Gold.Chemscore.Hbonds>
donor molecule, donor type, donor heavy atom, donor atom, acceptor molecule, acceptor atom, score
      L1  H     8    31       P1  7957  0.77
      P1  H  7989  7998       L1     8  0.10
      P1  H  8011  8017       L1     8  1.00
      L1  C     4    27       P1  7957  0.90

> <Gold.PLP.Chemscore.Internal.Correction>
0.0862

> <Gold.Rescore>
     Score         DG    S(hbond)    S(metal)    S(lipo)     H(rot)  DE(clash)    DE(int)     intcor
     10.03     -11.60       1.42        0.00      70.44       2.69       0.14       1.43       ----

> <Gold.Chemscore.Fitness>
10.0331

> <Gold.Chemscore.DG>
-11.6008

> <Gold.Chemscore.ZeroCoef>
-5.4800

> <Gold.Chemscore.Hbond>
1.4236

> <Gold.Chemscore.Metal>
0.0000

> <Gold.Chemscore.Lipo>
70.4363

> <Gold.Chemscore.Internal_Hbond>
0.0000

> <Gold.Chemscore.DEClash>
0.1401

> <Gold.Chemscore.DEInternal>
1.4276

> <Gold.Chemscore.Rot>
2.6856

> <Gold.Chemscore.Internal.Correction>
   9.000000E+99

> <Gold.Chemscore.Hbonds>
donor molecule, donor type, donor heavy atom, donor atom, acceptor molecule, acceptor atom, score
      L1  H     8    31       P1  7957  0.78
      P1  H  7989  7998       L1     8  0.02
      P1  H  8011  8017       L1     8  0.29

> <Gold.Chemscore.Hbond.Weighted>
-4.7549

> <Gold.Chemscore.Metal.Weighted>
-0.0000

> <Gold.Chemscore.Lipo.Weighted>
-8.2411

> <Gold.Chemscore.Internal_Hbond.Weighted>
0.0000

> <Gold.Chemscore.DEClash.Weighted>
0.1401

> <Gold.Chemscore.DEInternal.Weighted>
1.4276

> <Gold.Chemscore.Rot.Weighted>
6.8751

> <Gold.Chemscore.Internal.Correction.Weighted>
   9.000000E+99

> <Gold.Protein.RotatedTorsions>
[ 6907 6896 6895 6894 ] final -115.18 input  -60.11 | X-H torsion
[ 7974 7965 7964 7962 ] final -137.30 input  175.53 | X-H torsion
[ 8008 7997 7996 7995 ] final  171.98 input   59.86 | X-H torsion
[ 10167 10162 10161 10158 ] final  -15.89 input  -65.29 | X-H torsion
[ 10718 10713 10712 10709 ] final  161.50 input   66.30 | X-H torsion
[ 10763 10752 10751 10750 ] final  -51.77 input  -60.55 | X-H torsion
[ 11005 11000 10999 10996 ] final  -85.19 input  -57.11 | X-H torsion

> <Gold.Protein.ActiveResidues>
 VAL166  LYS551  ARG553  GLY616  TRP617  ASP618  TYR619  PRO620  LYS621  CYS622 
 ASP623  PHE694  ASN695  SER759  ASP760  ASP761  ALA762  ILE779  LEU786  VAL792 
 PHE793  MET794  SER795  GLU796  ALA797  LYS798  CYS799  TRP800  GLU811  SER814 

> <Gold.Protein.RotatedAtoms>
  150.7958  133.8694  159.3254 H   0  0  0  0  0  0  0  0  0  0  0  0  # atno 6907 bound_to 6896
  151.6520  135.0998  160.0172 H   0  0  0  0  0  0  0  0  0  0  0  0  # atno 6908 bound_to 6896
  152.4040  133.6821  159.6375 H   0  0  0  0  0  0  0  0  0  0  0  0  # atno 6909 bound_to 6896
  144.8853  140.6566  143.5179 H   0  0  0  0  0  0  0  0  0  0  0  0  # atno 7974 bound_to 7965
  156.1219  140.1498  156.9192 H   0  0  0  0  0  0  0  0  0  0  0  0  # atno 8008 bound_to 7997
  154.4842  140.0870  156.7490 H   0  0  0  0  0  0  0  0  0  0  0  0  # atno 8009 bound_to 7997
  155.4412  140.3431  155.4292 H   0  0  0  0  0  0  0  0  0  0  0  0  # atno 8010 bound_to 7997
  140.7225  143.5171  150.9678 H   0  0  0  0  0  0  0  0  0  0  0  0  # atno 10167 bound_to 10162
  157.1357  131.0528  151.2350 H   0  0  0  0  0  0  0  0  0  0  0  0  # atno 10718 bound_to 10713
  154.1320  135.6518  153.4924 H   0  0  0  0  0  0  0  0  0  0  0  0  # atno 10763 bound_to 10752
  153.0192  135.5295  154.6992 H   0  0  0  0  0  0  0  0  0  0  0  0  # atno 10764 bound_to 10752
  154.6229  135.2967  155.0276 H   0  0  0  0  0  0  0  0  0  0  0  0  # atno 10765 bound_to 10752
  141.1643  133.7386  156.8979 H   0  0  0  0  0  0  0  0  0  0  0  0  # atno 11005 bound_to 11000
  145.3879  139.1623  143.4245 LP  0  0  0  0  0  0  0  0  0  0  0  0  # atno 17320 bound_to 7965
  146.3021  140.3966  142.8700 LP  0  0  0  0  0  0  0  0  0  0  0  0  # atno 17321 bound_to 7965
  139.8887  143.6980  152.3148 LP  0  0  0  0  0  0  0  0  0  0  0  0  # atno 17342 bound_to 10162
  139.7288  144.7587  151.0835 LP  0  0  0  0  0  0  0  0  0  0  0  0  # atno 17343 bound_to 10162
  157.4352  130.7513  149.7023 LP  0  0  0  0  0  0  0  0  0  0  0  0  # atno 17370 bound_to 10713
  155.9799  130.4035  150.3562 LP  0  0  0  0  0  0  0  0  0  0  0  0  # atno 17371 bound_to 10713
  140.1603  134.9170  157.2706 LP  0  0  0  0  0  0  0  0  0  0  0  0  # atno 17394 bound_to 11000
  140.2619  134.3561  155.7403 LP  0  0  0  0  0  0  0  0  0  0  0  0  # atno 17395 bound_to 11000

$$$$
