#       Name:                AV-unprocessed.smi:3032
#       Creating user name   scv26
#       Creation time:       Fri Mar 27 16:52:41 2020


#       File generated by GOLD software.
#

@<TRIPOS>MOLECULE
AV-unprocessed.smi:3032
    41    42     1
SMALL
NO_CHARGES


@<TRIPOS>ATOM
      1 ****        -3.2751   1.0532  -3.1629 C.3            1 S1                 0.0000
      2 ****        -2.6481   0.4417  -1.9019 C.3            1 S1                 0.0000
      3 ****        -3.3237   0.9728  -0.6227 C.3            1 S1                 0.0000
      4 ****        -2.6943   0.3660   0.6410 C.3            1 S1                 0.0000
      5 ****        -1.1785   0.6134   0.6823 C.3            1 S1                 0.0000
      6 ****        -0.4899   0.0725  -0.5878 C.3            1 S1                 0.0000
      7 ****         1.0200   0.3410  -0.5421 C.2            1 S1                 0.0000
      8 ****         1.4479   1.4956  -0.5543 O.2            1 S1                 0.0000
      9 ****         1.8168  -0.7362  -0.4729 N.am           1 S1                 0.0000
     10 ****         3.2723  -0.7005  -0.3618 C.3            1 S1                 0.0000
     11 ****         3.7591  -0.2446   1.0290 C.3            1 S1                 0.0000
     12 ****         3.1141  -0.9752   2.1645 C.2            1 S1                 0.0000
     13 ****         2.1133  -0.4494   2.8741 N.pl3          1 S1                 0.0000
     14 ****         1.7165  -1.3365   3.8103 N.2            1 S1                 0.0000
     15 ****         2.5367  -2.3618   3.5874 C.2            1 S1                 0.0000
     16 ****         3.4343  -2.1995   2.5691 N.2            1 S1                 0.0000
     17 ****        -1.1277   0.6913  -1.8504 C.3            1 S1                 0.0000
     18 ****         1.6873   0.4593   2.7575 H              1 S1                 0.0000
     19 ****        -3.1502   2.1362  -3.1830 H              1 S1                 0.0000
     20 ****        -4.3433   0.8404  -3.2128 H              1 S1                 0.0000
     21 ****        -2.8165   0.6481  -4.0654 H              1 S1                 0.0000
     22 ****        -2.8108  -0.6362  -1.9453 H              1 S1                 0.0000
     23 ****        -3.2381   2.0598  -0.5846 H              1 S1                 0.0000
     24 ****        -4.3906   0.7480  -0.6427 H              1 S1                 0.0000
     25 ****        -3.1637   0.7895   1.5293 H              1 S1                 0.0000
     26 ****        -2.8912  -0.7064   0.6690 H              1 S1                 0.0000
     27 ****        -0.9922   1.6836   0.7862 H              1 S1                 0.0000
     28 ****        -0.7568   0.1397   1.5702 H              1 S1                 0.0000
     29 ****        -0.6455  -1.0075  -0.6238 H              1 S1                 0.0000
     30 ****         1.3822  -1.6480  -0.4683 H              1 S1                 0.0000
     31 ****         3.6346  -1.7103  -0.5564 H              1 S1                 0.0000
     32 ****         3.6953  -0.0657  -1.1416 H              1 S1                 0.0000
     33 ****         4.8395  -0.3739   1.1000 H              1 S1                 0.0000
     34 ****         3.5750   0.8235   1.1532 H              1 S1                 0.0000
     35 ****         2.4860  -3.2634   4.1800 H              1 S1                 0.0000
     36 ****        -0.6588   0.2734  -2.7427 H              1 S1                 0.0000
     37 ****        -0.9376   1.7659  -1.8785 H              1 S1                 0.0000
     38 ****         0.8102   2.2648  -0.5942 LP             1 S1                 0.0000
     39 ****         2.4332   1.6640  -0.5244 LP             1 S1                 0.0000
     40 ****         0.9932  -1.2471   4.4949 LP             1 S1                 0.0000
     41 ****         4.1344  -2.8256   2.2256 LP             1 S1                 0.0000
@<TRIPOS>BOND
    1    1    2 1     
    2    1   19 1     
    3    1   20 1     
    4    1   21 1     
    5    2   17 1     
    6    2    3 1     
    7    2   22 1     
    8    3    4 1     
    9    3   23 1     
   10    3   24 1     
   11    4    5 1     
   12    4   25 1     
   13    4   26 1     
   14    5    6 1     
   15    5   27 1     
   16    5   28 1     
   17    6    7 1     
   18    6   17 1     
   19    6   29 1     
   20    7    8 2     
   21    7    9 am    
   22    9   10 1     
   23    9   30 1     
   24   10   11 1     
   25   10   31 1     
   26   10   32 1     
   27   11   33 1     
   28   11   34 1     
   29   11   12 1     
   30   12   16 2     
   31   12   13 1     
   32   13   18 1     
   33   13   14 1     
   34   14   15 2     
   35   15   16 1     
   36   15   35 1     
   37   17   36 1     
   38   17   37 1     
   39    8   38 1     
   40    8   39 1     
   41   14   40 1     
   42   16   41 1     
@<TRIPOS>SUBSTRUCTURE
      1 S1             1
@<TRIPOS>SET
LONE_PAIRS      STATIC     ATOMS    <user>   **** ""
4 38 39 40 41
DONOR_HYDROGENS      STATIC     ATOMS    <user>   **** ""
2 30 18
ATOM$BLUE        STATIC     ATOMS    COLORGROUP SYSTEM
4 38 39 40 41
ATOM$RED        STATIC     ATOMS    COLORGROUP SYSTEM
2 30 18
