AV-unprocessed.smi:1971|AV-procd|sdf|7971|dock1
  -GOLD-   2272010143D 1   1.00000     0.00000
 Structure written by MMmdl.
 43 44  0  0  0  0  0  0  0  0  3 V2000
  152.1873  144.1155  161.3090 C   0  0  0  0  0  0  0  0  0  0  0  0
  152.3706  143.6350  159.8620 C   0  0  0  0  0  0  0  0  0  0  0  0
  151.5483  144.4011  158.9223 N   0  0  0  0  0  0  0  0  0  0  0  0
  151.8095  144.1253  157.5049 C   0  0  0  0  0  0  0  0  0  0  0  0
  151.3308  142.7198  157.0843 C   0  0  0  0  0  0  0  0  0  0  0  0
  149.8826  142.5647  157.3666 N   0  3  0  0  0  0  0  0  0  0  0  0
  149.2937  141.3080  156.8217 C   0  0  1  0  0  0  0  0  0  0  0  0
  149.1862  141.3055  155.2810 C   0  0  0  0  0  0  0  0  0  0  0  0
  150.0487  140.0757  157.3709 C   0  0  0  0  0  0  0  0  0  0  0  0
  149.1557  138.9617  157.6722 N   0  0  0  0  0  0  0  0  0  0  0  0
  149.2429  138.1561  158.7400 C   0  0  0  0  0  0  0  0  0  0  0  0
  150.1519  138.3165  159.5578 O   0  0  0  0  0  0  0  0  0  0  0  0
  148.2682  137.2215  158.7954 N   0  5  0  0  0  0  0  0  0  0  0  0
  147.9775  136.6221  159.9615 C   0  0  0  0  0  0  0  0  0  0  0  0
  147.8983  137.2855  161.1207 N   0  0  0  0  0  0  0  0  0  0  0  0
  147.5778  136.4691  162.2069 C   0  0  0  0  0  0  0  0  0  0  0  0
  147.4007  135.1546  161.8651 C   0  0  0  0  0  0  0  0  0  0  0  0
  147.6332  134.9015  160.1589 S   0  0  0  0  0  0  0  0  0  0  0  0
  149.6023  142.8425  158.7991 C   0  0  0  0  0  0  0  0  0  0  0  0
  150.1136  144.2480  159.1790 C   0  0  0  0  0  0  0  0  0  0  0  0
  152.7093  143.4523  161.9989 H   0  0  0  0  0  0  0  0  0  0  0  0
  151.1345  144.1223  161.5932 H   0  0  0  0  0  0  0  0  0  0  0  0
  152.5878  145.1171  161.4633 H   0  0  0  0  0  0  0  0  0  0  0  0
  153.4247  143.6580  159.5881 H   0  0  0  0  0  0  0  0  0  0  0  0
  152.0628  142.5895  159.8151 H   0  0  0  0  0  0  0  0  0  0  0  0
  151.2878  144.8755  156.9090 H   0  0  0  0  0  0  0  0  0  0  0  0
  152.8674  144.2505  157.2775 H   0  0  0  0  0  0  0  0  0  0  0  0
  151.5087  142.5950  156.0157 H   0  0  0  0  0  0  0  0  0  0  0  0
  151.9061  141.9423  157.5866 H   0  0  0  0  0  0  0  0  0  0  0  0
  148.2771  141.2491  157.2122 H   0  0  0  0  0  0  0  0  0  0  0  0
  148.6104  140.4485  154.9303 H   0  0  0  0  0  0  0  0  0  0  0  0
  150.1659  141.2498  154.8062 H   0  0  0  0  0  0  0  0  0  0  0  0
  148.6819  142.1973  154.9095 H   0  0  0  0  0  0  0  0  0  0  0  0
  150.7765  139.7161  156.6441 H   0  0  0  0  0  0  0  0  0  0  0  0
  150.6138  140.3417  158.2658 H   0  0  0  0  0  0  0  0  0  0  0  0
  148.3984  138.7927  157.0263 H   0  0  0  0  0  0  0  0  0  0  0  0
  147.4941  136.9094  163.1893 H   0  0  0  0  0  0  0  0  0  0  0  0
  147.1483  134.3249  162.5080 H   0  0  0  0  0  0  0  0  0  0  0  0
  148.5297  142.7955  158.9847 H   0  0  0  0  0  0  0  0  0  0  0  0
  150.0624  142.0878  159.4370 H   0  0  0  0  0  0  0  0  0  0  0  0
  149.9027  144.4580  160.2282 H   0  0  0  0  0  0  0  0  0  0  0  0
  149.5739  145.0006  158.6027 H   0  0  0  0  0  0  0  0  0  0  0  0
  149.4361  143.3078  156.8483 H   0  0  0  0  0  0  0  0  0  0  0  0
  1  2  1  0  0  0  0
  1 21  1  0  0  0  0
  1 22  1  0  0  0  0
  1 23  1  0  0  0  0
  2  3  1  0  0  0  0
  2 24  1  0  0  0  0
  2 25  1  0  0  0  0
  3 20  1  0  0  0  0
  3  4  1  0  0  0  0
  4  5  1  0  0  0  0
  4 26  1  0  0  0  0
  4 27  1  0  0  0  0
  5  6  1  0  0  0  0
  5 28  1  0  0  0  0
  5 29  1  0  0  0  0
  6  7  1  0  0  0  0
  6 19  1  0  0  0  0
  6 43  1  0  0  0  0
  7  8  1  0  0  0  0
  7  9  1  0  0  0  0
  7 30  1  0  0  0  0
  8 31  1  0  0  0  0
  8 32  1  0  0  0  0
  8 33  1  0  0  0  0
  9 10  1  0  0  0  0
  9 34  1  0  0  0  0
  9 35  1  0  0  0  0
 10 11  1  0  0  0  0
 10 36  1  0  0  0  0
 11 12  2  0  0  0  0
 11 13  1  0  0  0  0
 13 14  1  0  0  0  0
 14 18  1  0  0  0  0
 14 15  2  0  0  0  0
 15 16  1  0  0  0  0
 16 17  2  0  0  0  0
 16 37  1  0  0  0  0
 17 18  1  0  0  0  0
 17 38  1  0  0  0  0
 19 20  1  0  0  0  0
 19 39  1  0  0  0  0
 19 40  1  0  0  0  0
 20 41  1  0  0  0  0
 20 42  1  0  0  0  0
M  CHG  1   6   1
M  CHG  1  13  -1
M  END
> <s_m_source_file>
AV-unprocessed.smi

> <i_m_source_file_index>
1971

> <i_lp_mmshare_version>
43012

> <i_f3d_flags>
0

> <s_epik_input>
W0NIM11bQ0gyXU4xW0NIMl1bQ0gyXU4oW0NIMl1bQ0gyXTEpW0NASF0oW0NIM10pW0NIMl1bTkhdQyg9TylbTkhdYzJuW2NIXVtjSF1zMg==

> <s_epik_cmdline>
J2VwaWtfcHl0aG9uJywgJy1waCcsICc3LjAnLCAnLXRuJywgJzgnLCAnLW1hJywgJzIwMCcsICctbWV0YWxfYmluZGluZycsICctaW1hZScsICc8aW5maWxlLm1hZT4nLCAnLW9tYWUnLCAnPG91dGZpbGUubWFlPic=

> <r_epik_Ionization_Penalty>
6.3441

> <r_epik_Ionization_Penalty_Charging>
5.51153

> <r_epik_Ionization_Penalty_Neutral>
0.832567

> <r_epik_State_Penalty>
6.33945

> <r_epik_Charging_Adjusted_Penalty>
11.851

> <i_epik_Tot_Q>
0

> <i_epik_Tot_abs_Q>
2

> <r_epik_Metal_State_Penalty>
2.34542

> <b_epik_Metal_Only>
1

> <s_lp_Force_Field>
OPLS_2005

> <r_lp_Energy>
10.682

> <b_lp_Chiralities_Consistent>
1

> <s_lp_Variant>
AV-unprocessed.smi:1971-10

> <Gold.Version>
5.8.1

> <Gold.Id.Protein>
6NUR|6NUR_protein|mol2

> <Gold.PLP.Fitness>
44.1220

> <Gold.PLP.PLP>
-35.5225

> <Gold.PLP.part.hbond>
-4.0000

> <Gold.PLP.part.metal>
0.0000

> <Gold.PLP.part.buried>
-5.6441

> <Gold.PLP.part.nonpolar>
-27.4287

> <Gold.PLP.part.repulsive>
0.1814

> <Gold.PLP.ligand.clash>
0.0000

> <Gold.PLP.ligand.torsion>
1.2027

> <Gold.PLP.Chemscore.Hbond>
3.5773

> <Gold.PLP.Chemscore.CHOScore>
0.0000

> <Gold.PLP.Chemscore.Metal>
0.0000

> <Gold.Chemscore.Hbonds>
donor molecule, donor type, donor heavy atom, donor atom, acceptor molecule, acceptor atom, score
      L1  H     6    43       P1  8028  2.00
      P1  H  6931  6943       L1    15  0.84
      P1  H  6934  6947       L1    15  0.75

> <Gold.PLP.Chemscore.Internal.Correction>
0.2730

> <Gold.Rescore>
     Score         DG    S(hbond)    S(metal)    S(lipo)     H(rot)  DE(clash)    DE(int)     intcor
     15.80     -18.67       1.92        0.00      96.11       1.75       0.35       2.51       ----

> <Gold.Chemscore.Fitness>
15.8013

> <Gold.Chemscore.DG>
-18.6652

> <Gold.Chemscore.ZeroCoef>
-5.4800

> <Gold.Chemscore.Hbond>
1.9227

> <Gold.Chemscore.Metal>
0.0000

> <Gold.Chemscore.Lipo>
96.1103

> <Gold.Chemscore.Internal_Hbond>
0.0000

> <Gold.Chemscore.DEClash>
0.3538

> <Gold.Chemscore.DEInternal>
2.5101

> <Gold.Chemscore.Rot>
1.7505

> <Gold.Chemscore.Internal.Correction>
   9.000000E+99

> <Gold.Chemscore.Hbonds>
donor molecule, donor type, donor heavy atom, donor atom, acceptor molecule, acceptor atom, score
      L1  H     6    43       P1  8028  0.98
      P1  H  6931  6943       L1    15  0.16
      P1  H  6934  6947       L1    15  0.62

> <Gold.Chemscore.Hbond.Weighted>
-6.4217

> <Gold.Chemscore.Metal.Weighted>
-0.0000

> <Gold.Chemscore.Lipo.Weighted>
-11.2449

> <Gold.Chemscore.Internal_Hbond.Weighted>
0.0000

> <Gold.Chemscore.DEClash.Weighted>
0.3538

> <Gold.Chemscore.DEInternal.Weighted>
2.5101

> <Gold.Chemscore.Rot.Weighted>
4.4813

> <Gold.Chemscore.Internal.Correction.Weighted>
   9.000000E+99

> <Gold.Protein.RotatedTorsions>
[ 6907 6896 6895 6894 ] final   42.05 input  -60.11 | X-H torsion
[ 7974 7965 7964 7962 ] final   18.82 input  175.53 | X-H torsion
[ 8008 7997 7996 7995 ] final  -44.16 input   59.86 | X-H torsion
[ 10167 10162 10161 10158 ] final  103.05 input  -65.29 | X-H torsion
[ 10718 10713 10712 10709 ] final  -50.40 input   66.30 | X-H torsion
[ 10763 10752 10751 10750 ] final  111.49 input  -60.55 | X-H torsion
[ 11005 11000 10999 10996 ] final -122.07 input  -57.11 | X-H torsion

> <Gold.Protein.ActiveResidues>
 VAL166  LYS551  ARG553  GLY616  TRP617  ASP618  TYR619  PRO620  LYS621  CYS622 
 ASP623  PHE694  ASN695  SER759  ASP760  ASP761  ALA762  ILE779  LEU786  VAL792 
 PHE793  MET794  SER795  GLU796  ALA797  LYS798  CYS799  TRP800  GLU811  SER814 

> <Gold.Protein.RotatedAtoms>
  152.2030  134.8571  160.0505 H   0  0  0  0  0  0  0  0  0  0  0  0  # atno 6907 bound_to 6896
  151.9418  133.3635  159.3976 H   0  0  0  0  0  0  0  0  0  0  0  0  # atno 6908 bound_to 6896
  150.6959  134.4356  159.5312 H   0  0  0  0  0  0  0  0  0  0  0  0  # atno 6909 bound_to 6896
  146.2171  139.8402  142.8642 H   0  0  0  0  0  0  0  0  0  0  0  0  # atno 7974 bound_to 7965
  154.3997  140.1429  156.3637 H   0  0  0  0  0  0  0  0  0  0  0  0  # atno 8008 bound_to 7997
  155.8157  140.3471  155.5463 H   0  0  0  0  0  0  0  0  0  0  0  0  # atno 8009 bound_to 7997
  155.8340  140.0916  157.1765 H   0  0  0  0  0  0  0  0  0  0  0  0  # atno 8010 bound_to 7997
  139.7296  144.7039  151.0742 H   0  0  0  0  0  0  0  0  0  0  0  0  # atno 10167 bound_to 10162
  156.1804  130.4150  149.9515 H   0  0  0  0  0  0  0  0  0  0  0  0  # atno 10718 bound_to 10713
  153.4641  135.3715  155.2354 H   0  0  0  0  0  0  0  0  0  0  0  0  # atno 10763 bound_to 10752
  154.8757  135.3915  154.3890 H   0  0  0  0  0  0  0  0  0  0  0  0  # atno 10764 bound_to 10752
  153.4468  135.7085  153.6198 H   0  0  0  0  0  0  0  0  0  0  0  0  # atno 10765 bound_to 10752
  141.0023  134.0385  157.3522 H   0  0  0  0  0  0  0  0  0  0  0  0  # atno 11005 bound_to 11000
  145.2906  141.0166  143.3665 LP  0  0  0  0  0  0  0  0  0  0  0  0  # atno 17320 bound_to 7965
  144.9080  139.4565  143.6601 LP  0  0  0  0  0  0  0  0  0  0  0  0  # atno 17321 bound_to 7965
  140.7769  143.5060  150.9712 LP  0  0  0  0  0  0  0  0  0  0  0  0  # atno 17342 bound_to 10162
  139.8748  143.7147  152.3163 LP  0  0  0  0  0  0  0  0  0  0  0  0  # atno 17343 bound_to 10162
  156.7287  130.9035  151.3624 LP  0  0  0  0  0  0  0  0  0  0  0  0  # atno 17370 bound_to 10713
  157.6864  130.9190  150.0398 LP  0  0  0  0  0  0  0  0  0  0  0  0  # atno 17371 bound_to 10713
  139.9045  135.0175  156.7423 LP  0  0  0  0  0  0  0  0  0  0  0  0  # atno 17394 bound_to 11000
  140.6869  133.9424  155.7943 LP  0  0  0  0  0  0  0  0  0  0  0  0  # atno 17395 bound_to 11000

$$$$
