AV-unprocessed.smi:1164|AV-procd|sdf|4927|dock1
  -GOLD-   22720 3503D 1   1.00000     0.00000
 Structure written by MMmdl.
 31 31  0  0  0  0  0  0  0  0  1 V2000
  152.7342  144.6277  158.3172 C   0  0  0  0  0  0  0  0  0  0  0  0
  151.7243  144.0092  159.3003 C   0  0  0  0  0  0  0  0  0  0  0  0
  152.1977  144.2854  160.7433 C   0  0  0  0  0  0  0  0  0  0  0  0
  150.3361  144.6362  159.0540 C   0  0  0  0  0  0  0  0  0  0  0  0
  151.6928  142.5670  159.0281 N   0  0  0  0  0  0  0  0  0  0  0  0
  151.3412  141.9367  157.8933 C   0  0  0  0  0  0  0  0  0  0  0  0
  150.9650  142.5192  156.8754 O   0  0  0  0  0  0  0  0  0  0  0  0
  151.4250  140.4033  157.9384 C   0  0  0  0  0  0  0  0  0  0  0  0
  151.3831  139.7666  156.6137 N   0  0  0  0  0  0  0  0  0  0  0  0
  150.2578  140.0858  155.8691 N   0  0  0  0  0  0  0  0  0  0  0  0
  150.1094  139.5994  154.6835 C   0  0  0  0  0  0  0  0  0  0  0  0
  148.9806  139.9434  153.9806 O   0  0  0  0  0  0  0  0  0  0  0  0
  151.0999  138.7166  154.1072 C   0  0  0  0  0  0  0  0  0  0  0  0
  152.1908  138.4080  154.8418 C   0  0  0  0  0  0  0  0  0  0  0  0
  152.3895  138.9411  156.1910 C   0  0  0  0  0  0  0  0  0  0  0  0
  153.3715  138.6744  156.8833 O   0  0  0  0  0  0  0  0  0  0  0  0
  149.2469  139.9719  153.0746 H   0  0  0  0  0  0  0  0  0  0  0  0
  152.8119  145.7070  158.4536 H   0  0  0  0  0  0  0  0  0  0  0  0
  152.4426  144.4491  157.2814 H   0  0  0  0  0  0  0  0  0  0  0  0
  153.7317  144.2084  158.4547 H   0  0  0  0  0  0  0  0  0  0  0  0
  153.1578  143.8090  160.9449 H   0  0  0  0  0  0  0  0  0  0  0  0
  151.4873  143.9231  161.4862 H   0  0  0  0  0  0  0  0  0  0  0  0
  152.3202  145.3548  160.9174 H   0  0  0  0  0  0  0  0  0  0  0  0
  150.3703  145.7205  159.1649 H   0  0  0  0  0  0  0  0  0  0  0  0
  149.5887  144.2669  159.7563 H   0  0  0  0  0  0  0  0  0  0  0  0
  149.9766  144.4213  158.0470 H   0  0  0  0  0  0  0  0  0  0  0  0
  151.9791  141.9777  159.7965 H   0  0  0  0  0  0  0  0  0  0  0  0
  152.3361  140.1108  158.4642 H   0  0  0  0  0  0  0  0  0  0  0  0
  150.6022  140.0369  158.5550 H   0  0  0  0  0  0  0  0  0  0  0  0
  150.9630  138.3182  153.1126 H   0  0  0  0  0  0  0  0  0  0  0  0
  152.9395  137.7512  154.4238 H   0  0  0  0  0  0  0  0  0  0  0  0
  1  2  1  0  0  0  0
  1 18  1  0  0  0  0
  1 19  1  0  0  0  0
  1 20  1  0  0  0  0
  2  3  1  0  0  0  0
  2  4  1  0  0  0  0
  2  5  1  0  0  0  0
  3 21  1  0  0  0  0
  3 22  1  0  0  0  0
  3 23  1  0  0  0  0
  4 24  1  0  0  0  0
  4 25  1  0  0  0  0
  4 26  1  0  0  0  0
  5  6  1  0  0  0  0
  5 27  1  0  0  0  0
  6  7  2  0  0  0  0
  6  8  1  0  0  0  0
  8 28  1  0  0  0  0
  8 29  1  0  0  0  0
  8  9  1  0  0  0  0
  9 10  1  0  0  0  0
  9 15  1  0  0  0  0
 10 11  2  0  0  0  0
 11 12  1  0  0  0  0
 11 13  1  0  0  0  0
 12 17  1  0  0  0  0
 13 30  1  0  0  0  0
 13 14  2  0  0  0  0
 14 31  1  0  0  0  0
 14 15  1  0  0  0  0
 15 16  2  0  0  0  0
M  END
> <s_m_source_file>
AV-unprocessed.smi

> <i_m_source_file_index>
1164

> <i_lp_mmshare_version>
43012

> <i_f3d_flags>
0

> <s_epik_input>
W0NIM11DKFtDSDNdKShbQ0gzXSlbTkhdQyg9TylbQ0gyXW4xW25IXWMoPU8pW2NIXVtjSF1jMT1P

> <s_epik_cmdline>
J2VwaWtfcHl0aG9uJywgJy1waCcsICc3LjAnLCAnLXRuJywgJzgnLCAnLW1hJywgJzIwMCcsICctbWV0YWxfYmluZGluZycsICctaW1hZScsICc8aW5maWxlLm1hZT4nLCAnLW9tYWUnLCAnPG91dGZpbGUubWFlPic=

> <r_lp_tautomer_probability>
0.9996

> <r_epik_Ionization_Penalty>
2.1187

> <r_epik_Ionization_Penalty_Charging>
3.7231e-08

> <r_epik_Ionization_Penalty_Neutral>
2.1187

> <r_epik_State_Penalty>
1.69546

> <r_epik_Charging_Adjusted_Penalty>
1.69546

> <i_epik_Tot_Q>
0

> <i_epik_Tot_abs_Q>
0

> <r_epik_Metal_State_Penalty>
1.69546

> <b_epik_Metal_Only>
0

> <s_lp_Force_Field>
OPLS_2005

> <r_lp_Energy>
13.6022

> <b_lp_Chiralities_Consistent>
1

> <s_lp_Variant>
AV-unprocessed.smi:1164-2

> <Gold.Version>
5.8.1

> <Gold.Id.Protein>
6NUR|6NUR_protein|mol2

> <Gold.PLP.Fitness>
39.4702

> <Gold.PLP.PLP>
-33.8739

> <Gold.PLP.part.hbond>
-2.0000

> <Gold.PLP.part.metal>
0.0000

> <Gold.PLP.part.buried>
-5.1396

> <Gold.PLP.part.nonpolar>
-27.0189

> <Gold.PLP.part.repulsive>
0.1917

> <Gold.PLP.ligand.clash>
0.0000

> <Gold.PLP.ligand.torsion>
0.2085

> <Gold.PLP.Chemscore.Hbond>
2.0000

> <Gold.PLP.Chemscore.CHOScore>
0.0000

> <Gold.PLP.Chemscore.Metal>
0.0000

> <Gold.Chemscore.Hbonds>
donor molecule, donor type, donor heavy atom, donor atom, acceptor molecule, acceptor atom, score
      L1  H    12    17       P1  7957  1.00
      P1  H  7997  8008       L1    16  1.00

> <Gold.PLP.Chemscore.Internal.Correction>
0.0134

> <Gold.Rescore>
     Score         DG    S(hbond)    S(metal)    S(lipo)     H(rot)  DE(clash)    DE(int)     intcor
     12.23     -14.18       1.89        0.00      71.08       2.31       0.39       1.57       ----

> <Gold.Chemscore.Fitness>
12.2255

> <Gold.Chemscore.DG>
-14.1842

> <Gold.Chemscore.ZeroCoef>
-5.4800

> <Gold.Chemscore.Hbond>
1.8864

> <Gold.Chemscore.Metal>
0.0000

> <Gold.Chemscore.Lipo>
71.0844

> <Gold.Chemscore.Internal_Hbond>
0.0000

> <Gold.Chemscore.DEClash>
0.3881

> <Gold.Chemscore.DEInternal>
1.5706

> <Gold.Chemscore.Rot>
2.3099

> <Gold.Chemscore.Internal.Correction>
   9.000000E+99

> <Gold.Chemscore.Hbonds>
donor molecule, donor type, donor heavy atom, donor atom, acceptor molecule, acceptor atom, score
      L1  H    12    17       P1  7957  0.99
      P1  H  7997  8008       L1    16  0.29

> <Gold.Chemscore.Hbond.Weighted>
-6.3007

> <Gold.Chemscore.Metal.Weighted>
-0.0000

> <Gold.Chemscore.Lipo.Weighted>
-8.3169

> <Gold.Chemscore.Internal_Hbond.Weighted>
0.0000

> <Gold.Chemscore.DEClash.Weighted>
0.3881

> <Gold.Chemscore.DEInternal.Weighted>
1.5706

> <Gold.Chemscore.Rot.Weighted>
5.9134

> <Gold.Chemscore.Internal.Correction.Weighted>
   9.000000E+99

> <Gold.Protein.RotatedTorsions>
[ 6907 6896 6895 6894 ] final -146.88 input  -60.11 | X-H torsion
[ 7974 7965 7964 7962 ] final -152.74 input  175.53 | X-H torsion
[ 8008 7997 7996 7995 ] final  -56.69 input   59.86 | X-H torsion
[ 10167 10162 10161 10158 ] final  -37.60 input  -65.29 | X-H torsion
[ 10718 10713 10712 10709 ] final -170.01 input   66.30 | X-H torsion
[ 10763 10752 10751 10750 ] final   99.66 input  -60.55 | X-H torsion
[ 11005 11000 10999 10996 ] final  140.18 input  -57.11 | X-H torsion

> <Gold.Protein.ActiveResidues>
 VAL166  LYS551  ARG553  GLY616  TRP617  ASP618  TYR619  PRO620  LYS621  CYS622 
 ASP623  PHE694  ASN695  SER759  ASP760  ASP761  ALA762  ILE779  LEU786  VAL792 
 PHE793  MET794  SER795  GLU796  ALA797  LYS798  CYS799  TRP800  GLU811  SER814 

> <Gold.Protein.RotatedAtoms>
  151.1478  133.4927  159.2595 H   0  0  0  0  0  0  0  0  0  0  0  0  # atno 6907 bound_to 6896
  151.1586  135.0262  159.8710 H   0  0  0  0  0  0  0  0  0  0  0  0  # atno 6908 bound_to 6896
  152.5463  134.1355  159.8510 H   0  0  0  0  0  0  0  0  0  0  0  0  # atno 6909 bound_to 6896
  144.7778  140.4620  143.5861 H   0  0  0  0  0  0  0  0  0  0  0  0  # atno 7974 bound_to 7965
  154.4239  140.1124  156.5678 H   0  0  0  0  0  0  0  0  0  0  0  0  # atno 8008 bound_to 7997
  155.6244  140.3495  155.4643 H   0  0  0  0  0  0  0  0  0  0  0  0  # atno 8009 bound_to 7997
  155.9998  140.1197  157.0548 H   0  0  0  0  0  0  0  0  0  0  0  0  # atno 8010 bound_to 7997
  140.7114  143.3331  151.2524 H   0  0  0  0  0  0  0  0  0  0  0  0  # atno 10167 bound_to 10162
  156.7199  130.9266  151.3096 H   0  0  0  0  0  0  0  0  0  0  0  0  # atno 10718 bound_to 10713
  153.3041  135.4106  155.1279 H   0  0  0  0  0  0  0  0  0  0  0  0  # atno 10763 bound_to 10752
  154.8558  135.3548  154.5811 H   0  0  0  0  0  0  0  0  0  0  0  0  # atno 10764 bound_to 10752
  153.6238  135.7063  153.5359 H   0  0  0  0  0  0  0  0  0  0  0  0  # atno 10765 bound_to 10752
  140.0309  134.9352  157.0659 H   0  0  0  0  0  0  0  0  0  0  0  0  # atno 11005 bound_to 11000
  145.6137  139.1516  143.3061 LP  0  0  0  0  0  0  0  0  0  0  0  0  # atno 17320 bound_to 7965
  146.1968  140.6252  142.9121 LP  0  0  0  0  0  0  0  0  0  0  0  0  # atno 17321 bound_to 7965
  139.6819  143.9840  152.2813 LP  0  0  0  0  0  0  0  0  0  0  0  0  # atno 17342 bound_to 10162
  139.9473  144.6643  150.8207 LP  0  0  0  0  0  0  0  0  0  0  0  0  # atno 17343 bound_to 10162
  157.6902  130.9226  150.0494 LP  0  0  0  0  0  0  0  0  0  0  0  0  # atno 17370 bound_to 10713
  156.1602  130.3644  149.9310 LP  0  0  0  0  0  0  0  0  0  0  0  0  # atno 17371 bound_to 10713
  140.4228  134.1863  155.7165 LP  0  0  0  0  0  0  0  0  0  0  0  0  # atno 17394 bound_to 11000
  141.1830  133.8373  157.1190 LP  0  0  0  0  0  0  0  0  0  0  0  0  # atno 17395 bound_to 11000

$$$$
