AV-unprocessed.smi:3158|AV-procd|sdf|12047|dock9
  -GOLD-   2272017473D 1   1.00000     0.00000
 Structure written by MMmdl.
 39 39  0  0  0  0  0  0  0  0  1 V2000
  148.8822  141.1068  154.1065 C   0  0  0  0  0  0  0  0  0  0  0  0
  148.6285  140.0406  155.1824 C   0  0  0  0  0  0  0  0  0  0  0  0
  148.9134  138.6029  154.7087 C   0  0  2  0  0  0  0  0  0  0  0  0
  150.3817  138.4241  154.2913 C   0  0  0  0  0  0  0  0  0  0  0  0
  148.0284  138.2583  153.5993 N   0  0  0  0  0  0  0  0  0  0  0  0
  146.6898  138.3626  153.5990 C   0  0  0  0  0  0  0  0  0  0  0  0
  146.0433  138.7425  154.5761 O   0  0  0  0  0  0  0  0  0  0  0  0
  145.9940  137.9903  152.2818 C   0  0  1  0  0  0  0  0  0  0  0  0
  146.4601  138.8724  151.1051 C   0  0  0  0  0  0  0  0  0  0  0  0
  146.2079  136.5625  152.0041 N   0  0  0  0  0  0  0  0  0  0  0  0
  145.6014  136.1191  150.7554 C   0  0  0  0  0  0  0  0  0  0  0  0
  144.3343  135.2982  151.0505 C   0  0  0  0  0  0  0  0  0  0  0  0
  144.5580  133.8681  150.9247 N   0  0  0  0  0  0  0  0  0  0  0  0
  143.6240  132.8540  150.8921 C   0  0  0  0  0  0  0  0  0  0  0  0
  144.3050  131.6783  150.7558 C   0  0  0  0  0  0  0  0  0  0  0  0
  145.6690  132.0811  150.7154 C   0  0  0  0  0  0  0  0  0  0  0  0
  145.8176  133.3919  150.8195 N   0  0  0  0  0  0  0  0  0  0  0  0
  148.6326  142.1005  154.4790 H   0  0  0  0  0  0  0  0  0  0  0  0
  148.2761  140.9218  153.2194 H   0  0  0  0  0  0  0  0  0  0  0  0
  149.9278  141.1249  153.7993 H   0  0  0  0  0  0  0  0  0  0  0  0
  149.2344  140.2668  156.0610 H   0  0  0  0  0  0  0  0  0  0  0  0
  147.5890  140.1123  155.5049 H   0  0  0  0  0  0  0  0  0  0  0  0
  148.7116  137.9308  155.5452 H   0  0  0  0  0  0  0  0  0  0  0  0
  151.0546  138.6679  155.1137 H   0  0  0  0  0  0  0  0  0  0  0  0
  150.6372  139.0690  153.4499 H   0  0  0  0  0  0  0  0  0  0  0  0
  150.5864  137.3944  153.9961 H   0  0  0  0  0  0  0  0  0  0  0  0
  148.4712  137.9410  152.7488 H   0  0  0  0  0  0  0  0  0  0  0  0
  144.9291  138.1671  152.4434 H   0  0  0  0  0  0  0  0  0  0  0  0
  146.3636  139.9327  151.3432 H   0  0  0  0  0  0  0  0  0  0  0  0
  145.8625  138.6963  150.2110 H   0  0  0  0  0  0  0  0  0  0  0  0
  147.5033  138.6823  150.8489 H   0  0  0  0  0  0  0  0  0  0  0  0
  147.1882  136.3200  152.0210 H   0  0  0  0  0  0  0  0  0  0  0  0
  145.3516  136.9754  150.1271 H   0  0  0  0  0  0  0  0  0  0  0  0
  146.3091  135.5048  150.1991 H   0  0  0  0  0  0  0  0  0  0  0  0
  143.9882  135.5015  152.0648 H   0  0  0  0  0  0  0  0  0  0  0  0
  143.5230  135.5889  150.3815 H   0  0  0  0  0  0  0  0  0  0  0  0
  142.5645  133.0515  150.9622 H   0  0  0  0  0  0  0  0  0  0  0  0
  143.8917  130.6827  150.6919 H   0  0  0  0  0  0  0  0  0  0  0  0
  146.5497  131.4640  150.6149 H   0  0  0  0  0  0  0  0  0  0  0  0
  1  2  1  0  0  0  0
  1 18  1  0  0  0  0
  1 19  1  0  0  0  0
  1 20  1  0  0  0  0
  2  3  1  0  0  0  0
  2 21  1  0  0  0  0
  2 22  1  0  0  0  0
  3  4  1  0  0  0  0
  3  5  1  0  0  0  0
  3 23  1  0  0  0  0
  4 24  1  0  0  0  0
  4 25  1  0  0  0  0
  4 26  1  0  0  0  0
  5  6  1  0  0  0  0
  5 27  1  0  0  0  0
  6  7  2  0  0  0  0
  6  8  1  0  0  0  0
  8  9  1  0  0  0  0
  8 10  1  0  0  0  0
  8 28  1  0  0  0  0
  9 29  1  0  0  0  0
  9 30  1  0  0  0  0
  9 31  1  0  0  0  0
 10 11  1  0  0  0  0
 10 32  1  0  0  0  0
 11 12  1  0  0  0  0
 11 33  1  0  0  0  0
 11 34  1  0  0  0  0
 12 13  1  0  0  0  0
 12 35  1  0  0  0  0
 12 36  1  0  0  0  0
 13 17  1  0  0  0  0
 13 14  1  0  0  0  0
 14 15  2  0  0  0  0
 14 37  1  0  0  0  0
 15 16  1  0  0  0  0
 15 38  1  0  0  0  0
 16 17  2  0  0  0  0
 16 39  1  0  0  0  0
M  END
> <s_m_source_file>
AV-unprocessed.smi

> <i_m_source_file_index>
3158

> <i_lp_mmshare_version>
43012

> <i_f3d_flags>
0

> <s_epik_input>
W0NIM11bQ0gyXVtDQEhdKFtDSDNdKVtOSF1DKD1PKVtDQEhdKFtDSDNdKVtOSF1bQ0gyXVtDSDJdbjFbY0hdW2NIXVtjSF1uMQ==

> <s_epik_cmdline>
J2VwaWtfcHl0aG9uJywgJy1waCcsICc3LjAnLCAnLXRuJywgJzgnLCAnLW1hJywgJzIwMCcsICctbWV0YWxfYmluZGluZycsICctaW1hZScsICc8aW5maWxlLm1hZT4nLCAnLW9tYWUnLCAnPG91dGZpbGUubWFlPic=

> <r_lp_tautomer_probability>
1

> <r_epik_Ionization_Penalty>
0.724013

> <r_epik_Ionization_Penalty_Charging>
0

> <r_epik_Ionization_Penalty_Neutral>
0.724013

> <r_epik_State_Penalty>
0.74758

> <r_epik_Charging_Adjusted_Penalty>
0.74758

> <i_epik_Tot_Q>
0

> <i_epik_Tot_abs_Q>
0

> <r_epik_Metal_State_Penalty>
0.746846

> <b_epik_Metal_Only>
0

> <s_lp_Force_Field>
OPLS_2005

> <r_lp_Energy>
5.95419

> <b_lp_Chiralities_Consistent>
1

> <s_lp_Variant>
AV-unprocessed.smi:3158-7

> <Gold.Version>
5.8.1

> <Gold.Id.Protein>
6NUR|6NUR_protein|mol2

> <Gold.PLP.Fitness>
43.1258

> <Gold.PLP.PLP>
-33.0405

> <Gold.PLP.part.hbond>
-2.0000

> <Gold.PLP.part.metal>
0.0000

> <Gold.PLP.part.buried>
-1.0165

> <Gold.PLP.part.nonpolar>
-30.8210

> <Gold.PLP.part.repulsive>
0.2649

> <Gold.PLP.ligand.clash>
0.0000

> <Gold.PLP.ligand.torsion>
0.8040

> <Gold.PLP.Chemscore.Hbond>
1.8480

> <Gold.PLP.Chemscore.CHOScore>
2.0000

> <Gold.PLP.Chemscore.Metal>
0.0000

> <Gold.Chemscore.Hbonds>
donor molecule, donor type, donor heavy atom, donor atom, acceptor molecule, acceptor atom, score
      L1  H     5    27       P1  7948  0.80
      L1  H    10    32       P1  7948  1.00
      L1  C    14    37       P1 10186  1.00
      L1  C    16    39       P1 10747  1.00

> <Gold.PLP.Chemscore.Internal.Correction>
0.1493

> <Gold.Rescore>
     Score         DG    S(hbond)    S(metal)    S(lipo)     H(rot)  DE(clash)    DE(int)     intcor
     14.30     -16.43       1.97        0.00      83.80       2.12       0.47       1.66       ----

> <Gold.Chemscore.Fitness>
14.2999

> <Gold.Chemscore.DG>
-16.4304

> <Gold.Chemscore.ZeroCoef>
-5.4800

> <Gold.Chemscore.Hbond>
1.9706

> <Gold.Chemscore.Metal>
0.0000

> <Gold.Chemscore.Lipo>
83.7985

> <Gold.Chemscore.Internal_Hbond>
0.0000

> <Gold.Chemscore.DEClash>
0.4746

> <Gold.Chemscore.DEInternal>
1.6558

> <Gold.Chemscore.Rot>
2.1234

> <Gold.Chemscore.Internal.Correction>
   9.000000E+99

> <Gold.Chemscore.Hbonds>
donor molecule, donor type, donor heavy atom, donor atom, acceptor molecule, acceptor atom, score
      L1  H     5    27       P1  7948  0.78
      L1  H    10    32       P1  7948  1.00

> <Gold.Chemscore.Hbond.Weighted>
-6.5818

> <Gold.Chemscore.Metal.Weighted>
-0.0000

> <Gold.Chemscore.Lipo.Weighted>
-9.8044

> <Gold.Chemscore.Internal_Hbond.Weighted>
0.0000

> <Gold.Chemscore.DEClash.Weighted>
0.4746

> <Gold.Chemscore.DEInternal.Weighted>
1.6558

> <Gold.Chemscore.Rot.Weighted>
5.4359

> <Gold.Chemscore.Internal.Correction.Weighted>
   9.000000E+99

> <Gold.Protein.RotatedTorsions>
[ 6907 6896 6895 6894 ] final -106.77 input  -60.11 | X-H torsion
[ 7974 7965 7964 7962 ] final   74.99 input  175.53 | X-H torsion
[ 8008 7997 7996 7995 ] final   58.18 input   59.86 | X-H torsion
[ 10167 10162 10161 10158 ] final -148.85 input  -65.29 | X-H torsion
[ 10718 10713 10712 10709 ] final  -53.60 input   66.30 | X-H torsion
[ 10763 10752 10751 10750 ] final  -60.57 input  -60.55 | X-H torsion
[ 11005 11000 10999 10996 ] final  -51.67 input  -57.11 | X-H torsion

> <Gold.Protein.ActiveResidues>
 VAL166  LYS551  ARG553  GLY616  TRP617  ASP618  TYR619  PRO620  LYS621  CYS622 
 ASP623  PHE694  ASN695  SER759  ASP760  ASP761  ALA762  ILE779  LEU786  VAL792 
 PHE793  MET794  SER795  GLU796  ALA797  LYS798  CYS799  TRP800  GLU811  SER814 

> <Gold.Protein.RotatedAtoms>
  150.7407  133.9926  159.3611 H   0  0  0  0  0  0  0  0  0  0  0  0  # atno 6907 bound_to 6896
  151.7875  135.0743  160.0392 H   0  0  0  0  0  0  0  0  0  0  0  0  # atno 6908 bound_to 6896
  152.3231  133.5839  159.5794 H   0  0  0  0  0  0  0  0  0  0  0  0  # atno 6909 bound_to 6896
  145.7212  139.2649  143.1595 H   0  0  0  0  0  0  0  0  0  0  0  0  # atno 7974 bound_to 7965
  155.5458  140.3485  155.4457 H   0  0  0  0  0  0  0  0  0  0  0  0  # atno 8008 bound_to 7997
  156.0618  140.1342  156.9958 H   0  0  0  0  0  0  0  0  0  0  0  0  # atno 8009 bound_to 7997
  154.4484  140.0983  156.6514 H   0  0  0  0  0  0  0  0  0  0  0  0  # atno 8010 bound_to 7997
  139.7494  143.8541  152.2583 H   0  0  0  0  0  0  0  0  0  0  0  0  # atno 10167 bound_to 10162
  156.1522  130.4151  149.9927 H   0  0  0  0  0  0  0  0  0  0  0  0  # atno 10718 bound_to 10713
  154.2712  135.6290  153.5311 H   0  0  0  0  0  0  0  0  0  0  0  0  # atno 10763 bound_to 10752
  152.9880  135.5611  154.5598 H   0  0  0  0  0  0  0  0  0  0  0  0  # atno 10764 bound_to 10752
  154.5168  135.2880  155.1271 H   0  0  0  0  0  0  0  0  0  0  0  0  # atno 10765 bound_to 10752
  141.0883  133.6638  156.3911 H   0  0  0  0  0  0  0  0  0  0  0  0  # atno 11005 bound_to 11000
  146.0624  140.7957  142.9728 LP  0  0  0  0  0  0  0  0  0  0  0  0  # atno 17320 bound_to 7965
  144.6916  140.3216  143.7231 LP  0  0  0  0  0  0  0  0  0  0  0  0  # atno 17321 bound_to 7965
  139.8515  144.7162  150.9209 LP  0  0  0  0  0  0  0  0  0  0  0  0  # atno 17342 bound_to 10162
  140.7796  143.3895  151.1334 LP  0  0  0  0  0  0  0  0  0  0  0  0  # atno 17343 bound_to 10162
  156.7782  130.9211  151.3645 LP  0  0  0  0  0  0  0  0  0  0  0  0  # atno 17370 bound_to 10713
  157.6666  130.9013  149.9945 LP  0  0  0  0  0  0  0  0  0  0  0  0  # atno 17371 bound_to 10713
  140.5311  134.6212  157.5350 LP  0  0  0  0  0  0  0  0  0  0  0  0  # atno 17394 bound_to 11000
  139.9705  134.7301  156.0051 LP  0  0  0  0  0  0  0  0  0  0  0  0  # atno 17395 bound_to 11000

$$$$
