AV-unprocessed.smi:2740|AV-procd|sdf|10557|dock3
  -GOLD-   2272015 13D 1   1.00000     0.00000
 Structure written by MMmdl.
 30 31  0  0  0  0  0  0  0  0  2 V2000
  151.3780  144.1975  159.7991 C   0  0  0  0  0  0  0  0  0  0  0  0
  151.4783  143.0622  158.8375 C   0  0  0  0  0  0  0  0  0  0  0  0
  150.7937  142.9009  157.6610 C   0  0  0  0  0  0  0  0  0  0  0  0
  151.1099  141.7220  156.9841 N   0  0  0  0  0  0  0  0  0  0  0  0
  152.0149  140.9708  157.6203 C   0  0  0  0  0  0  0  0  0  0  0  0
  152.4590  139.7968  157.1422 N   0  5  0  0  0  0  0  0  0  0  0  0
  152.1736  139.4339  155.8709 C   0  0  0  0  0  0  0  0  0  0  0  0
  152.9886  139.1070  155.0046 O   0  0  0  0  0  0  0  0  0  0  0  0
  150.8639  139.4508  155.5839 N   0  0  0  0  0  0  0  0  0  0  0  0
  150.2695  139.1055  154.2969 C   0  0  0  0  0  0  0  0  0  0  0  0
  148.9643  139.8795  154.0483 C   0  0  1  0  0  0  0  0  0  0  0  0
  147.9499  139.7577  155.1847 C   0  0  0  0  0  0  0  0  0  0  0  0
  147.1411  141.0436  155.0900 C   0  0  0  0  0  0  0  0  0  0  0  0
  147.9408  141.9194  154.1220 C   0  0  0  0  0  0  0  0  0  0  0  0
  149.2022  141.2779  154.0062 O   0  0  0  0  0  0  0  0  0  0  0  0
  152.5531  141.7201  159.1252 S   0  0  0  0  0  0  0  0  0  0  0  0
  150.3777  144.2507  160.2287 H   0  0  0  0  0  0  0  0  0  0  0  0
  151.5832  145.1454  159.3014 H   0  0  0  0  0  0  0  0  0  0  0  0
  152.0899  144.0864  160.6174 H   0  0  0  0  0  0  0  0  0  0  0  0
  150.0657  143.5719  157.2299 H   0  0  0  0  0  0  0  0  0  0  0  0
  150.2309  139.7284  156.3194 H   0  0  0  0  0  0  0  0  0  0  0  0
  150.9843  139.3050  153.4968 H   0  0  0  0  0  0  0  0  0  0  0  0
  150.0803  138.0320  154.2799 H   0  0  0  0  0  0  0  0  0  0  0  0
  148.5003  139.5676  153.1103 H   0  0  0  0  0  0  0  0  0  0  0  0
  147.3346  138.8620  155.0973 H   0  0  0  0  0  0  0  0  0  0  0  0
  148.4621  139.7200  156.1470 H   0  0  0  0  0  0  0  0  0  0  0  0
  146.1352  140.8632  154.7092 H   0  0  0  0  0  0  0  0  0  0  0  0
  147.0503  141.5121  156.0705 H   0  0  0  0  0  0  0  0  0  0  0  0
  147.4614  141.9449  153.1423 H   0  0  0  0  0  0  0  0  0  0  0  0
  148.0492  142.9453  154.4749 H   0  0  0  0  0  0  0  0  0  0  0  0
  1  2  1  0  0  0  0
  1 17  1  0  0  0  0
  1 18  1  0  0  0  0
  1 19  1  0  0  0  0
  2 16  1  0  0  0  0
  2  3  2  0  0  0  0
  3  4  1  0  0  0  0
  3 20  1  0  0  0  0
  4  5  2  0  0  0  0
  5  6  1  0  0  0  0
  5 16  1  0  0  0  0
  6  7  1  0  0  0  0
  7  8  2  0  0  0  0
  7  9  1  0  0  0  0
  9 10  1  0  0  0  0
  9 21  1  0  0  0  0
 10 11  1  0  0  0  0
 10 22  1  0  0  0  0
 10 23  1  0  0  0  0
 11 15  1  0  0  0  0
 11 12  1  0  0  0  0
 11 24  1  0  0  0  0
 12 13  1  0  0  0  0
 12 25  1  0  0  0  0
 12 26  1  0  0  0  0
 13 14  1  0  0  0  0
 13 27  1  0  0  0  0
 13 28  1  0  0  0  0
 14 15  1  0  0  0  0
 14 29  1  0  0  0  0
 14 30  1  0  0  0  0
M  CHG  1   6  -1
M  END
> <s_m_source_file>
AV-unprocessed.smi

> <i_m_source_file_index>
2740

> <i_lp_mmshare_version>
43012

> <i_f3d_flags>
0

> <s_epik_input>
W0NIM11jMVtjSF1uYyhzMSlbTkhdQyg9TylbTkhdW0NIMl1bQ0BASF0yW0NIMl1bQ0gyXVtDSDJdTzI=

> <s_epik_cmdline>
J2VwaWtfcHl0aG9uJywgJy1waCcsICc3LjAnLCAnLXRuJywgJzgnLCAnLW1hJywgJzIwMCcsICctbWV0YWxfYmluZGluZycsICctaW1hZScsICc8aW5maWxlLm1hZT4nLCAnLW9tYWUnLCAnPG91dGZpbGUubWFlPic=

> <r_lp_tautomer_probability>
0.999

> <r_epik_Ionization_Penalty>
8.54039

> <r_epik_Ionization_Penalty_Charging>
6.77868

> <r_epik_Ionization_Penalty_Neutral>
1.76171

> <r_epik_State_Penalty>
6.77885

> <r_epik_Charging_Adjusted_Penalty>
13.5575

> <i_epik_Tot_Q>
-1

> <i_epik_Tot_abs_Q>
1

> <r_epik_Metal_State_Penalty>
2.69888

> <b_epik_Metal_Only>
1

> <s_lp_Force_Field>
OPLS_2005

> <r_lp_Energy>
13.1724

> <b_lp_Chiralities_Consistent>
1

> <s_lp_Variant>
AV-unprocessed.smi:2740-4

> <Gold.Version>
5.8.1

> <Gold.Id.Protein>
6NUR|6NUR_protein|mol2

> <Gold.PLP.Fitness>
37.5267

> <Gold.PLP.PLP>
-28.0869

> <Gold.PLP.part.hbond>
-3.8771

> <Gold.PLP.part.metal>
0.0000

> <Gold.PLP.part.buried>
-0.6530

> <Gold.PLP.part.nonpolar>
-21.7395

> <Gold.PLP.part.repulsive>
0.5945

> <Gold.PLP.ligand.clash>
0.0000

> <Gold.PLP.ligand.torsion>
0.7315

> <Gold.PLP.Chemscore.Hbond>
2.6217

> <Gold.PLP.Chemscore.CHOScore>
1.0000

> <Gold.PLP.Chemscore.Metal>
0.0000

> <Gold.Chemscore.Hbonds>
donor molecule, donor type, donor heavy atom, donor atom, acceptor molecule, acceptor atom, score
      P1  H  7997  8008       L1     6  1.20
      P1  H  8011  8017       L1    15  0.45
      L1  C     3    20       P1  8028  1.00

> <Gold.PLP.Chemscore.Internal.Correction>
0.0377

> <Gold.Rescore>
     Score         DG    S(hbond)    S(metal)    S(lipo)     H(rot)  DE(clash)    DE(int)     intcor
     11.69     -12.52       0.69        0.00      68.01       1.25       0.22       0.61       ----

> <Gold.Chemscore.Fitness>
11.6934

> <Gold.Chemscore.DG>
-12.5235

> <Gold.Chemscore.ZeroCoef>
-5.4800

> <Gold.Chemscore.Hbond>
0.6855

> <Gold.Chemscore.Metal>
0.0000

> <Gold.Chemscore.Lipo>
68.0131

> <Gold.Chemscore.Internal_Hbond>
0.0000

> <Gold.Chemscore.DEClash>
0.2156

> <Gold.Chemscore.DEInternal>
0.6145

> <Gold.Chemscore.Rot>
1.2514

> <Gold.Chemscore.Internal.Correction>
   9.000000E+99

> <Gold.Chemscore.Hbonds>
donor molecule, donor type, donor heavy atom, donor atom, acceptor molecule, acceptor atom, score
      P1  H  7997  8008       L1     6  0.02
      P1  H  8011  8017       L1    15  0.05

> <Gold.Chemscore.Hbond.Weighted>
-2.2895

> <Gold.Chemscore.Metal.Weighted>
-0.0000

> <Gold.Chemscore.Lipo.Weighted>
-7.9575

> <Gold.Chemscore.Internal_Hbond.Weighted>
0.0000

> <Gold.Chemscore.DEClash.Weighted>
0.2156

> <Gold.Chemscore.DEInternal.Weighted>
0.6145

> <Gold.Chemscore.Rot.Weighted>
3.2036

> <Gold.Chemscore.Internal.Correction.Weighted>
   9.000000E+99

> <Gold.Protein.RotatedTorsions>
[ 6907 6896 6895 6894 ] final   21.77 input  -60.11 | X-H torsion
[ 7974 7965 7964 7962 ] final  -66.79 input  175.53 | X-H torsion
[ 8008 7997 7996 7995 ] final  -63.07 input   59.86 | X-H torsion
[ 10167 10162 10161 10158 ] final -166.68 input  -65.29 | X-H torsion
[ 10718 10713 10712 10709 ] final   24.53 input   66.30 | X-H torsion
[ 10763 10752 10751 10750 ] final  -99.59 input  -60.55 | X-H torsion
[ 11005 11000 10999 10996 ] final  -78.70 input  -57.11 | X-H torsion

> <Gold.Protein.ActiveResidues>
 VAL166  LYS551  ARG553  GLY616  TRP617  ASP618  TYR619  PRO620  LYS621  CYS622 
 ASP623  PHE694  ASN695  SER759  ASP760  ASP761  ALA762  ILE779  LEU786  VAL792 
 PHE793  MET794  SER795  GLU796  ALA797  LYS798  CYS799  TRP800  GLU811  SER814 

> <Gold.Protein.RotatedAtoms>
  151.9168  135.0315  160.0518 H   0  0  0  0  0  0  0  0  0  0  0  0  # atno 6907 bound_to 6896
  152.2233  133.4996  159.5183 H   0  0  0  0  0  0  0  0  0  0  0  0  # atno 6908 bound_to 6896
  150.7005  134.1230  159.4084 H   0  0  0  0  0  0  0  0  0  0  0  0  # atno 6909 bound_to 6896
  145.7374  140.8969  143.0548 H   0  0  0  0  0  0  0  0  0  0  0  0  # atno 7974 bound_to 7965
  154.4534  140.0982  156.6685 H   0  0  0  0  0  0  0  0  0  0  0  0  # atno 8008 bound_to 7997
  155.5214  140.3479  155.4389 H   0  0  0  0  0  0  0  0  0  0  0  0  # atno 8009 bound_to 7997
  156.0727  140.1353  156.9797 H   0  0  0  0  0  0  0  0  0  0  0  0  # atno 8010 bound_to 7997
  139.6099  144.0836  152.1831 H   0  0  0  0  0  0  0  0  0  0  0  0  # atno 10167 bound_to 10162
  157.1811  130.6803  149.6113 H   0  0  0  0  0  0  0  0  0  0  0  0  # atno 10718 bound_to 10713
  154.7510  135.4966  153.9289 H   0  0  0  0  0  0  0  0  0  0  0  0  # atno 10763 bound_to 10752
  153.1143  135.6717  153.9452 H   0  0  0  0  0  0  0  0  0  0  0  0  # atno 10764 bound_to 10752
  153.9203  135.3089  155.3426 H   0  0  0  0  0  0  0  0  0  0  0  0  # atno 10765 bound_to 10752
  141.1665  133.7074  156.8012 H   0  0  0  0  0  0  0  0  0  0  0  0  # atno 11005 bound_to 11000
  144.6878  139.9413  143.7475 LP  0  0  0  0  0  0  0  0  0  0  0  0  # atno 17320 bound_to 7965
  146.0481  139.3484  143.0656 LP  0  0  0  0  0  0  0  0  0  0  0  0  # atno 17321 bound_to 7965
  140.0453  144.5976  150.7379 LP  0  0  0  0  0  0  0  0  0  0  0  0  # atno 17342 bound_to 10162
  140.7311  143.2691  151.3947 LP  0  0  0  0  0  0  0  0  0  0  0  0  # atno 17343 bound_to 10162
  155.9724  130.4646  150.6225 LP  0  0  0  0  0  0  0  0  0  0  0  0  # atno 17370 bound_to 10713
  157.3952  131.0801  151.1358 LP  0  0  0  0  0  0  0  0  0  0  0  0  # atno 17371 bound_to 10713
  140.2255  134.8725  157.3422 LP  0  0  0  0  0  0  0  0  0  0  0  0  # atno 17394 bound_to 11000
  140.1944  134.4331  155.7697 LP  0  0  0  0  0  0  0  0  0  0  0  0  # atno 17395 bound_to 11000

$$$$
