AV-unprocessed.smi:2074|AV-procd|sdf|8453|dock3
  -GOLD-   2272011153D 1   1.00000     0.00000
 Structure written by MMmdl.
 43 44  0  0  0  0  0  0  0  0  1 V2000
  151.4812  141.7336  158.1103 C   0  0  0  0  0  0  0  0  0  0  0  0
  151.4870  140.7477  156.9777 C   0  0  0  0  0  0  0  0  0  0  0  0
  151.3445  141.1755  155.7342 N   0  0  0  0  0  0  0  0  0  0  0  0
  151.3857  140.0326  154.9295 O   0  0  0  0  0  0  0  0  0  0  0  0
  151.5532  138.9493  155.7298 C   0  0  0  0  0  0  0  0  0  0  0  0
  151.6145  137.6222  155.0532 C   0  0  0  0  0  0  0  0  0  0  0  0
  151.6299  139.3321  157.0407 C   0  0  0  0  0  0  0  0  0  0  0  0
  151.8159  138.4724  158.2673 C   0  0  0  0  0  0  0  0  0  0  0  0
  153.2019  138.6631  158.8960 C   0  0  0  0  0  0  0  0  0  0  0  0
  154.1072  139.2398  158.2911 O   0  0  0  0  0  0  0  0  0  0  0  0
  153.3501  138.1676  160.1337 N   0  0  0  0  0  0  0  0  0  0  0  0
  154.5698  138.2509  160.9329 C   0  0  0  0  0  0  0  0  0  0  0  0
  154.3422  137.9670  162.4469 C   0  0  1  0  0  0  0  0  0  0  0  0
  154.0928  136.4494  162.6409 C   0  0  0  0  0  0  0  0  0  0  0  0
  155.4316  138.4833  163.3084 N   0  0  0  0  0  0  0  0  0  0  0  0
  155.1417  138.3245  164.7384 C   0  0  0  0  0  0  0  0  0  0  0  0
  156.2553  138.8834  165.6409 C   0  0  0  0  0  0  0  0  0  0  0  0
  156.4721  140.2544  165.3388 O   0  0  0  0  0  0  0  0  0  0  0  0
  156.8336  140.4490  163.9788 C   0  0  0  0  0  0  0  0  0  0  0  0
  155.7263  139.9001  163.0624 C   0  0  0  0  0  0  0  0  0  0  0  0
  150.6868  141.5033  158.8205 H   0  0  0  0  0  0  0  0  0  0  0  0
  151.3262  142.7543  157.7591 H   0  0  0  0  0  0  0  0  0  0  0  0
  152.4271  141.7095  158.6513 H   0  0  0  0  0  0  0  0  0  0  0  0
  151.3598  136.8195  155.7456 H   0  0  0  0  0  0  0  0  0  0  0  0
  152.6159  137.4322  154.6670 H   0  0  0  0  0  0  0  0  0  0  0  0
  150.9148  137.5794  154.2185 H   0  0  0  0  0  0  0  0  0  0  0  0
  151.0616  138.7031  159.0204 H   0  0  0  0  0  0  0  0  0  0  0  0
  151.6894  137.4164  158.0268 H   0  0  0  0  0  0  0  0  0  0  0  0
  152.5583  137.7070  160.5582 H   0  0  0  0  0  0  0  0  0  0  0  0
  155.2888  137.5385  160.5272 H   0  0  0  0  0  0  0  0  0  0  0  0
  154.9890  139.2413  160.7607 H   0  0  0  0  0  0  0  0  0  0  0  0
  153.4217  138.4775  162.7343 H   0  0  0  0  0  0  0  0  0  0  0  0
  153.3258  136.0632  161.9704 H   0  0  0  0  0  0  0  0  0  0  0  0
  153.7343  136.2149  163.6423 H   0  0  0  0  0  0  0  0  0  0  0  0
  155.0024  135.8746  162.4638 H   0  0  0  0  0  0  0  0  0  0  0  0
  154.1984  138.8159  164.9814 H   0  0  0  0  0  0  0  0  0  0  0  0
  155.0254  137.2725  164.9925 H   0  0  0  0  0  0  0  0  0  0  0  0
  155.9741  138.7906  166.6899 H   0  0  0  0  0  0  0  0  0  0  0  0
  157.1809  138.3213  165.5069 H   0  0  0  0  0  0  0  0  0  0  0  0
  156.9795  141.5141  163.7990 H   0  0  0  0  0  0  0  0  0  0  0  0
  157.7854  139.9568  163.7726 H   0  0  0  0  0  0  0  0  0  0  0  0
  156.0624  140.0529  162.0391 H   0  0  0  0  0  0  0  0  0  0  0  0
  154.8208  140.4947  163.1921 H   0  0  0  0  0  0  0  0  0  0  0  0
  1  2  1  0  0  0  0
  1 21  1  0  0  0  0
  1 22  1  0  0  0  0
  1 23  1  0  0  0  0
  2  7  1  0  0  0  0
  2  3  2  0  0  0  0
  3  4  1  0  0  0  0
  4  5  1  0  0  0  0
  5  6  1  0  0  0  0
  5  7  2  0  0  0  0
  6 24  1  0  0  0  0
  6 25  1  0  0  0  0
  6 26  1  0  0  0  0
  7  8  1  0  0  0  0
  8  9  1  0  0  0  0
  8 27  1  0  0  0  0
  8 28  1  0  0  0  0
  9 10  2  0  0  0  0
  9 11  1  0  0  0  0
 11 12  1  0  0  0  0
 11 29  1  0  0  0  0
 12 13  1  0  0  0  0
 12 30  1  0  0  0  0
 12 31  1  0  0  0  0
 13 14  1  0  0  0  0
 13 15  1  0  0  0  0
 13 32  1  0  0  0  0
 14 33  1  0  0  0  0
 14 34  1  0  0  0  0
 14 35  1  0  0  0  0
 15 20  1  0  0  0  0
 15 16  1  0  0  0  0
 16 17  1  0  0  0  0
 16 36  1  0  0  0  0
 16 37  1  0  0  0  0
 17 18  1  0  0  0  0
 17 38  1  0  0  0  0
 17 39  1  0  0  0  0
 18 19  1  0  0  0  0
 19 20  1  0  0  0  0
 19 40  1  0  0  0  0
 19 41  1  0  0  0  0
 20 42  1  0  0  0  0
 20 43  1  0  0  0  0
M  END
> <s_m_source_file>
AV-unprocessed.smi

> <i_m_source_file_index>
2074

> <i_lp_mmshare_version>
43012

> <i_f3d_flags>
0

> <s_epik_input>
W0NIM11jMW5vYyhbQ0gzXSljMVtDSDJdQyg9TylbTkhdW0NIMl1bQ0BIXShbQ0gzXSlOMltDSDJdW0NIMl1PW0NIMl1bQ0gyXTI=

> <s_epik_cmdline>
J2VwaWtfcHl0aG9uJywgJy1waCcsICc3LjAnLCAnLXRuJywgJzgnLCAnLW1hJywgJzIwMCcsICctbWV0YWxfYmluZGluZycsICctaW1hZScsICc8aW5maWxlLm1hZT4nLCAnLW9tYWUnLCAnPG91dGZpbGUubWFlPic=

> <r_epik_Ionization_Penalty>
0.234179

> <r_epik_Ionization_Penalty_Charging>
0

> <r_epik_Ionization_Penalty_Neutral>
0.234179

> <r_epik_State_Penalty>
0.224936

> <r_epik_Charging_Adjusted_Penalty>
0.224936

> <i_epik_Tot_Q>
0

> <i_epik_Tot_abs_Q>
0

> <r_epik_Metal_State_Penalty>
0.224936

> <b_epik_Metal_Only>
0

> <s_lp_Force_Field>
OPLS_2005

> <r_lp_Energy>
23.5804

> <b_lp_Chiralities_Consistent>
1

> <s_lp_Variant>
AV-unprocessed.smi:2074-2

> <Gold.Version>
5.8.1

> <Gold.Id.Protein>
6NUR|6NUR_protein|mol2

> <Gold.PLP.Fitness>
34.6069

> <Gold.PLP.PLP>
-29.6795

> <Gold.PLP.part.hbond>
-2.0000

> <Gold.PLP.part.metal>
0.0000

> <Gold.PLP.part.buried>
-4.6561

> <Gold.PLP.part.nonpolar>
-22.6126

> <Gold.PLP.part.repulsive>
0.1642

> <Gold.PLP.ligand.clash>
0.0000

> <Gold.PLP.ligand.torsion>
0.5281

> <Gold.PLP.Chemscore.Hbond>
1.9600

> <Gold.PLP.Chemscore.CHOScore>
0.0000

> <Gold.PLP.Chemscore.Metal>
0.0000

> <Gold.Chemscore.Hbonds>
donor molecule, donor type, donor heavy atom, donor atom, acceptor molecule, acceptor atom, score
      P1  H  7989  7998       L1     4  0.75
      P1  H  7997  8009       L1    10  0.94

> <Gold.PLP.Chemscore.Internal.Correction>
0.1036

> <Gold.Rescore>
     Score         DG    S(hbond)    S(metal)    S(lipo)     H(rot)  DE(clash)    DE(int)     intcor
     15.95     -16.57       1.87        0.00      78.99       1.72       0.08       0.53       ----

> <Gold.Chemscore.Fitness>
15.9518

> <Gold.Chemscore.DG>
-16.5681

> <Gold.Chemscore.ZeroCoef>
-5.4800

> <Gold.Chemscore.Hbond>
1.8705

> <Gold.Chemscore.Metal>
0.0000

> <Gold.Chemscore.Lipo>
78.9947

> <Gold.Chemscore.Internal_Hbond>
0.0000

> <Gold.Chemscore.DEClash>
0.0834

> <Gold.Chemscore.DEInternal>
0.5330

> <Gold.Chemscore.Rot>
1.7195

> <Gold.Chemscore.Internal.Correction>
   9.000000E+99

> <Gold.Chemscore.Hbonds>
donor molecule, donor type, donor heavy atom, donor atom, acceptor molecule, acceptor atom, score
      P1  H  7989  7998       L1     4  0.09
      P1  H  7997  8009       L1    10  0.90

> <Gold.Chemscore.Hbond.Weighted>
-6.2476

> <Gold.Chemscore.Metal.Weighted>
-0.0000

> <Gold.Chemscore.Lipo.Weighted>
-9.2424

> <Gold.Chemscore.Internal_Hbond.Weighted>
0.0000

> <Gold.Chemscore.DEClash.Weighted>
0.0834

> <Gold.Chemscore.DEInternal.Weighted>
0.5330

> <Gold.Chemscore.Rot.Weighted>
4.4018

> <Gold.Chemscore.Internal.Correction.Weighted>
   9.000000E+99

> <Gold.Protein.RotatedTorsions>
[ 6907 6896 6895 6894 ] final  -31.54 input  -60.11 | X-H torsion
[ 7974 7965 7964 7962 ] final    5.77 input  175.53 | X-H torsion
[ 8008 7997 7996 7995 ] final  133.87 input   59.86 | X-H torsion
[ 10167 10162 10161 10158 ] final  -32.18 input  -65.29 | X-H torsion
[ 10718 10713 10712 10709 ] final   88.44 input   66.30 | X-H torsion
[ 10763 10752 10751 10750 ] final  124.70 input  -60.55 | X-H torsion
[ 11005 11000 10999 10996 ] final   33.84 input  -57.11 | X-H torsion

> <Gold.Protein.ActiveResidues>
 VAL166  LYS551  ARG553  GLY616  TRP617  ASP618  TYR619  PRO620  LYS621  CYS622 
 ASP623  PHE694  ASN695  SER759  ASP760  ASP761  ALA762  ILE779  LEU786  VAL792 
 PHE793  MET794  SER795  GLU796  ALA797  LYS798  CYS799  TRP800  GLU811  SER814 

> <Gold.Protein.RotatedAtoms>
  151.0907  134.9914  159.8400 H   0  0  0  0  0  0  0  0  0  0  0  0  # atno 6907 bound_to 6896
  152.5429  134.2069  159.8744 H   0  0  0  0  0  0  0  0  0  0  0  0  # atno 6908 bound_to 6896
  151.2105  133.4515  159.2631 H   0  0  0  0  0  0  0  0  0  0  0  0  # atno 6909 bound_to 6896
  146.2439  140.0334  142.8388 H   0  0  0  0  0  0  0  0  0  0  0  0  # atno 7974 bound_to 7965
  156.2995  140.2510  156.3324 H   0  0  0  0  0  0  0  0  0  0  0  0  # atno 8008 bound_to 7997
  154.9132  140.0403  157.1977 H   0  0  0  0  0  0  0  0  0  0  0  0  # atno 8009 bound_to 7997
  154.8384  140.2887  155.5680 H   0  0  0  0  0  0  0  0  0  0  0  0  # atno 8010 bound_to 7997
  140.7225  143.3714  151.1771 H   0  0  0  0  0  0  0  0  0  0  0  0  # atno 10167 bound_to 10162
  157.6949  131.0295  150.3275 H   0  0  0  0  0  0  0  0  0  0  0  0  # atno 10718 bound_to 10713
  153.6655  135.3339  155.3139 H   0  0  0  0  0  0  0  0  0  0  0  0  # atno 10763 bound_to 10752
  154.8504  135.4374  154.1759 H   0  0  0  0  0  0  0  0  0  0  0  0  # atno 10764 bound_to 10752
  153.2737  135.7002  153.7530 H   0  0  0  0  0  0  0  0  0  0  0  0  # atno 10765 bound_to 10752
  140.2590  134.3215  155.7864 H   0  0  0  0  0  0  0  0  0  0  0  0  # atno 11005 bound_to 11000
  145.1134  140.9419  143.4643 LP  0  0  0  0  0  0  0  0  0  0  0  0  # atno 17320 bound_to 7965
  145.0553  139.3149  143.5908 LP  0  0  0  0  0  0  0  0  0  0  0  0  # atno 17321 bound_to 7965
  139.7286  143.9108  152.3011 LP  0  0  0  0  0  0  0  0  0  0  0  0  # atno 17342 bound_to 10162
  139.8890  144.6976  150.8792 LP  0  0  0  0  0  0  0  0  0  0  0  0  # atno 17343 bound_to 10162
  156.3753  130.3871  149.7143 LP  0  0  0  0  0  0  0  0  0  0  0  0  # atno 17370 bound_to 10713
  156.4544  130.7922  151.2943 LP  0  0  0  0  0  0  0  0  0  0  0  0  # atno 17371 bound_to 10713
  141.2192  133.7398  156.9156 LP  0  0  0  0  0  0  0  0  0  0  0  0  # atno 17394 bound_to 11000
  140.1484  134.9247  157.2559 LP  0  0  0  0  0  0  0  0  0  0  0  0  # atno 17395 bound_to 11000

$$$$
