#       Name:                AV-unprocessed.smi:539
#       Creating user name   scv26
#       Creation time:       Thu Mar 26 23:36:04 2020


#       File generated by GOLD software.
#

@<TRIPOS>MOLECULE
AV-unprocessed.smi:539
    47    49     1
SMALL
NO_CHARGES


@<TRIPOS>ATOM
      1 ****        -3.3098   0.5204  -2.4542 C.3            1 S1                 0.0000
      2 ****        -1.9070   0.6104  -2.2848 O.3            1 S1                 0.0000
      3 ****        -1.2799  -0.6602  -2.2279 C.3            1 S1                 0.0000
      4 ****         0.2328  -0.4876  -2.0215 C.3            1 S1                 0.0000
      5 ****         0.5386   0.2637  -0.8036 N.pl3          1 S1                 0.0000
      6 ****         0.5906  -0.1798   0.4886 C.2            1 S1                 0.0000
      7 ****         0.3689  -1.5082   0.8842 N.pl3          1 S1                 0.0000
      8 ****         0.5074  -2.7617   0.1409 C.3            1 S1                 0.0000
      9 ****         0.4865  -3.9211   1.1344 C.3            1 S1                 0.0000
     10 ****        -0.3560  -3.3617   2.2592 C.3            1 S1                 0.0000
     11 ****         0.0737  -1.8993   2.2617 C.3            1 S1                 0.0000
     12 ****         0.8500   0.7775   1.3824 N.2            1 S1                 0.0000
     13 ****         0.9841   1.9167   0.6096 C.2            1 S1                 0.0000
     14 ****         0.7931   1.6410  -0.7078 C.2            1 S1                 0.0000
     15 ****         0.8399   2.6760  -1.7704 C.2            1 S1                 0.0000
     16 ****         0.6264   2.3979  -2.9482 O.2            1 S1                 0.0000
     17 ****         1.1356   3.9187  -1.2736 N.pl3          1 S1                -1.0000
     18 ****         1.3480   4.2333   0.0502 C.2            1 S1                 0.0000
     19 ****         1.6157   5.3801   0.4114 O.2            1 S1                 0.0000
     20 ****         1.2639   3.2536   1.0030 N.am           1 S1                 0.0000
     21 ****         1.4758   3.5594   2.4209 C.3            1 S1                 0.0000
     22 ****        -3.7376   1.5221  -2.4937 H              1 S1                 0.0000
     23 ****        -3.7737  -0.0115  -1.6226 H              1 S1                 0.0000
     24 ****        -3.5630   0.0089  -3.3835 H              1 S1                 0.0000
     25 ****        -1.7077  -1.2421  -1.4106 H              1 S1                 0.0000
     26 ****        -1.4658  -1.2096  -3.1518 H              1 S1                 0.0000
     27 ****         0.7377  -1.4478  -2.0069 H              1 S1                 0.0000
     28 ****         0.6707   0.0071  -2.8839 H              1 S1                 0.0000
     29 ****        -0.3289  -2.8618  -0.5501 H              1 S1                 0.0000
     30 ****         1.4334  -2.7756  -0.4342 H              1 S1                 0.0000
     31 ****         0.0822  -4.8402   0.7094 H              1 S1                 0.0000
     32 ****         1.4967  -4.1256   1.4923 H              1 S1                 0.0000
     33 ****        -1.4155  -3.4435   2.0120 H              1 S1                 0.0000
     34 ****        -0.1852  -3.8588   3.2144 H              1 S1                 0.0000
     35 ****         0.9771  -1.7707   2.8594 H              1 S1                 0.0000
     36 ****        -0.7006  -1.2629   2.6918 H              1 S1                 0.0000
     37 ****         0.8094   4.3598   2.7466 H              1 S1                 0.0000
     38 ****         2.5042   3.8818   2.5892 H              1 S1                 0.0000
     39 ****         1.2895   2.7030   3.0689 H              1 S1                 0.0000
     40 ****        -1.7184   1.0987  -1.4328 LP             1 S1                 0.0000
     41 ****        -1.5241   1.1219  -3.0540 LP             1 S1                 0.0000
     42 ****         0.9287   0.6912   2.3755 LP             1 S1                 0.0000
     43 ****         0.4152   1.4559  -3.2092 LP             1 S1                 0.0000
     44 ****         0.6638   3.1135  -3.6457 LP             1 S1                 0.0000
     45 ****         1.2034   4.6666  -1.9339 LP             1 S1                 0.0000
     46 ****         1.6841   6.1140  -0.2644 LP             1 S1                 0.0000
     47 ****         1.7646   5.5771   1.3804 LP             1 S1                 0.0000
@<TRIPOS>BOND
    1    1    2 1     
    2    1   22 1     
    3    1   23 1     
    4    1   24 1     
    5    2    3 1     
    6    3    4 1     
    7    3   25 1     
    8    3   26 1     
    9    4    5 1     
   10    4   27 1     
   11    4   28 1     
   12    5   14 1     
   13    5    6 1     
   14    6    7 1     
   15    6   12 2     
   16    7   11 1     
   17    7    8 1     
   18    8    9 1     
   19    8   29 1     
   20    8   30 1     
   21    9   10 1     
   22    9   31 1     
   23    9   32 1     
   24   10   11 1     
   25   10   33 1     
   26   10   34 1     
   27   11   35 1     
   28   11   36 1     
   29   12   13 1     
   30   13   20 1     
   31   13   14 2     
   32   14   15 1     
   33   15   16 2     
   34   15   17 1     
   35   17   18 1     
   36   18   19 2     
   37   18   20 am    
   38   20   21 1     
   39   21   37 1     
   40   21   38 1     
   41   21   39 1     
   42    2   40 1     
   43    2   41 1     
   44   12   42 1     
   45   16   43 1     
   46   16   44 1     
   47   17   45 1     
   48   19   46 1     
   49   19   47 1     
@<TRIPOS>SUBSTRUCTURE
      1 S1             1
@<TRIPOS>SET
LONE_PAIRS      STATIC     ATOMS    <user>   **** ""
8 40 41 42 43 44 45 46 47
ATOM$BLUE        STATIC     ATOMS    COLORGROUP SYSTEM
8 40 41 42 43 44 45 46 47
