AV-unprocessed.smi:528|AV-procd|sdf|2835|dock4
  -GOLD-   2262023323D 1   1.00000     0.00000
 Structure written by MMmdl.
 45 47  0  0  0  0  0  0  0  0  1 V2000
  145.5968  137.9869  158.5414 C   0  0  0  0  0  0  0  0  0  0  0  0
  146.8115  137.2329  159.1095 C   0  0  2  0  0  0  0  0  0  0  0  0
  147.7283  136.9346  158.0103 N   0  0  0  0  0  0  0  0  0  0  0  0
  148.9959  136.5116  158.1338 C   0  0  0  0  0  0  0  0  0  0  0  0
  149.5382  136.3007  159.2196 O   0  0  0  0  0  0  0  0  0  0  0  0
  149.7523  136.2829  156.8169 C   0  0  0  0  0  0  0  0  0  0  0  0
  150.3760  137.5029  156.2770 N   0  0  0  0  0  0  0  0  0  0  0  0
  150.2564  138.6783  157.0445 C   0  0  0  0  0  0  0  0  0  0  0  0
  150.7915  139.8562  156.6700 C   0  0  0  0  0  0  0  0  0  0  0  0
  150.5945  141.1215  157.4904 C   0  0  0  0  0  0  0  0  0  0  0  0
  151.0540  142.1909  156.8403 F   0  0  0  0  0  0  0  0  0  0  0  0
  149.3054  141.3214  157.7669 F   0  0  0  0  0  0  0  0  0  0  0  0
  151.2552  141.0210  158.6430 F   0  0  0  0  0  0  0  0  0  0  0  0
  151.4848  139.8739  155.3969 C   0  0  0  0  0  0  0  0  0  0  0  0
  151.5973  138.7619  154.6443 C   0  0  0  0  0  0  0  0  0  0  0  0
  151.0272  137.4833  155.0754 C   0  0  0  0  0  0  0  0  0  0  0  0
  151.1278  136.4595  154.3989 O   0  0  0  0  0  0  0  0  0  0  0  0
  146.4094  135.9239  159.8324 C   0  0  2  0  0  0  0  0  0  0  0  0
  145.1921  136.0838  160.7763 C   0  0  0  0  0  0  0  0  0  0  0  0
  145.7094  135.5406  162.1198 C   0  0  1  0  0  0  0  0  0  0  0  0
  145.9045  134.0169  162.0197 C   0  0  0  0  0  0  0  0  0  0  0  0
  147.1529  133.8957  161.1264 C   0  0  0  0  0  0  0  0  0  0  0  0
  147.4837  135.3652  160.8019 C   0  0  2  0  0  0  0  0  0  0  0  0
  147.1447  136.0486  162.1223 C   0  0  0  0  0  0  0  0  0  0  0  0
  144.9041  138.2865  159.3273 H   0  0  0  0  0  0  0  0  0  0  0  0
  145.0449  137.3714  157.8301 H   0  0  0  0  0  0  0  0  0  0  0  0
  145.9068  138.8951  158.0234 H   0  0  0  0  0  0  0  0  0  0  0  0
  147.3039  137.8854  159.8321 H   0  0  0  0  0  0  0  0  0  0  0  0
  147.3704  137.0728  157.0763 H   0  0  0  0  0  0  0  0  0  0  0  0
  150.5040  135.5111  156.9867 H   0  0  0  0  0  0  0  0  0  0  0  0
  149.0691  135.8570  156.0796 H   0  0  0  0  0  0  0  0  0  0  0  0
  149.6911  138.5627  157.9580 H   0  0  0  0  0  0  0  0  0  0  0  0
  151.9248  140.7938  155.0411 H   0  0  0  0  0  0  0  0  0  0  0  0
  152.1215  138.8120  153.7011 H   0  0  0  0  0  0  0  0  0  0  0  0
  146.1872  135.1740  159.0710 H   0  0  0  0  0  0  0  0  0  0  0  0
  144.9070  137.1304  160.8907 H   0  0  0  0  0  0  0  0  0  0  0  0
  144.3164  135.5411  160.4186 H   0  0  0  0  0  0  0  0  0  0  0  0
  145.1094  135.8497  162.9760 H   0  0  0  0  0  0  0  0  0  0  0  0
  146.0915  133.5814  163.0022 H   0  0  0  0  0  0  0  0  0  0  0  0
  145.0347  133.5178  161.5912 H   0  0  0  0  0  0  0  0  0  0  0  0
  147.9709  133.4285  161.6764 H   0  0  0  0  0  0  0  0  0  0  0  0
  146.9713  133.2992  160.2316 H   0  0  0  0  0  0  0  0  0  0  0  0
  148.5130  135.5020  160.4704 H   0  0  0  0  0  0  0  0  0  0  0  0
  147.2208  137.1364  162.0849 H   0  0  0  0  0  0  0  0  0  0  0  0
  147.7326  135.6789  162.9643 H   0  0  0  0  0  0  0  0  0  0  0  0
  1  2  1  0  0  0  0
  1 25  1  0  0  0  0
  1 26  1  0  0  0  0
  1 27  1  0  0  0  0
  2  3  1  0  0  0  0
  2 18  1  0  0  0  0
  2 28  1  0  0  0  0
  3  4  1  0  0  0  0
  3 29  1  0  0  0  0
  4  5  2  0  0  0  0
  4  6  1  0  0  0  0
  6  7  1  0  0  0  0
  6 30  1  0  0  0  0
  6 31  1  0  0  0  0
  7 16  1  0  0  0  0
  7  8  1  0  0  0  0
  8  9  2  0  0  0  0
  8 32  1  0  0  0  0
  9 10  1  0  0  0  0
  9 14  1  0  0  0  0
 10 11  1  0  0  0  0
 10 12  1  0  0  0  0
 10 13  1  0  0  0  0
 14 15  2  0  0  0  0
 14 33  1  0  0  0  0
 15 16  1  0  0  0  0
 15 34  1  0  0  0  0
 16 17  2  0  0  0  0
 18 23  1  0  0  0  0
 18 19  1  0  0  0  0
 18 35  1  0  0  0  0
 19 20  1  0  0  0  0
 19 36  1  0  0  0  0
 19 37  1  0  0  0  0
 20 24  1  0  0  0  0
 20 21  1  0  0  0  0
 20 38  1  0  0  0  0
 21 22  1  0  0  0  0
 21 39  1  0  0  0  0
 21 40  1  0  0  0  0
 22 23  1  0  0  0  0
 22 41  1  0  0  0  0
 22 42  1  0  0  0  0
 23 24  1  0  0  0  0
 23 43  1  0  0  0  0
 24 44  1  0  0  0  0
 24 45  1  0  0  0  0
M  END
> <s_m_source_file>
AV-unprocessed.smi

> <i_m_source_file_index>
528

> <i_lp_mmshare_version>
43012

> <i_f3d_flags>
0

> <s_epik_input>
W0NIMl0xW0NIMl1bQ0BASF0oW0NIMl0yKVtDQEBIXShbQ0gyXVtDQEhdMTIpW0NASF0oW0NIM10pW05IXUMoPU8pW0NIMl1uM1tjSF1jKEMoRikoRilGKVtjSF1bY0hdYzM9Tw==

> <s_epik_cmdline>
J2VwaWtfcHl0aG9uJywgJy1waCcsICc3LjAnLCAnLXRuJywgJzgnLCAnLW1hJywgJzIwMCcsICctbWV0YWxfYmluZGluZycsICctaW1hZScsICc8aW5maWxlLm1hZT4nLCAnLW9tYWUnLCAnPG91dGZpbGUubWFlPic=

> <r_lp_tautomer_probability>
1

> <r_epik_Ionization_Penalty>
4.09479e-08

> <r_epik_Ionization_Penalty_Charging>
1.9321e-08

> <r_epik_Ionization_Penalty_Neutral>
2.16269e-08

> <r_epik_State_Penalty>
-0

> <r_epik_Charging_Adjusted_Penalty>
1.9321e-08

> <i_epik_Tot_Q>
0

> <i_epik_Tot_abs_Q>
0

> <r_epik_Metal_State_Penalty>
-0

> <b_epik_Metal_Only>
0

> <s_lp_Force_Field>
OPLS_2005

> <r_lp_Energy>
63.0094

> <b_lp_Chiralities_Consistent>
1

> <s_lp_Variant>
AV-unprocessed.smi:528-5

> <Gold.Version>
5.8.1

> <Gold.Id.Protein>
6NUR|6NUR_protein|mol2

> <Gold.PLP.Fitness>
42.6817

> <Gold.PLP.PLP>
-38.9568

> <Gold.PLP.part.hbond>
-2.0000

> <Gold.PLP.part.metal>
0.0000

> <Gold.PLP.part.buried>
-5.5731

> <Gold.PLP.part.nonpolar>
-32.1823

> <Gold.PLP.part.repulsive>
0.2505

> <Gold.PLP.ligand.clash>
0.6129

> <Gold.PLP.ligand.torsion>
0.8780

> <Gold.PLP.Chemscore.Hbond>
2.0000

> <Gold.PLP.Chemscore.CHOScore>
0.0000

> <Gold.PLP.Chemscore.Metal>
0.0000

> <Gold.Chemscore.Hbonds>
donor molecule, donor type, donor heavy atom, donor atom, acceptor molecule, acceptor atom, score
      P1  H  6896  6907       L1     5  1.00
      P1  H 10752 10765       L1    17  1.00

> <Gold.PLP.Chemscore.Internal.Correction>
0.0939

> <Gold.Rescore>
     Score         DG    S(hbond)    S(metal)    S(lipo)     H(rot)  DE(clash)    DE(int)     intcor
     16.00     -17.71       1.96        0.00      86.10       1.71       0.11       1.60       ----

> <Gold.Chemscore.Fitness>
15.9965

> <Gold.Chemscore.DG>
-17.7055

> <Gold.Chemscore.ZeroCoef>
-5.4800

> <Gold.Chemscore.Hbond>
1.9568

> <Gold.Chemscore.Metal>
0.0000

> <Gold.Chemscore.Lipo>
86.1019

> <Gold.Chemscore.Internal_Hbond>
0.0000

> <Gold.Chemscore.DEClash>
0.1069

> <Gold.Chemscore.DEInternal>
1.6022

> <Gold.Chemscore.Rot>
1.7125

> <Gold.Chemscore.Internal.Correction>
   9.000000E+99

> <Gold.Chemscore.Hbonds>
donor molecule, donor type, donor heavy atom, donor atom, acceptor molecule, acceptor atom, score
      P1  H  6896  6907       L1     5  0.97
      P1  H 10752 10765       L1    17  0.92

> <Gold.Chemscore.Hbond.Weighted>
-6.5356

> <Gold.Chemscore.Metal.Weighted>
-0.0000

> <Gold.Chemscore.Lipo.Weighted>
-10.0739

> <Gold.Chemscore.Internal_Hbond.Weighted>
0.0000

> <Gold.Chemscore.DEClash.Weighted>
0.1069

> <Gold.Chemscore.DEInternal.Weighted>
1.6022

> <Gold.Chemscore.Rot.Weighted>
4.3840

> <Gold.Chemscore.Internal.Correction.Weighted>
   9.000000E+99

> <Gold.Protein.RotatedTorsions>
[ 6907 6896 6895 6894 ] final  -54.47 input  -60.11 | X-H torsion
[ 7974 7965 7964 7962 ] final  -72.75 input  175.53 | X-H torsion
[ 8008 7997 7996 7995 ] final  173.81 input   59.86 | X-H torsion
[ 10167 10162 10161 10158 ] final    4.06 input  -65.29 | X-H torsion
[ 10718 10713 10712 10709 ] final  -25.26 input   66.30 | X-H torsion
[ 10763 10752 10751 10750 ] final  159.18 input  -60.55 | X-H torsion
[ 11005 11000 10999 10996 ] final   28.20 input  -57.11 | X-H torsion

> <Gold.Protein.ActiveResidues>
 VAL166  LYS551  ARG553  GLY616  TRP617  ASP618  TYR619  PRO620  LYS621  CYS622 
 ASP623  PHE694  ASN695  SER759  ASP760  ASP761  ALA762  ILE779  LEU786  VAL792 
 PHE793  MET794  SER795  GLU796  ALA797  LYS798  CYS799  TRP800  GLU811  SER814 

> <Gold.Protein.RotatedAtoms>
  150.8335  134.7599  159.6873 H   0  0  0  0  0  0  0  0  0  0  0  0  # atno 6907 bound_to 6896
  152.4436  134.5538  159.9884 H   0  0  0  0  0  0  0  0  0  0  0  0  # atno 6908 bound_to 6896
  151.5693  133.3354  159.3022 H   0  0  0  0  0  0  0  0  0  0  0  0  # atno 6909 bound_to 6896
  145.6610  140.9252  143.0934 H   0  0  0  0  0  0  0  0  0  0  0  0  # atno 7974 bound_to 7965
  156.1037  140.1450  156.9432 H   0  0  0  0  0  0  0  0  0  0  0  0  # atno 8008 bound_to 7997
  154.4720  140.0907  156.7212 H   0  0  0  0  0  0  0  0  0  0  0  0  # atno 8009 bound_to 7997
  155.4715  140.3442  155.4328 H   0  0  0  0  0  0  0  0  0  0  0  0  # atno 8010 bound_to 7997
  140.6554  143.7440  150.7645 H   0  0  0  0  0  0  0  0  0  0  0  0  # atno 10167 bound_to 10162
  156.4667  130.4515  149.6895 H   0  0  0  0  0  0  0  0  0  0  0  0  # atno 10718 bound_to 10713
  154.2277  135.2779  155.2901 H   0  0  0  0  0  0  0  0  0  0  0  0  # atno 10763 bound_to 10752
  154.5650  135.5635  153.7045 H   0  0  0  0  0  0  0  0  0  0  0  0  # atno 10764 bound_to 10752
  153.0027  135.6307  154.2418 H   0  0  0  0  0  0  0  0  0  0  0  0  # atno 10765 bound_to 10752
  140.3181  134.2574  155.7722 H   0  0  0  0  0  0  0  0  0  0  0  0  # atno 11005 bound_to 11000
  144.7089  139.8449  143.7421 LP  0  0  0  0  0  0  0  0  0  0  0  0  # atno 17320 bound_to 7965
  146.1125  139.4132  143.0279 LP  0  0  0  0  0  0  0  0  0  0  0  0  # atno 17321 bound_to 7965
  140.1098  143.4709  152.2376 LP  0  0  0  0  0  0  0  0  0  0  0  0  # atno 17342 bound_to 10162
  139.5776  144.7495  151.3724 LP  0  0  0  0  0  0  0  0  0  0  0  0  # atno 17343 bound_to 10162
  156.3660  130.7506  151.2484 LP  0  0  0  0  0  0  0  0  0  0  0  0  # atno 17370 bound_to 10713
  157.7494  131.0336  150.4281 LP  0  0  0  0  0  0  0  0  0  0  0  0  # atno 17371 bound_to 10713
  141.2093  133.7753  157.0007 LP  0  0  0  0  0  0  0  0  0  0  0  0  # atno 17394 bound_to 11000
  140.0965  134.9561  157.1858 LP  0  0  0  0  0  0  0  0  0  0  0  0  # atno 17395 bound_to 11000

$$$$
