#       Name:                AV-unprocessed.smi:1686
#       Creating user name   scv26
#       Creation time:       Fri Mar 27 07:52:20 2020


#       File generated by GOLD software.
#

@<TRIPOS>MOLECULE
AV-unprocessed.smi:1686
    46    48     1
SMALL
NO_CHARGES


@<TRIPOS>ATOM
      1 ****        -3.9096   0.0440   0.8213 C.3            1 S1                 0.0000
      2 ****        -3.4402   0.6682  -0.4615 C.2            1 S1                 0.0000
      3 ****        -3.5087   1.9849  -0.6068 N.2            1 S1                 0.0000
      4 ****        -3.0000   2.2681  -1.8795 O.3            1 S1                 0.0000
      5 ****        -2.6498   1.0871  -2.4380 C.2            1 S1                 0.0000
      6 ****        -1.9602   0.9812  -4.0089 Cl             1 S1                 0.0000
      7 ****        -2.8948   0.0273  -1.6126 C.2            1 S1                 0.0000
      8 ****        -2.6386  -1.4436  -1.8382 C.3            1 S1                 0.0000
      9 ****        -1.1580  -1.7535  -1.6101 C.2            1 S1                 0.0000
     10 ****        -0.4875  -2.2558  -2.5111 O.2            1 S1                 0.0000
     11 ****        -0.6627  -1.4296  -0.4053 N.am           1 S1                 0.0000
     12 ****         0.7401  -1.4909  -0.0050 C.3            1 S1                 0.0000
     13 ****         0.9508  -2.7436   0.8620 C.3            1 S1                 0.0000
     14 ****         1.1097  -0.1760   0.7253 C.3            1 S1                 0.0000
     15 ****         0.8440   1.0989  -0.1172 C.3            1 S1                 0.0000
     16 ****         2.1930   1.8368  -0.0790 C.3            1 S1                 0.0000
     17 ****         2.4487   2.3701   1.3421 C.3            1 S1                 0.0000
     18 ****         2.7690   1.0871   2.1313 C.3            1 S1                 0.0000
     19 ****         2.6128  -0.0162   1.0666 C.3            1 S1                 0.0000
     20 ****         3.1763   0.6778  -0.1693 C.3            1 S1                 0.0000
     21 ****        -3.3115  -0.8309   1.0761 H              1 S1                 0.0000
     22 ****        -4.9488  -0.2751   0.7411 H              1 S1                 0.0000
     23 ****        -3.8391   0.7423   1.6561 H              1 S1                 0.0000
     24 ****        -3.2329  -2.0633  -1.1664 H              1 S1                 0.0000
     25 ****        -2.9164  -1.7407  -2.8504 H              1 S1                 0.0000
     26 ****        -1.3019  -1.0323   0.2676 H              1 S1                 0.0000
     27 ****         1.3701  -1.5809  -0.8914 H              1 S1                 0.0000
     28 ****         1.9984  -2.8814   1.1265 H              1 S1                 0.0000
     29 ****         0.6359  -3.6427   0.3312 H              1 S1                 0.0000
     30 ****         0.3774  -2.6877   1.7876 H              1 S1                 0.0000
     31 ****         0.5229  -0.1289   1.6442 H              1 S1                 0.0000
     32 ****         0.5915   0.8549  -1.1501 H              1 S1                 0.0000
     33 ****         0.0276   1.7000   0.2851 H              1 S1                 0.0000
     34 ****         2.2996   2.5931  -0.8571 H              1 S1                 0.0000
     35 ****         3.2998   3.0522   1.3565 H              1 S1                 0.0000
     36 ****         1.5850   2.9017   1.7435 H              1 S1                 0.0000
     37 ****         3.7919   1.1172   2.5087 H              1 S1                 0.0000
     38 ****         2.1047   0.9441   2.9843 H              1 S1                 0.0000
     39 ****         3.1208  -0.9398   1.3406 H              1 S1                 0.0000
     40 ****         3.0744   0.0923  -1.0844 H              1 S1                 0.0000
     41 ****         4.2179   0.9839  -0.0561 H              1 S1                 0.0000
     42 ****        -3.8551   2.6442   0.0605 LP             1 S1                 0.0000
     43 ****        -2.1999   2.8632  -1.8047 LP             1 S1                 0.0000
     44 ****        -3.6987   2.7174  -2.4363 LP             1 S1                 0.0000
     45 ****        -0.9103  -2.4619  -3.3936 LP             1 S1                 0.0000
     46 ****         0.4802  -2.4580  -2.3609 LP             1 S1                 0.0000
@<TRIPOS>BOND
    1    1    2 1     
    2    1   21 1     
    3    1   22 1     
    4    1   23 1     
    5    2    7 1     
    6    2    3 2     
    7    3    4 1     
    8    4    5 1     
    9    5    6 1     
   10    5    7 2     
   11    7    8 1     
   12    8    9 1     
   13    8   24 1     
   14    8   25 1     
   15    9   10 2     
   16    9   11 am    
   17   11   12 1     
   18   11   26 1     
   19   12   13 1     
   20   12   14 1     
   21   12   27 1     
   22   13   28 1     
   23   13   29 1     
   24   13   30 1     
   25   14   19 1     
   26   14   15 1     
   27   14   31 1     
   28   15   16 1     
   29   15   32 1     
   30   15   33 1     
   31   16   20 1     
   32   16   17 1     
   33   16   34 1     
   34   17   18 1     
   35   17   35 1     
   36   17   36 1     
   37   18   19 1     
   38   18   37 1     
   39   18   38 1     
   40   19   20 1     
   41   19   39 1     
   42   20   40 1     
   43   20   41 1     
   44    3   42 1     
   45    4   43 1     
   46    4   44 1     
   47   10   45 1     
   48   10   46 1     
@<TRIPOS>SUBSTRUCTURE
      1 S1             1
@<TRIPOS>SET
LONE_PAIRS      STATIC     ATOMS    <user>   **** ""
5 42 43 44 45 46
DONOR_HYDROGENS      STATIC     ATOMS    <user>   **** ""
1 26
ATOM$BLUE        STATIC     ATOMS    COLORGROUP SYSTEM
5 42 43 44 45 46
ATOM$RED        STATIC     ATOMS    COLORGROUP SYSTEM
1 26
