AV-unprocessed.smi:2655|AV-procd|sdf|10298|dock4
  -GOLD-   2272014313D 1   1.00000     0.00000
 Structure written by MMmdl.
 33 34  0  0  0  0  0  0  0  0  2 V2000
  144.1505  133.6919  150.2156 C   0  0  0  0  0  0  0  0  0  0  0  0
  145.4522  133.4465  150.9225 C   0  0  0  0  0  0  0  0  0  0  0  0
  146.3358  132.6124  150.3836 N   0  0  0  0  0  0  0  0  0  0  0  0
  147.3664  132.6146  151.2501 N   0  0  0  0  0  0  0  0  0  0  0  0
  147.1320  133.4415  152.3181 C   0  0  0  0  0  0  0  0  0  0  0  0
  148.0368  133.5850  153.3037 O   0  5  0  0  0  0  0  0  0  0  0  0
  145.9029  134.0119  152.1558 C   0  0  0  0  0  0  0  0  0  0  0  0
  145.1880  134.9873  153.0498 C   0  0  0  0  0  0  0  0  0  0  0  0
  146.0268  135.3224  154.2929 C   0  0  0  0  0  0  0  0  0  0  0  0
  147.1843  136.1406  153.9524 N   0  0  0  0  0  0  0  0  0  0  0  0
  147.7159  137.0879  154.7380 C   0  0  0  0  0  0  0  0  0  0  0  0
  147.2829  137.3638  155.8569 O   0  0  0  0  0  0  0  0  0  0  0  0
  148.7631  137.6806  154.1399 N   0  0  0  0  0  0  0  0  0  0  0  0
  149.5825  138.7291  154.6315 C   0  0  0  0  0  0  0  0  0  0  0  0
  149.1519  139.8453  155.4062 C   0  0  0  0  0  0  0  0  0  0  0  0
  150.3106  140.5390  155.6139 C   0  0  0  0  0  0  0  0  0  0  0  0
  150.6189  141.8045  156.3380 C   0  0  0  0  0  0  0  0  0  0  0  0
  151.3562  139.9042  155.0191 O   0  0  0  0  0  0  0  0  0  0  0  0
  150.8811  138.7459  154.3931 N   0  0  0  0  0  0  0  0  0  0  0  0
  143.3416  133.8549  150.9278 H   0  0  0  0  0  0  0  0  0  0  0  0
  143.8698  132.8457  149.5878 H   0  0  0  0  0  0  0  0  0  0  0  0
  144.2147  134.5737  149.5784 H   0  0  0  0  0  0  0  0  0  0  0  0
  148.1976  132.0609  151.1008 H   0  0  0  0  0  0  0  0  0  0  0  0
  144.2225  134.5840  153.3566 H   0  0  0  0  0  0  0  0  0  0  0  0
  144.9637  135.9065  152.5075 H   0  0  0  0  0  0  0  0  0  0  0  0
  145.4158  135.8266  155.0437 H   0  0  0  0  0  0  0  0  0  0  0  0
  146.3884  134.4026  154.7537 H   0  0  0  0  0  0  0  0  0  0  0  0
  147.6019  135.9791  153.0477 H   0  0  0  0  0  0  0  0  0  0  0  0
  148.9989  137.3458  153.2174 H   0  0  0  0  0  0  0  0  0  0  0  0
  148.1664  140.1087  155.7587 H   0  0  0  0  0  0  0  0  0  0  0  0
  149.7680  142.1265  156.9387 H   0  0  0  0  0  0  0  0  0  0  0  0
  150.8580  142.6023  155.6346 H   0  0  0  0  0  0  0  0  0  0  0  0
  151.4715  141.6722  157.0041 H   0  0  0  0  0  0  0  0  0  0  0  0
  1 20  1  0  0  0  0
  1 21  1  0  0  0  0
  1 22  1  0  0  0  0
  1  2  1  0  0  0  0
  2  7  1  0  0  0  0
  2  3  2  0  0  0  0
  3  4  1  0  0  0  0
  4 23  1  0  0  0  0
  4  5  1  0  0  0  0
  5  7  2  0  0  0  0
  5  6  1  0  0  0  0
  7  8  1  0  0  0  0
  8  9  1  0  0  0  0
  8 24  1  0  0  0  0
  8 25  1  0  0  0  0
  9 10  1  0  0  0  0
  9 26  1  0  0  0  0
  9 27  1  0  0  0  0
 10 11  1  0  0  0  0
 10 28  1  0  0  0  0
 11 12  2  0  0  0  0
 11 13  1  0  0  0  0
 13 14  1  0  0  0  0
 13 29  1  0  0  0  0
 14 19  2  0  0  0  0
 14 15  1  0  0  0  0
 15 16  2  0  0  0  0
 15 30  1  0  0  0  0
 16 17  1  0  0  0  0
 16 18  1  0  0  0  0
 17 31  1  0  0  0  0
 17 32  1  0  0  0  0
 17 33  1  0  0  0  0
 18 19  1  0  0  0  0
M  CHG  1   6  -1
M  END
> <s_m_source_file>
AV-unprocessed.smi

> <i_m_source_file_index>
2655

> <i_lp_mmshare_version>
43012

> <i_f3d_flags>
0

> <s_epik_input>
W0NIM11DMT1OW05IXUMoPU8pW0NASF0xW0NIMl1bQ0gyXVtOSF1DKD1PKVtOSF1jMltjSF1jKFtDSDNdKW9uMg==

> <s_epik_cmdline>
J2VwaWtfcHl0aG9uJywgJy1waCcsICc3LjAnLCAnLXRuJywgJzgnLCAnLW1hJywgJzIwMCcsICctbWV0YWxfYmluZGluZycsICctaW1hZScsICc8aW5maWxlLm1hZT4nLCAnLW9tYWUnLCAnPG91dGZpbGUubWFlPic=

> <r_lp_tautomer_probability>
0.99495

> <r_epik_Ionization_Penalty>
1.68606

> <r_epik_Ionization_Penalty_Charging>
0.00156442

> <r_epik_Ionization_Penalty_Neutral>
1.68449

> <r_epik_State_Penalty>
0.315845

> <r_epik_Charging_Adjusted_Penalty>
0.31741

> <i_epik_Tot_Q>
-1

> <i_epik_Tot_abs_Q>
1

> <r_epik_Metal_State_Penalty>
0.0445802

> <b_epik_Metal_Only>
0

> <s_lp_Force_Field>
OPLS_2005

> <r_lp_Energy>
-3.25288

> <b_lp_Chiralities_Consistent>
1

> <s_lp_Variant>
AV-unprocessed.smi:2655-1

> <Gold.Version>
5.8.1

> <Gold.Id.Protein>
6NUR|6NUR_protein|mol2

> <Gold.PLP.Fitness>
35.3769

> <Gold.PLP.PLP>
-24.3633

> <Gold.PLP.part.hbond>
-4.0637

> <Gold.PLP.part.metal>
0.0000

> <Gold.PLP.part.buried>
-6.2304

> <Gold.PLP.part.nonpolar>
-15.8475

> <Gold.PLP.part.repulsive>
0.6838

> <Gold.PLP.ligand.clash>
0.0000

> <Gold.PLP.ligand.torsion>
0.4891

> <Gold.PLP.Chemscore.Hbond>
3.9920

> <Gold.PLP.Chemscore.CHOScore>
0.0000

> <Gold.PLP.Chemscore.Metal>
0.0000

> <Gold.Chemscore.Hbonds>
donor molecule, donor type, donor heavy atom, donor atom, acceptor molecule, acceptor atom, score
      L1  H     4    23       P1 10747  1.00
      L1  H    10    28       P1  7948  1.00
      L1  H    13    29       P1  7948  1.00
      P1  H  7989  7998       L1    18  0.85

> <Gold.PLP.Chemscore.Internal.Correction>
0.0159

> <Gold.Rescore>
     Score         DG    S(hbond)    S(metal)    S(lipo)     H(rot)  DE(clash)    DE(int)     intcor
     14.06     -15.90       3.12        0.00      40.51       1.85       0.03       1.81       ----

> <Gold.Chemscore.Fitness>
14.0589

> <Gold.Chemscore.DG>
-15.8971

> <Gold.Chemscore.ZeroCoef>
-5.4800

> <Gold.Chemscore.Hbond>
3.1182

> <Gold.Chemscore.Metal>
0.0000

> <Gold.Chemscore.Lipo>
40.5072

> <Gold.Chemscore.Internal_Hbond>
0.0000

> <Gold.Chemscore.DEClash>
0.0265

> <Gold.Chemscore.DEInternal>
1.8117

> <Gold.Chemscore.Rot>
1.8504

> <Gold.Chemscore.Internal.Correction>
   9.000000E+99

> <Gold.Chemscore.Hbonds>
donor molecule, donor type, donor heavy atom, donor atom, acceptor molecule, acceptor atom, score
      L1  H     4    23       P1 10747  0.94
      L1  H    10    28       P1  7948  0.95
      L1  H    13    29       P1  7948  0.99
      P1  H  7989  7998       L1    18  0.07

> <Gold.Chemscore.Hbond.Weighted>
-10.4147

> <Gold.Chemscore.Metal.Weighted>
-0.0000

> <Gold.Chemscore.Lipo.Weighted>
-4.7393

> <Gold.Chemscore.Internal_Hbond.Weighted>
0.0000

> <Gold.Chemscore.DEClash.Weighted>
0.0265

> <Gold.Chemscore.DEInternal.Weighted>
1.8117

> <Gold.Chemscore.Rot.Weighted>
4.7369

> <Gold.Chemscore.Internal.Correction.Weighted>
   9.000000E+99

> <Gold.Protein.RotatedTorsions>
[ 6907 6896 6895 6894 ] final   55.61 input  -60.11 | X-H torsion
[ 7974 7965 7964 7962 ] final   46.13 input  175.53 | X-H torsion
[ 8008 7997 7996 7995 ] final -136.63 input   59.86 | X-H torsion
[ 10167 10162 10161 10158 ] final  146.04 input  -65.29 | X-H torsion
[ 10718 10713 10712 10709 ] final  -94.12 input   66.30 | X-H torsion
[ 10763 10752 10751 10750 ] final  -15.77 input  -60.55 | X-H torsion
[ 11005 11000 10999 10996 ] final  -72.35 input  -57.11 | X-H torsion

> <Gold.Protein.ActiveResidues>
 VAL166  LYS551  ARG553  GLY616  TRP617  ASP618  TYR619  PRO620  LYS621  CYS622 
 ASP623  PHE694  ASN695  SER759  ASP760  ASP761  ALA762  ILE779  LEU786  VAL792 
 PHE793  MET794  SER795  GLU796  ALA797  LYS798  CYS799  TRP800  GLU811  SER814 

> <Gold.Protein.RotatedAtoms>
  152.3556  134.6945  160.0222 H   0  0  0  0  0  0  0  0  0  0  0  0  # atno 6907 bound_to 6896
  151.7285  133.3311  159.3342 H   0  0  0  0  0  0  0  0  0  0  0  0  # atno 6908 bound_to 6896
  150.7569  134.6318  159.6235 H   0  0  0  0  0  0  0  0  0  0  0  0  # atno 6909 bound_to 6896
  146.0418  139.4889  142.9773 H   0  0  0  0  0  0  0  0  0  0  0  0  # atno 7974 bound_to 7965
  155.3984  140.0504  157.3038 H   0  0  0  0  0  0  0  0  0  0  0  0  # atno 8008 bound_to 7997
  154.5002  140.2154  155.9323 H   0  0  0  0  0  0  0  0  0  0  0  0  # atno 8009 bound_to 7997
  156.1458  140.3145  155.8573 H   0  0  0  0  0  0  0  0  0  0  0  0  # atno 8010 bound_to 7997
  139.4914  144.5858  151.6780 H   0  0  0  0  0  0  0  0  0  0  0  0  # atno 10167 bound_to 10162
  156.0022  130.5055  150.5879 H   0  0  0  0  0  0  0  0  0  0  0  0  # atno 10718 bound_to 10713
  153.5484  135.7012  153.5603 H   0  0  0  0  0  0  0  0  0  0  0  0  # atno 10763 bound_to 10752
  153.3538  135.3988  155.1666 H   0  0  0  0  0  0  0  0  0  0  0  0  # atno 10764 bound_to 10752
  154.8664  135.3772  154.4993 H   0  0  0  0  0  0  0  0  0  0  0  0  # atno 10765 bound_to 10752
  141.1607  133.6844  156.7046 H   0  0  0  0  0  0  0  0  0  0  0  0  # atno 11005 bound_to 11000
  145.6872  141.0174  143.1575 LP  0  0  0  0  0  0  0  0  0  0  0  0  # atno 17320 bound_to 7965
  144.7078  139.8490  143.7424 LP  0  0  0  0  0  0  0  0  0  0  0  0  # atno 17321 bound_to 7965
  140.5474  144.0481  150.6113 LP  0  0  0  0  0  0  0  0  0  0  0  0  # atno 17342 bound_to 10162
  140.3523  143.2956  152.0473 LP  0  0  0  0  0  0  0  0  0  0  0  0  # atno 17343 bound_to 10162
  157.3748  131.0771  151.1527 LP  0  0  0  0  0  0  0  0  0  0  0  0  # atno 17370 bound_to 10713
  157.2268  130.6507  149.5833 LP  0  0  0  0  0  0  0  0  0  0  0  0  # atno 17371 bound_to 10713
  140.2933  134.8223  157.4035 LP  0  0  0  0  0  0  0  0  0  0  0  0  # atno 17394 bound_to 11000
  140.1327  134.5074  155.8092 LP  0  0  0  0  0  0  0  0  0  0  0  0  # atno 17395 bound_to 11000

$$$$
