AV-unprocessed.smi:2448|AV-procd|sdf|9658|dock7
  -GOLD-   2272013293D 1   1.00000     0.00000
 Structure written by MMmdl.
 38 39  0  0  0  0  0  0  0  0  2 V2000
  149.8141  143.3476  159.3096 O   0  0  0  0  0  0  0  0  0  0  0  0
  151.0628  143.4970  158.6557 C   0  0  2  0  0  0  0  0  0  0  0  0
  151.0004  142.7243  157.3239 C   0  0  0  0  0  0  0  0  0  0  0  0
  149.6052  142.4605  156.9055 N   0  3  0  0  0  0  0  0  0  0  0  0
  149.4240  141.2862  156.0198 C   0  0  1  0  0  0  0  0  0  0  0  0
  149.6860  139.9706  156.7870 C   0  0  0  0  0  0  0  0  0  0  0  0
  150.3346  138.8927  155.9374 C   0  0  0  0  0  0  0  0  0  0  0  0
  151.5999  139.1023  155.3515 C   0  0  0  0  0  0  0  0  0  0  0  0
  152.1698  138.0597  154.5930 C   0  0  0  0  0  0  0  0  0  0  0  0
  151.5654  136.8675  154.4011 N   0  0  0  0  0  0  0  0  0  0  0  0
  150.3511  136.6759  154.9595 C   0  0  0  0  0  0  0  0  0  0  0  0
  149.6949  137.6520  155.7356 C   0  0  0  0  0  0  0  0  0  0  0  0
  148.0123  141.3135  155.4029 C   0  0  0  0  0  0  0  0  0  0  0  0
  147.7831  140.1689  154.7590 F   0  0  0  0  0  0  0  0  0  0  0  0
  147.0937  141.4483  156.3591 F   0  0  0  0  0  0  0  0  0  0  0  0
  147.8947  142.3234  154.5401 F   0  0  0  0  0  0  0  0  0  0  0  0
  152.1529  142.9490  159.5916 C   0  0  0  0  0  0  0  0  0  0  0  0
  152.3504  143.9612  160.7246 C   0  0  0  0  0  0  0  0  0  0  0  0
  152.0839  145.6126  160.0329 S   0  0  0  0  0  0  0  0  0  0  0  0
  151.3805  144.9930  158.4815 C   0  0  0  0  0  0  0  0  0  0  0  0
  149.3198  142.6721  158.8701 H   0  0  0  0  0  0  0  0  0  0  0  0
  151.4959  143.2926  156.5354 H   0  0  0  0  0  0  0  0  0  0  0  0
  151.5454  141.7852  157.4206 H   0  0  0  0  0  0  0  0  0  0  0  0
  149.0337  142.3344  157.7289 H   0  0  0  0  0  0  0  0  0  0  0  0
  150.1351  141.3553  155.1943 H   0  0  0  0  0  0  0  0  0  0  0  0
  150.3115  140.1627  157.6597 H   0  0  0  0  0  0  0  0  0  0  0  0
  148.7468  139.5726  157.1729 H   0  0  0  0  0  0  0  0  0  0  0  0
  152.1269  140.0364  155.4809 H   0  0  0  0  0  0  0  0  0  0  0  0
  153.1387  138.1851  154.1332 H   0  0  0  0  0  0  0  0  0  0  0  0
  149.8907  135.7142  154.7883 H   0  0  0  0  0  0  0  0  0  0  0  0
  148.7259  137.4457  156.1666 H   0  0  0  0  0  0  0  0  0  0  0  0
  151.9138  141.9559  159.9745 H   0  0  0  0  0  0  0  0  0  0  0  0
  153.0898  142.8567  159.0405 H   0  0  0  0  0  0  0  0  0  0  0  0
  151.6096  143.7978  161.5080 H   0  0  0  0  0  0  0  0  0  0  0  0
  153.3375  143.8817  161.1802 H   0  0  0  0  0  0  0  0  0  0  0  0
  152.1381  145.1265  157.7086 H   0  0  0  0  0  0  0  0  0  0  0  0
  150.5088  145.5787  158.1867 H   0  0  0  0  0  0  0  0  0  0  0  0
  149.2758  143.2786  156.4128 H   0  0  0  0  0  0  0  0  0  0  0  0
  1  2  1  0  0  0  0
  1 21  1  0  0  0  0
  2 20  1  0  0  0  0
  2  3  1  0  0  0  0
  2 17  1  0  0  0  0
  3  4  1  0  0  0  0
  3 22  1  0  0  0  0
  3 23  1  0  0  0  0
  4  5  1  0  0  0  0
  4 24  1  0  0  0  0
  4 38  1  0  0  0  0
  5  6  1  0  0  0  0
  5 13  1  0  0  0  0
  5 25  1  0  0  0  0
  6  7  1  0  0  0  0
  6 26  1  0  0  0  0
  6 27  1  0  0  0  0
  7 12  1  0  0  0  0
  7  8  2  0  0  0  0
  8  9  1  0  0  0  0
  8 28  1  0  0  0  0
  9 10  2  0  0  0  0
  9 29  1  0  0  0  0
 10 11  1  0  0  0  0
 11 12  2  0  0  0  0
 11 30  1  0  0  0  0
 12 31  1  0  0  0  0
 13 14  1  0  0  0  0
 13 15  1  0  0  0  0
 13 16  1  0  0  0  0
 17 18  1  0  0  0  0
 17 32  1  0  0  0  0
 17 33  1  0  0  0  0
 18 19  1  0  0  0  0
 18 34  1  0  0  0  0
 18 35  1  0  0  0  0
 19 20  1  0  0  0  0
 20 36  1  0  0  0  0
 20 37  1  0  0  0  0
M  CHG  1   4   1
M  END
> <s_m_source_file>
AV-unprocessed.smi

> <i_m_source_file_index>
2448

> <i_lp_mmshare_version>
43012

> <i_f3d_flags>
0

> <s_epik_input>
W0NIMl0xU1tDSDJdW0NIMl1bQ0BAXTEoW09IXSlbQ0gyXVtOSF1bQ0BASF0oQyhGKShGKUYpW0NIMl1jMltjSF1bY0hdbltjSF1bY0hdMg==

> <s_epik_cmdline>
J2VwaWtfcHl0aG9uJywgJy1waCcsICc3LjAnLCAnLXRuJywgJzgnLCAnLW1hJywgJzIwMCcsICctbWV0YWxfYmluZGluZycsICctaW1hZScsICc8aW5maWxlLm1hZT4nLCAnLW9tYWUnLCAnPG91dGZpbGUubWFlPic=

> <r_epik_Ionization_Penalty>
1.19945

> <r_epik_Ionization_Penalty_Charging>
1.19892

> <r_epik_Ionization_Penalty_Neutral>
0.000532129

> <r_epik_State_Penalty>
0.752927

> <r_epik_Charging_Adjusted_Penalty>
1.95185

> <i_epik_Tot_Q>
1

> <i_epik_Tot_abs_Q>
1

> <r_epik_Metal_State_Penalty>
0.804507

> <b_epik_Metal_Only>
0

> <s_lp_Force_Field>
OPLS_2005

> <r_lp_Energy>
23.5245

> <b_lp_Chiralities_Consistent>
1

> <s_lp_Variant>
AV-unprocessed.smi:2448-8

> <Gold.Version>
5.8.1

> <Gold.Id.Protein>
6NUR|6NUR_protein|mol2

> <Gold.PLP.Fitness>
47.0481

> <Gold.PLP.PLP>
-41.1236

> <Gold.PLP.part.hbond>
-2.7614

> <Gold.PLP.part.metal>
0.0000

> <Gold.PLP.part.buried>
-2.7896

> <Gold.PLP.part.nonpolar>
-35.8059

> <Gold.PLP.part.repulsive>
0.3643

> <Gold.PLP.ligand.clash>
0.0000

> <Gold.PLP.ligand.torsion>
1.6905

> <Gold.PLP.Chemscore.Hbond>
2.8960

> <Gold.PLP.Chemscore.CHOScore>
0.0000

> <Gold.PLP.Chemscore.Metal>
0.0000

> <Gold.Chemscore.Hbonds>
donor molecule, donor type, donor heavy atom, donor atom, acceptor molecule, acceptor atom, score
      L1  H     4    38       P1  8028  2.00
      P1  H 10752 10763       L1    10  1.00

> <Gold.PLP.Chemscore.Internal.Correction>
0.6176

> <Gold.Rescore>
     Score         DG    S(hbond)    S(metal)    S(lipo)     H(rot)  DE(clash)    DE(int)     intcor
     16.13     -18.51       1.90        0.00     109.21       2.39       0.73       1.65       ----

> <Gold.Chemscore.Fitness>
16.1271

> <Gold.Chemscore.DG>
-18.5058

> <Gold.Chemscore.ZeroCoef>
-5.4800

> <Gold.Chemscore.Hbond>
1.9034

> <Gold.Chemscore.Metal>
0.0000

> <Gold.Chemscore.Lipo>
109.2148

> <Gold.Chemscore.Internal_Hbond>
0.0000

> <Gold.Chemscore.DEClash>
0.7322

> <Gold.Chemscore.DEInternal>
1.6465

> <Gold.Chemscore.Rot>
2.3866

> <Gold.Chemscore.Internal.Correction>
   9.000000E+99

> <Gold.Chemscore.Hbonds>
donor molecule, donor type, donor heavy atom, donor atom, acceptor molecule, acceptor atom, score
      L1  H     4    38       P1  8028  1.00
      P1  H 10752 10763       L1    10  0.44

> <Gold.Chemscore.Hbond.Weighted>
-6.3573

> <Gold.Chemscore.Metal.Weighted>
-0.0000

> <Gold.Chemscore.Lipo.Weighted>
-12.7781

> <Gold.Chemscore.Internal_Hbond.Weighted>
0.0000

> <Gold.Chemscore.DEClash.Weighted>
0.7322

> <Gold.Chemscore.DEInternal.Weighted>
1.6465

> <Gold.Chemscore.Rot.Weighted>
6.1096

> <Gold.Chemscore.Internal.Correction.Weighted>
   9.000000E+99

> <Gold.Protein.RotatedTorsions>
[ 6907 6896 6895 6894 ] final   -0.13 input  -60.11 | X-H torsion
[ 7974 7965 7964 7962 ] final   82.60 input  175.53 | X-H torsion
[ 8008 7997 7996 7995 ] final  -89.12 input   59.86 | X-H torsion
[ 10167 10162 10161 10158 ] final   13.68 input  -65.29 | X-H torsion
[ 10718 10713 10712 10709 ] final  133.68 input   66.30 | X-H torsion
[ 10763 10752 10751 10750 ] final   32.62 input  -60.55 | X-H torsion
[ 11005 11000 10999 10996 ] final -127.83 input  -57.11 | X-H torsion

> <Gold.Protein.ActiveResidues>
 VAL166  LYS551  ARG553  GLY616  TRP617  ASP618  TYR619  PRO620  LYS621  CYS622 
 ASP623  PHE694  ASN695  SER759  ASP760  ASP761  ALA762  ILE779  LEU786  VAL792 
 PHE793  MET794  SER795  GLU796  ALA797  LYS798  CYS799  TRP800  GLU811  SER814 

> <Gold.Protein.RotatedAtoms>
  151.5672  135.1063  159.9986 H   0  0  0  0  0  0  0  0  0  0  0  0  # atno 6907 bound_to 6896
  152.4418  133.7458  159.6677 H   0  0  0  0  0  0  0  0  0  0  0  0  # atno 6908 bound_to 6896
  150.8325  133.7999  159.3116 H   0  0  0  0  0  0  0  0  0  0  0  0  # atno 6909 bound_to 6896
  145.6230  139.2389  143.2128 H   0  0  0  0  0  0  0  0  0  0  0  0  # atno 7974 bound_to 7965
  154.6828  140.0545  157.0284 H   0  0  0  0  0  0  0  0  0  0  0  0  # atno 8008 bound_to 7997
  155.0927  140.3221  155.4550 H   0  0  0  0  0  0  0  0  0  0  0  0  # atno 8009 bound_to 7997
  156.2700  140.2045  156.6054 H   0  0  0  0  0  0  0  0  0  0  0  0  # atno 8010 bound_to 7997
  140.5987  143.8650  150.6943 H   0  0  0  0  0  0  0  0  0  0  0  0  # atno 10167 bound_to 10162
  157.4748  131.1082  150.9757 H   0  0  0  0  0  0  0  0  0  0  0  0  # atno 10718 bound_to 10713
  153.0253  135.6408  154.1384 H   0  0  0  0  0  0  0  0  0  0  0  0  # atno 10763 bound_to 10752
  154.1113  135.2853  155.3231 H   0  0  0  0  0  0  0  0  0  0  0  0  # atno 10764 bound_to 10752
  154.6329  135.5486  153.7764 H   0  0  0  0  0  0  0  0  0  0  0  0  # atno 10765 bound_to 10752
  140.9567  134.0992  157.4009 H   0  0  0  0  0  0  0  0  0  0  0  0  # atno 11005 bound_to 11000
  146.1416  140.7049  142.9364 LP  0  0  0  0  0  0  0  0  0  0  0  0  # atno 17320 bound_to 7965
  144.7224  140.4415  143.6998 LP  0  0  0  0  0  0  0  0  0  0  0  0  # atno 17321 bound_to 7965
  140.2190  143.3824  152.1658 LP  0  0  0  0  0  0  0  0  0  0  0  0  # atno 17342 bound_to 10162
  139.5276  144.7121  151.5174 LP  0  0  0  0  0  0  0  0  0  0  0  0  # atno 17343 bound_to 10162
  157.0510  130.5787  149.5370 LP  0  0  0  0  0  0  0  0  0  0  0  0  # atno 17370 bound_to 10713
  156.0091  130.5181  150.7930 LP  0  0  0  0  0  0  0  0  0  0  0  0  # atno 17371 bound_to 10713
  139.8864  135.0081  156.6499 LP  0  0  0  0  0  0  0  0  0  0  0  0  # atno 17394 bound_to 11000
  140.7526  133.8885  155.8358 LP  0  0  0  0  0  0  0  0  0  0  0  0  # atno 17395 bound_to 11000

$$$$
