AV-unprocessed.smi:1570|AV-procd|sdf|6317|dock1
  -GOLD-   22720 6523D 1   1.00000     0.00000
 Structure written by MMmdl.
 51 53  0  0  0  0  0  0  0  0  1 V2000
  145.0582  135.4806  162.6802 C   0  0  0  0  0  0  0  0  0  0  0  0
  146.5217  135.0466  162.8281 C   0  0  0  0  0  0  0  0  0  0  0  0
  147.1748  134.9390  161.5259 N   0  0  0  0  0  0  0  0  0  0  0  0
  147.5653  135.9634  160.7316 C   0  0  0  0  0  0  0  0  0  0  0  0
  147.4468  137.1622  160.9855 O   0  0  0  0  0  0  0  0  0  0  0  0
  148.1042  135.4403  159.6053 N   0  0  0  0  0  0  0  0  0  0  0  0
  148.6478  136.1876  158.4733 C   0  0  0  0  0  0  0  0  0  0  0  0
  149.7036  137.2219  158.9194 C   0  0  1  0  0  0  0  0  0  0  0  0
  150.3814  136.7696  160.0743 O   0  0  0  0  0  0  0  0  0  0  0  0
  150.7388  137.5633  157.8230 C   0  0  0  0  0  0  0  0  0  0  0  0
  150.3424  138.5736  156.8377 N   0  0  0  0  0  0  0  0  0  0  0  0
  150.7513  138.2359  155.4760 C   0  0  0  0  0  0  0  0  0  0  0  0
  150.3457  139.3118  154.4488 C   0  0  1  0  0  0  0  0  0  0  0  0
  148.8403  139.3101  154.1325 C   0  0  0  0  0  0  0  0  0  0  0  0
  150.7977  140.5992  154.8717 O   0  0  0  0  0  0  0  0  0  0  0  0
  150.4215  140.9702  156.1967 C   0  0  2  0  0  0  0  0  0  0  0  0
  151.0476  142.3335  156.5079 C   0  0  0  0  0  0  0  0  0  0  0  0
  150.8843  139.8816  157.1812 C   0  0  0  0  0  0  0  0  0  0  0  0
  148.0537  134.0409  159.6786 C   0  0  0  0  0  0  0  0  0  0  0  0
  148.4794  133.0498  158.7767 C   0  0  0  0  0  0  0  0  0  0  0  0
  148.2765  131.7019  159.1540 C   0  0  0  0  0  0  0  0  0  0  0  0
  147.6675  131.3777  160.3942 C   0  0  0  0  0  0  0  0  0  0  0  0
  147.2506  132.3948  161.2846 C   0  0  0  0  0  0  0  0  0  0  0  0
  147.4661  133.7257  160.8861 C   0  0  0  0  0  0  0  0  0  0  0  0
  144.5758  135.5559  163.6547 H   0  0  0  0  0  0  0  0  0  0  0  0
  144.4927  134.7640  162.0841 H   0  0  0  0  0  0  0  0  0  0  0  0
  144.9823  136.4545  162.1957 H   0  0  0  0  0  0  0  0  0  0  0  0
  147.0580  135.7603  163.4551 H   0  0  0  0  0  0  0  0  0  0  0  0
  146.5773  134.0890  163.3459 H   0  0  0  0  0  0  0  0  0  0  0  0
  149.0507  135.5091  157.7209 H   0  0  0  0  0  0  0  0  0  0  0  0
  147.8186  136.7043  157.9869 H   0  0  0  0  0  0  0  0  0  0  0  0
  149.2073  138.1532  159.1955 H   0  0  0  0  0  0  0  0  0  0  0  0
  150.0070  137.2001  160.8276 H   0  0  0  0  0  0  0  0  0  0  0  0
  151.6183  137.9402  158.3471 H   0  0  0  0  0  0  0  0  0  0  0  0
  151.0725  136.6537  157.3209 H   0  0  0  0  0  0  0  0  0  0  0  0
  151.8344  138.1074  155.4455 H   0  0  0  0  0  0  0  0  0  0  0  0
  150.3196  137.2843  155.1702 H   0  0  0  0  0  0  0  0  0  0  0  0
  150.8660  139.0962  153.5152 H   0  0  0  0  0  0  0  0  0  0  0  0
  148.5355  138.3536  153.7073 H   0  0  0  0  0  0  0  0  0  0  0  0
  148.5948  140.0870  153.4082 H   0  0  0  0  0  0  0  0  0  0  0  0
  148.2335  139.4776  155.0220 H   0  0  0  0  0  0  0  0  0  0  0  0
  149.3369  141.0716  156.2501 H   0  0  0  0  0  0  0  0  0  0  0  0
  150.7830  142.6658  157.5119 H   0  0  0  0  0  0  0  0  0  0  0  0
  150.6999  143.0911  155.8054 H   0  0  0  0  0  0  0  0  0  0  0  0
  152.1354  142.2932  156.4437 H   0  0  0  0  0  0  0  0  0  0  0  0
  150.5712  140.1571  158.1891 H   0  0  0  0  0  0  0  0  0  0  0  0
  151.9747  139.8378  157.1951 H   0  0  0  0  0  0  0  0  0  0  0  0
  148.9434  133.3011  157.8346 H   0  0  0  0  0  0  0  0  0  0  0  0
  148.5885  130.9097  158.4895 H   0  0  0  0  0  0  0  0  0  0  0  0
  147.5207  130.3417  160.6623 H   0  0  0  0  0  0  0  0  0  0  0  0
  146.7861  132.1541  162.2293 H   0  0  0  0  0  0  0  0  0  0  0  0
  1  2  1  0  0  0  0
  1 25  1  0  0  0  0
  1 26  1  0  0  0  0
  1 27  1  0  0  0  0
  2  3  1  0  0  0  0
  2 28  1  0  0  0  0
  2 29  1  0  0  0  0
  3 24  1  0  0  0  0
  3  4  1  0  0  0  0
  4  5  2  0  0  0  0
  4  6  1  0  0  0  0
  6  7  1  0  0  0  0
  6 19  1  0  0  0  0
  7  8  1  0  0  0  0
  7 30  1  0  0  0  0
  7 31  1  0  0  0  0
  8  9  1  0  0  0  0
  8 10  1  0  0  0  0
  8 32  1  0  0  0  0
  9 33  1  0  0  0  0
 10 11  1  0  0  0  0
 10 34  1  0  0  0  0
 10 35  1  0  0  0  0
 11 18  1  0  0  0  0
 11 12  1  0  0  0  0
 12 13  1  0  0  0  0
 12 36  1  0  0  0  0
 12 37  1  0  0  0  0
 13 14  1  0  0  0  0
 13 15  1  0  0  0  0
 13 38  1  0  0  0  0
 14 39  1  0  0  0  0
 14 40  1  0  0  0  0
 14 41  1  0  0  0  0
 15 16  1  0  0  0  0
 16 17  1  0  0  0  0
 16 18  1  0  0  0  0
 16 42  1  0  0  0  0
 17 43  1  0  0  0  0
 17 44  1  0  0  0  0
 17 45  1  0  0  0  0
 18 46  1  0  0  0  0
 18 47  1  0  0  0  0
 19 24  2  0  0  0  0
 19 20  1  0  0  0  0
 20 21  2  0  0  0  0
 20 48  1  0  0  0  0
 21 22  1  0  0  0  0
 21 49  1  0  0  0  0
 22 23  2  0  0  0  0
 22 50  1  0  0  0  0
 23 24  1  0  0  0  0
 23 51  1  0  0  0  0
M  END
> <s_m_source_file>
AV-unprocessed.smi

> <i_m_source_file_index>
1570

> <i_lp_mmshare_version>
43012

> <i_f3d_flags>
0

> <s_epik_input>
W2NIXTFbY0hdW2NIXVtjSF1jKGMxMiluKFtDSDJdW0NIM10pYyg9TyluMltDSDJdW0NASF0oW09IXSlbQ0gyXU4zW0NIMl1bQ0BASF0oW0NIM10pT1tDQEBIXShbQ0gzXSlbQ0gyXTM=

> <s_epik_cmdline>
J2VwaWtfcHl0aG9uJywgJy1waCcsICc3LjAnLCAnLXRuJywgJzgnLCAnLW1hJywgJzIwMCcsICctbWV0YWxfYmluZGluZycsICctaW1hZScsICc8aW5maWxlLm1hZT4nLCAnLW9tYWUnLCAnPG91dGZpbGUubWFlPic=

> <r_epik_Ionization_Penalty>
0.214359

> <r_epik_Ionization_Penalty_Charging>
2.30976e-09

> <r_epik_Ionization_Penalty_Neutral>
0.214359

> <r_epik_State_Penalty>
0.204533

> <r_epik_Charging_Adjusted_Penalty>
0.204533

> <i_epik_Tot_Q>
0

> <i_epik_Tot_abs_Q>
0

> <r_epik_Metal_State_Penalty>
0.204533

> <b_epik_Metal_Only>
0

> <s_lp_Force_Field>
OPLS_2005

> <r_lp_Energy>
65.1855

> <b_lp_Chiralities_Consistent>
1

> <s_lp_Variant>
AV-unprocessed.smi:1570-6

> <Gold.Version>
5.8.1

> <Gold.Id.Protein>
6NUR|6NUR_protein|mol2

> <Gold.PLP.Fitness>
45.4550

> <Gold.PLP.PLP>
-36.8344

> <Gold.PLP.part.hbond>
-4.4679

> <Gold.PLP.part.metal>
0.0000

> <Gold.PLP.part.buried>
-2.4604

> <Gold.PLP.part.nonpolar>
-30.0799

> <Gold.PLP.part.repulsive>
0.0868

> <Gold.PLP.ligand.clash>
0.0000

> <Gold.PLP.ligand.torsion>
1.3970

> <Gold.PLP.Chemscore.Hbond>
3.7862

> <Gold.PLP.Chemscore.CHOScore>
0.0000

> <Gold.PLP.Chemscore.Metal>
0.0000

> <Gold.Chemscore.Hbonds>
donor molecule, donor type, donor heavy atom, donor atom, acceptor molecule, acceptor atom, score
      P1  H  6896  6909       L1     9  1.00
      P1  H  6931  6943       L1     5  0.63
      P1  H  6934  6947       L1     5  1.00
      P1  H  7989  7998       L1    15  0.68

> <Gold.PLP.Chemscore.Internal.Correction>
0.0559

> <Gold.Rescore>
     Score         DG    S(hbond)    S(metal)    S(lipo)     H(rot)  DE(clash)    DE(int)     intcor
     21.63     -22.92       3.57        0.00      92.19       2.06       0.22       1.08       ----

> <Gold.Chemscore.Fitness>
21.6280

> <Gold.Chemscore.DG>
-22.9240

> <Gold.Chemscore.ZeroCoef>
-5.4800

> <Gold.Chemscore.Hbond>
3.5702

> <Gold.Chemscore.Metal>
0.0000

> <Gold.Chemscore.Lipo>
92.1916

> <Gold.Chemscore.Internal_Hbond>
0.0000

> <Gold.Chemscore.DEClash>
0.2178

> <Gold.Chemscore.DEInternal>
1.0781

> <Gold.Chemscore.Rot>
2.0574

> <Gold.Chemscore.Internal.Correction>
   9.000000E+99

> <Gold.Chemscore.Hbonds>
donor molecule, donor type, donor heavy atom, donor atom, acceptor molecule, acceptor atom, score
      P1  H  6896  6909       L1     9  0.88
      P1  H  6931  6943       L1     5  0.62
      P1  H  6934  6947       L1     5  0.96
      P1  H  7989  7998       L1    15  0.07

> <Gold.Chemscore.Hbond.Weighted>
-11.9244

> <Gold.Chemscore.Metal.Weighted>
-0.0000

> <Gold.Chemscore.Lipo.Weighted>
-10.7864

> <Gold.Chemscore.Internal_Hbond.Weighted>
0.0000

> <Gold.Chemscore.DEClash.Weighted>
0.2178

> <Gold.Chemscore.DEInternal.Weighted>
1.0781

> <Gold.Chemscore.Rot.Weighted>
5.2669

> <Gold.Chemscore.Internal.Correction.Weighted>
   9.000000E+99

> <Gold.Protein.RotatedTorsions>
[ 6907 6896 6895 6894 ] final   93.78 input  -60.11 | X-H torsion
[ 7974 7965 7964 7962 ] final  -65.14 input  175.53 | X-H torsion
[ 8008 7997 7996 7995 ] final -150.47 input   59.86 | X-H torsion
[ 10167 10162 10161 10158 ] final -158.05 input  -65.29 | X-H torsion
[ 10718 10713 10712 10709 ] final  -39.85 input   66.30 | X-H torsion
[ 10763 10752 10751 10750 ] final  -29.43 input  -60.55 | X-H torsion
[ 11005 11000 10999 10996 ] final -133.90 input  -57.11 | X-H torsion

> <Gold.Protein.ActiveResidues>
 VAL166  LYS551  ARG553  GLY616  TRP617  ASP618  TYR619  PRO620  LYS621  CYS622 
 ASP623  PHE694  ASN695  SER759  ASP760  ASP761  ALA762  ILE779  LEU786  VAL792 
 PHE793  MET794  SER795  GLU796  ALA797  LYS798  CYS799  TRP800  GLU811  SER814 

> <Gold.Protein.RotatedAtoms>
  152.5451  134.1295  159.8432 H   0  0  0  0  0  0  0  0  0  0  0  0  # atno 6907 bound_to 6896
  151.1343  133.5008  159.2606 H   0  0  0  0  0  0  0  0  0  0  0  0  # atno 6908 bound_to 6896
  151.1642  135.0297  159.8778 H   0  0  0  0  0  0  0  0  0  0  0  0  # atno 6909 bound_to 6896
  145.7580  140.8876  143.0445 H   0  0  0  0  0  0  0  0  0  0  0  0  # atno 7974 bound_to 7965
  155.6240  140.0684  157.2669 H   0  0  0  0  0  0  0  0  0  0  0  0  # atno 8008 bound_to 7997
  154.4222  140.1779  156.1451 H   0  0  0  0  0  0  0  0  0  0  0  0  # atno 8009 bound_to 7997
  155.9986  140.3338  155.6827 H   0  0  0  0  0  0  0  0  0  0  0  0  # atno 8010 bound_to 7997
  139.6723  143.9724  152.2290 H   0  0  0  0  0  0  0  0  0  0  0  0  # atno 10167 bound_to 10162
  156.2879  130.4225  149.8269 H   0  0  0  0  0  0  0  0  0  0  0  0  # atno 10718 bound_to 10713
  153.7645  135.6917  153.4919 H   0  0  0  0  0  0  0  0  0  0  0  0  # atno 10763 bound_to 10752
  153.1916  135.4469  155.0155 H   0  0  0  0  0  0  0  0  0  0  0  0  # atno 10764 bound_to 10752
  154.8141  135.3390  154.7158 H   0  0  0  0  0  0  0  0  0  0  0  0  # atno 10765 bound_to 10752
  140.9039  134.1655  157.4440 H   0  0  0  0  0  0  0  0  0  0  0  0  # atno 11005 bound_to 11000
  144.6836  139.9683  143.7481 LP  0  0  0  0  0  0  0  0  0  0  0  0  # atno 17320 bound_to 7965
  146.0292  139.3320  143.0765 LP  0  0  0  0  0  0  0  0  0  0  0  0  # atno 17321 bound_to 7965
  139.9492  144.6631  150.8189 LP  0  0  0  0  0  0  0  0  0  0  0  0  # atno 17342 bound_to 10162
  140.7622  143.3193  151.2658 LP  0  0  0  0  0  0  0  0  0  0  0  0  # atno 17343 bound_to 10162
  156.5692  130.8417  151.3351 LP  0  0  0  0  0  0  0  0  0  0  0  0  # atno 17370 bound_to 10713
  157.7334  130.9730  150.1975 LP  0  0  0  0  0  0  0  0  0  0  0  0  # atno 17371 bound_to 10713
  139.8746  134.9909  156.5524 LP  0  0  0  0  0  0  0  0  0  0  0  0  # atno 17394 bound_to 11000
  140.8195  133.8365  155.8883 LP  0  0  0  0  0  0  0  0  0  0  0  0  # atno 17395 bound_to 11000

$$$$
