AV-unprocessed.smi:2488|AV-procd|sdf|9793|dock5
  -GOLD-   2272013433D 1   1.00000     0.00000
 Structure written by MMmdl.
 33 34  0  0  0  0  0  0  0  0  1 V2000
  145.4594  143.5977  154.3371 C   0  0  0  0  0  0  0  0  0  0  0  0
  146.4346  142.5640  153.7628 C   0  0  0  0  0  0  0  0  0  0  0  0
  146.8217  141.5095  154.7830 C   0  0  0  0  0  0  0  0  0  0  0  0
  145.8091  140.8745  155.4141 N   0  0  0  0  0  0  0  0  0  0  0  0
  146.1484  139.9532  156.3185 C   0  0  0  0  0  0  0  0  0  0  0  0
  147.3858  139.5937  156.6671 N   0  0  0  0  0  0  0  0  0  0  0  0
  148.4154  140.2284  156.0533 C   0  0  0  0  0  0  0  0  0  0  0  0
  149.7387  139.8714  156.3831 N   0  0  0  0  0  0  0  0  0  0  0  0
  150.3659  140.8982  157.2114 C   0  0  0  0  0  0  0  0  0  0  0  0
  151.7324  140.4217  157.7242 C   0  0  0  0  0  0  0  0  0  0  0  0
  152.5434  140.0549  156.6163 O   0  0  0  0  0  0  0  0  0  0  0  0
  151.9795  138.9668  155.8940 C   0  0  0  0  0  0  0  0  0  0  0  0
  150.6025  139.3586  155.3078 C   0  0  1  0  0  0  0  0  0  0  0  0
  150.0364  138.1422  154.5518 C   0  0  0  0  0  0  0  0  0  0  0  0
  149.7484  138.3120  153.2590 N   0  0  0  0  0  0  0  0  0  0  0  0
  149.8732  137.0640  155.1210 O   0  0  0  0  0  0  0  0  0  0  0  0
  148.1722  141.2164  155.0715 C   0  0  0  0  0  0  0  0  0  0  0  0
  149.1873  141.8608  154.4452 F   0  0  0  0  0  0  0  0  0  0  0  0
  145.1975  144.3437  153.5868 H   0  0  0  0  0  0  0  0  0  0  0  0
  145.8982  144.1200  155.1878 H   0  0  0  0  0  0  0  0  0  0  0  0
  144.5361  143.1251  154.6735 H   0  0  0  0  0  0  0  0  0  0  0  0
  145.9850  142.0739  152.8984 H   0  0  0  0  0  0  0  0  0  0  0  0
  147.3308  143.0650  153.3960 H   0  0  0  0  0  0  0  0  0  0  0  0
  145.3380  139.4440  156.8184 H   0  0  0  0  0  0  0  0  0  0  0  0
  150.4880  141.8102  156.6246 H   0  0  0  0  0  0  0  0  0  0  0  0
  149.7312  141.1502  158.0621 H   0  0  0  0  0  0  0  0  0  0  0  0
  152.2266  141.2208  158.2769 H   0  0  0  0  0  0  0  0  0  0  0  0
  151.6225  139.5796  158.4097 H   0  0  0  0  0  0  0  0  0  0  0  0
  152.6705  138.6956  155.0948 H   0  0  0  0  0  0  0  0  0  0  0  0
  151.8992  138.0964  156.5486 H   0  0  0  0  0  0  0  0  0  0  0  0
  150.7624  140.1678  154.5924 H   0  0  0  0  0  0  0  0  0  0  0  0
  149.3787  137.5432  152.7193 H   0  0  0  0  0  0  0  0  0  0  0  0
  149.9059  139.2099  152.8250 H   0  0  0  0  0  0  0  0  0  0  0  0
  1  2  1  0  0  0  0
  1 19  1  0  0  0  0
  1 20  1  0  0  0  0
  1 21  1  0  0  0  0
  2  3  1  0  0  0  0
  2 22  1  0  0  0  0
  2 23  1  0  0  0  0
  3 17  1  0  0  0  0
  3  4  2  0  0  0  0
  4  5  1  0  0  0  0
  5  6  2  0  0  0  0
  5 24  1  0  0  0  0
  6  7  1  0  0  0  0
  7  8  1  0  0  0  0
  7 17  2  0  0  0  0
  8 13  1  0  0  0  0
  8  9  1  0  0  0  0
  9 10  1  0  0  0  0
  9 25  1  0  0  0  0
  9 26  1  0  0  0  0
 10 11  1  0  0  0  0
 10 27  1  0  0  0  0
 10 28  1  0  0  0  0
 11 12  1  0  0  0  0
 12 13  1  0  0  0  0
 12 29  1  0  0  0  0
 12 30  1  0  0  0  0
 13 14  1  0  0  0  0
 13 31  1  0  0  0  0
 14 15  1  0  0  0  0
 14 16  2  0  0  0  0
 15 32  1  0  0  0  0
 15 33  1  0  0  0  0
 17 18  1  0  0  0  0
M  END
> <s_m_source_file>
AV-unprocessed.smi

> <i_m_source_file_index>
2488

> <i_lp_mmshare_version>
43012

> <i_f3d_flags>
0

> <s_epik_input>
W0NIM11bQ0gyXWMxbltjSF1uYyhjMUYpTjJbQ0gyXVtDSDJdT1tDSDJdW0NASF0yQyg9TylbTkgyXQ==

> <s_epik_cmdline>
J2VwaWtfcHl0aG9uJywgJy1waCcsICc3LjAnLCAnLXRuJywgJzgnLCAnLW1hJywgJzIwMCcsICctbWV0YWxfYmluZGluZycsICctaW1hZScsICc8aW5maWxlLm1hZT4nLCAnLW9tYWUnLCAnPG91dGZpbGUubWFlPic=

> <r_lp_tautomer_probability>
1

> <r_epik_Ionization_Penalty>
2.73136e-05

> <r_epik_Ionization_Penalty_Charging>
0

> <r_epik_Ionization_Penalty_Neutral>
2.73136e-05

> <r_epik_State_Penalty>
-0

> <r_epik_Charging_Adjusted_Penalty>
0

> <i_epik_Tot_Q>
0

> <i_epik_Tot_abs_Q>
0

> <r_epik_Metal_State_Penalty>
-0

> <b_epik_Metal_Only>
0

> <s_lp_Force_Field>
OPLS_2005

> <r_lp_Energy>
12.1778

> <b_lp_Chiralities_Consistent>
1

> <s_lp_Variant>
AV-unprocessed.smi:2488-1

> <Gold.Version>
5.8.1

> <Gold.Id.Protein>
6NUR|6NUR_protein|mol2

> <Gold.PLP.Fitness>
32.5999

> <Gold.PLP.PLP>
-24.5733

> <Gold.PLP.part.hbond>
-3.3997

> <Gold.PLP.part.metal>
0.0000

> <Gold.PLP.part.buried>
0.7308

> <Gold.PLP.part.nonpolar>
-21.2229

> <Gold.PLP.part.repulsive>
0.3048

> <Gold.PLP.ligand.clash>
0.0000

> <Gold.PLP.ligand.torsion>
0.2662

> <Gold.PLP.Chemscore.Hbond>
2.7840

> <Gold.PLP.Chemscore.CHOScore>
0.0000

> <Gold.PLP.Chemscore.Metal>
0.0000

> <Gold.Chemscore.Hbonds>
donor molecule, donor type, donor heavy atom, donor atom, acceptor molecule, acceptor atom, score
      L1  H    15    32       P1  7948  1.00
      L1  H    15    33       P1  7957  0.75
      P1  H  7997  8009       L1    11  1.00

> <Gold.PLP.Chemscore.Internal.Correction>
0.2071

> <Gold.Rescore>
     Score         DG    S(hbond)    S(metal)    S(lipo)     H(rot)  DE(clash)    DE(int)     intcor
     13.49     -15.36       2.75        0.00      46.58       1.86       0.31       1.56       ----

> <Gold.Chemscore.Fitness>
13.4941

> <Gold.Chemscore.DG>
-15.3609

> <Gold.Chemscore.ZeroCoef>
-5.4800

> <Gold.Chemscore.Hbond>
2.7510

> <Gold.Chemscore.Metal>
0.0000

> <Gold.Chemscore.Lipo>
46.5783

> <Gold.Chemscore.Internal_Hbond>
0.0000

> <Gold.Chemscore.DEClash>
0.3062

> <Gold.Chemscore.DEInternal>
1.5606

> <Gold.Chemscore.Rot>
1.8582

> <Gold.Chemscore.Internal.Correction>
   9.000000E+99

> <Gold.Chemscore.Hbonds>
donor molecule, donor type, donor heavy atom, donor atom, acceptor molecule, acceptor atom, score
      L1  H    15    32       P1  7948  0.84
      L1  H    15    33       P1  7957  0.71
      P1  H  7997  8009       L1    11  0.67

> <Gold.Chemscore.Hbond.Weighted>
-9.1882

> <Gold.Chemscore.Metal.Weighted>
-0.0000

> <Gold.Chemscore.Lipo.Weighted>
-5.4497

> <Gold.Chemscore.Internal_Hbond.Weighted>
0.0000

> <Gold.Chemscore.DEClash.Weighted>
0.3062

> <Gold.Chemscore.DEInternal.Weighted>
1.5606

> <Gold.Chemscore.Rot.Weighted>
4.7570

> <Gold.Chemscore.Internal.Correction.Weighted>
   9.000000E+99

> <Gold.Protein.RotatedTorsions>
[ 6907 6896 6895 6894 ] final  -13.52 input  -60.11 | X-H torsion
[ 7974 7965 7964 7962 ] final  -62.71 input  175.53 | X-H torsion
[ 8008 7997 7996 7995 ] final -155.90 input   59.86 | X-H torsion
[ 10167 10162 10161 10158 ] final  -45.01 input  -65.29 | X-H torsion
[ 10718 10713 10712 10709 ] final   77.65 input   66.30 | X-H torsion
[ 10763 10752 10751 10750 ] final  -62.10 input  -60.55 | X-H torsion
[ 11005 11000 10999 10996 ] final  -21.14 input  -57.11 | X-H torsion

> <Gold.Protein.ActiveResidues>
 VAL166  LYS551  ARG553  GLY616  TRP617  ASP618  TYR619  PRO620  LYS621  CYS622 
 ASP623  PHE694  ASN695  SER759  ASP760  ASP761  ALA762  ILE779  LEU786  VAL792 
 PHE793  MET794  SER795  GLU796  ALA797  LYS798  CYS799  TRP800  GLU811  SER814 

> <Gold.Protein.RotatedAtoms>
  151.3536  135.0889  159.9411 H   0  0  0  0  0  0  0  0  0  0  0  0  # atno 6907 bound_to 6896
  152.5180  133.9327  159.7599 H   0  0  0  0  0  0  0  0  0  0  0  0  # atno 6908 bound_to 6896
  150.9708  133.6292  159.2768 H   0  0  0  0  0  0  0  0  0  0  0  0  # atno 6909 bound_to 6896
  145.7879  140.8726  143.0296 H   0  0  0  0  0  0  0  0  0  0  0  0  # atno 7974 bound_to 7965
  155.7089  140.0776  157.2379 H   0  0  0  0  0  0  0  0  0  0  0  0  # atno 8008 bound_to 7997
  154.4061  140.1633  156.2327 H   0  0  0  0  0  0  0  0  0  0  0  0  # atno 8009 bound_to 7997
  155.9301  140.3392  155.6245 H   0  0  0  0  0  0  0  0  0  0  0  0  # atno 8010 bound_to 7997
  140.6875  143.2901  151.3577 H   0  0  0  0  0  0  0  0  0  0  0  0  # atno 10167 bound_to 10162
  157.6718  130.9831  150.1672 H   0  0  0  0  0  0  0  0  0  0  0  0  # atno 10718 bound_to 10713
  154.2947  135.6246  153.5400 H   0  0  0  0  0  0  0  0  0  0  0  0  # atno 10763 bound_to 10752
  152.9848  135.5664  154.5351 H   0  0  0  0  0  0  0  0  0  0  0  0  # atno 10764 bound_to 10752
  154.4969  135.2870  155.1428 H   0  0  0  0  0  0  0  0  0  0  0  0  # atno 10765 bound_to 10752
  140.8533  133.7841  155.9990 H   0  0  0  0  0  0  0  0  0  0  0  0  # atno 11005 bound_to 11000
  144.6786  140.0082  143.7484 LP  0  0  0  0  0  0  0  0  0  0  0  0  # atno 17320 bound_to 7965
  146.0007  139.3088  143.0929 LP  0  0  0  0  0  0  0  0  0  0  0  0  # atno 17321 bound_to 7965
  139.6246  144.0839  152.2423 LP  0  0  0  0  0  0  0  0  0  0  0  0  # atno 17342 bound_to 10162
  140.0294  144.6092  150.7500 LP  0  0  0  0  0  0  0  0  0  0  0  0  # atno 17343 bound_to 10162
  156.2434  130.3693  149.8311 LP  0  0  0  0  0  0  0  0  0  0  0  0  # atno 17370 bound_to 10713
  156.6105  130.8584  151.3453 LP  0  0  0  0  0  0  0  0  0  0  0  0  # atno 17371 bound_to 10713
  140.8766  134.2662  157.5165 LP  0  0  0  0  0  0  0  0  0  0  0  0  # atno 17394 bound_to 11000
  139.8704  134.9594  156.4331 LP  0  0  0  0  0  0  0  0  0  0  0  0  # atno 17395 bound_to 11000

$$$$
