#       Name:                AV-unprocessed.smi:1285
#       Creating user name   scv26
#       Creation time:       Fri Mar 27 04:50:53 2020


#       File generated by GOLD software.
#

@<TRIPOS>MOLECULE
AV-unprocessed.smi:1285
    53    54     1
SMALL
NO_CHARGES


@<TRIPOS>ATOM
      1 ****        -2.7280  -2.0434   1.0255 C.3            1 S1                 0.0000
      2 ****        -1.3030  -1.4754   0.8933 C.3            1 S1                 0.0000
      3 ****        -1.0317  -0.6209  -0.3861 C.3            1 S1                 0.0000
      4 ****        -1.8887   0.6657  -0.2424 C.3            1 S1                 0.0000
      5 ****         0.4788  -0.2165  -0.3952 C.3            1 S1                 0.0000
      6 ****         0.9083   0.5019   0.8049 N.am           1 S1                 0.0000
      7 ****         1.1067   1.8265   0.9024 C.2            1 S1                 0.0000
      8 ****         0.9454   2.6045  -0.0384 O.2            1 S1                 0.0000
      9 ****         1.5486   2.3447   2.2793 C.3            1 S1                 0.0000
     10 ****         1.0387   3.7721   2.5655 C.3            1 S1                 0.0000
     11 ****         2.9951   2.2303   2.4190 N.pl3          1 S1                 0.0000
     12 ****         3.7301   1.2409   2.9322 C.2            1 S1                 0.0000
     13 ****         5.0377   1.4442   2.8554 N.2            1 S1                 0.0000
     14 ****         5.0429   2.6576   2.2277 C.2            1 S1                 0.0000
     15 ****         3.8472   3.1673   1.9328 N.2            1 S1                 0.0000
     16 ****        -1.4185  -1.3643  -1.6188 N.3            1 S1                 0.0000
     17 ****        -1.3356  -0.5944  -2.8659 C.3            1 S1                 0.0000
     18 ****        -1.8880  -1.3808  -4.0672 C.3            1 S1                 0.0000
     19 ****        -1.1947  -2.6167  -4.1923 O.3            1 S1                 0.0000
     20 ****        -1.2990  -3.4189  -3.0224 C.3            1 S1                 0.0000
     21 ****        -0.7356  -2.6486  -1.8163 C.3            1 S1                 0.0000
     22 ****        -2.8190  -2.6328   1.9378 H              1 S1                 0.0000
     23 ****        -2.9856  -2.6960   0.1914 H              1 S1                 0.0000
     24 ****        -3.4762  -1.2529   1.0762 H              1 S1                 0.0000
     25 ****        -1.1089  -0.8804   1.7864 H              1 S1                 0.0000
     26 ****        -0.5903  -2.2977   0.9569 H              1 S1                 0.0000
     27 ****        -1.8129   1.1001   0.7547 H              1 S1                 0.0000
     28 ****        -2.9455   0.4696  -0.4262 H              1 S1                 0.0000
     29 ****        -1.5766   1.4431  -0.9403 H              1 S1                 0.0000
     30 ****         1.1088  -1.1038  -0.4525 H              1 S1                 0.0000
     31 ****         0.7228   0.3727  -1.2793 H              1 S1                 0.0000
     32 ****         1.0635  -0.0575   1.6308 H              1 S1                 0.0000
     33 ****         1.1044   1.6911   3.0322 H              1 S1                 0.0000
     34 ****        -0.0487   3.8213   2.4971 H              1 S1                 0.0000
     35 ****         1.4453   4.5034   1.8657 H              1 S1                 0.0000
     36 ****         1.3165   4.0888   3.5712 H              1 S1                 0.0000
     37 ****         3.2992   0.3510   3.3673 H              1 S1                 0.0000
     38 ****         5.9550   3.1777   1.9746 H              1 S1                 0.0000
     39 ****        -1.8998   0.3335  -2.7903 H              1 S1                 0.0000
     40 ****        -0.3015  -0.3208  -3.0745 H              1 S1                 0.0000
     41 ****        -2.9570  -1.5651  -3.9500 H              1 S1                 0.0000
     42 ****        -1.7607  -0.8071  -4.9853 H              1 S1                 0.0000
     43 ****        -2.3407  -3.6947  -2.8520 H              1 S1                 0.0000
     44 ****        -0.7434  -4.3444  -3.1742 H              1 S1                 0.0000
     45 ****         0.3315  -2.4898  -1.9726 H              1 S1                 0.0000
     46 ****        -0.8357  -3.2847  -0.9389 H              1 S1                 0.0000
     47 ****         0.6523   2.2577  -0.9294 LP             1 S1                 0.0000
     48 ****         1.1073   3.5831   0.0886 LP             1 S1                 0.0000
     49 ****         5.7989   0.8750   3.1664 LP             1 S1                 0.0000
     50 ****         3.6319   4.0265   1.4687 LP             1 S1                 0.0000
     51 ****        -2.3824  -1.5473  -1.4250 LP             1 S1                 0.0000
     52 ****        -0.2285  -2.4266  -4.3660 LP             1 S1                 0.0000
     53 ****        -1.5788  -3.1234  -4.9641 LP             1 S1                 0.0000
@<TRIPOS>BOND
    1    1    2 1     
    2    1   22 1     
    3    1   23 1     
    4    1   24 1     
    5    2    3 1     
    6    2   25 1     
    7    2   26 1     
    8    3    4 1     
    9    3    5 1     
   10    3   16 1     
   11    4   27 1     
   12    4   28 1     
   13    4   29 1     
   14    5    6 1     
   15    5   30 1     
   16    5   31 1     
   17    6    7 am    
   18    6   32 1     
   19    7    8 2     
   20    7    9 1     
   21    9   10 1     
   22    9   11 1     
   23    9   33 1     
   24   10   34 1     
   25   10   35 1     
   26   10   36 1     
   27   11   15 1     
   28   11   12 1     
   29   12   13 2     
   30   12   37 1     
   31   13   14 1     
   32   14   15 2     
   33   14   38 1     
   34   16   21 1     
   35   16   17 1     
   36   17   18 1     
   37   17   39 1     
   38   17   40 1     
   39   18   19 1     
   40   18   41 1     
   41   18   42 1     
   42   19   20 1     
   43   20   21 1     
   44   20   43 1     
   45   20   44 1     
   46   21   45 1     
   47   21   46 1     
   48    8   47 1     
   49    8   48 1     
   50   13   49 1     
   51   15   50 1     
   52   16   51 1     
   53   19   52 1     
   54   19   53 1     
@<TRIPOS>SUBSTRUCTURE
      1 S1             1
@<TRIPOS>SET
LONE_PAIRS      STATIC     ATOMS    <user>   **** ""
7 47 48 49 50 51 52 53
DONOR_HYDROGENS      STATIC     ATOMS    <user>   **** ""
1 32
ATOM$BLUE        STATIC     ATOMS    COLORGROUP SYSTEM
7 47 48 49 50 51 52 53
ATOM$RED        STATIC     ATOMS    COLORGROUP SYSTEM
1 32
