AV-unprocessed.smi:1368|AV-procd|sdf|5577|dock3
  -GOLD-   22720 5173D 1   1.00000     0.00000
 Structure written by MMmdl.
 47 49  0  0  0  0  0  0  0  0  2 V2000
  149.1776  128.9610  154.5375 C   0  0  0  0  0  0  0  0  0  0  0  0
  149.8448  130.2668  154.9584 C   0  0  0  0  0  0  0  0  0  0  0  0
  151.0257  130.2545  155.3030 O   0  0  0  0  0  0  0  0  0  0  0  0
  149.0553  131.3571  154.9428 N   0  0  0  0  0  0  0  0  0  0  0  0
  149.3834  132.7032  155.2629 C   0  0  0  0  0  0  0  0  0  0  0  0
  148.6326  133.7163  154.6340 C   0  0  0  0  0  0  0  0  0  0  0  0
  148.9112  135.0732  154.8842 C   0  0  0  0  0  0  0  0  0  0  0  0
  149.9499  135.4479  155.7594 C   0  0  0  0  0  0  0  0  0  0  0  0
  150.1562  136.7982  155.9467 O   0  0  0  0  0  0  0  0  0  0  0  0
  151.3440  137.2109  156.6100 C   0  0  0  0  0  0  0  0  0  0  0  0
  151.5733  138.7068  156.3427 C   0  0  2  0  0  0  0  0  0  0  0  0
  152.9152  138.8886  155.9353 O   0  0  0  0  0  0  0  0  0  0  0  0
  151.3016  139.5587  157.5991 C   0  0  0  0  0  0  0  0  0  0  0  0
  151.1825  140.9964  157.3058 N   0  0  0  0  0  0  0  0  0  0  0  0
  150.4192  141.6376  156.3755 C   0  0  0  0  0  0  0  0  0  0  0  0
  149.4900  141.0032  155.3961 C   0  0  0  0  0  0  0  0  0  0  0  0
  150.6580  142.9729  156.5064 N   0  3  0  0  0  0  0  0  0  0  0  0
  151.5834  143.1888  157.5286 C   0  0  0  0  0  0  0  0  0  0  0  0
  152.1322  144.3670  158.0257 C   0  0  0  0  0  0  0  0  0  0  0  0
  153.0597  144.2376  159.0802 C   0  0  0  0  0  0  0  0  0  0  0  0
  153.4095  142.9742  159.5991 C   0  0  0  0  0  0  0  0  0  0  0  0
  152.8454  141.7869  159.0877 C   0  0  0  0  0  0  0  0  0  0  0  0
  151.9272  141.9229  158.0464 C   0  0  0  0  0  0  0  0  0  0  0  0
  150.7141  134.4300  156.3818 C   0  0  0  0  0  0  0  0  0  0  0  0
  150.4373  133.0717  156.1325 C   0  0  0  0  0  0  0  0  0  0  0  0
  148.3636  129.1415  153.8342 H   0  0  0  0  0  0  0  0  0  0  0  0
  148.7723  128.4475  155.4095 H   0  0  0  0  0  0  0  0  0  0  0  0
  149.8997  128.3008  154.0560 H   0  0  0  0  0  0  0  0  0  0  0  0
  148.0839  131.1918  154.7222 H   0  0  0  0  0  0  0  0  0  0  0  0
  147.8324  133.4565  153.9563 H   0  0  0  0  0  0  0  0  0  0  0  0
  148.3210  135.8357  154.3969 H   0  0  0  0  0  0  0  0  0  0  0  0
  151.2091  137.0539  157.6815 H   0  0  0  0  0  0  0  0  0  0  0  0
  152.2084  136.6242  156.2934 H   0  0  0  0  0  0  0  0  0  0  0  0
  150.9138  139.0401  155.5405 H   0  0  0  0  0  0  0  0  0  0  0  0
  153.1973  138.1096  155.4798 H   0  0  0  0  0  0  0  0  0  0  0  0
  150.3629  139.2487  158.0596 H   0  0  0  0  0  0  0  0  0  0  0  0
  152.0710  139.4057  158.3562 H   0  0  0  0  0  0  0  0  0  0  0  0
  149.0601  141.7536  154.7323 H   0  0  0  0  0  0  0  0  0  0  0  0
  148.6789  140.4990  155.9217 H   0  0  0  0  0  0  0  0  0  0  0  0
  150.0226  140.2700  154.7906 H   0  0  0  0  0  0  0  0  0  0  0  0
  151.8673  145.3359  157.6282 H   0  0  0  0  0  0  0  0  0  0  0  0
  153.5133  145.1249  159.4981 H   0  0  0  0  0  0  0  0  0  0  0  0
  154.1266  142.9134  160.4048 H   0  0  0  0  0  0  0  0  0  0  0  0
  153.1268  140.8246  159.4887 H   0  0  0  0  0  0  0  0  0  0  0  0
  151.5258  134.6634  157.0537 H   0  0  0  0  0  0  0  0  0  0  0  0
  151.0599  132.3321  156.6109 H   0  0  0  0  0  0  0  0  0  0  0  0
  150.2190  143.6838  155.9358 H   0  0  0  0  0  0  0  0  0  0  0  0
  1  2  1  0  0  0  0
  1 26  1  0  0  0  0
  1 27  1  0  0  0  0
  1 28  1  0  0  0  0
  2  3  2  0  0  0  0
  2  4  1  0  0  0  0
  4  5  1  0  0  0  0
  4 29  1  0  0  0  0
  5 25  1  0  0  0  0
  5  6  2  0  0  0  0
  6  7  1  0  0  0  0
  6 30  1  0  0  0  0
  7  8  2  0  0  0  0
  7 31  1  0  0  0  0
  8  9  1  0  0  0  0
  8 24  1  0  0  0  0
  9 10  1  0  0  0  0
 10 11  1  0  0  0  0
 10 32  1  0  0  0  0
 10 33  1  0  0  0  0
 11 12  1  0  0  0  0
 11 13  1  0  0  0  0
 11 34  1  0  0  0  0
 12 35  1  0  0  0  0
 13 14  1  0  0  0  0
 13 36  1  0  0  0  0
 13 37  1  0  0  0  0
 14 23  1  0  0  0  0
 14 15  1  0  0  0  0
 15 16  1  0  0  0  0
 15 17  2  0  0  0  0
 16 38  1  0  0  0  0
 16 39  1  0  0  0  0
 16 40  1  0  0  0  0
 17 18  1  0  0  0  0
 17 47  1  0  0  0  0
 18 23  2  0  0  0  0
 18 19  1  0  0  0  0
 19 20  2  0  0  0  0
 19 41  1  0  0  0  0
 20 21  1  0  0  0  0
 20 42  1  0  0  0  0
 21 22  2  0  0  0  0
 21 43  1  0  0  0  0
 22 23  1  0  0  0  0
 22 44  1  0  0  0  0
 24 25  2  0  0  0  0
 24 45  1  0  0  0  0
 25 46  1  0  0  0  0
M  CHG  1  17   1
M  END
> <s_m_source_file>
AV-unprocessed.smi

> <i_m_source_file_index>
1368

> <i_lp_mmshare_version>
43012

> <i_f3d_flags>
0

> <s_epik_input>
W0NIM11DKD1PKVtOSF1jMVtjSF1bY0hdYyhbY0hdW2NIXTEpT1tDSDJdW0NASF0oW09IXSlbQ0gyXW4oYyhuMilbQ0gzXSljKGMyMylbY0hdW2NIXVtjSF1bY0hdMw==

> <s_epik_cmdline>
J2VwaWtfcHl0aG9uJywgJy1waCcsICc3LjAnLCAnLXRuJywgJzgnLCAnLW1hJywgJzIwMCcsICctbWV0YWxfYmluZGluZycsICctaW1hZScsICc8aW5maWxlLm1hZT4nLCAnLW9tYWUnLCAnPG91dGZpbGUubWFlPic=

> <r_lp_tautomer_probability>
1

> <r_epik_Ionization_Penalty>
1.00673

> <r_epik_Ionization_Penalty_Charging>
1.00673

> <r_epik_Ionization_Penalty_Neutral>
2.60899e-06

> <r_epik_State_Penalty>
1.05579

> <r_epik_Charging_Adjusted_Penalty>
2.06252

> <i_epik_Tot_Q>
1

> <i_epik_Tot_abs_Q>
1

> <r_epik_Metal_State_Penalty>
1.15682

> <b_epik_Metal_Only>
0

> <s_lp_Force_Field>
OPLS_2005

> <r_lp_Energy>
25.0727

> <b_lp_Chiralities_Consistent>
1

> <s_lp_Variant>
AV-unprocessed.smi:1368-3

> <Gold.Version>
5.8.1

> <Gold.Id.Protein>
6NUR|6NUR_protein|mol2

> <Gold.PLP.Fitness>
56.0638

> <Gold.PLP.PLP>
-49.8195

> <Gold.PLP.part.hbond>
-2.0000

> <Gold.PLP.part.metal>
0.0000

> <Gold.PLP.part.buried>
-6.9924

> <Gold.PLP.part.nonpolar>
-42.0833

> <Gold.PLP.part.repulsive>
0.1772

> <Gold.PLP.ligand.clash>
0.0000

> <Gold.PLP.ligand.torsion>
1.2098

> <Gold.PLP.Chemscore.Hbond>
2.8560

> <Gold.PLP.Chemscore.CHOScore>
0.0000

> <Gold.PLP.Chemscore.Metal>
0.0000

> <Gold.Chemscore.Hbonds>
donor molecule, donor type, donor heavy atom, donor atom, acceptor molecule, acceptor atom, score
      L1  H    17    47       P1  8028  1.98
      P1  H  7997  8010       L1    12  1.00

> <Gold.PLP.Chemscore.Internal.Correction>
0.0959

> <Gold.Rescore>
     Score         DG    S(hbond)    S(metal)    S(lipo)     H(rot)  DE(clash)    DE(int)     intcor
     17.55     -19.90       1.86        0.00     124.11       2.47       0.17       2.18       ----

> <Gold.Chemscore.Fitness>
17.5495

> <Gold.Chemscore.DG>
-19.8994

> <Gold.Chemscore.ZeroCoef>
-5.4800

> <Gold.Chemscore.Hbond>
1.8640

> <Gold.Chemscore.Metal>
0.0000

> <Gold.Chemscore.Lipo>
124.1088

> <Gold.Chemscore.Internal_Hbond>
0.0000

> <Gold.Chemscore.DEClash>
0.1657

> <Gold.Chemscore.DEInternal>
2.1842

> <Gold.Chemscore.Rot>
2.4715

> <Gold.Chemscore.Internal.Correction>
   9.000000E+99

> <Gold.Chemscore.Hbonds>
donor molecule, donor type, donor heavy atom, donor atom, acceptor molecule, acceptor atom, score
      L1  H    17    47       P1  8028  0.94
      P1  H  7997  8010       L1    12  0.85

> <Gold.Chemscore.Hbond.Weighted>
-6.2257

> <Gold.Chemscore.Metal.Weighted>
-0.0000

> <Gold.Chemscore.Lipo.Weighted>
-14.5207

> <Gold.Chemscore.Internal_Hbond.Weighted>
0.0000

> <Gold.Chemscore.DEClash.Weighted>
0.1657

> <Gold.Chemscore.DEInternal.Weighted>
2.1842

> <Gold.Chemscore.Rot.Weighted>
6.3271

> <Gold.Chemscore.Internal.Correction.Weighted>
   9.000000E+99

> <Gold.Protein.RotatedTorsions>
[ 6907 6896 6895 6894 ] final   15.92 input  -60.11 | X-H torsion
[ 7974 7965 7964 7962 ] final  -37.60 input  175.53 | X-H torsion
[ 8008 7997 7996 7995 ] final   76.92 input   59.86 | X-H torsion
[ 10167 10162 10161 10158 ] final   37.22 input  -65.29 | X-H torsion
[ 10718 10713 10712 10709 ] final   39.37 input   66.30 | X-H torsion
[ 10763 10752 10751 10750 ] final -162.78 input  -60.55 | X-H torsion
[ 11005 11000 10999 10996 ] final   62.74 input  -57.11 | X-H torsion

> <Gold.Protein.ActiveResidues>
 VAL166  LYS551  ARG553  GLY616  TRP617  ASP618  TYR619  PRO620  LYS621  CYS622 
 ASP623  PHE694  ASN695  SER759  ASP760  ASP761  ALA762  ILE779  LEU786  VAL792 
 PHE793  MET794  SER795  GLU796  ALA797  LYS798  CYS799  TRP800  GLU811  SER814 

> <Gold.Protein.RotatedAtoms>
  151.8257  135.0637  160.0430 H   0  0  0  0  0  0  0  0  0  0  0  0  # atno 6907 bound_to 6896
  152.2918  133.5564  159.5570 H   0  0  0  0  0  0  0  0  0  0  0  0  # atno 6908 bound_to 6896
  150.7233  134.0334  159.3783 H   0  0  0  0  0  0  0  0  0  0  0  0  # atno 6909 bound_to 6896
  146.0560  140.6415  142.9019 H   0  0  0  0  0  0  0  0  0  0  0  0  # atno 7974 bound_to 7965
  155.8342  140.3465  155.5591 H   0  0  0  0  0  0  0  0  0  0  0  0  # atno 8008 bound_to 7997
  155.8210  140.0913  157.1869 H   0  0  0  0  0  0  0  0  0  0  0  0  # atno 8009 bound_to 7997
  154.4004  140.1430  156.3487 H   0  0  0  0  0  0  0  0  0  0  0  0  # atno 8010 bound_to 7997
  140.4053  144.1667  150.6136 H   0  0  0  0  0  0  0  0  0  0  0  0  # atno 10167 bound_to 10162
  157.3697  130.7695  149.7110 H   0  0  0  0  0  0  0  0  0  0  0  0  # atno 10718 bound_to 10713
  154.7183  135.3020  154.9089 H   0  0  0  0  0  0  0  0  0  0  0  0  # atno 10763 bound_to 10752
  153.9968  135.6712  153.4761 H   0  0  0  0  0  0  0  0  0  0  0  0  # atno 10764 bound_to 10752
  153.0812  135.5008  154.8422 H   0  0  0  0  0  0  0  0  0  0  0  0  # atno 10765 bound_to 10752
  140.0072  134.6352  155.9837 H   0  0  0  0  0  0  0  0  0  0  0  0  # atno 11005 bound_to 11000
  144.7148  140.4171  143.7052 LP  0  0  0  0  0  0  0  0  0  0  0  0  # atno 17320 bound_to 7965
  145.6642  139.1587  143.2791 LP  0  0  0  0  0  0  0  0  0  0  0  0  # atno 17321 bound_to 7965
  140.4696  143.2418  151.9107 LP  0  0  0  0  0  0  0  0  0  0  0  0  # atno 17342 bound_to 10162
  139.4783  144.5383  151.8565 LP  0  0  0  0  0  0  0  0  0  0  0  0  # atno 17343 bound_to 10162
  155.9753  130.4091  150.3859 LP  0  0  0  0  0  0  0  0  0  0  0  0  # atno 17370 bound_to 10713
  157.1948  131.0424  151.2681 LP  0  0  0  0  0  0  0  0  0  0  0  0  # atno 17371 bound_to 10713
  141.1685  133.6537  156.4566 LP  0  0  0  0  0  0  0  0  0  0  0  0  # atno 17394 bound_to 11000
  140.4620  134.6832  157.5090 LP  0  0  0  0  0  0  0  0  0  0  0  0  # atno 17395 bound_to 11000

$$$$
