AV-unprocessed.smi:1935|AV-procd|sdf|7828|dock1
  -GOLD-   22720 9573D 1   1.00000     0.00000
 Structure written by MMmdl.
 53 55  0  0  0  0  0  0  0  0  2 V2000
  149.7151  133.8540  155.6105 O   0  0  0  0  0  0  0  0  0  0  0  0
  149.3248  134.4652  154.6163 C   0  0  0  0  0  0  0  0  0  0  0  0
  149.5040  135.7815  154.4380 N   0  0  0  0  0  0  0  0  0  0  0  0
  150.1476  136.6721  155.3957 C   0  0  0  0  0  0  0  0  0  0  0  0
  150.4739  138.0435  154.7739 C   0  0  0  0  0  0  0  0  0  0  0  0
  150.4868  139.0970  155.7967 N   0  0  0  0  0  0  0  0  0  0  0  0
  149.3345  139.1351  156.7129 C   0  0  0  0  0  0  0  0  0  0  0  0
  149.6729  138.7059  158.1602 C   0  0  0  0  0  0  0  0  0  0  0  0
  151.1186  138.9615  158.6302 C   0  0  0  0  0  0  0  0  0  0  0  0
  151.6182  140.4099  158.4470 C   0  0  0  0  0  0  0  0  0  0  0  0
  151.4804  141.0124  157.0287 C   0  0  0  0  0  0  0  0  0  0  0  0
  151.5171  139.9735  155.8965 C   0  0  0  0  0  0  0  0  0  0  0  0
  152.4806  139.9663  155.1299 O   0  0  0  0  0  0  0  0  0  0  0  0
  148.6856  133.9151  153.5703 N   0  0  0  0  0  0  0  0  0  0  0  0
  148.3444  132.5474  153.3635 C   0  0  0  0  0  0  0  0  0  0  0  0
  149.0788  131.4876  153.9554 C   0  0  0  0  0  0  0  0  0  0  0  0
  148.6743  130.1544  153.7496 C   0  0  0  0  0  0  0  0  0  0  0  0
  147.5358  129.9001  152.9649 C   0  0  0  0  0  0  0  0  0  0  0  0
  146.8503  130.9304  152.4280 N   0  3  0  0  0  0  0  0  0  0  0  0
  147.1914  132.2324  152.5926 C   0  0  0  0  0  0  0  0  0  0  0  0
  146.4100  133.2264  151.9652 N   0  0  0  0  0  0  0  0  0  0  0  0
  146.3714  133.1247  150.5082 C   0  0  0  0  0  0  0  0  0  0  0  0
  144.9443  133.4799  150.0835 C   0  0  0  0  0  0  0  0  0  0  0  0
  144.1168  133.1376  151.3166 C   0  0  0  0  0  0  0  0  0  0  0  0
  145.0622  133.5079  152.4569 C   0  0  0  0  0  0  0  0  0  0  0  0
  149.1578  136.2024  153.5882 H   0  0  0  0  0  0  0  0  0  0  0  0
  149.4706  136.8017  156.2404 H   0  0  0  0  0  0  0  0  0  0  0  0
  151.0474  136.1981  155.7916 H   0  0  0  0  0  0  0  0  0  0  0  0
  151.4406  138.0102  154.2681 H   0  0  0  0  0  0  0  0  0  0  0  0
  149.7521  138.2722  153.9891 H   0  0  0  0  0  0  0  0  0  0  0  0
  148.9150  140.1413  156.7155 H   0  0  0  0  0  0  0  0  0  0  0  0
  148.5171  138.5123  156.3486 H   0  0  0  0  0  0  0  0  0  0  0  0
  148.9750  139.1907  158.8437 H   0  0  0  0  0  0  0  0  0  0  0  0
  149.4802  137.6368  158.2561 H   0  0  0  0  0  0  0  0  0  0  0  0
  151.1981  138.6924  159.6840 H   0  0  0  0  0  0  0  0  0  0  0  0
  151.7924  138.2765  158.1140 H   0  0  0  0  0  0  0  0  0  0  0  0
  151.0930  141.0572  159.1501 H   0  0  0  0  0  0  0  0  0  0  0  0
  152.6671  140.4479  158.7436 H   0  0  0  0  0  0  0  0  0  0  0  0
  150.5581  141.5880  156.9531 H   0  0  0  0  0  0  0  0  0  0  0  0
  152.2763  141.7414  156.8712 H   0  0  0  0  0  0  0  0  0  0  0  0
  148.5013  134.5302  152.7912 H   0  0  0  0  0  0  0  0  0  0  0  0
  149.9387  131.6727  154.5808 H   0  0  0  0  0  0  0  0  0  0  0  0
  149.2274  129.3399  154.1943 H   0  0  0  0  0  0  0  0  0  0  0  0
  147.1520  128.9121  152.7554 H   0  0  0  0  0  0  0  0  0  0  0  0
  147.0974  133.7950  150.0474 H   0  0  0  0  0  0  0  0  0  0  0  0
  146.6104  132.1070  150.1945 H   0  0  0  0  0  0  0  0  0  0  0  0
  144.8744  134.5494  149.8801 H   0  0  0  0  0  0  0  0  0  0  0  0
  144.6221  132.9444  149.1902 H   0  0  0  0  0  0  0  0  0  0  0  0
  143.1684  133.6738  151.3586 H   0  0  0  0  0  0  0  0  0  0  0  0
  143.9053  132.0676  151.3384 H   0  0  0  0  0  0  0  0  0  0  0  0
  144.7980  132.9996  153.3839 H   0  0  0  0  0  0  0  0  0  0  0  0
  144.9994  134.5781  152.6572 H   0  0  0  0  0  0  0  0  0  0  0  0
  146.0283  130.7161  151.8632 H   0  0  0  0  0  0  0  0  0  0  0  0
  1  2  2  0  0  0  0
  2  3  1  0  0  0  0
  2 14  1  0  0  0  0
  3  4  1  0  0  0  0
  3 26  1  0  0  0  0
  4  5  1  0  0  0  0
  4 27  1  0  0  0  0
  4 28  1  0  0  0  0
  5  6  1  0  0  0  0
  5 29  1  0  0  0  0
  5 30  1  0  0  0  0
  6 12  1  0  0  0  0
  6  7  1  0  0  0  0
  7  8  1  0  0  0  0
  7 31  1  0  0  0  0
  7 32  1  0  0  0  0
  8  9  1  0  0  0  0
  8 33  1  0  0  0  0
  8 34  1  0  0  0  0
  9 10  1  0  0  0  0
  9 35  1  0  0  0  0
  9 36  1  0  0  0  0
 10 11  1  0  0  0  0
 10 37  1  0  0  0  0
 10 38  1  0  0  0  0
 11 12  1  0  0  0  0
 11 39  1  0  0  0  0
 11 40  1  0  0  0  0
 12 13  2  0  0  0  0
 14 15  1  0  0  0  0
 14 41  1  0  0  0  0
 15 20  1  0  0  0  0
 15 16  2  0  0  0  0
 16 17  1  0  0  0  0
 16 42  1  0  0  0  0
 17 18  2  0  0  0  0
 17 43  1  0  0  0  0
 18 19  1  0  0  0  0
 18 44  1  0  0  0  0
 19 20  2  0  0  0  0
 19 53  1  0  0  0  0
 20 21  1  0  0  0  0
 21 25  1  0  0  0  0
 21 22  1  0  0  0  0
 22 23  1  0  0  0  0
 22 45  1  0  0  0  0
 22 46  1  0  0  0  0
 23 24  1  0  0  0  0
 23 47  1  0  0  0  0
 23 48  1  0  0  0  0
 24 25  1  0  0  0  0
 24 49  1  0  0  0  0
 24 50  1  0  0  0  0
 25 51  1  0  0  0  0
 25 52  1  0  0  0  0
M  CHG  1  19   1
M  END
> <s_m_source_file>
AV-unprocessed.smi

> <i_m_source_file_index>
1935

> <i_lp_mmshare_version>
43012

> <i_f3d_flags>
0

> <s_epik_input>
Tz1DMVtDSDJdW0NIMl1bQ0gyXVtDSDJdW0NIMl1OMVtDSDJdW0NIMl1bTkhdQyg9TylbTkhdYzJbY0hdW2NIXVtjSF1uYzJOM1tDSDJdW0NIMl1bQ0gyXVtDSDJdMw==

> <s_epik_cmdline>
J2VwaWtfcHl0aG9uJywgJy1waCcsICc3LjAnLCAnLXRuJywgJzgnLCAnLW1hJywgJzIwMCcsICctbWV0YWxfYmluZGluZycsICctaW1hZScsICc8aW5maWxlLm1hZT4nLCAnLW9tYWUnLCAnPG91dGZpbGUubWFlPic=

> <r_lp_tautomer_probability>
0.999994

> <r_epik_Ionization_Penalty>
1.12691

> <r_epik_Ionization_Penalty_Charging>
1.12689

> <r_epik_Ionization_Penalty_Neutral>
1.90064e-05

> <r_epik_State_Penalty>
1.18624

> <r_epik_Charging_Adjusted_Penalty>
2.31313

> <i_epik_Tot_Q>
1

> <i_epik_Tot_abs_Q>
1

> <r_epik_Metal_State_Penalty>
1.27004

> <b_epik_Metal_Only>
0

> <s_lp_Force_Field>
OPLS_2005

> <r_lp_Energy>
56.6577

> <b_lp_Chiralities_Consistent>
1

> <s_lp_Variant>
AV-unprocessed.smi:1935-2

> <Gold.Version>
5.8.1

> <Gold.Id.Protein>
6NUR|6NUR_protein|mol2

> <Gold.PLP.Fitness>
49.4812

> <Gold.PLP.PLP>
-40.4317

> <Gold.PLP.part.hbond>
-4.8260

> <Gold.PLP.part.metal>
0.0000

> <Gold.PLP.part.buried>
-3.7009

> <Gold.PLP.part.nonpolar>
-30.7496

> <Gold.PLP.part.repulsive>
0.2214

> <Gold.PLP.ligand.clash>
0.0000

> <Gold.PLP.ligand.torsion>
0.6154

> <Gold.PLP.Chemscore.Hbond>
3.3241

> <Gold.PLP.Chemscore.CHOScore>
0.0000

> <Gold.PLP.Chemscore.Metal>
0.0000

> <Gold.Chemscore.Hbonds>
donor molecule, donor type, donor heavy atom, donor atom, acceptor molecule, acceptor atom, score
      L1  H     3    26       P1  7948  1.00
      L1  H    14    41       P1  7948  0.85
      P1  H  7989  7998       L1    13  0.61
      P1  H  7997  8009       L1    13  0.80

> <Gold.PLP.Chemscore.Internal.Correction>
0.3080

> <Gold.Rescore>
     Score         DG    S(hbond)    S(metal)    S(lipo)     H(rot)  DE(clash)    DE(int)     intcor
     16.56     -18.32       2.48        0.00      75.12       1.66       0.05       1.72       ----

> <Gold.Chemscore.Fitness>
16.5567

> <Gold.Chemscore.DG>
-18.3212

> <Gold.Chemscore.ZeroCoef>
-5.4800

> <Gold.Chemscore.Hbond>
2.4840

> <Gold.Chemscore.Metal>
0.0000

> <Gold.Chemscore.Lipo>
75.1192

> <Gold.Chemscore.Internal_Hbond>
0.0000

> <Gold.Chemscore.DEClash>
0.0473

> <Gold.Chemscore.DEInternal>
1.7172

> <Gold.Chemscore.Rot>
1.6579

> <Gold.Chemscore.Internal.Correction>
   9.000000E+99

> <Gold.Chemscore.Hbonds>
donor molecule, donor type, donor heavy atom, donor atom, acceptor molecule, acceptor atom, score
      L1  H     3    26       P1  7948  0.88
      L1  H    14    41       P1  7948  0.16
      P1  H  7989  7998       L1    13  0.17
      P1  H  7997  8009       L1    13  0.74

> <Gold.Chemscore.Hbond.Weighted>
-8.2965

> <Gold.Chemscore.Metal.Weighted>
-0.0000

> <Gold.Chemscore.Lipo.Weighted>
-8.7889

> <Gold.Chemscore.Internal_Hbond.Weighted>
0.0000

> <Gold.Chemscore.DEClash.Weighted>
0.0473

> <Gold.Chemscore.DEInternal.Weighted>
1.7172

> <Gold.Chemscore.Rot.Weighted>
4.2443

> <Gold.Chemscore.Internal.Correction.Weighted>
   9.000000E+99

> <Gold.Protein.RotatedTorsions>
[ 6907 6896 6895 6894 ] final    2.26 input  -60.11 | X-H torsion
[ 7974 7965 7964 7962 ] final  167.41 input  175.53 | X-H torsion
[ 8008 7997 7996 7995 ] final -141.88 input   59.86 | X-H torsion
[ 10167 10162 10161 10158 ] final -157.38 input  -65.29 | X-H torsion
[ 10718 10713 10712 10709 ] final -163.00 input   66.30 | X-H torsion
[ 10763 10752 10751 10750 ] final  155.65 input  -60.55 | X-H torsion
[ 11005 11000 10999 10996 ] final -117.68 input  -57.11 | X-H torsion

> <Gold.Protein.ActiveResidues>
 VAL166  LYS551  ARG553  GLY616  TRP617  ASP618  TYR619  PRO620  LYS621  CYS622 
 ASP623  PHE694  ASN695  SER759  ASP760  ASP761  ALA762  ILE779  LEU786  VAL792 
 PHE793  MET794  SER795  GLU796  ALA797  LYS798  CYS799  TRP800  GLU811  SER814 

> <Gold.Protein.RotatedAtoms>
  151.6060  135.1044  160.0070 H   0  0  0  0  0  0  0  0  0  0  0  0  # atno 6907 bound_to 6896
  152.4233  133.7148  159.6510 H   0  0  0  0  0  0  0  0  0  0  0  0  # atno 6908 bound_to 6896
  150.8121  133.8330  159.3199 H   0  0  0  0  0  0  0  0  0  0  0  0  # atno 6909 bound_to 6896
  144.7425  139.8756  143.6392 H   0  0  0  0  0  0  0  0  0  0  0  0  # atno 7974 bound_to 7965
  155.4850  140.0563  157.2962 H   0  0  0  0  0  0  0  0  0  0  0  0  # atno 8008 bound_to 7997
  154.4645  140.2012  156.0107 H   0  0  0  0  0  0  0  0  0  0  0  0  # atno 8009 bound_to 7997
  156.0950  140.3228  155.7870 H   0  0  0  0  0  0  0  0  0  0  0  0  # atno 8010 bound_to 7997
  139.6775  143.9638  152.2319 H   0  0  0  0  0  0  0  0  0  0  0  0  # atno 10167 bound_to 10162
  156.6185  130.8880  151.2952 H   0  0  0  0  0  0  0  0  0  0  0  0  # atno 10718 bound_to 10713
  154.1718  135.2804  155.3078 H   0  0  0  0  0  0  0  0  0  0  0  0  # atno 10763 bound_to 10752
  154.6069  135.5511  153.7436 H   0  0  0  0  0  0  0  0  0  0  0  0  # atno 10764 bound_to 10752
  153.0162  135.6406  154.1858 H   0  0  0  0  0  0  0  0  0  0  0  0  # atno 10765 bound_to 10752
  141.0338  133.9941  157.3102 H   0  0  0  0  0  0  0  0  0  0  0  0  # atno 11005 bound_to 11000
  146.1248  139.4272  143.0205 LP  0  0  0  0  0  0  0  0  0  0  0  0  # atno 17320 bound_to 7965
  145.7251  141.0062  143.1382 LP  0  0  0  0  0  0  0  0  0  0  0  0  # atno 17321 bound_to 7965
  139.9419  144.6676  150.8258 LP  0  0  0  0  0  0  0  0  0  0  0  0  # atno 17342 bound_to 10162
  140.7641  143.3239  151.2560 LP  0  0  0  0  0  0  0  0  0  0  0  0  # atno 17343 bound_to 10162
  157.7234  130.9589  150.1533 LP  0  0  0  0  0  0  0  0  0  0  0  0  # atno 17370 bound_to 10713
  156.2331  130.3684  149.8422 LP  0  0  0  0  0  0  0  0  0  0  0  0  # atno 17371 bound_to 10713
  139.9226  135.0201  156.8120 LP  0  0  0  0  0  0  0  0  0  0  0  0  # atno 17394 bound_to 11000
  140.6359  133.9863  155.7684 LP  0  0  0  0  0  0  0  0  0  0  0  0  # atno 17395 bound_to 11000

$$$$
