AV-unprocessed.smi:2439|AV-procd|sdf|9614|dock5
  -GOLD-   2272013243D 1   1.00000     0.00000
 Structure written by MMmdl.
 40 42  0  0  0  0  0  0  0  0  1 V2000
  146.4113  143.2533  155.2470 N   0  0  0  0  0  0  0  0  0  0  0  0
  147.0938  142.3857  154.9006 C   0  0  0  0  0  0  0  0  0  0  0  0
  147.9535  141.2922  154.4641 C   0  0  0  0  0  0  0  0  0  0  0  0
  147.3838  140.2221  153.7425 C   0  0  0  0  0  0  0  0  0  0  0  0
  148.2085  139.1640  153.3190 C   0  0  0  0  0  0  0  0  0  0  0  0
  149.5781  139.2206  153.6337 C   0  0  0  0  0  0  0  0  0  0  0  0
  150.1360  140.2386  154.3212 N   0  0  0  0  0  0  0  0  0  0  0  0
  149.3477  141.2604  154.7374 C   0  0  0  0  0  0  0  0  0  0  0  0
  149.9570  142.3095  155.4514 N   0  0  0  0  0  0  0  0  0  0  0  0
  151.1743  142.1076  156.2288 C   0  0  0  0  0  0  0  0  0  0  0  0
  150.9995  142.4985  157.7055 C   0  0  1  0  0  0  0  0  0  0  0  0
  152.1578  141.9722  158.5724 C   0  0  0  0  0  0  0  0  0  0  0  0
  152.0369  142.4023  159.9594 N   0  0  0  0  0  0  0  0  0  0  0  0
  153.1452  141.9009  160.7704 C   0  0  0  0  0  0  0  0  0  0  0  0
  153.0230  142.3114  162.2465 C   0  0  0  0  0  0  0  0  0  0  0  0
  152.9222  143.8385  162.3687 C   0  0  0  0  0  0  0  0  0  0  0  0
  151.7910  144.3657  161.4723 C   0  0  0  0  0  0  0  0  0  0  0  0
  151.9565  143.8647  160.0226 C   0  0  2  0  0  0  0  0  0  0  0  0
  150.8148  144.3924  159.1299 C   0  0  0  0  0  0  0  0  0  0  0  0
  150.9841  143.9209  157.7969 O   0  0  0  0  0  0  0  0  0  0  0  0
  146.3276  140.2075  153.5137 H   0  0  0  0  0  0  0  0  0  0  0  0
  147.8013  138.3307  152.7657 H   0  0  0  0  0  0  0  0  0  0  0  0
  150.2441  138.4285  153.3248 H   0  0  0  0  0  0  0  0  0  0  0  0
  149.4430  143.1676  155.5914 H   0  0  0  0  0  0  0  0  0  0  0  0
  151.4906  141.0674  156.1452 H   0  0  0  0  0  0  0  0  0  0  0  0
  151.9716  142.7014  155.7815 H   0  0  0  0  0  0  0  0  0  0  0  0
  150.0580  142.1001  158.0876 H   0  0  0  0  0  0  0  0  0  0  0  0
  152.1779  140.8828  158.5271 H   0  0  0  0  0  0  0  0  0  0  0  0
  153.1066  142.3190  158.1596 H   0  0  0  0  0  0  0  0  0  0  0  0
  153.1831  140.8128  160.7060 H   0  0  0  0  0  0  0  0  0  0  0  0
  154.0921  142.2666  160.3701 H   0  0  0  0  0  0  0  0  0  0  0  0
  152.1379  141.8469  162.6834 H   0  0  0  0  0  0  0  0  0  0  0  0
  153.8798  141.9442  162.8120 H   0  0  0  0  0  0  0  0  0  0  0  0
  152.7504  144.1261  163.4063 H   0  0  0  0  0  0  0  0  0  0  0  0
  153.8676  144.2926  162.0694 H   0  0  0  0  0  0  0  0  0  0  0  0
  150.8298  144.0352  161.8688 H   0  0  0  0  0  0  0  0  0  0  0  0
  151.7791  145.4558  161.4966 H   0  0  0  0  0  0  0  0  0  0  0  0
  152.8896  144.2777  159.6348 H   0  0  0  0  0  0  0  0  0  0  0  0
  149.8423  144.0760  159.5104 H   0  0  0  0  0  0  0  0  0  0  0  0
  150.8136  145.4827  159.1175 H   0  0  0  0  0  0  0  0  0  0  0  0
  1  2  3  0  0  0  0
  2  3  1  0  0  0  0
  3  8  1  0  0  0  0
  3  4  2  0  0  0  0
  4  5  1  0  0  0  0
  4 21  1  0  0  0  0
  5  6  2  0  0  0  0
  5 22  1  0  0  0  0
  6  7  1  0  0  0  0
  6 23  1  0  0  0  0
  7  8  2  0  0  0  0
  8  9  1  0  0  0  0
  9 10  1  0  0  0  0
  9 24  1  0  0  0  0
 10 11  1  0  0  0  0
 10 25  1  0  0  0  0
 10 26  1  0  0  0  0
 11 20  1  0  0  0  0
 11 12  1  0  0  0  0
 11 27  1  0  0  0  0
 12 13  1  0  0  0  0
 12 28  1  0  0  0  0
 12 29  1  0  0  0  0
 13 18  1  0  0  0  0
 13 14  1  0  0  0  0
 14 15  1  0  0  0  0
 14 30  1  0  0  0  0
 14 31  1  0  0  0  0
 15 16  1  0  0  0  0
 15 32  1  0  0  0  0
 15 33  1  0  0  0  0
 16 17  1  0  0  0  0
 16 34  1  0  0  0  0
 16 35  1  0  0  0  0
 17 18  1  0  0  0  0
 17 36  1  0  0  0  0
 17 37  1  0  0  0  0
 18 19  1  0  0  0  0
 18 38  1  0  0  0  0
 19 20  1  0  0  0  0
 19 39  1  0  0  0  0
 19 40  1  0  0  0  0
M  END
> <s_m_source_file>
AV-unprocessed.smi

> <i_m_source_file_index>
2439

> <i_lp_mmshare_version>
43012

> <i_f3d_flags>
0

> <s_epik_input>
TiNDYzFbY0hdW2NIXVtjSF1uYzFbTkhdW0NIMl1bQ0BIXShbQ0gyXTIpT1tDSDJdW0NAQEhdKE4yMylbQ0gyXVtDSDJdW0NIMl1bQ0gyXTM=

> <s_epik_cmdline>
J2VwaWtfcHl0aG9uJywgJy1waCcsICc3LjAnLCAnLXRuJywgJzgnLCAnLW1hJywgJzIwMCcsICctbWV0YWxfYmluZGluZycsICctaW1hZScsICc8aW5maWxlLm1hZT4nLCAnLW9tYWUnLCAnPG91dGZpbGUubWFlPic=

> <r_epik_Ionization_Penalty>
1.22355

> <r_epik_Ionization_Penalty_Charging>
0

> <r_epik_Ionization_Penalty_Neutral>
1.22355

> <r_epik_State_Penalty>
1.29103

> <r_epik_Charging_Adjusted_Penalty>
1.29103

> <i_epik_Tot_Q>
0

> <i_epik_Tot_abs_Q>
0

> <r_epik_Metal_State_Penalty>
1.29103

> <b_epik_Metal_Only>
0

> <s_lp_Force_Field>
OPLS_2005

> <r_lp_Energy>
37.4095

> <b_lp_Chiralities_Consistent>
1

> <s_lp_Variant>
AV-unprocessed.smi:2439-12

> <Gold.Version>
5.8.1

> <Gold.Id.Protein>
6NUR|6NUR_protein|mol2

> <Gold.PLP.Fitness>
44.7600

> <Gold.PLP.PLP>
-38.3885

> <Gold.PLP.part.hbond>
-1.8055

> <Gold.PLP.part.metal>
0.0000

> <Gold.PLP.part.buried>
-1.3227

> <Gold.PLP.part.nonpolar>
-35.5906

> <Gold.PLP.part.repulsive>
2.3238

> <Gold.PLP.ligand.clash>
0.0000

> <Gold.PLP.ligand.torsion>
0.2483

> <Gold.PLP.Chemscore.Hbond>
1.5928

> <Gold.PLP.Chemscore.CHOScore>
0.6956

> <Gold.PLP.Chemscore.Metal>
0.0000

> <Gold.Chemscore.Hbonds>
donor molecule, donor type, donor heavy atom, donor atom, acceptor molecule, acceptor atom, score
      L1  H     9    24       P1  8028  1.00
      P1  H  7989  7998       L1     7  0.98
      L1  C     6    23       P1  7948  0.07

> <Gold.PLP.Chemscore.Internal.Correction>
0.0028

> <Gold.Rescore>
     Score         DG    S(hbond)    S(metal)    S(lipo)     H(rot)  DE(clash)    DE(int)     intcor
     18.24     -21.50       1.58        0.00     119.04       1.25       2.98       0.28       ----

> <Gold.Chemscore.Fitness>
18.2412

> <Gold.Chemscore.DG>
-21.4982

> <Gold.Chemscore.ZeroCoef>
-5.4800

> <Gold.Chemscore.Hbond>
1.5829

> <Gold.Chemscore.Metal>
0.0000

> <Gold.Chemscore.Lipo>
119.0385

> <Gold.Chemscore.Internal_Hbond>
0.0000

> <Gold.Chemscore.DEClash>
2.9753

> <Gold.Chemscore.DEInternal>
0.2816

> <Gold.Chemscore.Rot>
1.2485

> <Gold.Chemscore.Internal.Correction>
   9.000000E+99

> <Gold.Chemscore.Hbonds>
donor molecule, donor type, donor heavy atom, donor atom, acceptor molecule, acceptor atom, score
      L1  H     9    24       P1  8028  1.00
      P1  H  7989  7998       L1     7  0.55

> <Gold.Chemscore.Hbond.Weighted>
-5.2868

> <Gold.Chemscore.Metal.Weighted>
-0.0000

> <Gold.Chemscore.Lipo.Weighted>
-13.9275

> <Gold.Chemscore.Internal_Hbond.Weighted>
0.0000

> <Gold.Chemscore.DEClash.Weighted>
2.9753

> <Gold.Chemscore.DEInternal.Weighted>
0.2816

> <Gold.Chemscore.Rot.Weighted>
3.1961

> <Gold.Chemscore.Internal.Correction.Weighted>
   9.000000E+99

> <Gold.Protein.RotatedTorsions>
[ 6907 6896 6895 6894 ] final  -73.26 input  -60.11 | X-H torsion
[ 7974 7965 7964 7962 ] final  119.43 input  175.53 | X-H torsion
[ 8008 7997 7996 7995 ] final   78.86 input   59.86 | X-H torsion
[ 10167 10162 10161 10158 ] final   68.23 input  -65.29 | X-H torsion
[ 10718 10713 10712 10709 ] final -136.66 input   66.30 | X-H torsion
[ 10763 10752 10751 10750 ] final  -51.10 input  -60.55 | X-H torsion
[ 11005 11000 10999 10996 ] final  104.37 input  -57.11 | X-H torsion

> <Gold.Protein.ActiveResidues>
 VAL166  LYS551  ARG553  GLY616  TRP617  ASP618  TYR619  PRO620  LYS621  CYS622 
 ASP623  PHE694  ASN695  SER759  ASP760  ASP761  ALA762  ILE779  LEU786  VAL792 
 PHE793  MET794  SER795  GLU796  ALA797  LYS798  CYS799  TRP800  GLU811  SER814 

> <Gold.Protein.RotatedAtoms>
  150.7137  134.5042  159.5575 H   0  0  0  0  0  0  0  0  0  0  0  0  # atno 6907 bound_to 6896
  152.2633  134.8008  160.0436 H   0  0  0  0  0  0  0  0  0  0  0  0  # atno 6908 bound_to 6896
  151.8714  133.3441  159.3773 H   0  0  0  0  0  0  0  0  0  0  0  0  # atno 6909 bound_to 6896
  145.1432  139.3255  143.4605 H   0  0  0  0  0  0  0  0  0  0  0  0  # atno 7974 bound_to 7965
  155.8617  140.3453  155.5761 H   0  0  0  0  0  0  0  0  0  0  0  0  # atno 8008 bound_to 7997
  155.7926  140.0874  157.2020 H   0  0  0  0  0  0  0  0  0  0  0  0  # atno 8009 bound_to 7997
  154.4012  140.1480  156.3168 H   0  0  0  0  0  0  0  0  0  0  0  0  # atno 8010 bound_to 7997
  140.0810  144.5071  150.7162 H   0  0  0  0  0  0  0  0  0  0  0  0  # atno 10167 bound_to 10162
  156.2795  130.7312  151.1305 H   0  0  0  0  0  0  0  0  0  0  0  0  # atno 10718 bound_to 10713
  154.1210  135.6534  153.4903 H   0  0  0  0  0  0  0  0  0  0  0  0  # atno 10763 bound_to 10752
  153.0225  135.5270  154.7096 H   0  0  0  0  0  0  0  0  0  0  0  0  # atno 10764 bound_to 10752
  154.6304  135.2975  155.0193 H   0  0  0  0  0  0  0  0  0  0  0  0  # atno 10765 bound_to 10752
  139.8791  134.9298  156.5352 H   0  0  0  0  0  0  0  0  0  0  0  0  # atno 11005 bound_to 11000
  146.3503  140.1477  142.8593 LP  0  0  0  0  0  0  0  0  0  0  0  0  # atno 17320 bound_to 7965
  145.0510  140.9017  143.4996 LP  0  0  0  0  0  0  0  0  0  0  0  0  # atno 17321 bound_to 7965
  140.7078  143.2481  151.4674 LP  0  0  0  0  0  0  0  0  0  0  0  0  # atno 17342 bound_to 10162
  139.5780  144.1775  152.1929 LP  0  0  0  0  0  0  0  0  0  0  0  0  # atno 17343 bound_to 10162
  157.7310  131.0612  150.5699 LP  0  0  0  0  0  0  0  0  0  0  0  0  # atno 17370 bound_to 10713
  156.5804  130.4303  149.5980 LP  0  0  0  0  0  0  0  0  0  0  0  0  # atno 17371 bound_to 10713
  140.8351  133.8248  155.9021 LP  0  0  0  0  0  0  0  0  0  0  0  0  # atno 17394 bound_to 11000
  140.9291  134.2044  157.4876 LP  0  0  0  0  0  0  0  0  0  0  0  0  # atno 17395 bound_to 11000

$$$$
