AV-unprocessed.smi:3287|AV-procd|sdf|12600|dock2
  -GOLD-   2272018523D 1   1.00000     0.00000
 Structure written by MMmdl.
 43 44  0  0  0  0  0  0  0  0  2 V2000
  151.6984  143.9653  160.9159 C   0  0  0  0  0  0  0  0  0  0  0  0
  152.7532  143.8063  159.8022 C   0  0  2  0  0  0  0  0  0  0  0  0
  152.5136  144.7986  158.6457 C   0  0  0  0  0  0  0  0  0  0  0  0
  151.3011  144.4126  157.7808 C   0  0  0  0  0  0  0  0  0  0  0  0
  151.4313  142.9756  157.2358 C   0  0  2  0  0  0  0  0  0  0  0  0
  150.2376  142.5780  156.4578 N   0  3  0  0  0  0  0  0  0  0  0  0
  150.3766  141.3252  155.6842 C   0  0  0  0  0  0  0  0  0  0  0  0
  149.6492  141.4156  154.3317 C   0  0  2  0  0  0  0  0  0  0  0  0
  148.9193  142.6268  154.2867 O   0  0  0  0  0  0  0  0  0  0  0  0
  148.7524  140.2075  154.1110 C   0  0  0  0  0  0  0  0  0  0  0  0
  147.3664  140.3727  153.9068 C   0  0  0  0  0  0  0  0  0  0  0  0
  146.5744  139.2256  153.6975 C   0  0  0  0  0  0  0  0  0  0  0  0
  147.0752  137.9720  153.6794 N   0  0  0  0  0  0  0  0  0  0  0  0
  148.4025  137.8190  153.8728 C   0  0  0  0  0  0  0  0  0  0  0  0
  149.2816  138.8986  154.0904 C   0  0  0  0  0  0  0  0  0  0  0  0
  151.6578  141.9790  158.3878 C   0  0  0  0  0  0  0  0  0  0  0  0
  152.8793  142.3650  159.2462 C   0  0  2  0  0  0  0  0  0  0  0  0
  153.1688  141.3159  160.3324 C   0  0  0  0  0  0  0  0  0  0  0  0
  150.7021  143.6719  160.5865 H   0  0  0  0  0  0  0  0  0  0  0  0
  151.6402  145.0017  161.2494 H   0  0  0  0  0  0  0  0  0  0  0  0
  151.9477  143.3661  161.7914 H   0  0  0  0  0  0  0  0  0  0  0  0
  153.7125  144.0685  160.2508 H   0  0  0  0  0  0  0  0  0  0  0  0
  152.3872  145.8091  159.0358 H   0  0  0  0  0  0  0  0  0  0  0  0
  153.4020  144.8311  158.0135 H   0  0  0  0  0  0  0  0  0  0  0  0
  150.3852  144.5083  158.3651 H   0  0  0  0  0  0  0  0  0  0  0  0
  151.2150  145.1255  156.9609 H   0  0  0  0  0  0  0  0  0  0  0  0
  152.2994  142.9242  156.5765 H   0  0  0  0  0  0  0  0  0  0  0  0
  149.4802  142.4356  157.1112 H   0  0  0  0  0  0  0  0  0  0  0  0
  151.4350  141.1290  155.5123 H   0  0  0  0  0  0  0  0  0  0  0  0
  149.9864  140.4889  156.2666 H   0  0  0  0  0  0  0  0  0  0  0  0
  150.3864  141.4498  153.5279 H   0  0  0  0  0  0  0  0  0  0  0  0
  149.3370  143.2501  154.8622 H   0  0  0  0  0  0  0  0  0  0  0  0
  146.9141  141.3535  153.9085 H   0  0  0  0  0  0  0  0  0  0  0  0
  145.5103  139.3183  153.5387 H   0  0  0  0  0  0  0  0  0  0  0  0
  148.7762  136.8060  153.8527 H   0  0  0  0  0  0  0  0  0  0  0  0
  150.3370  138.7204  154.2360 H   0  0  0  0  0  0  0  0  0  0  0  0
  150.7660  141.9212  159.0129 H   0  0  0  0  0  0  0  0  0  0  0  0
  151.8043  140.9789  157.9775 H   0  0  0  0  0  0  0  0  0  0  0  0
  153.7462  142.3602  158.5831 H   0  0  0  0  0  0  0  0  0  0  0  0
  152.3190  141.1800  161.0015 H   0  0  0  0  0  0  0  0  0  0  0  0
  154.0302  141.6023  160.9364 H   0  0  0  0  0  0  0  0  0  0  0  0
  153.3900  140.3457  159.8867 H   0  0  0  0  0  0  0  0  0  0  0  0
  149.9838  143.3312  155.8348 H   0  0  0  0  0  0  0  0  0  0  0  0
  1  2  1  0  0  0  0
  1 19  1  0  0  0  0
  1 20  1  0  0  0  0
  1 21  1  0  0  0  0
  2 17  1  0  0  0  0
  2  3  1  0  0  0  0
  2 22  1  0  0  0  0
  3  4  1  0  0  0  0
  3 23  1  0  0  0  0
  3 24  1  0  0  0  0
  4  5  1  0  0  0  0
  4 25  1  0  0  0  0
  4 26  1  0  0  0  0
  5  6  1  0  0  0  0
  5 16  1  0  0  0  0
  5 27  1  0  0  0  0
  6  7  1  0  0  0  0
  6 28  1  0  0  0  0
  6 43  1  0  0  0  0
  7  8  1  0  0  0  0
  7 29  1  0  0  0  0
  7 30  1  0  0  0  0
  8  9  1  0  0  0  0
  8 10  1  0  0  0  0
  8 31  1  0  0  0  0
  9 32  1  0  0  0  0
 10 15  1  0  0  0  0
 10 11  2  0  0  0  0
 11 12  1  0  0  0  0
 11 33  1  0  0  0  0
 12 13  2  0  0  0  0
 12 34  1  0  0  0  0
 13 14  1  0  0  0  0
 14 15  2  0  0  0  0
 14 35  1  0  0  0  0
 15 36  1  0  0  0  0
 16 17  1  0  0  0  0
 16 37  1  0  0  0  0
 16 38  1  0  0  0  0
 17 18  1  0  0  0  0
 17 39  1  0  0  0  0
 18 40  1  0  0  0  0
 18 41  1  0  0  0  0
 18 42  1  0  0  0  0
M  CHG  1   6   1
M  END
> <s_m_source_file>
AV-unprocessed.smi

> <i_m_source_file_index>
3287

> <i_lp_mmshare_version>
43012

> <i_f3d_flags>
0

> <s_epik_input>
W0NIM11bQ0BASF0xW0NIMl1bQ0gyXVtDQEhdKFtDSDJdW0NASF0xW0NIM10pW05IXVtDSDJdW0NASF0oW09IXSljMltjSF1bY0hdbltjSF1bY0hdMg==

> <s_epik_cmdline>
J2VwaWtfcHl0aG9uJywgJy1waCcsICc3LjAnLCAnLXRuJywgJzgnLCAnLW1hJywgJzIwMCcsICctbWV0YWxfYmluZGluZycsICctaW1hZScsICc8aW5maWxlLm1hZT4nLCAnLW9tYWUnLCAnPG91dGZpbGUubWFlPic=

> <r_lp_tautomer_probability>
1

> <r_epik_Ionization_Penalty>
0.00537262

> <r_epik_Ionization_Penalty_Charging>
0.00321624

> <r_epik_Ionization_Penalty_Neutral>
0.00215638

> <r_epik_State_Penalty>
-0

> <r_epik_Charging_Adjusted_Penalty>
0.00321624

> <i_epik_Tot_Q>
1

> <i_epik_Tot_abs_Q>
1

> <r_epik_Metal_State_Penalty>
-0

> <b_epik_Metal_Only>
0

> <s_lp_Force_Field>
OPLS_2005

> <r_lp_Energy>
17.0862

> <b_lp_Chiralities_Consistent>
1

> <s_lp_Variant>
AV-unprocessed.smi:3287-11

> <Gold.Version>
5.8.1

> <Gold.Id.Protein>
6NUR|6NUR_protein|mol2

> <Gold.PLP.Fitness>
51.3895

> <Gold.PLP.PLP>
-40.4604

> <Gold.PLP.part.hbond>
-2.5398

> <Gold.PLP.part.metal>
0.0000

> <Gold.PLP.part.buried>
-2.0711

> <Gold.PLP.part.nonpolar>
-36.6118

> <Gold.PLP.part.repulsive>
0.1777

> <Gold.PLP.ligand.clash>
0.0000

> <Gold.PLP.ligand.torsion>
1.0160

> <Gold.PLP.Chemscore.Hbond>
2.7680

> <Gold.PLP.Chemscore.CHOScore>
1.5415

> <Gold.PLP.Chemscore.Metal>
0.0000

> <Gold.Chemscore.Hbonds>
donor molecule, donor type, donor heavy atom, donor atom, acceptor molecule, acceptor atom, score
      L1  H     6    43       P1  8028  1.73
      L1  H     9    32       P1  8028  0.72
      L1  C    12    34       P1 10175  1.00
      L1  C    14    35       P1  7948  0.56

> <Gold.PLP.Chemscore.Internal.Correction>
0.0326

> <Gold.Rescore>
     Score         DG    S(hbond)    S(metal)    S(lipo)     H(rot)  DE(clash)    DE(int)     intcor
     20.34     -21.64       1.78        0.00     129.04       1.90       0.12       1.18       ----

> <Gold.Chemscore.Fitness>
20.3415

> <Gold.Chemscore.DG>
-21.6357

> <Gold.Chemscore.ZeroCoef>
-5.4800

> <Gold.Chemscore.Hbond>
1.7758

> <Gold.Chemscore.Metal>
0.0000

> <Gold.Chemscore.Lipo>
129.0379

> <Gold.Chemscore.Internal_Hbond>
0.0000

> <Gold.Chemscore.DEClash>
0.1152

> <Gold.Chemscore.DEInternal>
1.1789

> <Gold.Chemscore.Rot>
1.9035

> <Gold.Chemscore.Internal.Correction>
   9.000000E+99

> <Gold.Chemscore.Hbonds>
donor molecule, donor type, donor heavy atom, donor atom, acceptor molecule, acceptor atom, score
      L1  H     6    43       P1  8028  0.87
      L1  H     9    32       P1  8028  0.72

> <Gold.Chemscore.Hbond.Weighted>
-5.9311

> <Gold.Chemscore.Metal.Weighted>
-0.0000

> <Gold.Chemscore.Lipo.Weighted>
-15.0974

> <Gold.Chemscore.Internal_Hbond.Weighted>
0.0000

> <Gold.Chemscore.DEClash.Weighted>
0.1152

> <Gold.Chemscore.DEInternal.Weighted>
1.1789

> <Gold.Chemscore.Rot.Weighted>
4.8729

> <Gold.Chemscore.Internal.Correction.Weighted>
   9.000000E+99

> <Gold.Protein.RotatedTorsions>
[ 6907 6896 6895 6894 ] final -103.07 input  -60.11 | X-H torsion
[ 7974 7965 7964 7962 ] final -102.77 input  175.53 | X-H torsion
[ 8008 7997 7996 7995 ] final  -43.06 input   59.86 | X-H torsion
[ 10167 10162 10161 10158 ] final -122.82 input  -65.29 | X-H torsion
[ 10718 10713 10712 10709 ] final  -49.30 input   66.30 | X-H torsion
[ 10763 10752 10751 10750 ] final -118.11 input  -60.55 | X-H torsion
[ 11005 11000 10999 10996 ] final  138.43 input  -57.11 | X-H torsion

> <Gold.Protein.ActiveResidues>
 VAL166  LYS551  ARG553  GLY616  TRP617  ASP618  TYR619  PRO620  LYS621  CYS622 
 ASP623  PHE694  ASN695  SER759  ASP760  ASP761  ALA762  ILE779  LEU786  VAL792 
 PHE793  MET794  SER795  GLU796  ALA797  LYS798  CYS799  TRP800  GLU811  SER814 

> <Gold.Protein.RotatedAtoms>
  150.7224  134.0485  159.3789 H   0  0  0  0  0  0  0  0  0  0  0  0  # atno 6907 bound_to 6896
  151.8461  135.0571  160.0463 H   0  0  0  0  0  0  0  0  0  0  0  0  # atno 6908 bound_to 6896
  152.2825  133.5448  159.5543 H   0  0  0  0  0  0  0  0  0  0  0  0  # atno 6909 bound_to 6896
  145.2645  140.9279  143.3022 H   0  0  0  0  0  0  0  0  0  0  0  0  # atno 7974 bound_to 7965
  154.3997  140.1457  156.3457 H   0  0  0  0  0  0  0  0  0  0  0  0  # atno 8008 bound_to 7997
  155.8316  140.3465  155.5554 H   0  0  0  0  0  0  0  0  0  0  0  0  # atno 8009 bound_to 7997
  155.8182  140.0894  157.1855 H   0  0  0  0  0  0  0  0  0  0  0  0  # atno 8010 bound_to 7997
  140.0102  143.5450  152.2266 H   0  0  0  0  0  0  0  0  0  0  0  0  # atno 10167 bound_to 10162
  156.1906  130.4152  149.9377 H   0  0  0  0  0  0  0  0  0  0  0  0  # atno 10718 bound_to 10713
  154.8577  135.4285  154.2087 H   0  0  0  0  0  0  0  0  0  0  0  0  # atno 10763 bound_to 10752
  153.3117  135.6976  153.7115 H   0  0  0  0  0  0  0  0  0  0  0  0  # atno 10764 bound_to 10752
  153.6205  135.3503  155.2983 H   0  0  0  0  0  0  0  0  0  0  0  0  # atno 10765 bound_to 10752
  140.0183  134.9408  157.0421 H   0  0  0  0  0  0  0  0  0  0  0  0  # atno 11005 bound_to 11000
  144.9389  139.4212  143.6458 LP  0  0  0  0  0  0  0  0  0  0  0  0  # atno 17320 bound_to 7965
  146.3265  139.8339  142.8903 LP  0  0  0  0  0  0  0  0  0  0  0  0  # atno 17321 bound_to 7965
  139.6210  144.7629  151.2740 LP  0  0  0  0  0  0  0  0  0  0  0  0  # atno 17342 bound_to 10162
  140.7384  143.6648  150.8133 LP  0  0  0  0  0  0  0  0  0  0  0  0  # atno 17343 bound_to 10162
  156.7118  130.8973  151.3610 LP  0  0  0  0  0  0  0  0  0  0  0  0  # atno 17370 bound_to 10713
  157.6927  130.9249  150.0557 LP  0  0  0  0  0  0  0  0  0  0  0  0  # atno 17371 bound_to 10713
  140.4432  134.1659  155.7175 LP  0  0  0  0  0  0  0  0  0  0  0  0  # atno 17394 bound_to 11000
  141.1757  133.8518  157.1428 LP  0  0  0  0  0  0  0  0  0  0  0  0  # atno 17395 bound_to 11000

$$$$
