AV-unprocessed.smi:632|AV-procd|sdf|3129|dock10
  -GOLD-   22720 0 53D 1   1.00000     0.00000
 Structure written by MMmdl.
 41 42  0  0  0  0  0  0  0  0  2 V2000
  152.1163  130.4033  158.1150 C   0  0  0  0  0  0  0  0  0  0  0  0
  152.2810  131.2193  156.8182 C   0  0  0  0  0  0  0  0  0  0  0  0
  153.4606  132.1945  157.0279 C   0  0  0  0  0  0  0  0  0  0  0  0
  152.6492  130.2971  155.6392 C   0  0  0  0  0  0  0  0  0  0  0  0
  150.9994  131.9591  156.5119 C   0  0  0  0  0  0  0  0  0  0  0  0
  150.5059  132.8958  157.3310 N   0  0  0  0  0  0  0  0  0  0  0  0
  149.3254  133.4508  156.8605 N   0  0  0  0  0  0  0  0  0  0  0  0
  148.9391  132.9437  155.6826 C   0  0  0  0  0  0  0  0  0  0  0  0
  147.8222  133.3439  155.0527 N   0  5  0  0  0  0  0  0  0  0  0  0
  147.7134  133.1981  153.7122 C   0  0  0  0  0  0  0  0  0  0  0  0
  148.5499  132.6874  152.9636 O   0  0  0  0  0  0  0  0  0  0  0  0
  146.5630  133.6703  153.2099 N   0  0  0  0  0  0  0  0  0  0  0  0
  146.1581  133.6440  151.8064 C   0  0  2  0  0  0  0  0  0  0  0  0
  144.9218  134.5375  151.5843 C   0  0  0  0  0  0  0  0  0  0  0  0
  144.4339  134.4753  150.1259 C   0  0  0  0  0  0  0  0  0  0  0  0
  144.1746  133.0314  149.6548 C   0  0  2  0  0  0  0  0  0  0  0  0
  143.0287  132.5077  150.2968 O   0  0  0  0  0  0  0  0  0  0  0  0
  145.3894  132.1213  149.9188 C   0  0  0  0  0  0  0  0  0  0  0  0
  145.8654  132.1941  151.3803 C   0  0  0  0  0  0  0  0  0  0  0  0
  150.0212  131.6975  155.0679 S   0  0  0  0  0  0  0  0  0  0  0  0
  153.0326  129.8695  158.3686 H   0  0  0  0  0  0  0  0  0  0  0  0
  151.3234  129.6603  158.0217 H   0  0  0  0  0  0  0  0  0  0  0  0
  151.8650  131.0475  158.9586 H   0  0  0  0  0  0  0  0  0  0  0  0
  153.2812  132.8703  157.8653 H   0  0  0  0  0  0  0  0  0  0  0  0
  153.6424  132.8026  156.1408 H   0  0  0  0  0  0  0  0  0  0  0  0
  154.3849  131.6571  157.2431 H   0  0  0  0  0  0  0  0  0  0  0  0
  153.5816  129.7636  155.8267 H   0  0  0  0  0  0  0  0  0  0  0  0
  152.7733  130.8646  154.7161 H   0  0  0  0  0  0  0  0  0  0  0  0
  151.8777  129.5468  155.4620 H   0  0  0  0  0  0  0  0  0  0  0  0
  145.9111  134.0817  153.8617 H   0  0  0  0  0  0  0  0  0  0  0  0
  146.9774  134.0152  151.1877 H   0  0  0  0  0  0  0  0  0  0  0  0
  144.1170  134.2265  152.2519 H   0  0  0  0  0  0  0  0  0  0  0  0
  145.1544  135.5704  151.8458 H   0  0  0  0  0  0  0  0  0  0  0  0
  143.5350  135.0808  150.0052 H   0  0  0  0  0  0  0  0  0  0  0  0
  145.1913  134.9266  149.4837 H   0  0  0  0  0  0  0  0  0  0  0  0
  143.9620  133.0390  148.5852 H   0  0  0  0  0  0  0  0  0  0  0  0
  142.3186  133.1224  150.1922 H   0  0  0  0  0  0  0  0  0  0  0  0
  145.1558  131.0902  149.6511 H   0  0  0  0  0  0  0  0  0  0  0  0
  146.2088  132.4257  149.2663 H   0  0  0  0  0  0  0  0  0  0  0  0
  146.7598  131.5822  151.5033 H   0  0  0  0  0  0  0  0  0  0  0  0
  145.1060  131.7616  152.0334 H   0  0  0  0  0  0  0  0  0  0  0  0
  1  2  1  0  0  0  0
  1 21  1  0  0  0  0
  1 22  1  0  0  0  0
  1 23  1  0  0  0  0
  2  3  1  0  0  0  0
  2  4  1  0  0  0  0
  2  5  1  0  0  0  0
  3 24  1  0  0  0  0
  3 25  1  0  0  0  0
  3 26  1  0  0  0  0
  4 27  1  0  0  0  0
  4 28  1  0  0  0  0
  4 29  1  0  0  0  0
  5 20  1  0  0  0  0
  5  6  2  0  0  0  0
  6  7  1  0  0  0  0
  7  8  2  0  0  0  0
  8  9  1  0  0  0  0
  8 20  1  0  0  0  0
  9 10  1  0  0  0  0
 10 11  2  0  0  0  0
 10 12  1  0  0  0  0
 12 13  1  0  0  0  0
 12 30  1  0  0  0  0
 13 19  1  0  0  0  0
 13 14  1  0  0  0  0
 13 31  1  0  0  0  0
 14 15  1  0  0  0  0
 14 32  1  0  0  0  0
 14 33  1  0  0  0  0
 15 16  1  0  0  0  0
 15 34  1  0  0  0  0
 15 35  1  0  0  0  0
 16 17  1  0  0  0  0
 16 18  1  0  0  0  0
 16 36  1  0  0  0  0
 17 37  1  0  0  0  0
 18 19  1  0  0  0  0
 18 38  1  0  0  0  0
 18 39  1  0  0  0  0
 19 40  1  0  0  0  0
 19 41  1  0  0  0  0
M  CHG  1   9  -1
M  END
> <s_m_source_file>
AV-unprocessed.smi

> <i_m_source_file_index>
632

> <i_lp_mmshare_version>
43012

> <i_f3d_flags>
0

> <s_epik_input>
W0NIM11DKFtDSDNdKShbQ0gzXSljMW5uYyhzMSlbTkhdQyg9TylbTkhdW0NAQEhdMltDSDJdW0NIMl1bQ0BASF0oW09IXSlbQ0gyXVtDSDJdMg==

> <s_epik_cmdline>
J2VwaWtfcHl0aG9uJywgJy1waCcsICc3LjAnLCAnLXRuJywgJzgnLCAnLW1hJywgJzIwMCcsICctbWV0YWxfYmluZGluZycsICctaW1hZScsICc8aW5maWxlLm1hZT4nLCAnLW9tYWUnLCAnPG91dGZpbGUubWFlPic=

> <r_lp_tautomer_probability>
1

> <r_epik_Ionization_Penalty>
4.62389

> <r_epik_Ionization_Penalty_Charging>
4.45204

> <r_epik_Ionization_Penalty_Neutral>
0.171842

> <r_epik_State_Penalty>
4.45172

> <r_epik_Charging_Adjusted_Penalty>
8.90376

> <i_epik_Tot_Q>
-1

> <i_epik_Tot_abs_Q>
1

> <r_epik_Metal_State_Penalty>
0.795834

> <b_epik_Metal_Only>
1

> <s_lp_Force_Field>
OPLS_2005

> <r_lp_Energy>
3.40986

> <b_lp_Chiralities_Consistent>
1

> <s_lp_Variant>
AV-unprocessed.smi:632-4

> <Gold.Version>
5.8.1

> <Gold.Id.Protein>
6NUR|6NUR_protein|mol2

> <Gold.PLP.Fitness>
36.2821

> <Gold.PLP.PLP>
-30.8266

> <Gold.PLP.part.hbond>
-2.6358

> <Gold.PLP.part.metal>
0.0000

> <Gold.PLP.part.buried>
-5.0574

> <Gold.PLP.part.nonpolar>
-23.1465

> <Gold.PLP.part.repulsive>
0.2276

> <Gold.PLP.ligand.clash>
0.0000

> <Gold.PLP.ligand.torsion>
0.2796

> <Gold.PLP.Chemscore.Hbond>
2.0000

> <Gold.PLP.Chemscore.CHOScore>
0.0000

> <Gold.PLP.Chemscore.Metal>
0.0000

> <Gold.Chemscore.Hbonds>
donor molecule, donor type, donor heavy atom, donor atom, acceptor molecule, acceptor atom, score
      L1  H    17    37       P1 10186  1.00
      P1  H  6896  6907       L1     6  0.96

> <Gold.PLP.Chemscore.Internal.Correction>
0.0148

> <Gold.Rescore>
     Score         DG    S(hbond)    S(metal)    S(lipo)     H(rot)  DE(clash)    DE(int)     intcor
     14.23     -16.05       1.94        0.00      71.46       1.67       0.10       1.72       ----

> <Gold.Chemscore.Fitness>
14.2253

> <Gold.Chemscore.DG>
-16.0500

> <Gold.Chemscore.ZeroCoef>
-5.4800

> <Gold.Chemscore.Hbond>
1.9444

> <Gold.Chemscore.Metal>
0.0000

> <Gold.Chemscore.Lipo>
71.4569

> <Gold.Chemscore.Internal_Hbond>
0.0000

> <Gold.Chemscore.DEClash>
0.1049

> <Gold.Chemscore.DEInternal>
1.7197

> <Gold.Chemscore.Rot>
1.6737

> <Gold.Chemscore.Internal.Correction>
   9.000000E+99

> <Gold.Chemscore.Hbonds>
donor molecule, donor type, donor heavy atom, donor atom, acceptor molecule, acceptor atom, score
      L1  H    17    37       P1 10186  0.99
      P1  H  6896  6907       L1     6  0.84

> <Gold.Chemscore.Hbond.Weighted>
-6.4943

> <Gold.Chemscore.Metal.Weighted>
-0.0000

> <Gold.Chemscore.Lipo.Weighted>
-8.3605

> <Gold.Chemscore.Internal_Hbond.Weighted>
0.0000

> <Gold.Chemscore.DEClash.Weighted>
0.1049

> <Gold.Chemscore.DEInternal.Weighted>
1.7197

> <Gold.Chemscore.Rot.Weighted>
4.2848

> <Gold.Chemscore.Internal.Correction.Weighted>
   9.000000E+99

> <Gold.Protein.RotatedTorsions>
[ 6907 6896 6895 6894 ] final -147.09 input  -60.11 | X-H torsion
[ 7974 7965 7964 7962 ] final -133.61 input  175.53 | X-H torsion
[ 8008 7997 7996 7995 ] final -132.50 input   59.86 | X-H torsion
[ 10167 10162 10161 10158 ] final -132.27 input  -65.29 | X-H torsion
[ 10718 10713 10712 10709 ] final    8.92 input   66.30 | X-H torsion
[ 10763 10752 10751 10750 ] final -111.44 input  -60.55 | X-H torsion
[ 11005 11000 10999 10996 ] final -155.21 input  -57.11 | X-H torsion

> <Gold.Protein.ActiveResidues>
 VAL166  LYS551  ARG553  GLY616  TRP617  ASP618  TYR619  PRO620  LYS621  CYS622 
 ASP623  PHE694  ASN695  SER759  ASP760  ASP761  ALA762  ILE779  LEU786  VAL792 
 PHE793  MET794  SER795  GLU796  ALA797  LYS798  CYS799  TRP800  GLU811  SER814 

> <Gold.Protein.RotatedAtoms>
  151.1507  133.4909  159.2595 H   0  0  0  0  0  0  0  0  0  0  0  0  # atno 6907 bound_to 6896
  151.1557  135.0248  159.8698 H   0  0  0  0  0  0  0  0  0  0  0  0  # atno 6908 bound_to 6896
  152.5463  134.1387  159.8523 H   0  0  0  0  0  0  0  0  0  0  0  0  # atno 6909 bound_to 6896
  144.9177  140.6975  143.4985 H   0  0  0  0  0  0  0  0  0  0  0  0  # atno 7974 bound_to 7965
  155.3299  140.0466  157.3042 H   0  0  0  0  0  0  0  0  0  0  0  0  # atno 8008 bound_to 7997
  154.5334  140.2264  155.8731 H   0  0  0  0  0  0  0  0  0  0  0  0  # atno 8009 bound_to 7997
  156.1811  140.3073  155.9156 H   0  0  0  0  0  0  0  0  0  0  0  0  # atno 8010 bound_to 7997
  139.9103  143.6502  152.2577 H   0  0  0  0  0  0  0  0  0  0  0  0  # atno 10167 bound_to 10162
  156.9587  130.5924  149.5661 H   0  0  0  0  0  0  0  0  0  0  0  0  # atno 10718 bound_to 10713
  154.8300  135.4527  154.1039 H   0  0  0  0  0  0  0  0  0  0  0  0  # atno 10763 bound_to 10752
  153.2320  135.6906  153.7885 H   0  0  0  0  0  0  0  0  0  0  0  0  # atno 10764 bound_to 10752
  153.7264  135.3333  155.3253 H   0  0  0  0  0  0  0  0  0  0  0  0  # atno 10765 bound_to 10752
  140.6889  134.4063  157.5221 H   0  0  0  0  0  0  0  0  0  0  0  0  # atno 11005 bound_to 11000
  145.3348  139.1749  143.4517 LP  0  0  0  0  0  0  0  0  0  0  0  0  # atno 17320 bound_to 7965
  146.3190  140.3381  142.8646 LP  0  0  0  0  0  0  0  0  0  0  0  0  # atno 17321 bound_to 7965
  139.6948  144.7642  151.1375 LP  0  0  0  0  0  0  0  0  0  0  0  0  # atno 17342 bound_to 10162
  140.7687  143.5538  150.9174 LP  0  0  0  0  0  0  0  0  0  0  0  0  # atno 17343 bound_to 10162
  156.0331  130.5421  150.8586 LP  0  0  0  0  0  0  0  0  0  0  0  0  # atno 17370 bound_to 10713
  157.5672  131.0946  150.9471 LP  0  0  0  0  0  0  0  0  0  0  0  0  # atno 17371 bound_to 10713
  139.8929  134.8743  156.2248 LP  0  0  0  0  0  0  0  0  0  0  0  0  # atno 17394 bound_to 11000
  141.0257  133.7016  156.1344 LP  0  0  0  0  0  0  0  0  0  0  0  0  # atno 17395 bound_to 11000

$$$$
