AV-unprocessed.smi:3145|AV-procd|sdf|11983|dock1
  -GOLD-   2272017383D 1   1.00000     0.00000
 Structure written by MMmdl.
 34 34  0  0  0  0  0  0  0  0  3 V2000
  146.7930  132.9373  154.3606 C   0  0  0  0  0  0  0  0  0  0  0  0
  147.3911  133.7140  153.1753 C   0  0  2  0  0  0  0  0  0  0  0  0
  147.4517  132.8717  151.8799 C   0  0  0  0  0  0  0  0  0  0  0  0
  146.1751  132.7877  151.1934 N   0  0  0  0  0  0  0  0  0  0  0  0
  145.8620  132.0876  150.0472 C   0  0  0  0  0  0  0  0  0  0  0  0
  144.5433  132.3177  149.7783 C   0  0  0  0  0  0  0  0  0  0  0  0
  144.1314  133.1877  150.8263 C   0  0  0  0  0  0  0  0  0  0  0  0
  145.1113  133.4700  151.6699 N   0  0  0  0  0  0  0  0  0  0  0  0
  148.7328  134.2113  153.5480 N   0  3  0  0  0  0  0  0  0  0  0  0
  148.8998  134.6033  154.9635 C   0  0  0  0  0  0  0  0  0  0  0  0
  150.0339  135.6247  155.0696 C   0  0  0  0  0  0  0  0  0  0  0  0
  151.1847  135.2528  154.8204 O   0  0  0  0  0  0  0  0  0  0  0  0
  149.5569  136.8419  155.4500 N   0  5  0  0  0  0  0  0  0  0  0  0
  149.9685  138.1019  154.8364 C   0  0  0  0  0  0  0  0  0  0  0  0
  151.2951  137.9093  154.0861 C   0  0  0  0  0  0  0  0  0  0  0  0
  152.4395  138.6052  154.7012 C   0  0  0  0  0  0  0  0  0  0  0  0
  153.3405  139.1526  155.1820 N   0  0  0  0  0  0  0  0  0  0  0  0
  145.7590  132.6478  154.1715 H   0  0  0  0  0  0  0  0  0  0  0  0
  146.7949  133.5446  155.2667 H   0  0  0  0  0  0  0  0  0  0  0  0
  147.3611  132.0299  154.5676 H   0  0  0  0  0  0  0  0  0  0  0  0
  146.7525  134.5819  153.0032 H   0  0  0  0  0  0  0  0  0  0  0  0
  148.1789  133.2852  151.1805 H   0  0  0  0  0  0  0  0  0  0  0  0
  147.7826  131.8576  152.1087 H   0  0  0  0  0  0  0  0  0  0  0  0
  146.5944  131.4888  149.5258 H   0  0  0  0  0  0  0  0  0  0  0  0
  143.9621  131.9260  148.9567 H   0  0  0  0  0  0  0  0  0  0  0  0
  143.1567  133.6208  150.9966 H   0  0  0  0  0  0  0  0  0  0  0  0
  149.3976  133.4678  153.3849 H   0  0  0  0  0  0  0  0  0  0  0  0
  147.9773  135.0388  155.3483 H   0  0  0  0  0  0  0  0  0  0  0  0
  149.1304  133.7301  155.5761 H   0  0  0  0  0  0  0  0  0  0  0  0
  149.2216  138.4838  154.1390 H   0  0  0  0  0  0  0  0  0  0  0  0
  150.1016  138.8817  155.5868 H   0  0  0  0  0  0  0  0  0  0  0  0
  151.5455  136.8490  154.0474 H   0  0  0  0  0  0  0  0  0  0  0  0
  151.2058  138.2515  153.0544 H   0  0  0  0  0  0  0  0  0  0  0  0
  148.9820  134.9917  152.9580 H   0  0  0  0  0  0  0  0  0  0  0  0
  1  2  1  0  0  0  0
  1 18  1  0  0  0  0
  1 19  1  0  0  0  0
  1 20  1  0  0  0  0
  2  3  1  0  0  0  0
  2  9  1  0  0  0  0
  2 21  1  0  0  0  0
  3  4  1  0  0  0  0
  3 22  1  0  0  0  0
  3 23  1  0  0  0  0
  4  8  1  0  0  0  0
  4  5  1  0  0  0  0
  5  6  2  0  0  0  0
  5 24  1  0  0  0  0
  6  7  1  0  0  0  0
  6 25  1  0  0  0  0
  7  8  2  0  0  0  0
  7 26  1  0  0  0  0
  9 10  1  0  0  0  0
  9 27  1  0  0  0  0
  9 34  1  0  0  0  0
 10 11  1  0  0  0  0
 10 28  1  0  0  0  0
 10 29  1  0  0  0  0
 11 12  2  0  0  0  0
 11 13  1  0  0  0  0
 13 14  1  0  0  0  0
 14 15  1  0  0  0  0
 14 30  1  0  0  0  0
 14 31  1  0  0  0  0
 15 16  1  0  0  0  0
 15 32  1  0  0  0  0
 15 33  1  0  0  0  0
 16 17  3  0  0  0  0
M  CHG  1   9   1
M  CHG  1  13  -1
M  END
> <s_m_source_file>
AV-unprocessed.smi

> <i_m_source_file_index>
3145

> <i_lp_mmshare_version>
43012

> <i_f3d_flags>
0

> <s_epik_input>
bjFbY0hdW2NIXVtjSF1uMVtDSDJdW0NAQEhdKFtDSDNdKVtOSF1bQ0gyXUMoPU8pW05IXVtDSDJdW0NIMl1DI04=

> <s_epik_cmdline>
J2VwaWtfcHl0aG9uJywgJy1waCcsICc3LjAnLCAnLXRuJywgJzgnLCAnLW1hJywgJzIwMCcsICctbWV0YWxfYmluZGluZycsICctaW1hZScsICc8aW5maWxlLm1hZT4nLCAnLW9tYWUnLCAnPG91dGZpbGUubWFlPic=

> <r_lp_tautomer_probability>
1

> <r_epik_Ionization_Penalty>
6.20835

> <r_epik_Ionization_Penalty_Charging>
6.20835

> <r_epik_Ionization_Penalty_Neutral>
3.57231e-06

> <r_epik_State_Penalty>
6.38139

> <r_epik_Charging_Adjusted_Penalty>
12.5897

> <i_epik_Tot_Q>
0

> <i_epik_Tot_abs_Q>
2

> <r_epik_Metal_State_Penalty>
2.31725

> <b_epik_Metal_Only>
1

> <s_lp_Force_Field>
OPLS_2005

> <r_lp_Energy>
-0.295423

> <b_lp_Chiralities_Consistent>
1

> <s_lp_Variant>
AV-unprocessed.smi:3145-5

> <Gold.Version>
5.8.1

> <Gold.Id.Protein>
6NUR|6NUR_protein|mol2

> <Gold.PLP.Fitness>
46.2319

> <Gold.PLP.PLP>
-30.8406

> <Gold.PLP.part.hbond>
-3.0000

> <Gold.PLP.part.metal>
0.0000

> <Gold.PLP.part.buried>
-2.9386

> <Gold.PLP.part.nonpolar>
-23.5893

> <Gold.PLP.part.repulsive>
0.3388

> <Gold.PLP.ligand.clash>
0.0000

> <Gold.PLP.ligand.torsion>
1.4895

> <Gold.PLP.Chemscore.Hbond>
4.0000

> <Gold.PLP.Chemscore.CHOScore>
1.9880

> <Gold.PLP.Chemscore.Metal>
0.0000

> <Gold.Chemscore.Hbonds>
donor molecule, donor type, donor heavy atom, donor atom, acceptor molecule, acceptor atom, score
      L1  H     9    34       P1  7948  1.50
      P1  H  7997  8008       L1    17  1.00
      P1  H 10752 10763       L1    12  0.94
      L1  C     5    24       P1 10747  0.93
      L1  C     7    26       P1 10186  0.56

> <Gold.PLP.Chemscore.Internal.Correction>
0.4062

> <Gold.Rescore>
     Score         DG    S(hbond)    S(metal)    S(lipo)     H(rot)  DE(clash)    DE(int)     intcor
     10.17     -12.97       2.33        0.00      58.72       2.79       0.03       2.77       ----

> <Gold.Chemscore.Fitness>
10.1711

> <Gold.Chemscore.DG>
-12.9734

> <Gold.Chemscore.ZeroCoef>
-5.4800

> <Gold.Chemscore.Hbond>
2.3287

> <Gold.Chemscore.Metal>
0.0000

> <Gold.Chemscore.Lipo>
58.7235

> <Gold.Chemscore.Internal_Hbond>
0.0000

> <Gold.Chemscore.DEClash>
0.0294

> <Gold.Chemscore.DEInternal>
2.7729

> <Gold.Chemscore.Rot>
2.7949

> <Gold.Chemscore.Internal.Correction>
   9.000000E+99

> <Gold.Chemscore.Hbonds>
donor molecule, donor type, donor heavy atom, donor atom, acceptor molecule, acceptor atom, score
      L1  H     9    34       P1  7948  0.09
      P1  H  7997  8008       L1    17  0.95
      P1  H 10752 10763       L1    12  0.91

> <Gold.Chemscore.Hbond.Weighted>
-7.7778

> <Gold.Chemscore.Metal.Weighted>
-0.0000

> <Gold.Chemscore.Lipo.Weighted>
-6.8706

> <Gold.Chemscore.Internal_Hbond.Weighted>
0.0000

> <Gold.Chemscore.DEClash.Weighted>
0.0294

> <Gold.Chemscore.DEInternal.Weighted>
2.7729

> <Gold.Chemscore.Rot.Weighted>
7.1551

> <Gold.Chemscore.Internal.Correction.Weighted>
   9.000000E+99

> <Gold.Protein.RotatedTorsions>
[ 6907 6896 6895 6894 ] final  -57.56 input  -60.11 | X-H torsion
[ 7974 7965 7964 7962 ] final   83.43 input  175.53 | X-H torsion
[ 8008 7997 7996 7995 ] final  -32.63 input   59.86 | X-H torsion
[ 10167 10162 10161 10158 ] final -172.38 input  -65.29 | X-H torsion
[ 10718 10713 10712 10709 ] final  175.30 input   66.30 | X-H torsion
[ 10763 10752 10751 10750 ] final   61.03 input  -60.55 | X-H torsion
[ 11005 11000 10999 10996 ] final -150.57 input  -57.11 | X-H torsion

> <Gold.Protein.ActiveResidues>
 VAL166  LYS551  ARG553  GLY616  TRP617  ASP618  TYR619  PRO620  LYS621  CYS622 
 ASP623  PHE694  ASN695  SER759  ASP760  ASP761  ALA762  ILE779  LEU786  VAL792 
 PHE793  MET794  SER795  GLU796  ALA797  LYS798  CYS799  TRP800  GLU811  SER814 

> <Gold.Protein.RotatedAtoms>
  150.8076  134.7211  159.6658 H   0  0  0  0  0  0  0  0  0  0  0  0  # atno 6907 bound_to 6896
  152.4196  134.5976  160.0001 H   0  0  0  0  0  0  0  0  0  0  0  0  # atno 6908 bound_to 6896
  151.6195  133.3303  159.3121 H   0  0  0  0  0  0  0  0  0  0  0  0  # atno 6909 bound_to 6896
  145.6121  139.2370  143.2186 H   0  0  0  0  0  0  0  0  0  0  0  0  # atno 7974 bound_to 7965
  154.4174  140.1732  156.1758 H   0  0  0  0  0  0  0  0  0  0  0  0  # atno 8008 bound_to 7997
  155.9723  140.3384  155.6562 H   0  0  0  0  0  0  0  0  0  0  0  0  # atno 8009 bound_to 7997
  155.6609  140.0701  157.2545 H   0  0  0  0  0  0  0  0  0  0  0  0  # atno 8010 bound_to 7997
  139.5748  144.1558  152.1435 H   0  0  0  0  0  0  0  0  0  0  0  0  # atno 10167 bound_to 10162
  156.9369  130.9989  151.2976 H   0  0  0  0  0  0  0  0  0  0  0  0  # atno 10718 bound_to 10713
  152.9938  135.5515  154.5969 H   0  0  0  0  0  0  0  0  0  0  0  0  # atno 10763 bound_to 10752
  154.5319  135.2814  155.1175 H   0  0  0  0  0  0  0  0  0  0  0  0  # atno 10764 bound_to 10752
  154.2487  135.6403  153.5285 H   0  0  0  0  0  0  0  0  0  0  0  0  # atno 10765 bound_to 10752
  140.7388  134.3538  157.5152 H   0  0  0  0  0  0  0  0  0  0  0  0  # atno 11005 bound_to 11000
  146.1496  140.6943  142.9328 LP  0  0  0  0  0  0  0  0  0  0  0  0  # atno 17320 bound_to 7965
  144.7266  140.4542  143.6969 LP  0  0  0  0  0  0  0  0  0  0  0  0  # atno 17321 bound_to 7965
  140.1099  144.5466  150.6932 LP  0  0  0  0  0  0  0  0  0  0  0  0  # atno 17342 bound_to 10162
  140.7031  143.2448  151.4806 LP  0  0  0  0  0  0  0  0  0  0  0  0  # atno 17343 bound_to 10162
  157.5810  130.8377  149.8523 LP  0  0  0  0  0  0  0  0  0  0  0  0  # atno 17370 bound_to 10713
  156.0422  130.3736  150.1407 LP  0  0  0  0  0  0  0  0  0  0  0  0  # atno 17371 bound_to 10713
  139.8810  134.9067  156.2928 LP  0  0  0  0  0  0  0  0  0  0  0  0  # atno 17394 bound_to 11000
  140.9856  133.7240  156.0736 LP  0  0  0  0  0  0  0  0  0  0  0  0  # atno 17395 bound_to 11000

$$$$
