AV-unprocessed.smi:1027|AV-procd|sdf|4469|dock5
  -GOLD-   22720 2443D 1   1.00000     0.00000
 Structure written by MMmdl.
 35 36  0  0  0  0  0  0  0  0  1 V2000
  155.1416  137.4862  162.9166 C   0  0  0  0  0  0  0  0  0  0  0  0
  154.1143  137.8631  161.8338 C   0  0  0  0  0  0  0  0  0  0  0  0
  153.9461  136.6820  160.8581 C   0  0  0  0  0  0  0  0  0  0  0  0
  154.4813  139.1860  161.1077 C   0  0  2  0  0  0  0  0  0  0  0  0
  155.0271  140.2695  162.0539 C   0  0  0  0  0  0  0  0  0  0  0  0
  153.3151  139.7403  160.4183 N   0  0  0  0  0  0  0  0  0  0  0  0
  153.1057  139.7385  159.0930 C   0  0  0  0  0  0  0  0  0  0  0  0
  153.8832  139.2391  158.2793 O   0  0  0  0  0  0  0  0  0  0  0  0
  151.9471  140.3478  158.7860 N   0  0  0  0  0  0  0  0  0  0  0  0
  151.3729  140.5517  157.5036 C   0  0  0  0  0  0  0  0  0  0  0  0
  151.9233  140.1138  156.3630 N   0  0  0  0  0  0  0  0  0  0  0  0
  151.1579  140.4517  155.2558 N   0  0  0  0  0  0  0  0  0  0  0  0
  150.0555  141.1334  155.5891 C   0  0  0  0  0  0  0  0  0  0  0  0
  149.0781  141.6140  154.5691 C   0  0  0  0  0  0  0  0  0  0  0  0
  147.5923  141.4280  154.7748 C   0  0  0  0  0  0  0  0  0  0  0  0
  148.3036  140.6481  153.6990 C   0  0  0  0  0  0  0  0  0  0  0  0
  149.8549  141.4122  157.3160 S   0  0  0  0  0  0  0  0  0  0  0  0
  156.1435  137.3934  162.4966 H   0  0  0  0  0  0  0  0  0  0  0  0
  154.8891  136.5332  163.3824 H   0  0  0  0  0  0  0  0  0  0  0  0
  155.1788  138.2253  163.7162 H   0  0  0  0  0  0  0  0  0  0  0  0
  153.1545  138.0065  162.3323 H   0  0  0  0  0  0  0  0  0  0  0  0
  154.8553  136.5159  160.2793 H   0  0  0  0  0  0  0  0  0  0  0  0
  153.1293  136.8472  160.1557 H   0  0  0  0  0  0  0  0  0  0  0  0
  153.7199  135.7592  161.3929 H   0  0  0  0  0  0  0  0  0  0  0  0
  155.2665  138.9668  160.3817 H   0  0  0  0  0  0  0  0  0  0  0  0
  155.9765  139.9757  162.5009 H   0  0  0  0  0  0  0  0  0  0  0  0
  154.3263  140.4823  162.8618 H   0  0  0  0  0  0  0  0  0  0  0  0
  155.2075  141.2019  161.5175 H   0  0  0  0  0  0  0  0  0  0  0  0
  152.6142  140.1711  161.0030 H   0  0  0  0  0  0  0  0  0  0  0  0
  151.4187  140.7215  159.5606 H   0  0  0  0  0  0  0  0  0  0  0  0
  149.4179  142.5446  154.1189 H   0  0  0  0  0  0  0  0  0  0  0  0
  147.2685  140.8828  155.6593 H   0  0  0  0  0  0  0  0  0  0  0  0
  146.9379  142.2386  154.4609 H   0  0  0  0  0  0  0  0  0  0  0  0
  148.1238  140.9381  152.6660 H   0  0  0  0  0  0  0  0  0  0  0  0
  148.4382  139.5812  153.8659 H   0  0  0  0  0  0  0  0  0  0  0  0
  1  2  1  0  0  0  0
  1 18  1  0  0  0  0
  1 19  1  0  0  0  0
  1 20  1  0  0  0  0
  2  3  1  0  0  0  0
  2  4  1  0  0  0  0
  2 21  1  0  0  0  0
  3 22  1  0  0  0  0
  3 23  1  0  0  0  0
  3 24  1  0  0  0  0
  4  5  1  0  0  0  0
  4  6  1  0  0  0  0
  4 25  1  0  0  0  0
  5 26  1  0  0  0  0
  5 27  1  0  0  0  0
  5 28  1  0  0  0  0
  6  7  1  0  0  0  0
  6 29  1  0  0  0  0
  7  8  2  0  0  0  0
  7  9  1  0  0  0  0
  9 10  1  0  0  0  0
  9 30  1  0  0  0  0
 10 17  1  0  0  0  0
 10 11  2  0  0  0  0
 11 12  1  0  0  0  0
 12 13  2  0  0  0  0
 13 14  1  0  0  0  0
 13 17  1  0  0  0  0
 14 16  1  0  0  0  0
 14 15  1  0  0  0  0
 14 31  1  0  0  0  0
 15 16  1  0  0  0  0
 15 32  1  0  0  0  0
 15 33  1  0  0  0  0
 16 34  1  0  0  0  0
 16 35  1  0  0  0  0
M  END
> <s_m_source_file>
AV-unprocessed.smi

> <i_m_source_file_index>
1027

> <i_lp_mmshare_version>
43012

> <i_f3d_flags>
0

> <s_epik_input>
W0NIM11bQ0hdKFtDSDNdKVtDQEhdKFtDSDNdKVtOSF1DKD1PKVtOSF1jMW5uYyhzMSlbQ0hdMltDSDJdW0NIMl0y

> <s_epik_cmdline>
J2VwaWtfcHl0aG9uJywgJy1waCcsICc3LjAnLCAnLXRuJywgJzgnLCAnLW1hJywgJzIwMCcsICctbWV0YWxfYmluZGluZycsICctaW1hZScsICc8aW5maWxlLm1hZT4nLCAnLW9tYWUnLCAnPG91dGZpbGUubWFlPic=

> <r_lp_tautomer_probability>
1

> <r_epik_Ionization_Penalty>
0.000943246

> <r_epik_Ionization_Penalty_Charging>
0

> <r_epik_Ionization_Penalty_Neutral>
0.000943246

> <r_epik_State_Penalty>
-0

> <r_epik_Charging_Adjusted_Penalty>
0

> <i_epik_Tot_Q>
0

> <i_epik_Tot_abs_Q>
0

> <r_epik_Metal_State_Penalty>
0.281646

> <b_epik_Metal_Only>
0

> <s_lp_Force_Field>
OPLS_2005

> <r_lp_Energy>
3.85842

> <b_lp_Chiralities_Consistent>
1

> <s_lp_Variant>
AV-unprocessed.smi:1027-1

> <Gold.Version>
5.8.1

> <Gold.Id.Protein>
6NUR|6NUR_protein|mol2

> <Gold.PLP.Fitness>
32.1499

> <Gold.PLP.PLP>
-27.1977

> <Gold.PLP.part.hbond>
-2.0000

> <Gold.PLP.part.metal>
0.0000

> <Gold.PLP.part.buried>
-0.8587

> <Gold.PLP.part.nonpolar>
-24.2010

> <Gold.PLP.part.repulsive>
0.2302

> <Gold.PLP.ligand.clash>
0.0000

> <Gold.PLP.ligand.torsion>
0.5884

> <Gold.PLP.Chemscore.Hbond>
1.9920

> <Gold.PLP.Chemscore.CHOScore>
0.0000

> <Gold.PLP.Chemscore.Metal>
0.0000

> <Gold.Chemscore.Hbonds>
donor molecule, donor type, donor heavy atom, donor atom, acceptor molecule, acceptor atom, score
      P1  H  7989  7998       L1    12  0.98
      P1  H  7997  8010       L1     8  1.00

> <Gold.PLP.Chemscore.Internal.Correction>
0.1530

> <Gold.Rescore>
     Score         DG    S(hbond)    S(metal)    S(lipo)     H(rot)  DE(clash)    DE(int)     intcor
     13.96     -15.62       1.83        0.00      64.81       1.39       0.03       1.64       ----

> <Gold.Chemscore.Fitness>
13.9565

> <Gold.Chemscore.DG>
-15.6233

> <Gold.Chemscore.ZeroCoef>
-5.4800

> <Gold.Chemscore.Hbond>
1.8312

> <Gold.Chemscore.Metal>
0.0000

> <Gold.Chemscore.Lipo>
64.8104

> <Gold.Chemscore.Internal_Hbond>
0.0000

> <Gold.Chemscore.DEClash>
0.0259

> <Gold.Chemscore.DEInternal>
1.6409

> <Gold.Chemscore.Rot>
1.3890

> <Gold.Chemscore.Internal.Correction>
   9.000000E+99

> <Gold.Chemscore.Hbonds>
donor molecule, donor type, donor heavy atom, donor atom, acceptor molecule, acceptor atom, score
      P1  H  7989  7998       L1    12  0.65
      P1  H  7997  8010       L1     8  0.99

> <Gold.Chemscore.Hbond.Weighted>
-6.1163

> <Gold.Chemscore.Metal.Weighted>
-0.0000

> <Gold.Chemscore.Lipo.Weighted>
-7.5828

> <Gold.Chemscore.Internal_Hbond.Weighted>
0.0000

> <Gold.Chemscore.DEClash.Weighted>
0.0259

> <Gold.Chemscore.DEInternal.Weighted>
1.6409

> <Gold.Chemscore.Rot.Weighted>
3.5559

> <Gold.Chemscore.Internal.Correction.Weighted>
   9.000000E+99

> <Gold.Protein.RotatedTorsions>
[ 6907 6896 6895 6894 ] final    5.40 input  -60.11 | X-H torsion
[ 7974 7965 7964 7962 ] final  -80.24 input  175.53 | X-H torsion
[ 8008 7997 7996 7995 ] final   11.42 input   59.86 | X-H torsion
[ 10167 10162 10161 10158 ] final  122.42 input  -65.29 | X-H torsion
[ 10718 10713 10712 10709 ] final   38.50 input   66.30 | X-H torsion
[ 10763 10752 10751 10750 ] final -124.41 input  -60.55 | X-H torsion
[ 11005 11000 10999 10996 ] final -103.33 input  -57.11 | X-H torsion

> <Gold.Protein.ActiveResidues>
 VAL166  LYS551  ARG553  GLY616  TRP617  ASP618  TYR619  PRO620  LYS621  CYS622 
 ASP623  PHE694  ASN695  SER759  ASP760  ASP761  ALA762  ILE779  LEU786  VAL792 
 PHE793  MET794  SER795  GLU796  ALA797  LYS798  CYS799  TRP800  GLU811  SER814 

> <Gold.Protein.RotatedAtoms>
  151.6569  135.0994  160.0171 H   0  0  0  0  0  0  0  0  0  0  0  0  # atno 6907 bound_to 6896
  152.3969  133.6755  159.6292 H   0  0  0  0  0  0  0  0  0  0  0  0  # atno 6908 bound_to 6896
  150.7874  133.8776  159.3317 H   0  0  0  0  0  0  0  0  0  0  0  0  # atno 6909 bound_to 6896
  145.5626  140.9479  143.1439 H   0  0  0  0  0  0  0  0  0  0  0  0  # atno 7974 bound_to 7965
  154.8066  140.2861  155.5883 H   0  0  0  0  0  0  0  0  0  0  0  0  # atno 8008 bound_to 7997
  156.2983  140.2576  156.2876 H   0  0  0  0  0  0  0  0  0  0  0  0  # atno 8009 bound_to 7997
  154.9495  140.0379  157.2126 H   0  0  0  0  0  0  0  0  0  0  0  0  # atno 8010 bound_to 7997
  139.5860  144.7006  151.3409 H   0  0  0  0  0  0  0  0  0  0  0  0  # atno 10167 bound_to 10162
  157.3595  130.7642  149.7037 H   0  0  0  0  0  0  0  0  0  0  0  0  # atno 10718 bound_to 10713
  154.8723  135.4065  154.3101 H   0  0  0  0  0  0  0  0  0  0  0  0  # atno 10763 bound_to 10752
  153.3946  135.7016  153.6475 H   0  0  0  0  0  0  0  0  0  0  0  0  # atno 10764 bound_to 10752
  153.5244  135.3680  155.2618 H   0  0  0  0  0  0  0  0  0  0  0  0  # atno 10765 bound_to 10752
  141.1150  133.8632  157.1473 H   0  0  0  0  0  0  0  0  0  0  0  0  # atno 11005 bound_to 11000
  144.7476  139.7279  143.7286 LP  0  0  0  0  0  0  0  0  0  0  0  0  # atno 17320 bound_to 7965
  146.1841  139.5047  142.9848 LP  0  0  0  0  0  0  0  0  0  0  0  0  # atno 17321 bound_to 7965
  140.7131  143.7337  150.7604 LP  0  0  0  0  0  0  0  0  0  0  0  0  # atno 17342 bound_to 10162
  140.0882  143.4903  152.2493 LP  0  0  0  0  0  0  0  0  0  0  0  0  # atno 17343 bound_to 10162
  155.9735  130.4118  150.3998 LP  0  0  0  0  0  0  0  0  0  0  0  0  # atno 17370 bound_to 10713
  157.2073  131.0452  151.2618 LP  0  0  0  0  0  0  0  0  0  0  0  0  # atno 17371 bound_to 10713
  140.0067  135.0005  157.0307 LP  0  0  0  0  0  0  0  0  0  0  0  0  # atno 17394 bound_to 11000
  140.4670  134.1425  155.7198 LP  0  0  0  0  0  0  0  0  0  0  0  0  # atno 17395 bound_to 11000

$$$$
