AV-unprocessed.smi:1856|AV-procd|sdf|7533|dock9
  -GOLD-   22720 9243D 1   1.00000     0.00000
 Structure written by MMmdl.
 44 45  0  0  0  0  0  0  0  0  1 V2000
  146.9465  135.0117  162.0584 C   0  0  0  0  0  0  0  0  0  0  0  0
  147.5774  135.2610  160.6790 C   0  0  0  0  0  0  0  0  0  0  0  0
  148.2427  136.6439  160.5358 C   0  0  0  0  0  0  0  0  0  0  0  0
  149.1960  136.7263  159.3409 C   0  0  0  0  0  0  0  0  0  0  0  0
  149.2623  135.7953  158.5382 O   0  0  0  0  0  0  0  0  0  0  0  0
  149.9084  137.8576  159.2224 N   0  0  0  0  0  0  0  0  0  0  0  0
  150.7651  138.1972  158.0895 C   0  0  2  0  0  0  0  0  0  0  0  0
  151.9190  137.1909  157.9736 C   0  0  0  0  0  0  0  0  0  0  0  0
  151.2521  139.6122  158.2895 C   0  0  0  0  0  0  0  0  0  0  0  0
  152.2176  139.8951  159.1692 N   0  0  0  0  0  0  0  0  0  0  0  0
  152.3368  141.2656  159.0696 C   0  0  0  0  0  0  0  0  0  0  0  0
  153.1948  142.1638  159.7435 C   0  0  0  0  0  0  0  0  0  0  0  0
  153.1333  143.5467  159.4743 C   0  0  0  0  0  0  0  0  0  0  0  0
  152.2152  144.0494  158.5299 C   0  0  0  0  0  0  0  0  0  0  0  0
  151.3513  143.1707  157.8484 C   0  0  0  0  0  0  0  0  0  0  0  0
  151.4164  141.7909  158.1209 C   0  0  0  0  0  0  0  0  0  0  0  0
  150.7206  140.6848  157.6422 N   0  0  0  0  0  0  0  0  0  0  0  0
  149.6476  140.7338  156.6558 C   0  0  0  0  0  0  0  0  0  0  0  0
  150.1353  141.1949  155.2697 C   0  0  2  0  0  0  0  0  0  0  0  0
  148.9730  141.4085  154.2923 C   0  0  0  0  0  0  0  0  0  0  0  0
  151.0190  140.2427  154.7134 O   0  0  0  0  0  0  0  0  0  0  0  0
  146.5454  134.0002  162.1226 H   0  0  0  0  0  0  0  0  0  0  0  0
  146.1258  135.7019  162.2579 H   0  0  0  0  0  0  0  0  0  0  0  0
  147.6823  135.1283  162.8544 H   0  0  0  0  0  0  0  0  0  0  0  0
  148.3279  134.4922  160.4932 H   0  0  0  0  0  0  0  0  0  0  0  0
  146.8199  135.1296  159.9051 H   0  0  0  0  0  0  0  0  0  0  0  0
  147.4750  137.4153  160.4571 H   0  0  0  0  0  0  0  0  0  0  0  0
  148.8127  136.8690  161.4377 H   0  0  0  0  0  0  0  0  0  0  0  0
  149.7893  138.5686  159.9291 H   0  0  0  0  0  0  0  0  0  0  0  0
  150.1848  138.1134  157.1728 H   0  0  0  0  0  0  0  0  0  0  0  0
  152.5691  137.4372  157.1336 H   0  0  0  0  0  0  0  0  0  0  0  0
  151.5417  136.1805  157.8134 H   0  0  0  0  0  0  0  0  0  0  0  0
  152.5326  137.1769  158.8750 H   0  0  0  0  0  0  0  0  0  0  0  0
  153.9007  141.7879  160.4690 H   0  0  0  0  0  0  0  0  0  0  0  0
  153.7931  144.2250  159.9954 H   0  0  0  0  0  0  0  0  0  0  0  0
  152.1735  145.1101  158.3299 H   0  0  0  0  0  0  0  0  0  0  0  0
  150.6466  143.5532  157.1252 H   0  0  0  0  0  0  0  0  0  0  0  0
  149.1440  139.7704  156.5982 H   0  0  0  0  0  0  0  0  0  0  0  0
  148.8902  141.4279  157.0215 H   0  0  0  0  0  0  0  0  0  0  0  0
  150.6825  142.1324  155.3762 H   0  0  0  0  0  0  0  0  0  0  0  0
  148.2816  142.1632  154.6676 H   0  0  0  0  0  0  0  0  0  0  0  0
  148.4089  140.4875  154.1392 H   0  0  0  0  0  0  0  0  0  0  0  0
  149.3321  141.7460  153.3196 H   0  0  0  0  0  0  0  0  0  0  0  0
  150.5257  139.4663  154.4973 H   0  0  0  0  0  0  0  0  0  0  0  0
  1  2  1  0  0  0  0
  1 22  1  0  0  0  0
  1 23  1  0  0  0  0
  1 24  1  0  0  0  0
  2  3  1  0  0  0  0
  2 25  1  0  0  0  0
  2 26  1  0  0  0  0
  3  4  1  0  0  0  0
  3 27  1  0  0  0  0
  3 28  1  0  0  0  0
  4  5  2  0  0  0  0
  4  6  1  0  0  0  0
  6  7  1  0  0  0  0
  6 29  1  0  0  0  0
  7  8  1  0  0  0  0
  7  9  1  0  0  0  0
  7 30  1  0  0  0  0
  8 31  1  0  0  0  0
  8 32  1  0  0  0  0
  8 33  1  0  0  0  0
  9 17  1  0  0  0  0
  9 10  2  0  0  0  0
 10 11  1  0  0  0  0
 11 16  2  0  0  0  0
 11 12  1  0  0  0  0
 12 13  2  0  0  0  0
 12 34  1  0  0  0  0
 13 14  1  0  0  0  0
 13 35  1  0  0  0  0
 14 15  2  0  0  0  0
 14 36  1  0  0  0  0
 15 16  1  0  0  0  0
 15 37  1  0  0  0  0
 16 17  1  0  0  0  0
 17 18  1  0  0  0  0
 18 19  1  0  0  0  0
 18 38  1  0  0  0  0
 18 39  1  0  0  0  0
 19 20  1  0  0  0  0
 19 21  1  0  0  0  0
 19 40  1  0  0  0  0
 20 41  1  0  0  0  0
 20 42  1  0  0  0  0
 20 43  1  0  0  0  0
 21 44  1  0  0  0  0
M  END
> <s_m_source_file>
AV-unprocessed.smi

> <i_m_source_file_index>
1856

> <i_lp_mmshare_version>
43012

> <i_f3d_flags>
0

> <s_epik_input>
W0NIM11bQ0gyXVtDSDJdQyg9TylbTkhdW0NASF0oW0NIM10pYyhuMSluKFtDSDJdW0NASF0oW0NIM10pW09IXSljKGMxMilbY0hdW2NIXVtjSF1bY0hdMg==

> <s_epik_cmdline>
J2VwaWtfcHl0aG9uJywgJy1waCcsICc3LjAnLCAnLXRuJywgJzgnLCAnLW1hJywgJzIwMCcsICctbWV0YWxfYmluZGluZycsICctaW1hZScsICc8aW5maWxlLm1hZT4nLCAnLW9tYWUnLCAnPG91dGZpbGUubWFlPic=

> <r_epik_Ionization_Penalty>
0.134222

> <r_epik_Ionization_Penalty_Charging>
0

> <r_epik_Ionization_Penalty_Neutral>
0.134222

> <r_epik_State_Penalty>
0.123585

> <r_epik_Charging_Adjusted_Penalty>
0.123585

> <i_epik_Tot_Q>
0

> <i_epik_Tot_abs_Q>
0

> <r_epik_Metal_State_Penalty>
0.100548

> <b_epik_Metal_Only>
0

> <s_lp_Force_Field>
OPLS_2005

> <r_lp_Energy>
0.748352

> <b_lp_Chiralities_Consistent>
1

> <s_lp_Variant>
AV-unprocessed.smi:1856-1

> <Gold.Version>
5.8.1

> <Gold.Id.Protein>
6NUR|6NUR_protein|mol2

> <Gold.PLP.Fitness>
47.7484

> <Gold.PLP.PLP>
-42.9163

> <Gold.PLP.part.hbond>
-2.0000

> <Gold.PLP.part.metal>
0.0000

> <Gold.PLP.part.buried>
-4.2886

> <Gold.PLP.part.nonpolar>
-36.7548

> <Gold.PLP.part.repulsive>
0.4368

> <Gold.PLP.ligand.clash>
0.0000

> <Gold.PLP.ligand.torsion>
0.6251

> <Gold.PLP.Chemscore.Hbond>
2.0000

> <Gold.PLP.Chemscore.CHOScore>
0.0000

> <Gold.PLP.Chemscore.Metal>
0.0000

> <Gold.Chemscore.Hbonds>
donor molecule, donor type, donor heavy atom, donor atom, acceptor molecule, acceptor atom, score
      P1  H  6896  6909       L1     5  0.65
      P1  H  7989  7998       L1    21  0.93

> <Gold.PLP.Chemscore.Internal.Correction>
0.0823

> <Gold.Rescore>
     Score         DG    S(hbond)    S(metal)    S(lipo)     H(rot)  DE(clash)    DE(int)     intcor
     15.90     -17.60       1.72        0.00     107.95       2.45       0.90       0.80       ----

> <Gold.Chemscore.Fitness>
15.8957

> <Gold.Chemscore.DG>
-17.5965

> <Gold.Chemscore.ZeroCoef>
-5.4800

> <Gold.Chemscore.Hbond>
1.7209

> <Gold.Chemscore.Metal>
0.0000

> <Gold.Chemscore.Lipo>
107.9500

> <Gold.Chemscore.Internal_Hbond>
0.0000

> <Gold.Chemscore.DEClash>
0.8966

> <Gold.Chemscore.DEInternal>
0.8043

> <Gold.Chemscore.Rot>
2.4459

> <Gold.Chemscore.Internal.Correction>
   9.000000E+99

> <Gold.Chemscore.Hbonds>
donor molecule, donor type, donor heavy atom, donor atom, acceptor molecule, acceptor atom, score
      P1  H  6896  6909       L1     5  0.28
      P1  H  7989  7998       L1    21  0.44

> <Gold.Chemscore.Hbond.Weighted>
-5.7478

> <Gold.Chemscore.Metal.Weighted>
-0.0000

> <Gold.Chemscore.Lipo.Weighted>
-12.6301

> <Gold.Chemscore.Internal_Hbond.Weighted>
0.0000

> <Gold.Chemscore.DEClash.Weighted>
0.8966

> <Gold.Chemscore.DEInternal.Weighted>
0.8043

> <Gold.Chemscore.Rot.Weighted>
6.2614

> <Gold.Chemscore.Internal.Correction.Weighted>
   9.000000E+99

> <Gold.Protein.RotatedTorsions>
[ 6907 6896 6895 6894 ] final   36.67 input  -60.11 | X-H torsion
[ 7974 7965 7964 7962 ] final -156.35 input  175.53 | X-H torsion
[ 8008 7997 7996 7995 ] final  123.53 input   59.86 | X-H torsion
[ 10167 10162 10161 10158 ] final   15.18 input  -65.29 | X-H torsion
[ 10718 10713 10712 10709 ] final  152.45 input   66.30 | X-H torsion
[ 10763 10752 10751 10750 ] final  -35.91 input  -60.55 | X-H torsion
[ 11005 11000 10999 10996 ] final   39.73 input  -57.11 | X-H torsion

> <Gold.Protein.ActiveResidues>
 VAL166  LYS551  ARG553  GLY616  TRP617  ASP618  TYR619  PRO620  LYS621  CYS622 
 ASP623  PHE694  ASN695  SER759  ASP760  ASP761  ALA762  ILE779  LEU786  VAL792 
 PHE793  MET794  SER795  GLU796  ALA797  LYS798  CYS799  TRP800  GLU811  SER814 

> <Gold.Protein.RotatedAtoms>
  152.1329  134.9121  160.0557 H   0  0  0  0  0  0  0  0  0  0  0  0  # atno 6907 bound_to 6896
  152.0218  133.3897  159.4269 H   0  0  0  0  0  0  0  0  0  0  0  0  # atno 6908 bound_to 6896
  150.6858  134.3539  159.4964 H   0  0  0  0  0  0  0  0  0  0  0  0  # atno 6909 bound_to 6896
  144.7597  140.4122  143.5986 H   0  0  0  0  0  0  0  0  0  0  0  0  # atno 7974 bound_to 7965
  156.2769  140.2761  156.1642 H   0  0  0  0  0  0  0  0  0  0  0  0  # atno 8008 bound_to 7997
  155.0722  140.0387  157.2630 H   0  0  0  0  0  0  0  0  0  0  0  0  # atno 8009 bound_to 7997
  154.7031  140.2653  155.6706 H   0  0  0  0  0  0  0  0  0  0  0  0  # atno 8010 bound_to 7997
  140.5884  143.8843  150.6851 H   0  0  0  0  0  0  0  0  0  0  0  0  # atno 10167 bound_to 10162
  157.2577  131.0792  151.1687 H   0  0  0  0  0  0  0  0  0  0  0  0  # atno 10718 bound_to 10713
  153.8710  135.6831  153.4774 H   0  0  0  0  0  0  0  0  0  0  0  0  # atno 10763 bound_to 10752
  153.1287  135.4707  154.9312 H   0  0  0  0  0  0  0  0  0  0  0  0  # atno 10764 bound_to 10752
  154.7714  135.3240  154.8132 H   0  0  0  0  0  0  0  0  0  0  0  0  # atno 10765 bound_to 10752
  140.2000  134.3882  155.8101 H   0  0  0  0  0  0  0  0  0  0  0  0  # atno 11005 bound_to 11000
  145.6660  139.1590  143.2781 LP  0  0  0  0  0  0  0  0  0  0  0  0  # atno 17320 bound_to 7965
  146.1647  140.6736  142.9261 LP  0  0  0  0  0  0  0  0  0  0  0  0  # atno 17321 bound_to 7965
  140.2360  143.3700  152.1526 LP  0  0  0  0  0  0  0  0  0  0  0  0  # atno 17342 bound_to 10162
  139.5212  144.7043  151.5401 LP  0  0  0  0  0  0  0  0  0  0  0  0  # atno 17343 bound_to 10162
  157.3210  130.6937  149.6269 LP  0  0  0  0  0  0  0  0  0  0  0  0  # atno 17370 bound_to 10713
  155.9664  130.4335  150.5011 LP  0  0  0  0  0  0  0  0  0  0  0  0  # atno 17371 bound_to 10713
  141.2227  133.7089  156.8241 LP  0  0  0  0  0  0  0  0  0  0  0  0  # atno 17394 bound_to 11000
  140.2065  134.8859  157.3227 LP  0  0  0  0  0  0  0  0  0  0  0  0  # atno 17395 bound_to 11000

$$$$
