AV-unprocessed.smi:3330|AV-procd|sdf|12816|dock1
  -GOLD-   2272019183D 1   1.00000     0.00000
 Structure written by MMmdl.
 37 38  0  0  0  0  0  0  0  0  2 V2000
  148.8539  134.0284  156.2033 C   0  0  0  0  0  0  0  0  0  0  0  0
  148.6619  134.3607  154.7106 C   0  0  1  0  0  0  0  0  0  0  0  0
  149.4386  135.5546  154.3888 N   0  0  0  0  0  0  0  0  0  0  0  0
  149.0067  136.7130  155.1576 C   0  0  0  0  0  0  0  0  0  0  0  0
  149.6463  137.9865  154.5781 C   0  0  0  0  0  0  0  0  0  0  0  0
  150.9729  138.2445  155.1544 N   0  0  0  0  0  0  0  0  0  0  0  0
  151.8210  137.2934  155.5585 C   0  0  0  0  0  0  0  0  0  0  0  0
  151.6653  136.0726  155.5183 O   0  0  0  0  0  0  0  0  0  0  0  0
  153.0603  137.9802  156.0832 C   0  0  0  0  0  0  0  0  0  0  0  0
  152.7512  139.3763  155.8761 N   0  5  0  0  0  0  0  0  0  0  0  0
  151.5157  139.4650  155.3299 C   0  0  0  0  0  0  0  0  0  0  0  0
  150.9246  140.4977  155.0154 O   0  0  0  0  0  0  0  0  0  0  0  0
  149.1148  133.2115  153.7689 C   0  0  1  0  0  0  0  0  0  0  0  0
  149.8622  132.0871  154.5098 C   0  0  0  0  0  0  0  0  0  0  0  0
  147.9906  132.6466  153.0278 N   0  0  0  0  0  0  0  0  0  0  0  0
  147.1839  133.2713  152.0990 C   0  0  0  0  0  0  0  0  0  0  0  0
  146.2619  132.3572  151.6773 C   0  0  0  0  0  0  0  0  0  0  0  0
  146.5859  131.1850  152.4156 C   0  0  0  0  0  0  0  0  0  0  0  0
  147.6241  131.3583  153.2166 N   0  0  0  0  0  0  0  0  0  0  0  0
  148.2391  133.1813  156.5055 H   0  0  0  0  0  0  0  0  0  0  0  0
  148.5678  134.8618  156.8444 H   0  0  0  0  0  0  0  0  0  0  0  0
  149.8928  133.7818  156.4243 H   0  0  0  0  0  0  0  0  0  0  0  0
  147.6054  134.5565  154.5206 H   0  0  0  0  0  0  0  0  0  0  0  0
  149.2966  135.7669  153.4109 H   0  0  0  0  0  0  0  0  0  0  0  0
  147.9199  136.8057  155.1431 H   0  0  0  0  0  0  0  0  0  0  0  0
  149.3066  136.5884  156.1981 H   0  0  0  0  0  0  0  0  0  0  0  0
  149.7488  137.8741  153.4978 H   0  0  0  0  0  0  0  0  0  0  0  0
  148.9864  138.8449  154.7164 H   0  0  0  0  0  0  0  0  0  0  0  0
  153.2090  137.7239  157.1326 H   0  0  0  0  0  0  0  0  0  0  0  0
  153.9372  137.6466  155.5285 H   0  0  0  0  0  0  0  0  0  0  0  0
  149.8018  133.6281  153.0303 H   0  0  0  0  0  0  0  0  0  0  0  0
  150.8041  132.4378  154.9301 H   0  0  0  0  0  0  0  0  0  0  0  0
  150.1020  131.2665  153.8329 H   0  0  0  0  0  0  0  0  0  0  0  0
  149.2632  131.6800  155.3251 H   0  0  0  0  0  0  0  0  0  0  0  0
  147.3275  134.3054  151.8227 H   0  0  0  0  0  0  0  0  0  0  0  0
  145.4705  132.5053  150.9579 H   0  0  0  0  0  0  0  0  0  0  0  0
  146.1003  130.2205  152.3940 H   0  0  0  0  0  0  0  0  0  0  0  0
  1  2  1  0  0  0  0
  1 20  1  0  0  0  0
  1 21  1  0  0  0  0
  1 22  1  0  0  0  0
  2  3  1  0  0  0  0
  2 13  1  0  0  0  0
  2 23  1  0  0  0  0
  3  4  1  0  0  0  0
  3 24  1  0  0  0  0
  4  5  1  0  0  0  0
  4 25  1  0  0  0  0
  4 26  1  0  0  0  0
  5  6  1  0  0  0  0
  5 27  1  0  0  0  0
  5 28  1  0  0  0  0
  6 11  1  0  0  0  0
  6  7  1  0  0  0  0
  7  8  2  0  0  0  0
  7  9  1  0  0  0  0
  9 10  1  0  0  0  0
  9 29  1  0  0  0  0
  9 30  1  0  0  0  0
 10 11  1  0  0  0  0
 11 12  2  0  0  0  0
 13 14  1  0  0  0  0
 13 15  1  0  0  0  0
 13 31  1  0  0  0  0
 14 32  1  0  0  0  0
 14 33  1  0  0  0  0
 14 34  1  0  0  0  0
 15 19  1  0  0  0  0
 15 16  1  0  0  0  0
 16 17  2  0  0  0  0
 16 35  1  0  0  0  0
 17 18  1  0  0  0  0
 17 36  1  0  0  0  0
 18 19  2  0  0  0  0
 18 37  1  0  0  0  0
M  CHG  1  10  -1
M  END
> <s_m_source_file>
AV-unprocessed.smi

> <i_m_source_file_index>
3330

> <i_lp_mmshare_version>
43012

> <i_f3d_flags>
0

> <s_epik_input>
bjFbY0hdW2NIXVtjSF1uMVtDQEBIXShbQ0gzXSlbQ0BIXShbQ0gzXSlbTkhdW0NIMl1bQ0gyXU4yQyg9TylbQ0gyXVtOSF1DMj1P

> <s_epik_cmdline>
J2VwaWtfcHl0aG9uJywgJy1waCcsICc3LjAnLCAnLXRuJywgJzgnLCAnLW1hJywgJzIwMCcsICctbWV0YWxfYmluZGluZycsICctaW1hZScsICc8aW5maWxlLm1hZT4nLCAnLW9tYWUnLCAnPG91dGZpbGUubWFlPic=

> <r_lp_tautomer_probability>
1

> <r_epik_Ionization_Penalty>
8.77477

> <r_epik_Ionization_Penalty_Charging>
6.28461

> <r_epik_Ionization_Penalty_Neutral>
2.49016

> <r_epik_State_Penalty>
8.73376

> <r_epik_Charging_Adjusted_Penalty>
15.0184

> <i_epik_Tot_Q>
-1

> <i_epik_Tot_abs_Q>
1

> <r_epik_Metal_State_Penalty>
4.73175

> <b_epik_Metal_Only>
1

> <s_lp_Force_Field>
OPLS_2005

> <r_lp_Energy>
23.0712

> <b_lp_Chiralities_Consistent>
1

> <s_lp_Variant>
AV-unprocessed.smi:3330-16

> <Gold.Version>
5.8.1

> <Gold.Id.Protein>
6NUR|6NUR_protein|mol2

> <Gold.PLP.Fitness>
44.6976

> <Gold.PLP.PLP>
-30.5502

> <Gold.PLP.part.hbond>
-4.0000

> <Gold.PLP.part.metal>
0.0000

> <Gold.PLP.part.buried>
-2.8448

> <Gold.PLP.part.nonpolar>
-24.6400

> <Gold.PLP.part.repulsive>
0.2261

> <Gold.PLP.ligand.clash>
0.0000

> <Gold.PLP.ligand.torsion>
2.1185

> <Gold.PLP.Chemscore.Hbond>
5.0000

> <Gold.PLP.Chemscore.CHOScore>
1.0000

> <Gold.PLP.Chemscore.Metal>
0.0000

> <Gold.Chemscore.Hbonds>
donor molecule, donor type, donor heavy atom, donor atom, acceptor molecule, acceptor atom, score
      L1  H     3    24       P1  7948  1.00
      P1  H  7989  7998       L1    12  1.00
      P1  H  7997  8010       L1    10  2.00
      P1  H 10752 10763       L1     8  1.00
      L1  C    16    35       P1  7948  1.00

> <Gold.PLP.Chemscore.Internal.Correction>
0.3844

> <Gold.Rescore>
     Score         DG    S(hbond)    S(metal)    S(lipo)     H(rot)  DE(clash)    DE(int)     intcor
      8.95     -14.16       2.80        0.00      49.45       2.52       0.01       5.20       ----

> <Gold.Chemscore.Fitness>
8.9517

> <Gold.Chemscore.DG>
-14.1622

> <Gold.Chemscore.ZeroCoef>
-5.4800

> <Gold.Chemscore.Hbond>
2.7957

> <Gold.Chemscore.Metal>
0.0000

> <Gold.Chemscore.Lipo>
49.4502

> <Gold.Chemscore.Internal_Hbond>
0.0000

> <Gold.Chemscore.DEClash>
0.0088

> <Gold.Chemscore.DEInternal>
5.2017

> <Gold.Chemscore.Rot>
2.5160

> <Gold.Chemscore.Internal.Correction>
   9.000000E+99

> <Gold.Chemscore.Hbonds>
donor molecule, donor type, donor heavy atom, donor atom, acceptor molecule, acceptor atom, score
      L1  H     3    24       P1  7948  0.50
      P1  H  7989  7998       L1    12  0.38
      P1  H  7997  8010       L1    10  0.26
      P1  H 10752 10763       L1     8  0.39

> <Gold.Chemscore.Hbond.Weighted>
-9.3376

> <Gold.Chemscore.Metal.Weighted>
-0.0000

> <Gold.Chemscore.Lipo.Weighted>
-5.7857

> <Gold.Chemscore.Internal_Hbond.Weighted>
0.0000

> <Gold.Chemscore.DEClash.Weighted>
0.0088

> <Gold.Chemscore.DEInternal.Weighted>
5.2017

> <Gold.Chemscore.Rot.Weighted>
6.4410

> <Gold.Chemscore.Internal.Correction.Weighted>
   9.000000E+99

> <Gold.Protein.RotatedTorsions>
[ 6907 6896 6895 6894 ] final   69.75 input  -60.11 | X-H torsion
[ 7974 7965 7964 7962 ] final -115.72 input  175.53 | X-H torsion
[ 8008 7997 7996 7995 ] final   76.87 input   59.86 | X-H torsion
[ 10167 10162 10161 10158 ] final   87.92 input  -65.29 | X-H torsion
[ 10718 10713 10712 10709 ] final  -85.84 input   66.30 | X-H torsion
[ 10763 10752 10751 10750 ] final   59.94 input  -60.55 | X-H torsion
[ 11005 11000 10999 10996 ] final -104.11 input  -57.11 | X-H torsion

> <Gold.Protein.ActiveResidues>
 VAL166  LYS551  ARG553  GLY616  TRP617  ASP618  TYR619  PRO620  LYS621  CYS622 
 ASP623  PHE694  ASN695  SER759  ASP760  ASP761  ALA762  ILE779  LEU786  VAL792 
 PHE793  MET794  SER795  GLU796  ALA797  LYS798  CYS799  TRP800  GLU811  SER814 

> <Gold.Protein.RotatedAtoms>
  152.4706  134.4969  159.9712 H   0  0  0  0  0  0  0  0  0  0  0  0  # atno 6907 bound_to 6896
  151.4996  133.3501  159.2874 H   0  0  0  0  0  0  0  0  0  0  0  0  # atno 6908 bound_to 6896
  150.8714  134.8116  159.7219 H   0  0  0  0  0  0  0  0  0  0  0  0  # atno 6909 bound_to 6896
  145.1051  140.8577  143.3903 H   0  0  0  0  0  0  0  0  0  0  0  0  # atno 7974 bound_to 7965
  155.8335  140.3465  155.5587 H   0  0  0  0  0  0  0  0  0  0  0  0  # atno 8008 bound_to 7997
  155.8217  140.0914  157.1865 H   0  0  0  0  0  0  0  0  0  0  0  0  # atno 8009 bound_to 7997
  154.4004  140.1429  156.3495 H   0  0  0  0  0  0  0  0  0  0  0  0  # atno 8010 bound_to 7997
  139.8725  144.6485  150.8933 H   0  0  0  0  0  0  0  0  0  0  0  0  # atno 10167 bound_to 10162
  155.9994  130.4745  150.4624 H   0  0  0  0  0  0  0  0  0  0  0  0  # atno 10718 bound_to 10713
  152.9907  135.5554  154.5793 H   0  0  0  0  0  0  0  0  0  0  0  0  # atno 10763 bound_to 10752
  154.5178  135.2806  155.1291 H   0  0  0  0  0  0  0  0  0  0  0  0  # atno 10764 bound_to 10752
  154.2656  135.6373  153.5344 H   0  0  0  0  0  0  0  0  0  0  0  0  # atno 10765 bound_to 10752
  141.1115  133.8696  157.1570 H   0  0  0  0  0  0  0  0  0  0  0  0  # atno 11005 bound_to 11000
  145.0910  139.2890  143.5735 LP  0  0  0  0  0  0  0  0  0  0  0  0  # atno 17320 bound_to 7965
  146.3528  140.0448  142.8640 LP  0  0  0  0  0  0  0  0  0  0  0  0  # atno 17321 bound_to 7965
  140.7758  143.3652  151.1753 LP  0  0  0  0  0  0  0  0  0  0  0  0  # atno 17342 bound_to 10162
  139.7270  143.9132  152.3006 LP  0  0  0  0  0  0  0  0  0  0  0  0  # atno 17343 bound_to 10162
  157.2647  131.0574  151.2298 LP  0  0  0  0  0  0  0  0  0  0  0  0  # atno 17370 bound_to 10713
  157.3400  130.7028  149.6376 LP  0  0  0  0  0  0  0  0  0  0  0  0  # atno 17371 bound_to 10713
  140.0012  135.0027  157.0194 LP  0  0  0  0  0  0  0  0  0  0  0  0  # atno 17394 bound_to 11000
  140.4761  134.1337  155.7210 LP  0  0  0  0  0  0  0  0  0  0  0  0  # atno 17395 bound_to 11000

$$$$
