AV-unprocessed.smi:1643|AV-procd|sdf|6577|dock8
  -GOLD-   22720 7263D 1   1.00000     0.00000
 Structure written by MMmdl.
 53 55  0  0  0  0  0  0  0  0  1 V2000
  145.3732  144.1105  158.2327 C   0  0  0  0  0  0  0  0  0  0  0  0
  145.5009  142.6470  158.6625 C   0  0  0  0  0  0  0  0  0  0  0  0
  146.0191  142.4029  159.7525 O   0  0  0  0  0  0  0  0  0  0  0  0
  145.0495  141.6751  157.8336 N   0  0  0  0  0  0  0  0  0  0  0  0
  145.2036  140.2499  158.1452 C   0  0  0  0  0  0  0  0  0  0  0  0
  146.5323  139.7222  157.5811 C   0  0  0  0  0  0  0  0  0  0  0  0
  146.7202  139.9443  156.0655 C   0  0  0  0  0  0  0  0  0  0  0  0
  146.8724  141.3556  155.6831 N   0  0  0  0  0  0  0  0  0  0  0  0
  147.7722  141.5307  154.5406 C   0  0  0  0  0  0  0  0  0  0  0  0
  149.2110  141.0283  154.7741 C   0  0  1  0  0  0  0  0  0  0  0  0
  149.7970  140.7585  153.5169 O   0  0  0  0  0  0  0  0  0  0  0  0
  150.0770  142.0626  155.5204 C   0  0  0  0  0  0  0  0  0  0  0  0
  151.0068  141.4349  156.4398 N   0  0  0  0  0  0  0  0  0  0  0  0
  151.6506  140.2621  156.2856 C   0  0  0  0  0  0  0  0  0  0  0  0
  152.4614  139.8804  157.2690 N   0  0  0  0  0  0  0  0  0  0  0  0
  152.3315  140.9307  158.1623 C   0  0  0  0  0  0  0  0  0  0  0  0
  152.9328  141.1466  159.4217 C   0  0  0  0  0  0  0  0  0  0  0  0
  152.6480  142.3109  160.1710 C   0  0  0  0  0  0  0  0  0  0  0  0
  153.3173  142.5029  161.5205 C   0  0  0  0  0  0  0  0  0  0  0  0
  151.7474  143.2815  159.6622 C   0  0  0  0  0  0  0  0  0  0  0  0
  151.4244  144.5402  160.4479 C   0  0  0  0  0  0  0  0  0  0  0  0
  151.1379  143.0808  158.4067 C   0  0  0  0  0  0  0  0  0  0  0  0
  151.4299  141.9190  157.6713 C   0  0  0  0  0  0  0  0  0  0  0  0
  145.5802  141.9986  155.4024 C   0  0  0  0  0  0  0  0  0  0  0  0
  144.4924  141.9170  156.4976 C   0  0  0  0  0  0  0  0  0  0  0  0
  145.8768  144.2836  157.2816 H   0  0  0  0  0  0  0  0  0  0  0  0
  145.8306  144.7673  158.9735 H   0  0  0  0  0  0  0  0  0  0  0  0
  144.3255  144.3963  158.1368 H   0  0  0  0  0  0  0  0  0  0  0  0
  145.1636  140.0761  159.2217 H   0  0  0  0  0  0  0  0  0  0  0  0
  144.3744  139.6703  157.7379 H   0  0  0  0  0  0  0  0  0  0  0  0
  147.3640  140.1823  158.1164 H   0  0  0  0  0  0  0  0  0  0  0  0
  146.5988  138.6547  157.7921 H   0  0  0  0  0  0  0  0  0  0  0  0
  147.6049  139.3785  155.7794 H   0  0  0  0  0  0  0  0  0  0  0  0
  145.9024  139.4866  155.5071 H   0  0  0  0  0  0  0  0  0  0  0  0
  147.3436  141.0373  153.6667 H   0  0  0  0  0  0  0  0  0  0  0  0
  147.8337  142.5891  154.2832 H   0  0  0  0  0  0  0  0  0  0  0  0
  149.2050  140.0901  155.3276 H   0  0  0  0  0  0  0  0  0  0  0  0
  149.2084  140.2061  153.0254 H   0  0  0  0  0  0  0  0  0  0  0  0
  150.6338  142.6836  154.8170 H   0  0  0  0  0  0  0  0  0  0  0  0
  149.4467  142.7387  156.0995 H   0  0  0  0  0  0  0  0  0  0  0  0
  151.5138  139.6530  155.4039 H   0  0  0  0  0  0  0  0  0  0  0  0
  153.6180  140.4070  159.8093 H   0  0  0  0  0  0  0  0  0  0  0  0
  153.8868  143.4324  161.5369 H   0  0  0  0  0  0  0  0  0  0  0  0
  154.0046  141.6864  161.7438 H   0  0  0  0  0  0  0  0  0  0  0  0
  152.5705  142.5391  162.3140 H   0  0  0  0  0  0  0  0  0  0  0  0
  150.7107  145.1693  159.9145 H   0  0  0  0  0  0  0  0  0  0  0  0
  152.3269  145.1279  160.6162 H   0  0  0  0  0  0  0  0  0  0  0  0
  150.9895  144.2862  161.4147 H   0  0  0  0  0  0  0  0  0  0  0  0
  150.4499  143.8102  158.0057 H   0  0  0  0  0  0  0  0  0  0  0  0
  145.7648  143.0557  155.2078 H   0  0  0  0  0  0  0  0  0  0  0  0
  145.1663  141.6031  154.4738 H   0  0  0  0  0  0  0  0  0  0  0  0
  143.8029  141.1135  156.2367 H   0  0  0  0  0  0  0  0  0  0  0  0
  143.8705  142.8119  156.4773 H   0  0  0  0  0  0  0  0  0  0  0  0
  1  2  1  0  0  0  0
  1 26  1  0  0  0  0
  1 27  1  0  0  0  0
  1 28  1  0  0  0  0
  2  3  2  0  0  0  0
  2  4  1  0  0  0  0
  4 25  1  0  0  0  0
  4  5  1  0  0  0  0
  5  6  1  0  0  0  0
  5 29  1  0  0  0  0
  5 30  1  0  0  0  0
  6  7  1  0  0  0  0
  6 31  1  0  0  0  0
  6 32  1  0  0  0  0
  7  8  1  0  0  0  0
  7 33  1  0  0  0  0
  7 34  1  0  0  0  0
  8  9  1  0  0  0  0
  8 24  1  0  0  0  0
  9 10  1  0  0  0  0
  9 35  1  0  0  0  0
  9 36  1  0  0  0  0
 10 11  1  0  0  0  0
 10 12  1  0  0  0  0
 10 37  1  0  0  0  0
 11 38  1  0  0  0  0
 12 13  1  0  0  0  0
 12 39  1  0  0  0  0
 12 40  1  0  0  0  0
 13 23  1  0  0  0  0
 13 14  1  0  0  0  0
 14 15  2  0  0  0  0
 14 41  1  0  0  0  0
 15 16  1  0  0  0  0
 16 23  2  0  0  0  0
 16 17  1  0  0  0  0
 17 18  2  0  0  0  0
 17 42  1  0  0  0  0
 18 19  1  0  0  0  0
 18 20  1  0  0  0  0
 19 43  1  0  0  0  0
 19 44  1  0  0  0  0
 19 45  1  0  0  0  0
 20 21  1  0  0  0  0
 20 22  2  0  0  0  0
 21 46  1  0  0  0  0
 21 47  1  0  0  0  0
 21 48  1  0  0  0  0
 22 23  1  0  0  0  0
 22 49  1  0  0  0  0
 24 25  1  0  0  0  0
 24 50  1  0  0  0  0
 24 51  1  0  0  0  0
 25 52  1  0  0  0  0
 25 53  1  0  0  0  0
M  END
> <s_m_source_file>
AV-unprocessed.smi

> <i_m_source_file_index>
1643

> <i_lp_mmshare_version>
43012

> <i_f3d_flags>
0

> <s_epik_input>
W0NIM11DKD1PKU4xW0NIMl1bQ0gyXVtDSDJdTihbQ0gyXVtDSDJdMSlbQ0gyXVtDQEhdKFtPSF0pW0NIMl1uKFtjSF1uMiljKGMyMylbY0hdYyhbQ0gzXSljKFtjSF0zKVtDSDNd

> <s_epik_cmdline>
J2VwaWtfcHl0aG9uJywgJy1waCcsICc3LjAnLCAnLXRuJywgJzgnLCAnLW1hJywgJzIwMCcsICctbWV0YWxfYmluZGluZycsICctaW1hZScsICc8aW5maWxlLm1hZT4nLCAnLW9tYWUnLCAnPG91dGZpbGUubWFlPic=

> <r_epik_Ionization_Penalty>
1.17666

> <r_epik_Ionization_Penalty_Charging>
0

> <r_epik_Ionization_Penalty_Neutral>
1.17666

> <r_epik_State_Penalty>
1.20405

> <r_epik_Charging_Adjusted_Penalty>
1.20405

> <i_epik_Tot_Q>
0

> <i_epik_Tot_abs_Q>
0

> <r_epik_Metal_State_Penalty>
1.13307

> <b_epik_Metal_Only>
0

> <s_lp_Force_Field>
OPLS_2005

> <r_lp_Energy>
45.5249

> <b_lp_Chiralities_Consistent>
1

> <s_lp_Variant>
AV-unprocessed.smi:1643-6

> <Gold.Version>
5.8.1

> <Gold.Id.Protein>
6NUR|6NUR_protein|mol2

> <Gold.PLP.Fitness>
51.7085

> <Gold.PLP.PLP>
-42.7761

> <Gold.PLP.part.hbond>
-4.4771

> <Gold.PLP.part.metal>
0.0000

> <Gold.PLP.part.buried>
-3.3016

> <Gold.PLP.part.nonpolar>
-34.2044

> <Gold.PLP.part.repulsive>
0.0867

> <Gold.PLP.ligand.clash>
0.0000

> <Gold.PLP.ligand.torsion>
1.0933

> <Gold.PLP.Chemscore.Hbond>
3.6880

> <Gold.PLP.Chemscore.CHOScore>
0.0000

> <Gold.PLP.Chemscore.Metal>
0.0000

> <Gold.Chemscore.Hbonds>
donor molecule, donor type, donor heavy atom, donor atom, acceptor molecule, acceptor atom, score
      L1  H    11    38       P1  7957  0.30
      P1  H  6934  6946       L1     3  1.00
      P1  H  7989  7998       L1    11  0.37
      P1  H  7997  8010       L1    15  0.99
      P1  H  8011  8017       L1    11  0.99

> <Gold.PLP.Chemscore.Internal.Correction>
0.0550

> <Gold.Rescore>
     Score         DG    S(hbond)    S(metal)    S(lipo)     H(rot)  DE(clash)    DE(int)     intcor
     19.44     -22.06       2.81        0.00     106.67       2.07       1.49       1.13       ----

> <Gold.Chemscore.Fitness>
19.4404

> <Gold.Chemscore.DG>
-22.0628

> <Gold.Chemscore.ZeroCoef>
-5.4800

> <Gold.Chemscore.Hbond>
2.8109

> <Gold.Chemscore.Metal>
0.0000

> <Gold.Chemscore.Lipo>
106.6739

> <Gold.Chemscore.Internal_Hbond>
0.0000

> <Gold.Chemscore.DEClash>
1.4935

> <Gold.Chemscore.DEInternal>
1.1289

> <Gold.Chemscore.Rot>
2.0650

> <Gold.Chemscore.Internal.Correction>
   9.000000E+99

> <Gold.Chemscore.Hbonds>
donor molecule, donor type, donor heavy atom, donor atom, acceptor molecule, acceptor atom, score
      L1  H    11    38       P1  7957  0.30
      P1  H  6934  6946       L1     3  0.93
      P1  H  7989  7998       L1    11  0.35
      P1  H  7997  8010       L1    15  0.20
      P1  H  8011  8017       L1    11  0.19

> <Gold.Chemscore.Hbond.Weighted>
-9.3885

> <Gold.Chemscore.Metal.Weighted>
-0.0000

> <Gold.Chemscore.Lipo.Weighted>
-12.4808

> <Gold.Chemscore.Internal_Hbond.Weighted>
0.0000

> <Gold.Chemscore.DEClash.Weighted>
1.4935

> <Gold.Chemscore.DEInternal.Weighted>
1.1289

> <Gold.Chemscore.Rot.Weighted>
5.2865

> <Gold.Chemscore.Internal.Correction.Weighted>
   9.000000E+99

> <Gold.Protein.RotatedTorsions>
[ 6907 6896 6895 6894 ] final   41.51 input  -60.11 | X-H torsion
[ 7974 7965 7964 7962 ] final  -92.40 input  175.53 | X-H torsion
[ 8008 7997 7996 7995 ] final   52.08 input   59.86 | X-H torsion
[ 10167 10162 10161 10158 ] final   35.44 input  -65.29 | X-H torsion
[ 10718 10713 10712 10709 ] final -178.45 input   66.30 | X-H torsion
[ 10763 10752 10751 10750 ] final  114.64 input  -60.55 | X-H torsion
[ 11005 11000 10999 10996 ] final -142.04 input  -57.11 | X-H torsion

> <Gold.Protein.ActiveResidues>
 VAL166  LYS551  ARG553  GLY616  TRP617  ASP618  TYR619  PRO620  LYS621  CYS622 
 ASP623  PHE694  ASN695  SER759  ASP760  ASP761  ALA762  ILE779  LEU786  VAL792 
 PHE793  MET794  SER795  GLU796  ALA797  LYS798  CYS799  TRP800  GLU811  SER814 

> <Gold.Protein.RotatedAtoms>
  152.1962  134.8628  160.0512 H   0  0  0  0  0  0  0  0  0  0  0  0  # atno 6907 bound_to 6896
  151.9499  133.3658  159.4004 H   0  0  0  0  0  0  0  0  0  0  0  0  # atno 6908 bound_to 6896
  150.6945  134.4275  159.5277 H   0  0  0  0  0  0  0  0  0  0  0  0  # atno 6909 bound_to 6896
  145.4003  140.9537  143.2291 H   0  0  0  0  0  0  0  0  0  0  0  0  # atno 7974 bound_to 7965
  155.4460  140.3456  155.4295 H   0  0  0  0  0  0  0  0  0  0  0  0  # atno 8008 bound_to 7997
  156.1250  140.1498  156.9180 H   0  0  0  0  0  0  0  0  0  0  0  0  # atno 8009 bound_to 7997
  154.4851  140.0858  156.7447 H   0  0  0  0  0  0  0  0  0  0  0  0  # atno 8010 bound_to 7997
  140.4222  144.1444  150.6149 H   0  0  0  0  0  0  0  0  0  0  0  0  # atno 10167 bound_to 10162
  156.8444  130.9697  151.3097 H   0  0  0  0  0  0  0  0  0  0  0  0  # atno 10718 bound_to 10713
  153.5103  135.3619  155.2583 H   0  0  0  0  0  0  0  0  0  0  0  0  # atno 10763 bound_to 10752
  154.8742  135.4021  154.3377 H   0  0  0  0  0  0  0  0  0  0  0  0  # atno 10764 bound_to 10752
  153.4028  135.7075  153.6480 H   0  0  0  0  0  0  0  0  0  0  0  0  # atno 10765 bound_to 10752
  140.8265  134.2569  157.4877 H   0  0  0  0  0  0  0  0  0  0  0  0  # atno 11005 bound_to 11000
  144.8378  139.5521  143.6914 LP  0  0  0  0  0  0  0  0  0  0  0  0  # atno 17320 bound_to 7965
  146.2755  139.6741  142.9266 LP  0  0  0  0  0  0  0  0  0  0  0  0  # atno 17321 bound_to 7965
  140.4521  143.2482  151.9334 LP  0  0  0  0  0  0  0  0  0  0  0  0  # atno 17342 bound_to 10162
  139.4783  144.5552  151.8325 LP  0  0  0  0  0  0  0  0  0  0  0  0  # atno 17343 bound_to 10162
  157.6338  130.8750  149.9321 LP  0  0  0  0  0  0  0  0  0  0  0  0  # atno 17370 bound_to 10713
  156.0862  130.3668  150.0482 LP  0  0  0  0  0  0  0  0  0  0  0  0  # atno 17371 bound_to 10713
  139.8706  134.9563  156.4234 LP  0  0  0  0  0  0  0  0  0  0  0  0  # atno 17394 bound_to 11000
  140.9044  133.7756  155.9717 LP  0  0  0  0  0  0  0  0  0  0  0  0  # atno 17395 bound_to 11000

$$$$
