AV-unprocessed.smi:429|AV-procd|sdf|2545|dock6
  -GOLD-   2262022513D 1   1.00000     0.00000
 Structure written by MMmdl.
 43 44  0  0  0  0  0  0  0  0  1 V2000
  143.8064  143.9976  162.7698 C   0  0  0  0  0  0  0  0  0  0  0  0
  145.2141  144.1001  162.1726 C   0  0  0  0  0  0  0  0  0  0  0  0
  145.1955  144.3868  160.6642 C   0  0  0  0  0  0  0  0  0  0  0  0
  146.6112  144.5075  160.0713 C   0  0  0  0  0  0  0  0  0  0  0  0
  147.4462  145.6108  160.7288 C   0  0  0  0  0  0  0  0  0  0  0  0
  147.5613  145.6648  161.9536 O   0  0  0  0  0  0  0  0  0  0  0  0
  148.0198  146.4951  159.8982 N   0  0  0  0  0  0  0  0  0  0  0  0
  148.8514  147.6188  160.3184 C   0  0  0  0  0  0  0  0  0  0  0  0
  150.1720  147.2164  160.9594 C   0  0  0  0  0  0  0  0  0  0  0  0
  150.6899  147.8846  162.0883 C   0  0  0  0  0  0  0  0  0  0  0  0
  151.9191  147.4620  162.6289 C   0  0  0  0  0  0  0  0  0  0  0  0
  152.6043  146.3800  162.0261 C   0  0  0  0  0  0  0  0  0  0  0  0
  153.8348  145.9334  162.5559 N   0  0  0  0  0  0  0  0  0  0  0  0
  154.8611  146.9346  162.8418 C   0  0  0  0  0  0  0  0  0  0  0  0
  156.0024  146.3143  163.6651 C   0  0  0  0  0  0  0  0  0  0  0  0
  156.5202  145.1760  162.9850 O   0  0  0  0  0  0  0  0  0  0  0  0
  155.5314  144.1659  162.8173 C   0  0  0  0  0  0  0  0  0  0  0  0
  154.3701  144.7084  161.9663 C   0  0  0  0  0  0  0  0  0  0  0  0
  152.1100  145.7516  160.9306 N   0  0  0  0  0  0  0  0  0  0  0  0
  150.9307  146.1600  160.4172 C   0  0  0  0  0  0  0  0  0  0  0  0
  143.8523  143.7980  163.8405 H   0  0  0  0  0  0  0  0  0  0  0  0
  143.2393  143.1905  162.3050 H   0  0  0  0  0  0  0  0  0  0  0  0
  143.2496  144.9241  162.6275 H   0  0  0  0  0  0  0  0  0  0  0  0
  145.7651  144.8876  162.6877 H   0  0  0  0  0  0  0  0  0  0  0  0
  145.7527  143.1710  162.3619 H   0  0  0  0  0  0  0  0  0  0  0  0
  144.6495  143.5901  160.1566 H   0  0  0  0  0  0  0  0  0  0  0  0
  144.6410  145.3083  160.4799 H   0  0  0  0  0  0  0  0  0  0  0  0
  147.1321  143.5542  160.1763 H   0  0  0  0  0  0  0  0  0  0  0  0
  146.5506  144.7149  159.0024 H   0  0  0  0  0  0  0  0  0  0  0  0
  147.8734  146.3799  158.9057 H   0  0  0  0  0  0  0  0  0  0  0  0
  149.0371  148.2753  159.4663 H   0  0  0  0  0  0  0  0  0  0  0  0
  148.2868  148.2066  161.0424 H   0  0  0  0  0  0  0  0  0  0  0  0
  150.1603  148.7119  162.5372 H   0  0  0  0  0  0  0  0  0  0  0  0
  152.3253  147.9792  163.4851 H   0  0  0  0  0  0  0  0  0  0  0  0
  155.2512  147.3307  161.9032 H   0  0  0  0  0  0  0  0  0  0  0  0
  154.4307  147.7699  163.3955 H   0  0  0  0  0  0  0  0  0  0  0  0
  156.8035  147.0405  163.8028 H   0  0  0  0  0  0  0  0  0  0  0  0
  155.6552  146.0309  164.6601 H   0  0  0  0  0  0  0  0  0  0  0  0
  155.9846  143.3042  162.3271 H   0  0  0  0  0  0  0  0  0  0  0  0
  155.1741  143.8263  163.7908 H   0  0  0  0  0  0  0  0  0  0  0  0
  153.6085  143.9354  161.8762 H   0  0  0  0  0  0  0  0  0  0  0  0
  154.7191  144.9283  160.9565 H   0  0  0  0  0  0  0  0  0  0  0  0
  150.5827  145.6235  159.5468 H   0  0  0  0  0  0  0  0  0  0  0  0
  1  2  1  0  0  0  0
  1 21  1  0  0  0  0
  1 22  1  0  0  0  0
  1 23  1  0  0  0  0
  2  3  1  0  0  0  0
  2 24  1  0  0  0  0
  2 25  1  0  0  0  0
  3  4  1  0  0  0  0
  3 26  1  0  0  0  0
  3 27  1  0  0  0  0
  4  5  1  0  0  0  0
  4 28  1  0  0  0  0
  4 29  1  0  0  0  0
  5  6  2  0  0  0  0
  5  7  1  0  0  0  0
  7  8  1  0  0  0  0
  7 30  1  0  0  0  0
  8  9  1  0  0  0  0
  8 31  1  0  0  0  0
  8 32  1  0  0  0  0
  9 20  1  0  0  0  0
  9 10  2  0  0  0  0
 10 11  1  0  0  0  0
 10 33  1  0  0  0  0
 11 12  2  0  0  0  0
 11 34  1  0  0  0  0
 12 13  1  0  0  0  0
 12 19  1  0  0  0  0
 13 18  1  0  0  0  0
 13 14  1  0  0  0  0
 14 15  1  0  0  0  0
 14 35  1  0  0  0  0
 14 36  1  0  0  0  0
 15 16  1  0  0  0  0
 15 37  1  0  0  0  0
 15 38  1  0  0  0  0
 16 17  1  0  0  0  0
 17 18  1  0  0  0  0
 17 39  1  0  0  0  0
 17 40  1  0  0  0  0
 18 41  1  0  0  0  0
 18 42  1  0  0  0  0
 19 20  2  0  0  0  0
 20 43  1  0  0  0  0
M  END
> <s_m_source_file>
AV-unprocessed.smi

> <i_m_source_file_index>
429

> <i_lp_mmshare_version>
43012

> <i_f3d_flags>
0

> <s_epik_input>
W0NIM11bQ0gyXVtDSDJdW0NIMl1DKD1PKVtOSF1bQ0gyXWMxW2NIXVtjSF1jKG5bY0hdMSlOMltDSDJdW0NIMl1PW0NIMl1bQ0gyXTI=

> <s_epik_cmdline>
J2VwaWtfcHl0aG9uJywgJy1waCcsICc3LjAnLCAnLXRuJywgJzgnLCAnLW1hJywgJzIwMCcsICctbWV0YWxfYmluZGluZycsICctaW1hZScsICc8aW5maWxlLm1hZT4nLCAnLW9tYWUnLCAnPG91dGZpbGUubWFlPic=

> <r_lp_tautomer_probability>
1

> <r_epik_Ionization_Penalty>
0.00508978

> <r_epik_Ionization_Penalty_Charging>
0

> <r_epik_Ionization_Penalty_Neutral>
0.00508978

> <r_epik_State_Penalty>
0.0037045

> <r_epik_Charging_Adjusted_Penalty>
0.0037045

> <i_epik_Tot_Q>
0

> <i_epik_Tot_abs_Q>
0

> <r_epik_Metal_State_Penalty>
-0

> <b_epik_Metal_Only>
0

> <s_lp_Force_Field>
OPLS_2005

> <r_lp_Energy>
15.7693

> <b_lp_Chiralities_Consistent>
1

> <s_lp_Variant>
AV-unprocessed.smi:429-1

> <Gold.Version>
5.8.1

> <Gold.Id.Protein>
6NUR|6NUR_protein|mol2

> <Gold.PLP.Fitness>
46.8642

> <Gold.PLP.PLP>
-38.5446

> <Gold.PLP.part.hbond>
-3.0000

> <Gold.PLP.part.metal>
0.0000

> <Gold.PLP.part.buried>
-4.4194

> <Gold.PLP.part.nonpolar>
-31.9141

> <Gold.PLP.part.repulsive>
0.3385

> <Gold.PLP.ligand.clash>
0.0000

> <Gold.PLP.ligand.torsion>
0.5179

> <Gold.PLP.Chemscore.Hbond>
3.0000

> <Gold.PLP.Chemscore.CHOScore>
0.0000

> <Gold.PLP.Chemscore.Metal>
0.0000

> <Gold.Chemscore.Hbonds>
donor molecule, donor type, donor heavy atom, donor atom, acceptor molecule, acceptor atom, score
      L1  H     7    30       P1  8029  1.00

> <Gold.PLP.Chemscore.Internal.Correction>
0.3552

> <Gold.Rescore>
     Score         DG    S(hbond)    S(metal)    S(lipo)     H(rot)  DE(clash)    DE(int)     intcor
     19.13     -21.35       2.52        0.00     102.42       1.77       0.57       1.65       ----

> <Gold.Chemscore.Fitness>
19.1283

> <Gold.Chemscore.DG>
-21.3476

> <Gold.Chemscore.ZeroCoef>
-5.4800

> <Gold.Chemscore.Hbond>
2.5184

> <Gold.Chemscore.Metal>
0.0000

> <Gold.Chemscore.Lipo>
102.4208

> <Gold.Chemscore.Internal_Hbond>
0.0000

> <Gold.Chemscore.DEClash>
0.5714

> <Gold.Chemscore.DEInternal>
1.6479

> <Gold.Chemscore.Rot>
1.7684

> <Gold.Chemscore.Internal.Correction>
   9.000000E+99

> <Gold.Chemscore.Hbonds>
donor molecule, donor type, donor heavy atom, donor atom, acceptor molecule, acceptor atom, score
      L1  H     7    30       P1  8029  1.00

> <Gold.Chemscore.Hbond.Weighted>
-8.4114

> <Gold.Chemscore.Metal.Weighted>
-0.0000

> <Gold.Chemscore.Lipo.Weighted>
-11.9832

> <Gold.Chemscore.Internal_Hbond.Weighted>
0.0000

> <Gold.Chemscore.DEClash.Weighted>
0.5714

> <Gold.Chemscore.DEInternal.Weighted>
1.6479

> <Gold.Chemscore.Rot.Weighted>
4.5271

> <Gold.Chemscore.Internal.Correction.Weighted>
   9.000000E+99

> <Gold.Protein.RotatedTorsions>
[ 6907 6896 6895 6894 ] final   34.00 input  -60.11 | X-H torsion
[ 7974 7965 7964 7962 ] final -150.75 input  175.53 | X-H torsion
[ 8008 7997 7996 7995 ] final   89.23 input   59.86 | X-H torsion
[ 10167 10162 10161 10158 ] final   87.51 input  -65.29 | X-H torsion
[ 10718 10713 10712 10709 ] final   84.23 input   66.30 | X-H torsion
[ 10763 10752 10751 10750 ] final -157.77 input  -60.55 | X-H torsion
[ 11005 11000 10999 10996 ] final  -23.62 input  -57.11 | X-H torsion

> <Gold.Protein.ActiveResidues>
 VAL166  LYS551  ARG553  GLY616  TRP617  ASP618  TYR619  PRO620  LYS621  CYS622 
 ASP623  PHE694  ASN695  SER759  ASP760  ASP761  ALA762  ILE779  LEU786  VAL792 
 PHE793  MET794  SER795  GLU796  ALA797  LYS798  CYS799  TRP800  GLU811  SER814 

> <Gold.Protein.RotatedAtoms>
  152.0963  134.9372  160.0570 H   0  0  0  0  0  0  0  0  0  0  0  0  # atno 6907 bound_to 6896
  152.0604  133.4055  159.4424 H   0  0  0  0  0  0  0  0  0  0  0  0  # atno 6908 bound_to 6896
  150.6838  134.3127  159.4796 H   0  0  0  0  0  0  0  0  0  0  0  0  # atno 6909 bound_to 6896
  144.7889  140.4890  143.5786 H   0  0  0  0  0  0  0  0  0  0  0  0  # atno 7974 bound_to 7965
  155.9975  140.3363  155.6812 H   0  0  0  0  0  0  0  0  0  0  0  0  # atno 8008 bound_to 7997
  155.6337  140.0688  157.2659 H   0  0  0  0  0  0  0  0  0  0  0  0  # atno 8009 bound_to 7997
  154.4238  140.1755  156.1486 H   0  0  0  0  0  0  0  0  0  0  0  0  # atno 8010 bound_to 7997
  139.8766  144.6463  150.8889 H   0  0  0  0  0  0  0  0  0  0  0  0  # atno 10167 bound_to 10162
  157.6894  131.0124  150.2642 H   0  0  0  0  0  0  0  0  0  0  0  0  # atno 10718 bound_to 10713
  154.7610  135.3118  154.8379 H   0  0  0  0  0  0  0  0  0  0  0  0  # atno 10763 bound_to 10752
  153.9139  135.6803  153.4754 H   0  0  0  0  0  0  0  0  0  0  0  0  # atno 10764 bound_to 10752
  153.1210  135.4822  154.9127 H   0  0  0  0  0  0  0  0  0  0  0  0  # atno 10765 bound_to 10752
  140.8768  133.7681  156.0254 H   0  0  0  0  0  0  0  0  0  0  0  0  # atno 11005 bound_to 11000
  145.5846  139.1491  143.3216 LP  0  0  0  0  0  0  0  0  0  0  0  0  # atno 17320 bound_to 7965
  146.2133  140.5975  142.9050 LP  0  0  0  0  0  0  0  0  0  0  0  0  # atno 17321 bound_to 7965
  140.7752  143.3619  151.1811 LP  0  0  0  0  0  0  0  0  0  0  0  0  # atno 17342 bound_to 10162
  139.7234  143.9187  152.2994 LP  0  0  0  0  0  0  0  0  0  0  0  0  # atno 17343 bound_to 10162
  156.3216  130.3786  149.7570 LP  0  0  0  0  0  0  0  0  0  0  0  0  # atno 17370 bound_to 10713
  156.5139  130.8184  151.3179 LP  0  0  0  0  0  0  0  0  0  0  0  0  # atno 17371 bound_to 10713
  140.8508  134.2956  157.5276 LP  0  0  0  0  0  0  0  0  0  0  0  0  # atno 17394 bound_to 11000
  139.8716  134.9466  156.3944 LP  0  0  0  0  0  0  0  0  0  0  0  0  # atno 17395 bound_to 11000

$$$$
