AV-unprocessed.smi:249|AV-procd|sdf|1922|dock2
  -GOLD-   2262021 23D 1   1.00000     0.00000
 Structure written by MMmdl.
 64 67  0  0  0  0  0  0  0  0  2 V2000
  151.6525  144.9920  158.9216 C   0  0  0  0  0  0  0  0  0  0  0  0
  150.2566  144.4026  159.1686 C   0  0  0  0  0  0  0  0  0  0  0  0
  149.8065  143.5303  158.0533 N   0  3  2  0  0  0  0  0  0  0  0  0
  148.5053  142.8556  158.3104 C   0  0  0  0  0  0  0  0  0  0  0  0
  147.9923  142.1399  157.0505 C   0  0  0  0  0  0  0  0  0  0  0  0
  149.0308  141.1319  156.5161 C   0  0  1  0  0  0  0  0  0  0  0  0
  148.5616  140.3802  155.3429 N   0  0  0  0  0  0  0  0  0  0  0  0
  149.4366  140.3532  154.1760 C   0  0  0  0  0  0  0  0  0  0  0  0
  147.9239  139.2071  155.5734 C   0  0  0  0  0  0  0  0  0  0  0  0
  147.9477  138.6560  156.8157 N   0  0  0  0  0  0  0  0  0  0  0  0
  147.2942  137.5146  157.0540 C   0  0  0  0  0  0  0  0  0  0  0  0
  146.5643  136.7797  156.2123 N   0  0  0  0  0  0  0  0  0  0  0  0
  146.5489  137.3258  154.9626 C   0  0  0  0  0  0  0  0  0  0  0  0
  147.2084  138.5189  154.5574 C   0  0  0  0  0  0  0  0  0  0  0  0
  146.9825  138.7543  153.2071 N   0  0  0  0  0  0  0  0  0  0  0  0
  146.2149  137.7656  152.8379 C   0  0  0  0  0  0  0  0  0  0  0  0
  145.8784  136.8800  153.8374 N   0  0  0  0  0  0  0  0  0  0  0  0
  145.0246  135.7132  153.7102 C   0  0  0  0  0  0  0  0  0  0  0  0
  144.4900  135.4488  152.2738 C   0  0  2  0  0  0  0  0  0  0  0  0
  143.1336  136.1748  152.1001 C   0  0  0  0  0  0  0  0  0  0  0  0
  143.2978  137.5780  152.0836 O   0  0  0  0  0  0  0  0  0  0  0  0
  144.3778  133.9328  151.9233 C   0  0  1  0  0  0  0  0  0  0  0  0
  144.0407  133.6288  150.4705 C   0  0  0  0  0  0  0  0  0  0  0  0
  144.4529  132.1707  150.3371 C   0  0  0  0  0  0  0  0  0  0  0  0
  145.6414  132.0701  151.1045 O   0  0  0  0  0  0  0  0  0  0  0  0
  145.6697  133.1085  152.0792 C   0  0  0  0  0  0  0  0  0  0  0  0
  150.3748  141.8617  156.2941 C   0  0  0  0  0  0  0  0  0  0  0  0
  150.8596  142.5928  157.5621 C   0  0  2  0  0  0  0  0  0  0  0  0
  151.3726  141.6187  158.6455 C   0  0  0  0  0  0  0  0  0  0  0  0
  151.9862  145.5612  159.7896 H   0  0  0  0  0  0  0  0  0  0  0  0
  151.6677  145.6682  158.0674 H   0  0  0  0  0  0  0  0  0  0  0  0
  152.3858  144.2052  158.7421 H   0  0  0  0  0  0  0  0  0  0  0  0
  150.3028  143.8174  160.0881 H   0  0  0  0  0  0  0  0  0  0  0  0
  149.5305  145.1979  159.3425 H   0  0  0  0  0  0  0  0  0  0  0  0
  148.6030  142.1499  159.1358 H   0  0  0  0  0  0  0  0  0  0  0  0
  147.7591  143.5866  158.6198 H   0  0  0  0  0  0  0  0  0  0  0  0
  147.0540  141.6359  157.2831 H   0  0  0  0  0  0  0  0  0  0  0  0
  147.7628  142.8864  156.2897 H   0  0  0  0  0  0  0  0  0  0  0  0
  149.1915  140.3836  157.2926 H   0  0  0  0  0  0  0  0  0  0  0  0
  148.9109  139.9477  153.3106 H   0  0  0  0  0  0  0  0  0  0  0  0
  150.3225  139.7433  154.3546 H   0  0  0  0  0  0  0  0  0  0  0  0
  149.7640  141.3618  153.9232 H   0  0  0  0  0  0  0  0  0  0  0  0
  147.3587  137.1406  158.0651 H   0  0  0  0  0  0  0  0  0  0  0  0
  145.8526  137.6676  151.8248 H   0  0  0  0  0  0  0  0  0  0  0  0
  145.5787  134.8423  154.0629 H   0  0  0  0  0  0  0  0  0  0  0  0
  144.1979  135.8500  154.4079 H   0  0  0  0  0  0  0  0  0  0  0  0
  145.1818  135.8981  151.5601 H   0  0  0  0  0  0  0  0  0  0  0  0
  142.6558  135.9117  151.1573 H   0  0  0  0  0  0  0  0  0  0  0  0
  142.4423  135.9010  152.8976 H   0  0  0  0  0  0  0  0  0  0  0  0
  143.6715  137.8278  151.2522 H   0  0  0  0  0  0  0  0  0  0  0  0
  143.6015  133.4815  152.5435 H   0  0  0  0  0  0  0  0  0  0  0  0
  142.9876  133.7785  150.2309 H   0  0  0  0  0  0  0  0  0  0  0  0
  144.6389  134.2479  149.7999 H   0  0  0  0  0  0  0  0  0  0  0  0
  143.6935  131.5176  150.7693 H   0  0  0  0  0  0  0  0  0  0  0  0
  144.6157  131.8704  149.3019 H   0  0  0  0  0  0  0  0  0  0  0  0
  146.5546  133.7169  151.8907 H   0  0  0  0  0  0  0  0  0  0  0  0
  145.7635  132.6733  153.0732 H   0  0  0  0  0  0  0  0  0  0  0  0
  151.1365  141.1548  155.9634 H   0  0  0  0  0  0  0  0  0  0  0  0
  150.2729  142.5995  155.4971 H   0  0  0  0  0  0  0  0  0  0  0  0
  151.7112  143.2041  157.2595 H   0  0  0  0  0  0  0  0  0  0  0  0
  152.1484  140.9686  158.2402 H   0  0  0  0  0  0  0  0  0  0  0  0
  150.5850  140.9754  159.0361 H   0  0  0  0  0  0  0  0  0  0  0  0
  151.8143  142.1490  159.4890 H   0  0  0  0  0  0  0  0  0  0  0  0
  149.6397  144.1571  157.2789 H   0  0  0  0  0  0  0  0  0  0  0  0
  1  2  1  0  0  0  0
  1 30  1  0  0  0  0
  1 31  1  0  0  0  0
  1 32  1  0  0  0  0
  2  3  1  0  0  0  0
  2 33  1  0  0  0  0
  2 34  1  0  0  0  0
  3 28  1  0  0  0  0
  3  4  1  0  0  0  0
  3 64  1  0  0  0  0
  4  5  1  0  0  0  0
  4 35  1  0  0  0  0
  4 36  1  0  0  0  0
  5  6  1  0  0  0  0
  5 37  1  0  0  0  0
  5 38  1  0  0  0  0
  6  7  1  0  0  0  0
  6 27  1  0  0  0  0
  6 39  1  0  0  0  0
  7  8  1  0  0  0  0
  7  9  1  0  0  0  0
  8 40  1  0  0  0  0
  8 41  1  0  0  0  0
  8 42  1  0  0  0  0
  9 14  1  0  0  0  0
  9 10  2  0  0  0  0
 10 11  1  0  0  0  0
 11 12  2  0  0  0  0
 11 43  1  0  0  0  0
 12 13  1  0  0  0  0
 13 17  1  0  0  0  0
 13 14  2  0  0  0  0
 14 15  1  0  0  0  0
 15 16  2  0  0  0  0
 16 17  1  0  0  0  0
 16 44  1  0  0  0  0
 17 18  1  0  0  0  0
 18 19  1  0  0  0  0
 18 45  1  0  0  0  0
 18 46  1  0  0  0  0
 19 20  1  0  0  0  0
 19 22  1  0  0  0  0
 19 47  1  0  0  0  0
 20 21  1  0  0  0  0
 20 48  1  0  0  0  0
 20 49  1  0  0  0  0
 21 50  1  0  0  0  0
 22 26  1  0  0  0  0
 22 23  1  0  0  0  0
 22 51  1  0  0  0  0
 23 24  1  0  0  0  0
 23 52  1  0  0  0  0
 23 53  1  0  0  0  0
 24 25  1  0  0  0  0
 24 54  1  0  0  0  0
 24 55  1  0  0  0  0
 25 26  1  0  0  0  0
 26 56  1  0  0  0  0
 26 57  1  0  0  0  0
 27 28  1  0  0  0  0
 27 58  1  0  0  0  0
 27 59  1  0  0  0  0
 28 29  1  0  0  0  0
 28 60  1  0  0  0  0
 29 61  1  0  0  0  0
 29 62  1  0  0  0  0
 29 63  1  0  0  0  0
M  CHG  1   3   1
M  END
> <s_m_source_file>
AV-unprocessed.smi

> <i_m_source_file_index>
249

> <i_lp_mmshare_version>
43012

> <i_f3d_flags>
0

> <s_epik_input>
W0NIM11bQ0gyXU4xW0NIMl1bQ0gyXVtDQEhdKFtDSDJdW0NASF0xW0NIM10pTihbQ0gzXSljKG5bY0hdbjIpYyhjMjMpbltjSF1uM1tDSDJdW0NASF0oW0NIMl1bT0hdKVtDQEBIXTRbQ0gyXVtDSDJdT1tDSDJdNA==

> <s_epik_cmdline>
J2VwaWtfcHl0aG9uJywgJy1waCcsICc3LjAnLCAnLXRuJywgJzgnLCAnLW1hJywgJzIwMCcsICctbWV0YWxfYmluZGluZycsICctaW1hZScsICc8aW5maWxlLm1hZT4nLCAnLW9tYWUnLCAnPG91dGZpbGUubWFlPic=

> <r_lp_tautomer_probability>
1

> <r_epik_Ionization_Penalty>
0.00294688

> <r_epik_Ionization_Penalty_Charging>
0.00169971

> <r_epik_Ionization_Penalty_Neutral>
0.00124717

> <r_epik_State_Penalty>
-0

> <r_epik_Charging_Adjusted_Penalty>
0.00169971

> <i_epik_Tot_Q>
1

> <i_epik_Tot_abs_Q>
1

> <r_epik_Metal_State_Penalty>
-0

> <b_epik_Metal_Only>
0

> <s_lp_Force_Field>
OPLS_2005

> <r_lp_Energy>
54.0807

> <b_lp_Chiralities_Consistent>
1

> <s_lp_Variant>
AV-unprocessed.smi:249-25

> <Gold.Version>
5.8.1

> <Gold.Id.Protein>
6NUR|6NUR_protein|mol2

> <Gold.PLP.Fitness>
42.7777

> <Gold.PLP.PLP>
-36.9599

> <Gold.PLP.part.hbond>
-3.0000

> <Gold.PLP.part.metal>
0.0000

> <Gold.PLP.part.buried>
-4.2946

> <Gold.PLP.part.nonpolar>
-30.6291

> <Gold.PLP.part.repulsive>
0.4678

> <Gold.PLP.ligand.clash>
0.0000

> <Gold.PLP.ligand.torsion>
1.9952

> <Gold.PLP.Chemscore.Hbond>
3.0000

> <Gold.PLP.Chemscore.CHOScore>
0.0000

> <Gold.PLP.Chemscore.Metal>
0.0000

> <Gold.Chemscore.Hbonds>
donor molecule, donor type, donor heavy atom, donor atom, acceptor molecule, acceptor atom, score
      L1  H     3    64       P1  8028  2.00
      L1  H    21    50       P1 10171  1.00

> <Gold.PLP.Chemscore.Internal.Correction>
0.8082

> <Gold.Rescore>
     Score         DG    S(hbond)    S(metal)    S(lipo)     H(rot)  DE(clash)    DE(int)     intcor
     13.03     -16.03       1.80        0.00     102.34       2.90       0.91       2.08       ----

> <Gold.Chemscore.Fitness>
13.0343

> <Gold.Chemscore.DG>
-16.0304

> <Gold.Chemscore.ZeroCoef>
-5.4800

> <Gold.Chemscore.Hbond>
1.7969

> <Gold.Chemscore.Metal>
0.0000

> <Gold.Chemscore.Lipo>
102.3439

> <Gold.Chemscore.Internal_Hbond>
0.0000

> <Gold.Chemscore.DEClash>
0.9139

> <Gold.Chemscore.DEInternal>
2.0822

> <Gold.Chemscore.Rot>
2.9006

> <Gold.Chemscore.Internal.Correction>
   9.000000E+99

> <Gold.Chemscore.Hbonds>
donor molecule, donor type, donor heavy atom, donor atom, acceptor molecule, acceptor atom, score
      L1  H     3    64       P1  8028  0.39
      L1  H    21    50       P1 10171  0.98

> <Gold.Chemscore.Hbond.Weighted>
-6.0018

> <Gold.Chemscore.Metal.Weighted>
-0.0000

> <Gold.Chemscore.Lipo.Weighted>
-11.9742

> <Gold.Chemscore.Internal_Hbond.Weighted>
0.0000

> <Gold.Chemscore.DEClash.Weighted>
0.9139

> <Gold.Chemscore.DEInternal.Weighted>
2.0822

> <Gold.Chemscore.Rot.Weighted>
7.4256

> <Gold.Chemscore.Internal.Correction.Weighted>
   9.000000E+99

> <Gold.Protein.RotatedTorsions>
[ 6907 6896 6895 6894 ] final  133.69 input  -60.11 | X-H torsion
[ 7974 7965 7964 7962 ] final  109.77 input  175.53 | X-H torsion
[ 8008 7997 7996 7995 ] final  -40.28 input   59.86 | X-H torsion
[ 10167 10162 10161 10158 ] final   47.95 input  -65.29 | X-H torsion
[ 10718 10713 10712 10709 ] final   49.97 input   66.30 | X-H torsion
[ 10763 10752 10751 10750 ] final   50.43 input  -60.55 | X-H torsion
[ 11005 11000 10999 10996 ] final   40.96 input  -57.11 | X-H torsion

> <Gold.Protein.ActiveResidues>
 VAL166  LYS551  ARG553  GLY616  TRP617  ASP618  TYR619  PRO620  LYS621  CYS622 
 ASP623  PHE694  ASN695  SER759  ASP760  ASP761  ALA762  ILE779  LEU786  VAL792 
 PHE793  MET794  SER795  GLU796  ALA797  LYS798  CYS799  TRP800  GLU811  SER814 

> <Gold.Protein.RotatedAtoms>
  152.3192  133.5835  159.5732 H   0  0  0  0  0  0  0  0  0  0  0  0  # atno 6907 bound_to 6896
  150.7362  134.0036  159.3655 H   0  0  0  0  0  0  0  0  0  0  0  0  # atno 6908 bound_to 6896
  151.7922  135.0733  160.0440 H   0  0  0  0  0  0  0  0  0  0  0  0  # atno 6909 bound_to 6896
  145.2635  139.2693  143.4004 H   0  0  0  0  0  0  0  0  0  0  0  0  # atno 7974 bound_to 7965
  154.4014  140.1529  156.3001 H   0  0  0  0  0  0  0  0  0  0  0  0  # atno 8008 bound_to 7997
  155.8708  140.3449  155.5798 H   0  0  0  0  0  0  0  0  0  0  0  0  # atno 8009 bound_to 7997
  155.7776  140.0839  157.2066 H   0  0  0  0  0  0  0  0  0  0  0  0  # atno 8010 bound_to 7997
  140.2983  144.2964  150.6225 H   0  0  0  0  0  0  0  0  0  0  0  0  # atno 10167 bound_to 10162
  157.4839  130.8332  149.8124 H   0  0  0  0  0  0  0  0  0  0  0  0  # atno 10718 bound_to 10713
  152.9785  135.5879  154.4252 H   0  0  0  0  0  0  0  0  0  0  0  0  # atno 10763 bound_to 10752
  154.3871  135.2767  155.2179 H   0  0  0  0  0  0  0  0  0  0  0  0  # atno 10764 bound_to 10752
  154.4067  135.6091  153.5983 H   0  0  0  0  0  0  0  0  0  0  0  0  # atno 10765 bound_to 10752
  140.1880  134.4021  155.8162 H   0  0  0  0  0  0  0  0  0  0  0  0  # atno 11005 bound_to 11000
  146.3268  140.3059  142.8623 LP  0  0  0  0  0  0  0  0  0  0  0  0  # atno 17320 bound_to 7965
  144.9397  140.8065  143.5638 LP  0  0  0  0  0  0  0  0  0  0  0  0  # atno 17321 bound_to 7965
  140.5673  143.2185  151.7661 LP  0  0  0  0  0  0  0  0  0  0  0  0  # atno 17342 bound_to 10162
  139.4921  144.4266  151.9919 LP  0  0  0  0  0  0  0  0  0  0  0  0  # atno 17343 bound_to 10162
  156.0136  130.3823  150.2183 LP  0  0  0  0  0  0  0  0  0  0  0  0  # atno 17370 bound_to 10713
  157.0370  131.0024  151.3295 LP  0  0  0  0  0  0  0  0  0  0  0  0  # atno 17371 bound_to 10713
  141.2225  133.7032  156.8046 LP  0  0  0  0  0  0  0  0  0  0  0  0  # atno 17394 bound_to 11000
  140.2191  134.8770  157.3358 LP  0  0  0  0  0  0  0  0  0  0  0  0  # atno 17395 bound_to 11000

$$$$
