AV-unprocessed.smi:56|AV-procd|sdf|579|dock7
  -GOLD-   2262016483D 1   1.00000     0.00000
 Structure written by MMmdl.
 23 24  0  0  0  0  0  0  0  0  2 V2000
  143.0066  133.7497  152.3420 O   0  0  0  0  0  0  0  0  0  0  0  0
  144.3494  133.6516  151.8980 C   0  0  1  0  0  0  0  0  0  0  0  0
  145.2871  133.8871  153.0463 C   0  0  0  0  0  0  0  0  0  0  0  0
  146.3656  134.7167  153.1939 C   0  0  0  0  0  0  0  0  0  0  0  0
  146.8206  134.4702  154.5215 C   0  0  0  0  0  0  0  0  0  0  0  0
  146.0922  133.5644  155.1524 N   0  0  0  0  0  0  0  0  0  0  0  0
  145.1635  133.2149  154.2435 N   0  0  0  0  0  0  0  0  0  0  0  0
  144.5169  132.3102  151.1741 C   0  0  0  0  0  0  0  0  0  0  0  0
  143.9146  132.5493  149.7826 C   0  0  0  0  0  0  0  0  0  0  0  0
  143.9569  134.0079  149.5515 N   0  3  0  0  0  0  0  0  0  0  0  0
  144.5426  134.6467  150.7457 C   0  0  0  0  0  0  0  0  0  0  0  0
  144.4625  132.5166  154.4473 H   0  0  0  0  0  0  0  0  0  0  0  0
  142.8809  133.1686  153.0760 H   0  0  0  0  0  0  0  0  0  0  0  0
  146.7750  135.4000  152.4648 H   0  0  0  0  0  0  0  0  0  0  0  0
  147.6540  134.9202  155.0407 H   0  0  0  0  0  0  0  0  0  0  0  0
  145.5776  132.0883  151.0473 H   0  0  0  0  0  0  0  0  0  0  0  0
  144.0696  131.4681  151.7041 H   0  0  0  0  0  0  0  0  0  0  0  0
  144.4575  132.0107  149.0054 H   0  0  0  0  0  0  0  0  0  0  0  0
  142.8743  132.2236  149.7529 H   0  0  0  0  0  0  0  0  0  0  0  0
  144.5056  134.2282  148.7324 H   0  0  0  0  0  0  0  0  0  0  0  0
  144.1144  135.6306  150.9414 H   0  0  0  0  0  0  0  0  0  0  0  0
  145.6069  134.7842  150.5488 H   0  0  0  0  0  0  0  0  0  0  0  0
  143.0119  134.3419  149.4267 H   0  0  0  0  0  0  0  0  0  0  0  0
  1  2  1  0  0  0  0
  1 13  1  0  0  0  0
  2 11  1  0  0  0  0
  2  3  1  0  0  0  0
  2  8  1  0  0  0  0
  3  7  1  0  0  0  0
  3  4  2  0  0  0  0
  4  5  1  0  0  0  0
  4 14  1  0  0  0  0
  5  6  2  0  0  0  0
  5 15  1  0  0  0  0
  6  7  1  0  0  0  0
  7 12  1  0  0  0  0
  8  9  1  0  0  0  0
  8 16  1  0  0  0  0
  8 17  1  0  0  0  0
  9 10  1  0  0  0  0
  9 18  1  0  0  0  0
  9 19  1  0  0  0  0
 10 11  1  0  0  0  0
 10 20  1  0  0  0  0
 10 23  1  0  0  0  0
 11 21  1  0  0  0  0
 11 22  1  0  0  0  0
M  CHG  1  10   1
M  END
> <s_m_source_file>
AV-unprocessed.smi

> <i_m_source_file_index>
56

> <i_lp_mmshare_version>
43012

> <i_f3d_flags>
0

> <s_epik_input>
W0NIMl0xW05IXVtDSDJdW0NIMl1bQ0BAXTEoW09IXSljMltjSF1bY0hdbltuSF0y

> <s_epik_cmdline>
J2VwaWtfcHl0aG9uJywgJy1waCcsICc3LjAnLCAnLXRuJywgJzgnLCAnLW1hJywgJzIwMCcsICctbWV0YWxfYmluZGluZycsICctaW1hZScsICc8aW5maWxlLm1hZT4nLCAnLW9tYWUnLCAnPG91dGZpbGUubWFlPic=

> <r_lp_tautomer_probability>
0.5

> <r_epik_Ionization_Penalty>
0.00599842

> <r_epik_Ionization_Penalty_Charging>
0.00599115

> <r_epik_Ionization_Penalty_Neutral>
7.26593e-06

> <r_epik_State_Penalty>
0.41068

> <r_epik_Charging_Adjusted_Penalty>
0.416671

> <i_epik_Tot_Q>
1

> <i_epik_Tot_abs_Q>
1

> <r_epik_Metal_State_Penalty>
0.410678

> <b_epik_Metal_Only>
0

> <s_lp_Force_Field>
OPLS_2005

> <r_lp_Energy>
26.3948

> <b_lp_Chiralities_Consistent>
1

> <s_lp_Variant>
AV-unprocessed.smi:56-3

> <Gold.Version>
5.8.1

> <Gold.Id.Protein>
6NUR|6NUR_protein|mol2

> <Gold.PLP.Fitness>
31.5063

> <Gold.PLP.PLP>
-17.7431

> <Gold.PLP.part.hbond>
-3.8995

> <Gold.PLP.part.metal>
0.0000

> <Gold.PLP.part.buried>
-3.8025

> <Gold.PLP.part.nonpolar>
-10.7389

> <Gold.PLP.part.repulsive>
0.1472

> <Gold.PLP.ligand.clash>
0.0000

> <Gold.PLP.ligand.torsion>
0.2837

> <Gold.PLP.Chemscore.Hbond>
4.7720

> <Gold.PLP.Chemscore.CHOScore>
0.0000

> <Gold.PLP.Chemscore.Metal>
0.0000

> <Gold.Chemscore.Hbonds>
donor molecule, donor type, donor heavy atom, donor atom, acceptor molecule, acceptor atom, score
      L1  H     1    13       P1 10957  0.55
      L1  H     7    12       P1 10957  1.00
      L1  H    10    20       P1  7921  0.98
      L1  H    10    23       P1 10186  2.00

> <Gold.PLP.Chemscore.Internal.Correction>
0.0147

> <Gold.Rescore>
     Score         DG    S(hbond)    S(metal)    S(lipo)     H(rot)  DE(clash)    DE(int)     intcor
     16.46     -17.07       3.37        0.00      35.67       1.50       0.00       0.61       ----

> <Gold.Chemscore.Fitness>
16.4576

> <Gold.Chemscore.DG>
-17.0652

> <Gold.Chemscore.ZeroCoef>
-5.4800

> <Gold.Chemscore.Hbond>
3.3677

> <Gold.Chemscore.Metal>
0.0000

> <Gold.Chemscore.Lipo>
35.6684

> <Gold.Chemscore.Internal_Hbond>
0.0000

> <Gold.Chemscore.DEClash>
0.0000

> <Gold.Chemscore.DEInternal>
0.6076

> <Gold.Chemscore.Rot>
1.4985

> <Gold.Chemscore.Internal.Correction>
   9.000000E+99

> <Gold.Chemscore.Hbonds>
donor molecule, donor type, donor heavy atom, donor atom, acceptor molecule, acceptor atom, score
      L1  H     1    13       P1 10957  0.42
      L1  H     7    12       P1 10957  0.80
      L1  H    10    20       P1  7921  0.91
      L1  H    10    23       P1 10186  0.96

> <Gold.Chemscore.Hbond.Weighted>
-11.2482

> <Gold.Chemscore.Metal.Weighted>
-0.0000

> <Gold.Chemscore.Lipo.Weighted>
-4.1732

> <Gold.Chemscore.Internal_Hbond.Weighted>
0.0000

> <Gold.Chemscore.DEClash.Weighted>
0.0000

> <Gold.Chemscore.DEInternal.Weighted>
0.6076

> <Gold.Chemscore.Rot.Weighted>
3.8362

> <Gold.Chemscore.Internal.Correction.Weighted>
   9.000000E+99

> <Gold.Protein.RotatedTorsions>
[ 6907 6896 6895 6894 ] final   22.58 input  -60.11 | X-H torsion
[ 7974 7965 7964 7962 ] final  155.25 input  175.53 | X-H torsion
[ 8008 7997 7996 7995 ] final  -97.61 input   59.86 | X-H torsion
[ 10167 10162 10161 10158 ] final -107.83 input  -65.29 | X-H torsion
[ 10718 10713 10712 10709 ] final   82.54 input   66.30 | X-H torsion
[ 10763 10752 10751 10750 ] final  -15.17 input  -60.55 | X-H torsion
[ 11005 11000 10999 10996 ] final  157.28 input  -57.11 | X-H torsion

> <Gold.Protein.ActiveResidues>
 VAL166  LYS551  ARG553  GLY616  TRP617  ASP618  TYR619  PRO620  LYS621  CYS622 
 ASP623  PHE694  ASN695  SER759  ASP760  ASP761  ALA762  ILE779  LEU786  VAL792 
 PHE793  MET794  SER795  GLU796  ALA797  LYS798  CYS799  TRP800  GLU811  SER814 

> <Gold.Protein.RotatedAtoms>
  151.9294  135.0263  160.0527 H   0  0  0  0  0  0  0  0  0  0  0  0  # atno 6907 bound_to 6896
  152.2132  133.4922  159.5129 H   0  0  0  0  0  0  0  0  0  0  0  0  # atno 6908 bound_to 6896
  150.6981  134.1357  159.4129 H   0  0  0  0  0  0  0  0  0  0  0  0  # atno 6909 bound_to 6896
  144.8036  139.7043  143.6171 H   0  0  0  0  0  0  0  0  0  0  0  0  # atno 7974 bound_to 7965
  154.7901  140.0461  157.1194 H   0  0  0  0  0  0  0  0  0  0  0  0  # atno 8008 bound_to 7997
  154.9601  140.3076  155.5015 H   0  0  0  0  0  0  0  0  0  0  0  0  # atno 8009 bound_to 7997
  156.2948  140.2272  156.4686 H   0  0  0  0  0  0  0  0  0  0  0  0  # atno 8010 bound_to 7997
  140.1728  143.4029  152.1342 H   0  0  0  0  0  0  0  0  0  0  0  0  # atno 10167 bound_to 10162
  157.6859  131.0052  150.2390 H   0  0  0  0  0  0  0  0  0  0  0  0  # atno 10718 bound_to 10713
  153.5393  135.7013  153.5644 H   0  0  0  0  0  0  0  0  0  0  0  0  # atno 10763 bound_to 10752
  153.3617  135.3968  155.1723 H   0  0  0  0  0  0  0  0  0  0  0  0  # atno 10764 bound_to 10752
  154.8675  135.3790  154.4896 H   0  0  0  0  0  0  0  0  0  0  0  0  # atno 10765 bound_to 10752
  140.1755  134.8513  157.2741 H   0  0  0  0  0  0  0  0  0  0  0  0  # atno 11005 bound_to 11000
  146.2323  139.5838  142.9547 LP  0  0  0  0  0  0  0  0  0  0  0  0  # atno 17320 bound_to 7965
  145.5492  141.0414  143.2288 LP  0  0  0  0  0  0  0  0  0  0  0  0  # atno 17321 bound_to 7965
  139.5330  144.7180  151.4988 LP  0  0  0  0  0  0  0  0  0  0  0  0  # atno 17342 bound_to 10162
  140.6571  143.8576  150.6847 LP  0  0  0  0  0  0  0  0  0  0  0  0  # atno 17343 bound_to 10162
  156.3008  130.3758  149.7752 LP  0  0  0  0  0  0  0  0  0  0  0  0  # atno 17370 bound_to 10713
  156.5382  130.8288  151.3260 LP  0  0  0  0  0  0  0  0  0  0  0  0  # atno 17371 bound_to 10713
  140.2328  134.3889  155.7514 LP  0  0  0  0  0  0  0  0  0  0  0  0  # atno 17394 bound_to 11000
  141.2220  133.7224  156.8667 LP  0  0  0  0  0  0  0  0  0  0  0  0  # atno 17395 bound_to 11000

$$$$
