AV-unprocessed.smi:54|AV-procd|sdf|560|dock1
  -GOLD-   2262016463D 1   1.00000     0.00000
 Structure written by MMmdl.
 43 45  0  0  0  0  0  0  0  0  2 V2000
  147.5738  136.8712  162.8733 C   0  0  0  0  0  0  0  0  0  0  0  0
  147.1841  135.8053  161.8360 C   0  0  0  0  0  0  0  0  0  0  0  0
  147.2550  134.3909  162.4349 C   0  0  0  0  0  0  0  0  0  0  0  0
  148.0705  135.9125  160.5871 C   0  0  0  0  0  0  0  0  0  0  0  0
  148.9734  136.7517  160.5618 O   0  0  0  0  0  0  0  0  0  0  0  0
  147.7622  135.0575  159.5872 N   0  0  0  0  0  0  0  0  0  0  0  0
  148.3547  134.9227  158.3268 C   0  0  0  0  0  0  0  0  0  0  0  0
  147.5606  134.3682  157.4444 N   0  0  0  0  0  0  0  0  0  0  0  0
  148.1534  134.2264  156.2046 C   0  0  0  0  0  0  0  0  0  0  0  0
  149.4250  134.5799  155.8436 C   0  0  0  0  0  0  0  0  0  0  0  0
  149.6759  134.2849  154.5092 N   0  0  0  0  0  0  0  0  0  0  0  0
  148.5177  133.7561  154.1187 C   0  0  0  0  0  0  0  0  0  0  0  0
  147.5606  133.6878  155.0649 N   0  0  0  0  0  0  0  0  0  0  0  0
  146.1783  133.1428  154.8856 C   0  0  1  0  0  0  0  0  0  0  0  0
  146.1311  132.4749  153.6607 O   0  0  0  0  0  0  0  0  0  0  0  0
  145.5120  131.2039  153.8181 C   0  0  1  0  0  0  0  0  0  0  0  0
  146.0320  130.2521  152.7287 C   0  0  0  0  0  0  0  0  0  0  0  0
  145.6557  130.7066  151.4459 O   0  0  0  0  0  0  0  0  0  0  0  0
  145.8727  130.8017  155.2503 C   0  0  2  0  0  0  0  0  0  0  0  0
  144.9876  129.8377  155.7899 O   0  0  0  0  0  0  0  0  0  0  0  0
  145.8436  132.1338  155.9964 C   0  0  2  0  0  0  0  0  0  0  0  0
  144.5734  132.4125  156.5576 O   0  0  0  0  0  0  0  0  0  0  0  0
  150.2763  135.1884  156.8932 C   0  0  0  0  0  0  0  0  0  0  0  0
  151.4271  135.5190  156.6134 O   0  0  0  0  0  0  0  0  0  0  0  0
  149.6867  135.3309  158.1178 N   0  5  0  0  0  0  0  0  0  0  0  0
  145.5319  134.0217  154.8773 H   0  0  0  0  0  0  0  0  0  0  0  0
  144.4341  131.3497  153.7236 H   0  0  0  0  0  0  0  0  0  0  0  0
  146.8834  130.3949  155.2781 H   0  0  0  0  0  0  0  0  0  0  0  0
  146.5875  132.1659  156.7941 H   0  0  0  0  0  0  0  0  0  0  0  0
  147.5335  137.8736  162.4452 H   0  0  0  0  0  0  0  0  0  0  0  0
  148.5836  136.7113  163.2533 H   0  0  0  0  0  0  0  0  0  0  0  0
  146.8937  136.8522  163.7250 H   0  0  0  0  0  0  0  0  0  0  0  0
  146.1497  135.9903  161.5412 H   0  0  0  0  0  0  0  0  0  0  0  0
  146.9863  133.6342  161.6967 H   0  0  0  0  0  0  0  0  0  0  0  0
  146.5661  134.2879  163.2736 H   0  0  0  0  0  0  0  0  0  0  0  0
  148.2563  134.1590  162.8002 H   0  0  0  0  0  0  0  0  0  0  0  0
  146.9476  134.4867  159.7569 H   0  0  0  0  0  0  0  0  0  0  0  0
  148.3588  133.4088  153.1084 H   0  0  0  0  0  0  0  0  0  0  0  0
  147.1204  130.2036  152.7661 H   0  0  0  0  0  0  0  0  0  0  0  0
  145.6601  129.2386  152.8821 H   0  0  0  0  0  0  0  0  0  0  0  0
  146.4154  130.6809  150.8843 H   0  0  0  0  0  0  0  0  0  0  0  0
  144.2314  129.7819  155.2256 H   0  0  0  0  0  0  0  0  0  0  0  0
  143.9110  132.0436  155.9935 H   0  0  0  0  0  0  0  0  0  0  0  0
  1  2  1  0  0  0  0
  1 30  1  0  0  0  0
  1 31  1  0  0  0  0
  1 32  1  0  0  0  0
  2  3  1  0  0  0  0
  2  4  1  0  0  0  0
  2 33  1  0  0  0  0
  3 34  1  0  0  0  0
  3 35  1  0  0  0  0
  3 36  1  0  0  0  0
  4  5  2  0  0  0  0
  4  6  1  0  0  0  0
  6 37  1  0  0  0  0
  6  7  1  0  0  0  0
  7 25  1  0  0  0  0
  7  8  2  0  0  0  0
  8  9  1  0  0  0  0
  9 13  1  0  0  0  0
  9 10  2  0  0  0  0
 10 11  1  0  0  0  0
 10 23  1  0  0  0  0
 11 12  2  0  0  0  0
 12 13  1  0  0  0  0
 12 38  1  0  0  0  0
 13 14  1  0  0  0  0
 14 26  1  0  0  0  0
 14 21  1  0  0  0  0
 14 15  1  0  0  0  0
 15 16  1  0  0  0  0
 16 27  1  0  0  0  0
 16 17  1  0  0  0  0
 16 19  1  0  0  0  0
 17 18  1  0  0  0  0
 17 39  1  0  0  0  0
 17 40  1  0  0  0  0
 18 41  1  0  0  0  0
 19 28  1  0  0  0  0
 19 20  1  0  0  0  0
 19 21  1  0  0  0  0
 20 42  1  0  0  0  0
 21 29  1  0  0  0  0
 21 22  1  0  0  0  0
 22 43  1  0  0  0  0
 23 24  2  0  0  0  0
 23 25  1  0  0  0  0
M  CHG  1  25  -1
M  END
> <s_m_source_file>
AV-unprocessed.smi

> <i_m_source_file_index>
54

> <i_lp_mmshare_version>
43012

> <i_f3d_flags>
0

> <s_epik_input>
W0NIM11bQ0hdKFtDSDNdKUMoPU8pW05IXWMobjEpW25IXWMoPU8pYyhjMTIpbltjSF1uMltDQEBIXTNPW0NASF0oW0NIMl1bT0hdKVtDQEBIXShbT0hdKVtDQEhdM1tPSF0=

> <s_epik_cmdline>
J2VwaWtfcHl0aG9uJywgJy1waCcsICc3LjAnLCAnLXRuJywgJzgnLCAnLW1hJywgJzIwMCcsICctbWV0YWxfYmluZGluZycsICctaW1hZScsICc8aW5maWxlLm1hZT4nLCAnLW9tYWUnLCAnPG91dGZpbGUubWFlPic=

> <r_lp_tautomer_probability>
0.85571

> <r_epik_Ionization_Penalty>
1.75936

> <r_epik_Ionization_Penalty_Charging>
4.55893e-11

> <r_epik_Ionization_Penalty_Neutral>
1.75936

> <r_epik_State_Penalty>
1.72072

> <r_epik_Charging_Adjusted_Penalty>
1.72072

> <i_epik_Tot_Q>
-1

> <i_epik_Tot_abs_Q>
1

> <r_epik_Metal_State_Penalty>
0.400338

> <b_epik_Metal_Only>
1

> <s_epik_Chemistry_Notes>
This compound contains an acetal/aminal-like group ( X-CH(R)-Y where X, Y are N, S, or O) that may be acid/base labile, releasing an aldehyde.

> <s_lp_Force_Field>
OPLS_2005

> <r_lp_Energy>
61.5682

> <b_lp_Chiralities_Consistent>
1

> <s_lp_Variant>
AV-unprocessed.smi:54-32

> <Gold.Version>
5.8.1

> <Gold.Id.Protein>
6NUR|6NUR_protein|mol2

> <Gold.PLP.Fitness>
47.5538

> <Gold.PLP.PLP>
-30.7239

> <Gold.PLP.part.hbond>
-5.0000

> <Gold.PLP.part.metal>
0.0000

> <Gold.PLP.part.buried>
-4.5756

> <Gold.PLP.part.nonpolar>
-21.8870

> <Gold.PLP.part.repulsive>
0.3255

> <Gold.PLP.ligand.clash>
0.0000

> <Gold.PLP.ligand.torsion>
0.3549

> <Gold.PLP.Chemscore.Hbond>
5.8320

> <Gold.PLP.Chemscore.CHOScore>
0.0031

> <Gold.PLP.Chemscore.Metal>
0.0000

> <Gold.Chemscore.Hbonds>
donor molecule, donor type, donor heavy atom, donor atom, acceptor molecule, acceptor atom, score
      L1  H    22    43       P1 10957  1.00
      P1  H  6896  6907       L1    25  2.00
      P1  H  6931  6943       L1     5  0.82

> <Gold.PLP.Chemscore.Internal.Correction>
0.0343

> <Gold.Rescore>
     Score         DG    S(hbond)    S(metal)    S(lipo)     H(rot)  DE(clash)    DE(int)     intcor
     12.40     -14.08       4.05        0.00      45.90       4.02       0.07       1.61       ----

> <Gold.Chemscore.Fitness>
12.3988

> <Gold.Chemscore.DG>
-14.0837

> <Gold.Chemscore.ZeroCoef>
-5.4800

> <Gold.Chemscore.Hbond>
4.0486

> <Gold.Chemscore.Metal>
0.0000

> <Gold.Chemscore.Lipo>
45.9027

> <Gold.Chemscore.Internal_Hbond>
0.0000

> <Gold.Chemscore.DEClash>
0.0742

> <Gold.Chemscore.DEInternal>
1.6108

> <Gold.Chemscore.Rot>
4.0192

> <Gold.Chemscore.Internal.Correction>
   9.000000E+99

> <Gold.Chemscore.Hbonds>
donor molecule, donor type, donor heavy atom, donor atom, acceptor molecule, acceptor atom, score
      L1  H    20    42       P1 10956  0.02
      L1  H    22    43       P1 10957  0.94
      P1  H  6896  6907       L1    25  0.47
      P1  H  6931  6943       L1     5  0.76
      P1  H 10752 10765       L1    24  0.01

> <Gold.Chemscore.Hbond.Weighted>
-13.5224

> <Gold.Chemscore.Metal.Weighted>
-0.0000

> <Gold.Chemscore.Lipo.Weighted>
-5.3706

> <Gold.Chemscore.Internal_Hbond.Weighted>
0.0000

> <Gold.Chemscore.DEClash.Weighted>
0.0742

> <Gold.Chemscore.DEInternal.Weighted>
1.6108

> <Gold.Chemscore.Rot.Weighted>
10.2893

> <Gold.Chemscore.Internal.Correction.Weighted>
   9.000000E+99

> <Gold.Protein.RotatedTorsions>
[ 6907 6896 6895 6894 ] final  -68.24 input  -60.11 | X-H torsion
[ 7974 7965 7964 7962 ] final -101.25 input  175.53 | X-H torsion
[ 8008 7997 7996 7995 ] final -142.61 input   59.86 | X-H torsion
[ 10167 10162 10161 10158 ] final -171.28 input  -65.29 | X-H torsion
[ 10718 10713 10712 10709 ] final   87.44 input   66.30 | X-H torsion
[ 10763 10752 10751 10750 ] final  178.84 input  -60.55 | X-H torsion
[ 11005 11000 10999 10996 ] final   36.18 input  -57.11 | X-H torsion

> <Gold.Protein.ActiveResidues>
 VAL166  LYS551  ARG553  GLY616  TRP617  ASP618  TYR619  PRO620  LYS621  CYS622 
 ASP623  PHE694  ASN695  SER759  ASP760  ASP761  ALA762  ILE779  LEU786  VAL792 
 PHE793  MET794  SER795  GLU796  ALA797  LYS798  CYS799  TRP800  GLU811  SER814 

> <Gold.Protein.RotatedAtoms>
  150.7366  134.5767  159.5917 H   0  0  0  0  0  0  0  0  0  0  0  0  # atno 6907 bound_to 6896
  152.3192  134.7399  160.0327 H   0  0  0  0  0  0  0  0  0  0  0  0  # atno 6908 bound_to 6896
  151.7920  133.3324  159.3538 H   0  0  0  0  0  0  0  0  0  0  0  0  # atno 6909 bound_to 6896
  145.2840  140.9334  143.2916 H   0  0  0  0  0  0  0  0  0  0  0  0  # atno 7974 bound_to 7965
  155.4970  140.0572  157.2945 H   0  0  0  0  0  0  0  0  0  0  0  0  # atno 8008 bound_to 7997
  154.4601  140.1992  156.0218 H   0  0  0  0  0  0  0  0  0  0  0  0  # atno 8009 bound_to 7997
  156.0874  140.3238  155.7776 H   0  0  0  0  0  0  0  0  0  0  0  0  # atno 8010 bound_to 7997
  139.5812  144.1420  152.1517 H   0  0  0  0  0  0  0  0  0  0  0  0  # atno 10167 bound_to 10162
  157.6940  131.0256  150.3124 H   0  0  0  0  0  0  0  0  0  0  0  0  # atno 10718 bound_to 10713
  154.5129  135.2789  155.1327 H   0  0  0  0  0  0  0  0  0  0  0  0  # atno 10763 bound_to 10752
  154.2915  135.6266  153.5391 H   0  0  0  0  0  0  0  0  0  0  0  0  # atno 10764 bound_to 10752
  152.9922  135.5675  154.5599 H   0  0  0  0  0  0  0  0  0  0  0  0  # atno 10765 bound_to 10752
  140.2351  134.3481  155.7948 H   0  0  0  0  0  0  0  0  0  0  0  0  # atno 11005 bound_to 11000
  144.9229  139.4390  143.6532 LP  0  0  0  0  0  0  0  0  0  0  0  0  # atno 17320 bound_to 7965
  146.3207  139.8099  142.8948 LP  0  0  0  0  0  0  0  0  0  0  0  0  # atno 17321 bound_to 7965
  140.0973  144.5569  150.7013 LP  0  0  0  0  0  0  0  0  0  0  0  0  # atno 17342 bound_to 10162
  140.7090  143.2490  151.4640 LP  0  0  0  0  0  0  0  0  0  0  0  0  # atno 17343 bound_to 10162
  156.3624  130.3849  149.7241 LP  0  0  0  0  0  0  0  0  0  0  0  0  # atno 17370 bound_to 10713
  156.4683  130.7984  151.3003 LP  0  0  0  0  0  0  0  0  0  0  0  0  # atno 17371 bound_to 10713
  141.2215  133.7267  156.8795 LP  0  0  0  0  0  0  0  0  0  0  0  0  # atno 17394 bound_to 11000
  140.1710  134.9100  157.2833 LP  0  0  0  0  0  0  0  0  0  0  0  0  # atno 17395 bound_to 11000

$$$$
