AV-unprocessed.smi:1362|AV-procd|sdf|5560|dock8
  -GOLD-   22720 5153D 1   1.00000     0.00000
 Structure written by MMmdl.
 39 39  0  0  0  0  0  0  0  0  1 V2000
  151.8530  141.7812  158.0940 C   0  0  0  0  0  0  0  0  0  0  0  0
  151.7383  140.6141  157.1378 C   0  0  0  0  0  0  0  0  0  0  0  0
  150.6288  140.6805  156.3116 N   0  0  0  0  0  0  0  0  0  0  0  0
  150.4371  139.6572  155.4003 C   0  0  0  0  0  0  0  0  0  0  0  0
  149.1976  139.8093  154.5359 C   0  0  0  0  0  0  0  0  0  0  0  0
  151.3077  138.6191  155.3169 C   0  0  0  0  0  0  0  0  0  0  0  0
  151.1318  137.4660  154.3306 C   0  0  0  0  0  0  0  0  0  0  0  0
  150.7220  136.1336  154.9575 C   0  0  0  0  0  0  0  0  0  0  0  0
  151.2863  135.7288  155.9734 O   0  0  0  0  0  0  0  0  0  0  0  0
  149.7402  135.4638  154.3343 N   0  0  0  0  0  0  0  0  0  0  0  0
  149.2001  134.1661  154.7351 C   0  0  2  0  0  0  0  0  0  0  0  0
  150.3697  133.2613  155.1656 C   0  0  0  0  0  0  0  0  0  0  0  0
  148.3477  133.5660  153.5858 C   0  0  0  0  0  0  0  0  0  0  0  0
  146.9592  134.2274  153.4847 C   0  0  0  0  0  0  0  0  0  0  0  0
  148.1800  132.0411  153.7134 C   0  0  0  0  0  0  0  0  0  0  0  0
  152.4735  138.6002  156.2322 C   0  0  0  0  0  0  0  0  0  0  0  0
  153.2890  137.6789  156.2165 O   0  0  0  0  0  0  0  0  0  0  0  0
  152.6240  139.6649  157.1354 N   0  0  0  0  0  0  0  0  0  0  0  0
  149.9564  141.4335  156.3405 H   0  0  0  0  0  0  0  0  0  0  0  0
  152.7710  141.7175  158.6797 H   0  0  0  0  0  0  0  0  0  0  0  0
  151.0082  141.7903  158.7833 H   0  0  0  0  0  0  0  0  0  0  0  0
  151.8638  142.7235  157.5454 H   0  0  0  0  0  0  0  0  0  0  0  0
  149.4722  139.8749  153.4830 H   0  0  0  0  0  0  0  0  0  0  0  0
  148.6379  140.7101  154.7908 H   0  0  0  0  0  0  0  0  0  0  0  0
  148.5329  138.9557  154.6679 H   0  0  0  0  0  0  0  0  0  0  0  0
  152.0414  137.3174  153.7469 H   0  0  0  0  0  0  0  0  0  0  0  0
  150.3779  137.7430  153.5934 H   0  0  0  0  0  0  0  0  0  0  0  0
  149.3382  135.8835  153.5083 H   0  0  0  0  0  0  0  0  0  0  0  0
  148.5448  134.3063  155.5968 H   0  0  0  0  0  0  0  0  0  0  0  0
  150.0191  132.3222  155.5919 H   0  0  0  0  0  0  0  0  0  0  0  0
  150.9795  133.7448  155.9296 H   0  0  0  0  0  0  0  0  0  0  0  0
  151.0209  133.0266  154.3229 H   0  0  0  0  0  0  0  0  0  0  0  0
  148.8655  133.7582  152.6449 H   0  0  0  0  0  0  0  0  0  0  0  0
  146.3989  134.1104  154.4129 H   0  0  0  0  0  0  0  0  0  0  0  0
  146.3688  133.7819  152.6836 H   0  0  0  0  0  0  0  0  0  0  0  0
  147.0296  135.2939  153.2704 H   0  0  0  0  0  0  0  0  0  0  0  0
  147.7308  131.7703  154.6694 H   0  0  0  0  0  0  0  0  0  0  0  0
  149.1330  131.5199  153.6294 H   0  0  0  0  0  0  0  0  0  0  0  0
  147.5376  131.6499  152.9240 H   0  0  0  0  0  0  0  0  0  0  0  0
  1 20  1  0  0  0  0
  1 21  1  0  0  0  0
  1 22  1  0  0  0  0
  1  2  1  0  0  0  0
  2  3  1  0  0  0  0
  2 18  2  0  0  0  0
  3  4  1  0  0  0  0
  3 19  1  0  0  0  0
  4  6  2  0  0  0  0
  4  5  1  0  0  0  0
  5 23  1  0  0  0  0
  5 24  1  0  0  0  0
  5 25  1  0  0  0  0
  6 16  1  0  0  0  0
  6  7  1  0  0  0  0
  7  8  1  0  0  0  0
  7 26  1  0  0  0  0
  7 27  1  0  0  0  0
  8  9  2  0  0  0  0
  8 10  1  0  0  0  0
 10 11  1  0  0  0  0
 10 28  1  0  0  0  0
 11 12  1  0  0  0  0
 11 13  1  0  0  0  0
 11 29  1  0  0  0  0
 12 30  1  0  0  0  0
 12 31  1  0  0  0  0
 12 32  1  0  0  0  0
 13 14  1  0  0  0  0
 13 15  1  0  0  0  0
 13 33  1  0  0  0  0
 14 34  1  0  0  0  0
 14 35  1  0  0  0  0
 14 36  1  0  0  0  0
 15 37  1  0  0  0  0
 15 38  1  0  0  0  0
 15 39  1  0  0  0  0
 16 17  2  0  0  0  0
 16 18  1  0  0  0  0
M  END
> <s_m_source_file>
AV-unprocessed.smi

> <i_m_source_file_index>
1362

> <i_lp_mmshare_version>
43012

> <i_f3d_flags>
0

> <s_epik_input>
W0NIM11jMW5jKFtDSDNdKWMoYyg9TylbbkhdMSlbQ0gyXUMoPU8pW05IXVtDQEhdKFtDSDNdKVtDSF0oW0NIM10pW0NIM10=

> <s_epik_cmdline>
J2VwaWtfcHl0aG9uJywgJy1waCcsICc3LjAnLCAnLXRuJywgJzgnLCAnLW1hJywgJzIwMCcsICctbWV0YWxfYmluZGluZycsICctaW1hZScsICc8aW5maWxlLm1hZT4nLCAnLW9tYWUnLCAnPG91dGZpbGUubWFlPic=

> <r_lp_tautomer_probability>
0.156392

> <r_epik_Ionization_Penalty>
0.0140737

> <r_epik_Ionization_Penalty_Charging>
0.0139511

> <r_epik_Ionization_Penalty_Neutral>
0.000122633

> <r_epik_State_Penalty>
1.53034

> <r_epik_Charging_Adjusted_Penalty>
1.54429

> <i_epik_Tot_Q>
0

> <i_epik_Tot_abs_Q>
0

> <r_epik_Metal_State_Penalty>
1.70655

> <b_epik_Metal_Only>
0

> <s_lp_Force_Field>
OPLS_2005

> <r_lp_Energy>
10.2097

> <b_lp_Chiralities_Consistent>
1

> <s_lp_Variant>
AV-unprocessed.smi:1362-3

> <Gold.Version>
5.8.1

> <Gold.Id.Protein>
6NUR|6NUR_protein|mol2

> <Gold.PLP.Fitness>
36.6606

> <Gold.PLP.PLP>
-29.4139

> <Gold.PLP.part.hbond>
-4.5113

> <Gold.PLP.part.metal>
0.0000

> <Gold.PLP.part.buried>
-0.5240

> <Gold.PLP.part.nonpolar>
-23.8671

> <Gold.PLP.part.repulsive>
0.1880

> <Gold.PLP.ligand.clash>
0.0000

> <Gold.PLP.ligand.torsion>
0.8902

> <Gold.PLP.Chemscore.Hbond>
3.0000

> <Gold.PLP.Chemscore.CHOScore>
0.0000

> <Gold.PLP.Chemscore.Metal>
0.0000

> <Gold.Chemscore.Hbonds>
donor molecule, donor type, donor heavy atom, donor atom, acceptor molecule, acceptor atom, score
      L1  H    10    28       P1  7948  1.00
      P1  H  7997  8008       L1    18  0.80
      P1  H 10752 10764       L1     9  0.69

> <Gold.PLP.Chemscore.Internal.Correction>
0.0271

> <Gold.Rescore>
     Score         DG    S(hbond)    S(metal)    S(lipo)     H(rot)  DE(clash)    DE(int)     intcor
     12.12     -15.72       2.38        0.00      56.48       1.69       0.11       3.49       ----

> <Gold.Chemscore.Fitness>
12.1242

> <Gold.Chemscore.DG>
-15.7224

> <Gold.Chemscore.ZeroCoef>
-5.4800

> <Gold.Chemscore.Hbond>
2.3846

> <Gold.Chemscore.Metal>
0.0000

> <Gold.Chemscore.Lipo>
56.4836

> <Gold.Chemscore.Internal_Hbond>
0.0000

> <Gold.Chemscore.DEClash>
0.1123

> <Gold.Chemscore.DEInternal>
3.4859

> <Gold.Chemscore.Rot>
1.6916

> <Gold.Chemscore.Internal.Correction>
   9.000000E+99

> <Gold.Chemscore.Hbonds>
donor molecule, donor type, donor heavy atom, donor atom, acceptor molecule, acceptor atom, score
      L1  H    10    28       P1  7948  0.55
      P1  H  7997  8008       L1    18  0.11
      P1  H 10752 10764       L1     9  0.12

> <Gold.Chemscore.Hbond.Weighted>
-7.9644

> <Gold.Chemscore.Metal.Weighted>
-0.0000

> <Gold.Chemscore.Lipo.Weighted>
-6.6086

> <Gold.Chemscore.Internal_Hbond.Weighted>
0.0000

> <Gold.Chemscore.DEClash.Weighted>
0.1123

> <Gold.Chemscore.DEInternal.Weighted>
3.4859

> <Gold.Chemscore.Rot.Weighted>
4.3305

> <Gold.Chemscore.Internal.Correction.Weighted>
   9.000000E+99

> <Gold.Protein.RotatedTorsions>
[ 6907 6896 6895 6894 ] final    2.24 input  -60.11 | X-H torsion
[ 7974 7965 7964 7962 ] final  -91.15 input  175.53 | X-H torsion
[ 8008 7997 7996 7995 ] final  -61.34 input   59.86 | X-H torsion
[ 10167 10162 10161 10158 ] final -107.63 input  -65.29 | X-H torsion
[ 10718 10713 10712 10709 ] final  -59.73 input   66.30 | X-H torsion
[ 10763 10752 10751 10750 ] final  -24.49 input  -60.55 | X-H torsion
[ 11005 11000 10999 10996 ] final   51.19 input  -57.11 | X-H torsion

> <Gold.Protein.ActiveResidues>
 VAL166  LYS551  ARG553  GLY616  TRP617  ASP618  TYR619  PRO620  LYS621  CYS622 
 ASP623  PHE694  ASN695  SER759  ASP760  ASP761  ALA762  ILE779  LEU786  VAL792 
 PHE793  MET794  SER795  GLU796  ALA797  LYS798  CYS799  TRP800  GLU811  SER814 

> <Gold.Protein.RotatedAtoms>
  151.6057  135.1044  160.0069 H   0  0  0  0  0  0  0  0  0  0  0  0  # atno 6907 bound_to 6896
  152.4234  133.7151  159.6512 H   0  0  0  0  0  0  0  0  0  0  0  0  # atno 6908 bound_to 6896
  150.8123  133.8328  159.3199 H   0  0  0  0  0  0  0  0  0  0  0  0  # atno 6909 bound_to 6896
  145.4170  140.9549  143.2202 H   0  0  0  0  0  0  0  0  0  0  0  0  # atno 7974 bound_to 7965
  154.4443  140.1020  156.6415 H   0  0  0  0  0  0  0  0  0  0  0  0  # atno 8008 bound_to 7997
  155.5496  140.3485  155.4447 H   0  0  0  0  0  0  0  0  0  0  0  0  # atno 8009 bound_to 7997
  156.0538  140.1310  157.0009 H   0  0  0  0  0  0  0  0  0  0  0  0  # atno 8010 bound_to 7997
  140.1749  143.4013  152.1326 H   0  0  0  0  0  0  0  0  0  0  0  0  # atno 10167 bound_to 10162
  156.1041  130.4182  150.0756 H   0  0  0  0  0  0  0  0  0  0  0  0  # atno 10718 bound_to 10713
  153.6847  135.6965  153.5107 H   0  0  0  0  0  0  0  0  0  0  0  0  # atno 10763 bound_to 10752
  153.2458  135.4291  155.0745 H   0  0  0  0  0  0  0  0  0  0  0  0  # atno 10764 bound_to 10752
  154.8390  135.3519  154.6389 H   0  0  0  0  0  0  0  0  0  0  0  0  # atno 10765 bound_to 10752
  140.0953  134.5154  155.8813 H   0  0  0  0  0  0  0  0  0  0  0  0  # atno 11005 bound_to 11000
  144.8270  139.5692  143.6961 LP  0  0  0  0  0  0  0  0  0  0  0  0  # atno 17320 bound_to 7965
  146.2676  139.6557  142.9318 LP  0  0  0  0  0  0  0  0  0  0  0  0  # atno 17321 bound_to 7965
  139.5321  144.7171  151.5019 LP  0  0  0  0  0  0  0  0  0  0  0  0  # atno 17342 bound_to 10162
  140.6558  143.8603  150.6833 LP  0  0  0  0  0  0  0  0  0  0  0  0  # atno 17343 bound_to 10162
  156.8736  130.9532  151.3607 LP  0  0  0  0  0  0  0  0  0  0  0  0  # atno 17370 bound_to 10713
  157.6215  130.8659  149.9117 LP  0  0  0  0  0  0  0  0  0  0  0  0  # atno 17371 bound_to 10713
  141.2090  133.6679  156.6410 LP  0  0  0  0  0  0  0  0  0  0  0  0  # atno 17394 bound_to 11000
  140.3295  134.7941  157.4315 LP  0  0  0  0  0  0  0  0  0  0  0  0  # atno 17395 bound_to 11000

$$$$
