AV-unprocessed.smi:1443|AV-procd|sdf|5880|dock4
  -GOLD-   22720 5553D 1   1.00000     0.00000
 Structure written by MMmdl.
 27 28  0  0  0  0  0  0  0  0  1 V2000
  153.2443  137.1522  159.4495 C   0  0  0  0  0  0  0  0  0  0  0  0
  154.1300  137.6439  157.9447 S   0  0  0  0  0  0  0  0  0  0  0  0
  152.8981  137.8203  156.6947 C   0  0  0  0  0  0  0  0  0  0  0  0
  152.6380  139.0240  156.1525 N   0  0  0  0  0  0  0  0  0  0  0  0
  151.4146  138.8417  154.9994 S   0  0  0  0  0  0  0  0  0  0  0  0
  151.3265  137.1341  155.3179 C   0  0  0  0  0  0  0  0  0  0  0  0
  150.4165  136.2733  154.6377 N   0  0  0  0  0  0  0  0  0  0  0  0
  149.9291  135.0574  154.9674 C   0  0  0  0  0  0  0  0  0  0  0  0
  150.2619  134.5036  156.0138 O   0  0  0  0  0  0  0  0  0  0  0  0
  149.0743  134.5076  154.0905 N   0  0  0  0  0  0  0  0  0  0  0  0
  148.4446  133.2350  154.2151 C   0  0  1  0  0  0  0  0  0  0  0  0
  147.7535  132.6923  152.9831 C   0  0  0  0  0  0  0  0  0  0  0  0
  149.0452  132.0748  153.4472 C   0  0  2  0  0  0  0  0  0  0  0  0
  149.0493  130.6766  154.0259 C   0  0  0  0  0  0  0  0  0  0  0  0
  152.1943  136.7612  156.2585 N   0  0  0  0  0  0  0  0  0  0  0  0
  153.9455  137.0246  160.2741 H   0  0  0  0  0  0  0  0  0  0  0  0
  152.7198  136.2094  159.2923 H   0  0  0  0  0  0  0  0  0  0  0  0
  152.5156  137.9132  159.7298 H   0  0  0  0  0  0  0  0  0  0  0  0
  150.0638  136.6430  153.7667 H   0  0  0  0  0  0  0  0  0  0  0  0
  148.8580  135.0380  153.2585 H   0  0  0  0  0  0  0  0  0  0  0  0
  147.9773  132.9975  155.1699 H   0  0  0  0  0  0  0  0  0  0  0  0
  146.8362  132.1263  153.1338 H   0  0  0  0  0  0  0  0  0  0  0  0
  147.7845  133.2913  152.0746 H   0  0  0  0  0  0  0  0  0  0  0  0
  149.9231  132.2991  152.8435 H   0  0  0  0  0  0  0  0  0  0  0  0
  148.1560  130.5023  154.6263 H   0  0  0  0  0  0  0  0  0  0  0  0
  149.9255  130.5377  154.6592 H   0  0  0  0  0  0  0  0  0  0  0  0
  149.0793  129.9395  153.2233 H   0  0  0  0  0  0  0  0  0  0  0  0
  1  2  1  0  0  0  0
  1 16  1  0  0  0  0
  1 17  1  0  0  0  0
  1 18  1  0  0  0  0
  2  3  1  0  0  0  0
  3 15  1  0  0  0  0
  3  4  2  0  0  0  0
  4  5  1  0  0  0  0
  5  6  1  0  0  0  0
  6  7  1  0  0  0  0
  6 15  2  0  0  0  0
  7  8  1  0  0  0  0
  7 19  1  0  0  0  0
  8  9  2  0  0  0  0
  8 10  1  0  0  0  0
 10 11  1  0  0  0  0
 10 20  1  0  0  0  0
 11 13  1  0  0  0  0
 11 12  1  0  0  0  0
 11 21  1  0  0  0  0
 12 13  1  0  0  0  0
 12 22  1  0  0  0  0
 12 23  1  0  0  0  0
 13 14  1  0  0  0  0
 13 24  1  0  0  0  0
 14 25  1  0  0  0  0
 14 26  1  0  0  0  0
 14 27  1  0  0  0  0
M  END
> <s_m_source_file>
AV-unprocessed.smi

> <i_m_source_file_index>
1443

> <i_lp_mmshare_version>
43012

> <i_f3d_flags>
0

> <s_epik_input>
W0NIM11TYzFuc2MobjEpW05IXUMoPU8pW05IXVtDQEBIXTJbQ0gyXVtDQEhdMltDSDNd

> <s_epik_cmdline>
J2VwaWtfcHl0aG9uJywgJy1waCcsICc3LjAnLCAnLXRuJywgJzgnLCAnLW1hJywgJzIwMCcsICctbWV0YWxfYmluZGluZycsICctaW1hZScsICc8aW5maWxlLm1hZT4nLCAnLW9tYWUnLCAnPG91dGZpbGUubWFlPic=

> <r_lp_tautomer_probability>
1

> <r_epik_Ionization_Penalty>
2.74658e-05

> <r_epik_Ionization_Penalty_Charging>
0

> <r_epik_Ionization_Penalty_Neutral>
2.74658e-05

> <r_epik_State_Penalty>
-0

> <r_epik_Charging_Adjusted_Penalty>
0

> <i_epik_Tot_Q>
0

> <i_epik_Tot_abs_Q>
0

> <r_epik_Metal_State_Penalty>
-0

> <b_epik_Metal_Only>
0

> <s_lp_Force_Field>
OPLS_2005

> <r_lp_Energy>
20.7485

> <b_lp_Chiralities_Consistent>
1

> <s_lp_Variant>
AV-unprocessed.smi:1443-4

> <Gold.Version>
5.8.1

> <Gold.Id.Protein>
6NUR|6NUR_protein|mol2

> <Gold.PLP.Fitness>
35.3536

> <Gold.PLP.PLP>
-24.3062

> <Gold.PLP.part.hbond>
-4.7510

> <Gold.PLP.part.metal>
0.0000

> <Gold.PLP.part.buried>
-2.1641

> <Gold.PLP.part.nonpolar>
-17.9102

> <Gold.PLP.part.repulsive>
0.1183

> <Gold.PLP.ligand.clash>
0.0000

> <Gold.PLP.ligand.torsion>
0.3378

> <Gold.PLP.Chemscore.Hbond>
3.8968

> <Gold.PLP.Chemscore.CHOScore>
0.0000

> <Gold.PLP.Chemscore.Metal>
0.0000

> <Gold.Chemscore.Hbonds>
donor molecule, donor type, donor heavy atom, donor atom, acceptor molecule, acceptor atom, score
      L1  H     7    19       P1  7948  0.51
      L1  H    10    20       P1  7948  1.00
      P1  H  7997  8008       L1     4  0.98
      P1  H 10752 10764       L1    15  0.75

> <Gold.PLP.Chemscore.Internal.Correction>
0.0326

> <Gold.Rescore>
     Score         DG    S(hbond)    S(metal)    S(lipo)     H(rot)  DE(clash)    DE(int)     intcor
     12.73     -14.26       2.34        0.00      35.87       1.27       0.05       1.48       ----

> <Gold.Chemscore.Fitness>
12.7330

> <Gold.Chemscore.DG>
-14.2574

> <Gold.Chemscore.ZeroCoef>
-5.4800

> <Gold.Chemscore.Hbond>
2.3448

> <Gold.Chemscore.Metal>
0.0000

> <Gold.Chemscore.Lipo>
35.8691

> <Gold.Chemscore.Internal_Hbond>
0.0000

> <Gold.Chemscore.DEClash>
0.0465

> <Gold.Chemscore.DEInternal>
1.4779

> <Gold.Chemscore.Rot>
1.2699

> <Gold.Chemscore.Internal.Correction>
   9.000000E+99

> <Gold.Chemscore.Hbonds>
donor molecule, donor type, donor heavy atom, donor atom, acceptor molecule, acceptor atom, score
      L1  H     7    19       P1  7948  0.11
      L1  H    10    20       P1  7948  0.40
      P1  H  7997  8008       L1     4  0.60
      P1  H 10752 10764       L1    15  0.08

> <Gold.Chemscore.Hbond.Weighted>
-7.8316

> <Gold.Chemscore.Metal.Weighted>
-0.0000

> <Gold.Chemscore.Lipo.Weighted>
-4.1967

> <Gold.Chemscore.Internal_Hbond.Weighted>
0.0000

> <Gold.Chemscore.DEClash.Weighted>
0.0465

> <Gold.Chemscore.DEInternal.Weighted>
1.4779

> <Gold.Chemscore.Rot.Weighted>
3.2509

> <Gold.Chemscore.Internal.Correction.Weighted>
   9.000000E+99

> <Gold.Protein.RotatedTorsions>
[ 6907 6896 6895 6894 ] final   16.41 input  -60.11 | X-H torsion
[ 7974 7965 7964 7962 ] final   94.26 input  175.53 | X-H torsion
[ 8008 7997 7996 7995 ] final  -35.87 input   59.86 | X-H torsion
[ 10167 10162 10161 10158 ] final  114.83 input  -65.29 | X-H torsion
[ 10718 10713 10712 10709 ] final  160.62 input   66.30 | X-H torsion
[ 10763 10752 10751 10750 ] final  -25.96 input  -60.55 | X-H torsion
[ 11005 11000 10999 10996 ] final   40.64 input  -57.11 | X-H torsion

> <Gold.Protein.ActiveResidues>
 VAL166  LYS551  ARG553  GLY616  TRP617  ASP618  TYR619  PRO620  LYS621  CYS622 
 ASP623  PHE694  ASN695  SER759  ASP760  ASP761  ALA762  ILE779  LEU786  VAL792 
 PHE793  MET794  SER795  GLU796  ALA797  LYS798  CYS799  TRP800  GLU811  SER814 

> <Gold.Protein.RotatedAtoms>
  151.8334  135.0614  160.0439 H   0  0  0  0  0  0  0  0  0  0  0  0  # atno 6907 bound_to 6896
  152.2863  133.5514  159.5538 H   0  0  0  0  0  0  0  0  0  0  0  0  # atno 6908 bound_to 6896
  150.7211  134.0408  159.3807 H   0  0  0  0  0  0  0  0  0  0  0  0  # atno 6909 bound_to 6896
  145.4679  139.2283  143.2951 H   0  0  0  0  0  0  0  0  0  0  0  0  # atno 7974 bound_to 7965
  154.4085  140.1646  156.2282 H   0  0  0  0  0  0  0  0  0  0  0  0  # atno 8008 bound_to 7997
  155.9306  140.3415  155.6223 H   0  0  0  0  0  0  0  0  0  0  0  0  # atno 8009 bound_to 7997
  155.7112  140.0757  157.2361 H   0  0  0  0  0  0  0  0  0  0  0  0  # atno 8010 bound_to 7997
  139.6361  144.7120  151.2333 H   0  0  0  0  0  0  0  0  0  0  0  0  # atno 10167 bound_to 10162
  157.1478  131.0556  151.2295 H   0  0  0  0  0  0  0  0  0  0  0  0  # atno 10718 bound_to 10713
  153.7083  135.6952  153.5044 H   0  0  0  0  0  0  0  0  0  0  0  0  # atno 10763 bound_to 10752
  153.2292  135.4343  155.0575 H   0  0  0  0  0  0  0  0  0  0  0  0  # atno 10764 bound_to 10752
  154.8323  135.3480  154.6620 H   0  0  0  0  0  0  0  0  0  0  0  0  # atno 10765 bound_to 10752
  140.1911  134.3985  155.8146 H   0  0  0  0  0  0  0  0  0  0  0  0  # atno 11005 bound_to 11000
  146.2414  140.5454  142.8932 LP  0  0  0  0  0  0  0  0  0  0  0  0  # atno 17320 bound_to 7965
  144.7963  140.6129  143.6508 LP  0  0  0  0  0  0  0  0  0  0  0  0  # atno 17321 bound_to 7965
  140.7466  143.6394  150.8349 LP  0  0  0  0  0  0  0  0  0  0  0  0  # atno 17342 bound_to 10162
  140.0026  143.5728  152.2870 LP  0  0  0  0  0  0  0  0  0  0  0  0  # atno 17343 bound_to 10162
  157.4248  130.7457  149.6942 LP  0  0  0  0  0  0  0  0  0  0  0  0  # atno 17370 bound_to 10713
  155.9776  130.4061  150.3701 LP  0  0  0  0  0  0  0  0  0  0  0  0  # atno 17371 bound_to 10713
  141.2226  133.7047  156.8097 LP  0  0  0  0  0  0  0  0  0  0  0  0  # atno 17394 bound_to 11000
  140.2158  134.8794  157.3324 LP  0  0  0  0  0  0  0  0  0  0  0  0  # atno 17395 bound_to 11000

$$$$
