AV-unprocessed.smi:1895|AV-procd|sdf|7680|dock6
  -GOLD-   22720 9423D 1   1.00000     0.00000
 Structure written by MMmdl.
 36 37  0  0  0  0  0  0  0  0  1 V2000
  151.4111  144.7485  159.3268 C   0  0  0  0  0  0  0  0  0  0  0  0
  151.7869  143.3237  159.6078 C   0  0  0  0  0  0  0  0  0  0  0  0
  152.8220  142.8352  160.4529 C   0  0  0  0  0  0  0  0  0  0  0  0
  152.7352  141.4760  160.3426 C   0  0  0  0  0  0  0  0  0  0  0  0
  153.5572  140.4043  160.9800 C   0  0  0  0  0  0  0  0  0  0  0  0
  151.6924  141.2099  159.4721 N   0  0  0  0  0  0  0  0  0  0  0  0
  151.1977  139.9262  158.9952 C   0  0  0  0  0  0  0  0  0  0  0  0
  151.6719  139.6552  157.5665 C   0  0  0  0  0  0  0  0  0  0  0  0
  152.8576  139.4102  157.3458 O   0  0  0  0  0  0  0  0  0  0  0  0
  150.7390  139.7316  156.6053 N   0  0  0  0  0  0  0  0  0  0  0  0
  151.0032  139.6724  155.1735 C   0  0  0  0  0  0  0  0  0  0  0  0
  149.7314  139.9599  154.3559 C   0  0  2  0  0  0  0  0  0  0  0  0
  149.0072  141.2546  154.7304 C   0  0  0  0  0  0  0  0  0  0  0  0
  147.5597  140.9800  154.3510 C   0  0  0  0  0  0  0  0  0  0  0  0
  147.5193  139.4727  154.0818 C   0  0  0  0  0  0  0  0  0  0  0  0
  148.7440  138.9722  154.5985 O   0  0  0  0  0  0  0  0  0  0  0  0
  151.1139  142.3460  159.0243 N   0  0  0  0  0  0  0  0  0  0  0  0
  151.9751  145.4362  159.9570 H   0  0  0  0  0  0  0  0  0  0  0  0
  150.3511  144.9210  159.5144 H   0  0  0  0  0  0  0  0  0  0  0  0
  151.6145  145.0091  158.2877 H   0  0  0  0  0  0  0  0  0  0  0  0
  153.5260  143.3985  161.0474 H   0  0  0  0  0  0  0  0  0  0  0  0
  154.2720  140.8294  161.6847 H   0  0  0  0  0  0  0  0  0  0  0  0
  154.1185  139.8475  160.2296 H   0  0  0  0  0  0  0  0  0  0  0  0
  152.9277  139.7013  161.5255 H   0  0  0  0  0  0  0  0  0  0  0  0
  151.5465  139.1399  159.6656 H   0  0  0  0  0  0  0  0  0  0  0  0
  150.1071  139.9159  159.0303 H   0  0  0  0  0  0  0  0  0  0  0  0
  149.7892  139.9307  156.8854 H   0  0  0  0  0  0  0  0  0  0  0  0
  151.7963  140.3715  154.9045 H   0  0  0  0  0  0  0  0  0  0  0  0
  151.3770  138.6747  154.9414 H   0  0  0  0  0  0  0  0  0  0  0  0
  149.9615  139.9632  153.2886 H   0  0  0  0  0  0  0  0  0  0  0  0
  149.0752  141.4298  155.8049 H   0  0  0  0  0  0  0  0  0  0  0  0
  149.4213  142.1266  154.2222 H   0  0  0  0  0  0  0  0  0  0  0  0
  146.8902  141.2573  155.1659 H   0  0  0  0  0  0  0  0  0  0  0  0
  147.2602  141.5402  153.4647 H   0  0  0  0  0  0  0  0  0  0  0  0
  146.6641  138.9851  154.5502 H   0  0  0  0  0  0  0  0  0  0  0  0
  147.4770  139.2768  153.0094 H   0  0  0  0  0  0  0  0  0  0  0  0
  1  2  1  0  0  0  0
  1 18  1  0  0  0  0
  1 19  1  0  0  0  0
  1 20  1  0  0  0  0
  2 17  2  0  0  0  0
  2  3  1  0  0  0  0
  3  4  2  0  0  0  0
  3 21  1  0  0  0  0
  4  5  1  0  0  0  0
  4  6  1  0  0  0  0
  5 22  1  0  0  0  0
  5 23  1  0  0  0  0
  5 24  1  0  0  0  0
  6  7  1  0  0  0  0
  6 17  1  0  0  0  0
  7  8  1  0  0  0  0
  7 25  1  0  0  0  0
  7 26  1  0  0  0  0
  8  9  2  0  0  0  0
  8 10  1  0  0  0  0
 10 11  1  0  0  0  0
 10 27  1  0  0  0  0
 11 12  1  0  0  0  0
 11 28  1  0  0  0  0
 11 29  1  0  0  0  0
 12 16  1  0  0  0  0
 12 13  1  0  0  0  0
 12 30  1  0  0  0  0
 13 14  1  0  0  0  0
 13 31  1  0  0  0  0
 13 32  1  0  0  0  0
 14 15  1  0  0  0  0
 14 33  1  0  0  0  0
 14 34  1  0  0  0  0
 15 16  1  0  0  0  0
 15 35  1  0  0  0  0
 15 36  1  0  0  0  0
M  END
> <s_m_source_file>
AV-unprocessed.smi

> <i_m_source_file_index>
1895

> <i_lp_mmshare_version>
43012

> <i_f3d_flags>
0

> <s_epik_input>
W0NIM11jMVtjSF1jKFtDSDNdKW4objEpW0NIMl1DKD1PKVtOSF1bQ0gyXVtDQEBIXTJbQ0gyXVtDSDJdW0NIMl1PMg==

> <s_epik_cmdline>
J2VwaWtfcHl0aG9uJywgJy1waCcsICc3LjAnLCAnLXRuJywgJzgnLCAnLW1hJywgJzIwMCcsICctbWV0YWxfYmluZGluZycsICctaW1hZScsICc8aW5maWxlLm1hZT4nLCAnLW9tYWUnLCAnPG91dGZpbGUubWFlPic=

> <r_lp_tautomer_probability>
1

> <r_epik_Ionization_Penalty>
0.000408438

> <r_epik_Ionization_Penalty_Charging>
0

> <r_epik_Ionization_Penalty_Neutral>
0.000408438

> <r_epik_State_Penalty>
-0

> <r_epik_Charging_Adjusted_Penalty>
0

> <i_epik_Tot_Q>
0

> <i_epik_Tot_abs_Q>
0

> <r_epik_Metal_State_Penalty>
-0

> <b_epik_Metal_Only>
0

> <s_lp_Force_Field>
OPLS_2005

> <r_lp_Energy>
14.7864

> <b_lp_Chiralities_Consistent>
1

> <s_lp_Variant>
AV-unprocessed.smi:1895-1

> <Gold.Version>
5.8.1

> <Gold.Id.Protein>
6NUR|6NUR_protein|mol2

> <Gold.PLP.Fitness>
40.2692

> <Gold.PLP.PLP>
-37.9916

> <Gold.PLP.part.hbond>
-1.0000

> <Gold.PLP.part.metal>
0.0000

> <Gold.PLP.part.buried>
-2.4469

> <Gold.PLP.part.nonpolar>
-33.7565

> <Gold.PLP.part.repulsive>
0.1955

> <Gold.PLP.ligand.clash>
0.0000

> <Gold.PLP.ligand.torsion>
0.3689

> <Gold.PLP.Chemscore.Hbond>
1.0000

> <Gold.PLP.Chemscore.CHOScore>
0.0000

> <Gold.PLP.Chemscore.Metal>
0.0000

> <Gold.Chemscore.Hbonds>
donor molecule, donor type, donor heavy atom, donor atom, acceptor molecule, acceptor atom, score
      P1  H  7997  8008       L1     9  1.00

> <Gold.PLP.Chemscore.Internal.Correction>
0.0153

> <Gold.Rescore>
     Score         DG    S(hbond)    S(metal)    S(lipo)     H(rot)  DE(clash)    DE(int)     intcor
     16.13     -16.82       1.00        0.00     102.07       1.54       0.30       0.40       ----

> <Gold.Chemscore.Fitness>
16.1274

> <Gold.Chemscore.DG>
-16.8227

> <Gold.Chemscore.ZeroCoef>
-5.4800

> <Gold.Chemscore.Hbond>
1.0000

> <Gold.Chemscore.Metal>
0.0000

> <Gold.Chemscore.Lipo>
102.0678

> <Gold.Chemscore.Internal_Hbond>
0.0000

> <Gold.Chemscore.DEClash>
0.2984

> <Gold.Chemscore.DEInternal>
0.3969

> <Gold.Chemscore.Rot>
1.5387

> <Gold.Chemscore.Internal.Correction>
   9.000000E+99

> <Gold.Chemscore.Hbonds>
donor molecule, donor type, donor heavy atom, donor atom, acceptor molecule, acceptor atom, score
      P1  H  7997  8008       L1     9  1.00

> <Gold.Chemscore.Hbond.Weighted>
-3.3400

> <Gold.Chemscore.Metal.Weighted>
-0.0000

> <Gold.Chemscore.Lipo.Weighted>
-11.9419

> <Gold.Chemscore.Internal_Hbond.Weighted>
0.0000

> <Gold.Chemscore.DEClash.Weighted>
0.2984

> <Gold.Chemscore.DEInternal.Weighted>
0.3969

> <Gold.Chemscore.Rot.Weighted>
3.9392

> <Gold.Chemscore.Internal.Correction.Weighted>
   9.000000E+99

> <Gold.Protein.RotatedTorsions>
[ 6907 6896 6895 6894 ] final   87.32 input  -60.11 | X-H torsion
[ 7974 7965 7964 7962 ] final  -64.85 input  175.53 | X-H torsion
[ 8008 7997 7996 7995 ] final  -71.89 input   59.86 | X-H torsion
[ 10167 10162 10161 10158 ] final   68.60 input  -65.29 | X-H torsion
[ 10718 10713 10712 10709 ] final   25.23 input   66.30 | X-H torsion
[ 10763 10752 10751 10750 ] final  150.77 input  -60.55 | X-H torsion
[ 11005 11000 10999 10996 ] final  147.69 input  -57.11 | X-H torsion

> <Gold.Protein.ActiveResidues>
 VAL166  LYS551  ARG553  GLY616  TRP617  ASP618  TYR619  PRO620  LYS621  CYS622 
 ASP623  PHE694  ASN695  SER759  ASP760  ASP761  ALA762  ILE779  LEU786  VAL792 
 PHE793  MET794  SER795  GLU796  ALA797  LYS798  CYS799  TRP800  GLU811  SER814 

> <Gold.Protein.RotatedAtoms>
  152.5409  134.2295  159.8818 H   0  0  0  0  0  0  0  0  0  0  0  0  # atno 6907 bound_to 6896
  151.2267  133.4466  159.2610 H   0  0  0  0  0  0  0  0  0  0  0  0  # atno 6908 bound_to 6896
  151.0754  134.9838  159.8385 H   0  0  0  0  0  0  0  0  0  0  0  0  # atno 6909 bound_to 6896
  145.7615  140.8859  143.0427 H   0  0  0  0  0  0  0  0  0  0  0  0  # atno 7974 bound_to 7965
  154.5123  140.0807  156.8014 H   0  0  0  0  0  0  0  0  0  0  0  0  # atno 8008 bound_to 7997
  155.3758  140.3425  155.4226 H   0  0  0  0  0  0  0  0  0  0  0  0  # atno 8009 bound_to 7997
  156.1587  140.1581  156.8636 H   0  0  0  0  0  0  0  0  0  0  0  0  # atno 8010 bound_to 7997
  140.0769  144.5104  150.7188 H   0  0  0  0  0  0  0  0  0  0  0  0  # atno 10167 bound_to 10162
  157.1906  130.6844  149.6148 H   0  0  0  0  0  0  0  0  0  0  0  0  # atno 10718 bound_to 10713
  154.0930  135.2851  155.3267 H   0  0  0  0  0  0  0  0  0  0  0  0  # atno 10763 bound_to 10752
  154.6607  135.5335  153.8018 H   0  0  0  0  0  0  0  0  0  0  0  0  # atno 10764 bound_to 10752
  153.0406  135.6533  154.1098 H   0  0  0  0  0  0  0  0  0  0  0  0  # atno 10765 bound_to 10752
  140.0896  134.9048  157.1630 H   0  0  0  0  0  0  0  0  0  0  0  0  # atno 11005 bound_to 11000
  144.6829  139.9730  143.7482 LP  0  0  0  0  0  0  0  0  0  0  0  0  # atno 17320 bound_to 7965
  146.0259  139.3292  143.0785 LP  0  0  0  0  0  0  0  0  0  0  0  0  # atno 17321 bound_to 7965
  140.7097  143.2495  151.4618 LP  0  0  0  0  0  0  0  0  0  0  0  0  # atno 17342 bound_to 10162
  139.5802  144.1726  152.1958 LP  0  0  0  0  0  0  0  0  0  0  0  0  # atno 17343 bound_to 10162
  155.9712  130.4616  150.6115 LP  0  0  0  0  0  0  0  0  0  0  0  0  # atno 17370 bound_to 10713
  157.3864  131.0789  151.1432 LP  0  0  0  0  0  0  0  0  0  0  0  0  # atno 17371 bound_to 10713
  140.3370  134.2746  155.7218 LP  0  0  0  0  0  0  0  0  0  0  0  0  # atno 17394 bound_to 11000
  141.2074  133.7807  157.0123 LP  0  0  0  0  0  0  0  0  0  0  0  0  # atno 17395 bound_to 11000

$$$$
