AV-unprocessed.smi:2491|AV-procd|sdf|9810|dock6
  -GOLD-   2272013443D 1   1.00000     0.00000
 Structure written by MMmdl.
 27 28  0  0  0  0  0  0  0  0  1 V2000
  151.4508  138.6313  158.3587 N   0  0  0  0  0  0  0  0  0  0  0  0
  152.3014  139.3158  157.5863 C   0  0  0  0  0  0  0  0  0  0  0  0
  153.5077  139.3370  157.8199 O   0  0  0  0  0  0  0  0  0  0  0  0
  151.7383  140.1004  156.3818 C   0  0  1  0  0  0  0  0  0  0  0  0
  151.0867  139.0667  155.4302 C   0  0  0  0  0  0  0  0  0  0  0  0
  150.5255  139.7011  154.2899 O   0  0  0  0  0  0  0  0  0  0  0  0
  149.4937  140.6011  154.6609 C   0  0  0  0  0  0  0  0  0  0  0  0
  150.1007  141.7202  155.5155 C   0  0  0  0  0  0  0  0  0  0  0  0
  150.7858  141.1848  156.6924 N   0  0  0  0  0  0  0  0  0  0  0  0
  151.1136  142.1643  157.6286 C   0  0  0  0  0  0  0  0  0  0  0  0
  151.5482  141.7673  158.8328 N   0  0  0  0  0  0  0  0  0  0  0  0
  151.8756  142.7301  159.7214 C   0  0  0  0  0  0  0  0  0  0  0  0
  151.7716  144.0971  159.3977 C   0  0  0  0  0  0  0  0  0  0  0  0
  152.1898  145.3321  160.5272 Cl  0  0  0  0  0  0  0  0  0  0  0  0
  151.3095  144.4028  158.1026 C   0  0  0  0  0  0  0  0  0  0  0  0
  150.9835  143.4326  157.2209 N   0  0  0  0  0  0  0  0  0  0  0  0
  151.8001  138.1094  159.1493 H   0  0  0  0  0  0  0  0  0  0  0  0
  150.4635  138.6366  158.1464 H   0  0  0  0  0  0  0  0  0  0  0  0
  152.5844  140.5506  155.8591 H   0  0  0  0  0  0  0  0  0  0  0  0
  151.8305  138.3479  155.0831 H   0  0  0  0  0  0  0  0  0  0  0  0
  150.3122  138.4918  155.9422 H   0  0  0  0  0  0  0  0  0  0  0  0
  149.0464  141.0183  153.7585 H   0  0  0  0  0  0  0  0  0  0  0  0
  148.7013  140.0779  155.1988 H   0  0  0  0  0  0  0  0  0  0  0  0
  150.8138  142.2945  154.9221 H   0  0  0  0  0  0  0  0  0  0  0  0
  149.3082  142.4105  155.8079 H   0  0  0  0  0  0  0  0  0  0  0  0
  152.2228  142.4070  160.6918 H   0  0  0  0  0  0  0  0  0  0  0  0
  151.2015  145.4251  157.7714 H   0  0  0  0  0  0  0  0  0  0  0  0
  1  2  1  0  0  0  0
  1 17  1  0  0  0  0
  1 18  1  0  0  0  0
  2  3  2  0  0  0  0
  2  4  1  0  0  0  0
  4  9  1  0  0  0  0
  4  5  1  0  0  0  0
  4 19  1  0  0  0  0
  5  6  1  0  0  0  0
  5 20  1  0  0  0  0
  5 21  1  0  0  0  0
  6  7  1  0  0  0  0
  7  8  1  0  0  0  0
  7 22  1  0  0  0  0
  7 23  1  0  0  0  0
  8  9  1  0  0  0  0
  8 24  1  0  0  0  0
  8 25  1  0  0  0  0
  9 10  1  0  0  0  0
 10 16  1  0  0  0  0
 10 11  2  0  0  0  0
 11 12  1  0  0  0  0
 12 13  2  0  0  0  0
 12 26  1  0  0  0  0
 13 14  1  0  0  0  0
 13 15  1  0  0  0  0
 15 16  2  0  0  0  0
 15 27  1  0  0  0  0
M  END
> <s_m_source_file>
AV-unprocessed.smi

> <i_m_source_file_index>
2491

> <i_lp_mmshare_version>
43012

> <i_f3d_flags>
0

> <s_epik_input>
W05IMl1DKD1PKVtDQEBIXTFbQ0gyXU9bQ0gyXVtDSDJdTjFjMm5bY0hdYyhDbClbY0hdbjI=

> <s_epik_cmdline>
J2VwaWtfcHl0aG9uJywgJy1waCcsICc3LjAnLCAnLXRuJywgJzgnLCAnLW1hJywgJzIwMCcsICctbWV0YWxfYmluZGluZycsICctaW1hZScsICc8aW5maWxlLm1hZT4nLCAnLW9tYWUnLCAnPG91dGZpbGUubWFlPic=

> <r_lp_tautomer_probability>
1

> <r_epik_Ionization_Penalty>
2.68452e-07

> <r_epik_Ionization_Penalty_Charging>
0

> <r_epik_Ionization_Penalty_Neutral>
2.68452e-07

> <r_epik_State_Penalty>
-0

> <r_epik_Charging_Adjusted_Penalty>
0

> <i_epik_Tot_Q>
0

> <i_epik_Tot_abs_Q>
0

> <r_epik_Metal_State_Penalty>
-0

> <b_epik_Metal_Only>
0

> <s_lp_Force_Field>
OPLS_2005

> <r_lp_Energy>
11.1739

> <b_lp_Chiralities_Consistent>
1

> <s_lp_Variant>
AV-unprocessed.smi:2491-2

> <Gold.Version>
5.8.1

> <Gold.Id.Protein>
6NUR|6NUR_protein|mol2

> <Gold.PLP.Fitness>
34.7481

> <Gold.PLP.PLP>
-28.9034

> <Gold.PLP.part.hbond>
-1.9080

> <Gold.PLP.part.metal>
0.0000

> <Gold.PLP.part.buried>
-4.8369

> <Gold.PLP.part.nonpolar>
-24.3564

> <Gold.PLP.part.repulsive>
1.7677

> <Gold.PLP.ligand.clash>
0.0000

> <Gold.PLP.ligand.torsion>
0.1850

> <Gold.PLP.Chemscore.Hbond>
1.9500

> <Gold.PLP.Chemscore.CHOScore>
0.0000

> <Gold.PLP.Chemscore.Metal>
0.0000

> <Gold.Chemscore.Hbonds>
donor molecule, donor type, donor heavy atom, donor atom, acceptor molecule, acceptor atom, score
      P1  H  7989  7998       L1     6  0.95
      P1  H  7997  8008       L1     3  1.00

> <Gold.PLP.Chemscore.Internal.Correction>
0.3648

> <Gold.Rescore>
     Score         DG    S(hbond)    S(metal)    S(lipo)     H(rot)  DE(clash)    DE(int)     intcor
     13.56     -15.46       1.64        0.00      71.09       1.49       0.39       1.50       ----

> <Gold.Chemscore.Fitness>
13.5646

> <Gold.Chemscore.DG>
-15.4602

> <Gold.Chemscore.ZeroCoef>
-5.4800

> <Gold.Chemscore.Hbond>
1.6378

> <Gold.Chemscore.Metal>
0.0000

> <Gold.Chemscore.Lipo>
71.0920

> <Gold.Chemscore.Internal_Hbond>
0.0000

> <Gold.Chemscore.DEClash>
0.3941

> <Gold.Chemscore.DEInternal>
1.5015

> <Gold.Chemscore.Rot>
1.4874

> <Gold.Chemscore.Internal.Correction>
   9.000000E+99

> <Gold.Chemscore.Hbonds>
donor molecule, donor type, donor heavy atom, donor atom, acceptor molecule, acceptor atom, score
      P1  H  7989  7998       L1     6  0.19
      P1  H  7997  8008       L1     3  0.94

> <Gold.Chemscore.Hbond.Weighted>
-5.4701

> <Gold.Chemscore.Metal.Weighted>
-0.0000

> <Gold.Chemscore.Lipo.Weighted>
-8.3178

> <Gold.Chemscore.Internal_Hbond.Weighted>
0.0000

> <Gold.Chemscore.DEClash.Weighted>
0.3941

> <Gold.Chemscore.DEInternal.Weighted>
1.5015

> <Gold.Chemscore.Rot.Weighted>
3.8077

> <Gold.Chemscore.Internal.Correction.Weighted>
   9.000000E+99

> <Gold.Protein.RotatedTorsions>
[ 6907 6896 6895 6894 ] final  -82.14 input  -60.11 | X-H torsion
[ 7974 7965 7964 7962 ] final   18.49 input  175.53 | X-H torsion
[ 8008 7997 7996 7995 ] final -102.94 input   59.86 | X-H torsion
[ 10167 10162 10161 10158 ] final  -37.01 input  -65.29 | X-H torsion
[ 10718 10713 10712 10709 ] final -112.34 input   66.30 | X-H torsion
[ 10763 10752 10751 10750 ] final   48.76 input  -60.55 | X-H torsion
[ 11005 11000 10999 10996 ] final   23.24 input  -57.11 | X-H torsion

> <Gold.Protein.ActiveResidues>
 VAL166  LYS551  ARG553  GLY616  TRP617  ASP618  TYR619  PRO620  LYS621  CYS622 
 ASP623  PHE694  ASN695  SER759  ASP760  ASP761  ALA762  ILE779  LEU786  VAL792 
 PHE793  MET794  SER795  GLU796  ALA797  LYS798  CYS799  TRP800  GLU811  SER814 

> <Gold.Protein.RotatedAtoms>
  150.6901  134.3710  159.4991 H   0  0  0  0  0  0  0  0  0  0  0  0  # atno 6907 bound_to 6896
  152.1525  134.8974  160.0556 H   0  0  0  0  0  0  0  0  0  0  0  0  # atno 6908 bound_to 6896
  152.0066  133.3810  159.4240 H   0  0  0  0  0  0  0  0  0  0  0  0  # atno 6909 bound_to 6896
  146.2183  139.8450  142.8633 H   0  0  0  0  0  0  0  0  0  0  0  0  # atno 7974 bound_to 7965
  154.8639  140.0425  157.1682 H   0  0  0  0  0  0  0  0  0  0  0  0  # atno 8008 bound_to 7997
  154.8811  140.2972  155.5404 H   0  0  0  0  0  0  0  0  0  0  0  0  # atno 8009 bound_to 7997
  156.2999  140.2411  156.3814 H   0  0  0  0  0  0  0  0  0  0  0  0  # atno 8010 bound_to 7997
  140.7129  143.3370  151.2441 H   0  0  0  0  0  0  0  0  0  0  0  0  # atno 10167 bound_to 10162
  156.0700  130.5915  150.8496 H   0  0  0  0  0  0  0  0  0  0  0  0  # atno 10718 bound_to 10713
  152.9790  135.5934  154.3978 H   0  0  0  0  0  0  0  0  0  0  0  0  # atno 10763 bound_to 10752
  154.3626  135.2767  155.2313 H   0  0  0  0  0  0  0  0  0  0  0  0  # atno 10764 bound_to 10752
  154.4303  135.6038  153.6120 H   0  0  0  0  0  0  0  0  0  0  0  0  # atno 10765 bound_to 10752
  140.3718  134.2015  155.7666 H   0  0  0  0  0  0  0  0  0  0  0  0  # atno 11005 bound_to 11000
  145.2860  141.0153  143.3690 LP  0  0  0  0  0  0  0  0  0  0  0  0  # atno 17320 bound_to 7965
  144.9114  139.4524  143.6585 LP  0  0  0  0  0  0  0  0  0  0  0  0  # atno 17321 bound_to 7965
  139.6868  143.9761  152.2838 LP  0  0  0  0  0  0  0  0  0  0  0  0  # atno 17342 bound_to 10162
  139.9409  144.6682  150.8268 LP  0  0  0  0  0  0  0  0  0  0  0  0  # atno 17343 bound_to 10162
  157.5765  131.0946  150.9337 LP  0  0  0  0  0  0  0  0  0  0  0  0  # atno 17370 bound_to 10713
  156.9542  130.5431  149.5283 LP  0  0  0  0  0  0  0  0  0  0  0  0  # atno 17371 bound_to 10713
  141.1952  133.8111  157.0725 LP  0  0  0  0  0  0  0  0  0  0  0  0  # atno 17394 bound_to 11000
  140.0546  134.9787  157.1197 LP  0  0  0  0  0  0  0  0  0  0  0  0  # atno 17395 bound_to 11000

$$$$
