AV-unprocessed.smi:1555|AV-procd|sdf|6267|dock3
  -GOLD-   22720 6453D 1   1.00000     0.00000
 Structure written by MMmdl.
 41 42  0  0  0  0  0  0  0  0  1 V2000
  154.0272  140.4542  160.3865 C   0  0  0  0  0  0  0  0  0  0  0  0
  152.9186  141.4340  159.9710 C   0  0  1  0  0  0  0  0  0  0  0  0
  153.3567  142.8974  160.1707 C   0  0  0  0  0  0  0  0  0  0  0  0
  152.2918  143.8376  159.8733 N   0  0  0  0  0  0  0  0  0  0  0  0
  151.9470  144.3482  158.6284 C   0  0  0  0  0  0  0  0  0  0  0  0
  150.8809  145.1945  158.8327 C   0  0  0  0  0  0  0  0  0  0  0  0
  150.5562  145.2213  160.1869 N   0  0  0  0  0  0  0  0  0  0  0  0
  151.4349  144.3951  160.7396 C   0  0  0  0  0  0  0  0  0  0  0  0
  152.5495  141.2131  158.5749 N   0  0  0  0  0  0  0  0  0  0  0  0
  151.3465  141.4604  158.0298 C   0  0  0  0  0  0  0  0  0  0  0  0
  150.3965  141.8689  158.6990 O   0  0  0  0  0  0  0  0  0  0  0  0
  151.2702  141.2211  156.6961 N   0  0  0  0  0  0  0  0  0  0  0  0
  152.0943  140.2727  155.9276 C   0  0  0  0  0  0  0  0  0  0  0  0
  151.2172  139.0764  155.5182 C   0  0  0  0  0  0  0  0  0  0  0  0
  149.9862  139.5352  154.7051 C   0  0  0  0  0  0  0  0  0  0  0  0
  149.0605  138.3485  154.3808 C   0  0  0  0  0  0  0  0  0  0  0  0
  148.3467  138.5824  153.1848 O   0  0  0  0  0  0  0  0  0  0  0  0
  149.2434  140.6750  155.4414 C   0  0  0  0  0  0  0  0  0  0  0  0
  150.2105  141.7976  155.8600 C   0  0  0  0  0  0  0  0  0  0  0  0
  154.3052  140.5984  161.4310 H   0  0  0  0  0  0  0  0  0  0  0  0
  154.9243  140.5895  159.7816 H   0  0  0  0  0  0  0  0  0  0  0  0
  153.7033  139.4189  160.2747 H   0  0  0  0  0  0  0  0  0  0  0  0
  152.0476  141.2518  160.6035 H   0  0  0  0  0  0  0  0  0  0  0  0
  153.6705  143.0594  161.2028 H   0  0  0  0  0  0  0  0  0  0  0  0
  154.2172  143.1310  159.5418 H   0  0  0  0  0  0  0  0  0  0  0  0
  152.4722  144.0729  157.7256 H   0  0  0  0  0  0  0  0  0  0  0  0
  150.3271  145.7815  158.1151 H   0  0  0  0  0  0  0  0  0  0  0  0
  151.4538  144.1871  161.7993 H   0  0  0  0  0  0  0  0  0  0  0  0
  153.2775  140.8740  157.9632 H   0  0  0  0  0  0  0  0  0  0  0  0
  152.4779  140.7731  155.0372 H   0  0  0  0  0  0  0  0  0  0  0  0
  152.9785  139.9199  156.4584 H   0  0  0  0  0  0  0  0  0  0  0  0
  151.8081  138.3706  154.9337 H   0  0  0  0  0  0  0  0  0  0  0  0
  150.8936  138.5431  156.4133 H   0  0  0  0  0  0  0  0  0  0  0  0
  150.3587  139.9369  153.7611 H   0  0  0  0  0  0  0  0  0  0  0  0
  149.6438  137.4361  154.2533 H   0  0  0  0  0  0  0  0  0  0  0  0
  148.3562  138.1699  155.1939 H   0  0  0  0  0  0  0  0  0  0  0  0
  148.2759  137.7670  152.7124 H   0  0  0  0  0  0  0  0  0  0  0  0
  148.4602  141.0877  154.8050 H   0  0  0  0  0  0  0  0  0  0  0  0
  148.7446  140.2797  156.3273 H   0  0  0  0  0  0  0  0  0  0  0  0
  149.6583  142.5921  156.3637 H   0  0  0  0  0  0  0  0  0  0  0  0
  150.6544  142.2605  154.9776 H   0  0  0  0  0  0  0  0  0  0  0  0
  1  2  1  0  0  0  0
  1 20  1  0  0  0  0
  1 21  1  0  0  0  0
  1 22  1  0  0  0  0
  2  3  1  0  0  0  0
  2  9  1  0  0  0  0
  2 23  1  0  0  0  0
  3  4  1  0  0  0  0
  3 24  1  0  0  0  0
  3 25  1  0  0  0  0
  4  8  1  0  0  0  0
  4  5  1  0  0  0  0
  5  6  2  0  0  0  0
  5 26  1  0  0  0  0
  6  7  1  0  0  0  0
  6 27  1  0  0  0  0
  7  8  2  0  0  0  0
  8 28  1  0  0  0  0
  9 10  1  0  0  0  0
  9 29  1  0  0  0  0
 10 11  2  0  0  0  0
 10 12  1  0  0  0  0
 12 19  1  0  0  0  0
 12 13  1  0  0  0  0
 13 14  1  0  0  0  0
 13 30  1  0  0  0  0
 13 31  1  0  0  0  0
 14 15  1  0  0  0  0
 14 32  1  0  0  0  0
 14 33  1  0  0  0  0
 15 16  1  0  0  0  0
 15 18  1  0  0  0  0
 15 34  1  0  0  0  0
 16 17  1  0  0  0  0
 16 35  1  0  0  0  0
 16 36  1  0  0  0  0
 17 37  1  0  0  0  0
 18 19  1  0  0  0  0
 18 38  1  0  0  0  0
 18 39  1  0  0  0  0
 19 40  1  0  0  0  0
 19 41  1  0  0  0  0
M  END
> <s_m_source_file>
AV-unprocessed.smi

> <i_m_source_file_index>
1555

> <i_lp_mmshare_version>
43012

> <i_f3d_flags>
0

> <s_epik_input>
W2NIXTFuW2NIXVtjSF1uMVtDSDJdW0NAQEhdKFtDSDNdKVtOSF1DKD1PKU4yW0NIMl1bQ0gyXVtDSF0oW0NIMl1bT0hdKVtDSDJdW0NIMl0y

> <s_epik_cmdline>
J2VwaWtfcHl0aG9uJywgJy1waCcsICc3LjAnLCAnLXRuJywgJzgnLCAnLW1hJywgJzIwMCcsICctbWV0YWxfYmluZGluZycsICctaW1hZScsICc8aW5maWxlLm1hZT4nLCAnLW9tYWUnLCAnPG91dGZpbGUubWFlPic=

> <r_lp_tautomer_probability>
1

> <r_epik_Ionization_Penalty>
0.625883

> <r_epik_Ionization_Penalty_Charging>
0.625812

> <r_epik_Ionization_Penalty_Neutral>
7.07114e-05

> <r_epik_State_Penalty>
0.642234

> <r_epik_Charging_Adjusted_Penalty>
1.26805

> <i_epik_Tot_Q>
0

> <i_epik_Tot_abs_Q>
0

> <r_epik_Metal_State_Penalty>
0.307949

> <b_epik_Metal_Only>
0

> <s_lp_Force_Field>
OPLS_2005

> <r_lp_Energy>
32.573

> <b_lp_Chiralities_Consistent>
1

> <s_lp_Variant>
AV-unprocessed.smi:1555-4

> <Gold.Version>
5.8.1

> <Gold.Id.Protein>
6NUR|6NUR_protein|mol2

> <Gold.PLP.Fitness>
46.9033

> <Gold.PLP.PLP>
-43.3259

> <Gold.PLP.part.hbond>
-2.2133

> <Gold.PLP.part.metal>
0.0000

> <Gold.PLP.part.buried>
-5.4497

> <Gold.PLP.part.nonpolar>
-36.9406

> <Gold.PLP.part.repulsive>
0.3372

> <Gold.PLP.ligand.clash>
0.0000

> <Gold.PLP.ligand.torsion>
1.2310

> <Gold.PLP.Chemscore.Hbond>
1.0000

> <Gold.PLP.Chemscore.CHOScore>
0.9987

> <Gold.PLP.Chemscore.Metal>
0.0000

> <Gold.Chemscore.Hbonds>
donor molecule, donor type, donor heavy atom, donor atom, acceptor molecule, acceptor atom, score
      L1  H    17    37       P1  7948  1.00
      L1  C     6    27       P1  8029  0.93

> <Gold.PLP.Chemscore.Internal.Correction>
0.0432

> <Gold.Rescore>
     Score         DG    S(hbond)    S(metal)    S(lipo)     H(rot)  DE(clash)    DE(int)     intcor
     12.64     -13.77       0.99        0.00      96.99       2.49       0.01       1.12       ----

> <Gold.Chemscore.Fitness>
12.6420

> <Gold.Chemscore.DG>
-13.7677

> <Gold.Chemscore.ZeroCoef>
-5.4800

> <Gold.Chemscore.Hbond>
0.9898

> <Gold.Chemscore.Metal>
0.0000

> <Gold.Chemscore.Lipo>
96.9912

> <Gold.Chemscore.Internal_Hbond>
0.0000

> <Gold.Chemscore.DEClash>
0.0095

> <Gold.Chemscore.DEInternal>
1.1162

> <Gold.Chemscore.Rot>
2.4867

> <Gold.Chemscore.Internal.Correction>
   9.000000E+99

> <Gold.Chemscore.Hbonds>
donor molecule, donor type, donor heavy atom, donor atom, acceptor molecule, acceptor atom, score
      L1  H    17    37       P1  7948  0.98

> <Gold.Chemscore.Hbond.Weighted>
-3.3058

> <Gold.Chemscore.Metal.Weighted>
-0.0000

> <Gold.Chemscore.Lipo.Weighted>
-11.3480

> <Gold.Chemscore.Internal_Hbond.Weighted>
0.0000

> <Gold.Chemscore.DEClash.Weighted>
0.0095

> <Gold.Chemscore.DEInternal.Weighted>
1.1162

> <Gold.Chemscore.Rot.Weighted>
6.3660

> <Gold.Chemscore.Internal.Correction.Weighted>
   9.000000E+99

> <Gold.Protein.RotatedTorsions>
[ 6907 6896 6895 6894 ] final  125.18 input  -60.11 | X-H torsion
[ 7974 7965 7964 7962 ] final  -59.46 input  175.53 | X-H torsion
[ 8008 7997 7996 7995 ] final  -47.21 input   59.86 | X-H torsion
[ 10167 10162 10161 10158 ] final  138.28 input  -65.29 | X-H torsion
[ 10718 10713 10712 10709 ] final -103.33 input   66.30 | X-H torsion
[ 10763 10752 10751 10750 ] final   56.05 input  -60.55 | X-H torsion
[ 11005 11000 10999 10996 ] final -168.81 input  -57.11 | X-H torsion

> <Gold.Protein.ActiveResidues>
 VAL166  LYS551  ARG553  GLY616  TRP617  ASP618  TYR619  PRO620  LYS621  CYS622 
 ASP623  PHE694  ASN695  SER759  ASP760  ASP761  ALA762  ILE779  LEU786  VAL792 
 PHE793  MET794  SER795  GLU796  ALA797  LYS798  CYS799  TRP800  GLU811  SER814 

> <Gold.Protein.RotatedAtoms>
  152.4015  133.6824  159.6319 H   0  0  0  0  0  0  0  0  0  0  0  0  # atno 6907 bound_to 6896
  150.7905  133.8783  159.3287 H   0  0  0  0  0  0  0  0  0  0  0  0  # atno 6908 bound_to 6896
  151.6548  135.0998  160.0219 H   0  0  0  0  0  0  0  0  0  0  0  0  # atno 6909 bound_to 6896
  145.8272  140.8502  143.0102 H   0  0  0  0  0  0  0  0  0  0  0  0  # atno 7974 bound_to 7965
  154.4014  140.1352  156.4138 H   0  0  0  0  0  0  0  0  0  0  0  0  # atno 8008 bound_to 7997
  155.7708  140.3484  155.5226 H   0  0  0  0  0  0  0  0  0  0  0  0  # atno 8009 bound_to 7997
  155.8768  140.0981  157.1503 H   0  0  0  0  0  0  0  0  0  0  0  0  # atno 8010 bound_to 7997
  139.5116  144.6362  151.5690 H   0  0  0  0  0  0  0  0  0  0  0  0  # atno 10167 bound_to 10162
  156.0261  130.5462  150.7237 H   0  0  0  0  0  0  0  0  0  0  0  0  # atno 10718 bound_to 10713
  152.9826  135.5690  154.5166 H   0  0  0  0  0  0  0  0  0  0  0  0  # atno 10763 bound_to 10752
  154.4661  135.2783  155.1679 H   0  0  0  0  0  0  0  0  0  0  0  0  # atno 10764 bound_to 10752
  154.3247  135.6261  153.5577 H   0  0  0  0  0  0  0  0  0  0  0  0  # atno 10765 bound_to 10752
  140.5378  134.5553  157.5092 H   0  0  0  0  0  0  0  0  0  0  0  0  # atno 11005 bound_to 11000
  144.6742  140.0620  143.7476 LP  0  0  0  0  0  0  0  0  0  0  0  0  # atno 17320 bound_to 7965
  145.9610  139.2801  143.1155 LP  0  0  0  0  0  0  0  0  0  0  0  0  # atno 17321 bound_to 7965
  140.6112  143.9433  150.6454 LP  0  0  0  0  0  0  0  0  0  0  0  0  # atno 17342 bound_to 10162
  140.2676  143.3479  152.1267 LP  0  0  0  0  0  0  0  0  0  0  0  0  # atno 17343 bound_to 10162
  157.4847  131.0905  151.0496 LP  0  0  0  0  0  0  0  0  0  0  0  0  # atno 17370 bound_to 10713
  157.0920  130.5946  149.5441 LP  0  0  0  0  0  0  0  0  0  0  0  0  # atno 17371 bound_to 10713
  139.9520  134.7600  156.0427 LP  0  0  0  0  0  0  0  0  0  0  0  0  # atno 17394 bound_to 11000
  141.1245  133.6603  156.3300 LP  0  0  0  0  0  0  0  0  0  0  0  0  # atno 17395 bound_to 11000

$$$$
