AV-unprocessed.smi:2504|AV-procd|sdf|9849|dock10
  -GOLD-   2272013483D 1   1.00000     0.00000
 Structure written by MMmdl.
 46 48  0  0  0  0  0  0  0  0  1 V2000
  152.7141  139.8673  157.0013 O   0  0  0  0  0  0  0  0  0  0  0  0
  151.8237  140.6979  157.1863 C   0  0  0  0  0  0  0  0  0  0  0  0
  151.6798  141.4240  158.5412 C   0  0  0  0  0  0  0  0  0  0  0  0
  151.7712  142.9618  158.4428 C   0  0  0  0  0  0  0  0  0  0  0  0
  152.4078  143.4079  159.7568 C   0  0  0  0  0  0  0  0  0  0  0  0
  153.4232  142.3102  160.0562 C   0  0  0  0  0  0  0  0  0  0  0  0
  152.7568  141.0166  159.5760 C   0  0  0  0  0  0  0  0  0  0  0  0
  150.9795  141.0961  156.1449 N   0  0  0  0  0  0  0  0  0  0  0  0
  150.4427  140.1442  155.1834 C   0  0  0  0  0  0  0  0  0  0  0  0
  149.2638  141.1187  155.0568 C   0  0  0  0  0  0  0  0  0  0  0  0
  147.5964  140.3249  155.0997 S   0  0  0  0  0  0  0  0  0  0  0  0
  147.5486  139.3373  156.1892 O   0  0  0  0  0  0  0  0  0  0  0  0
  146.5671  141.3720  155.0140 O   0  0  0  0  0  0  0  0  0  0  0  0
  147.5711  139.4580  153.6118 N   0  0  0  0  0  0  0  0  0  0  0  0
  146.3199  138.8170  153.2094 C   0  0  0  0  0  0  0  0  0  0  0  0
  146.0108  137.6143  154.1141 C   0  0  0  0  0  0  0  0  0  0  0  0
  145.2562  136.5105  153.3942 C   0  0  0  0  0  0  0  0  0  0  0  0
  145.8418  135.8224  152.3116 C   0  0  0  0  0  0  0  0  0  0  0  0
  145.1075  134.8000  151.6804 C   0  0  0  0  0  0  0  0  0  0  0  0
  143.8151  134.5082  152.1604 C   0  0  0  0  0  0  0  0  0  0  0  0
  143.2435  135.1613  153.1954 N   0  0  0  0  0  0  0  0  0  0  0  0
  143.9536  136.1419  153.7934 C   0  0  0  0  0  0  0  0  0  0  0  0
  149.6833  141.7022  156.4110 C   0  0  0  0  0  0  0  0  0  0  0  0
  150.6996  141.1791  158.9521 H   0  0  0  0  0  0  0  0  0  0  0  0
  152.4173  143.2752  157.6212 H   0  0  0  0  0  0  0  0  0  0  0  0
  150.7957  143.4239  158.2876 H   0  0  0  0  0  0  0  0  0  0  0  0
  152.8640  144.3960  159.6898 H   0  0  0  0  0  0  0  0  0  0  0  0
  151.6527  143.4389  160.5438 H   0  0  0  0  0  0  0  0  0  0  0  0
  154.3325  142.4889  159.4806 H   0  0  0  0  0  0  0  0  0  0  0  0
  153.7003  142.2721  161.1103 H   0  0  0  0  0  0  0  0  0  0  0  0
  152.2788  140.5123  160.4166 H   0  0  0  0  0  0  0  0  0  0  0  0
  153.5057  140.3294  159.1794 H   0  0  0  0  0  0  0  0  0  0  0  0
  151.0400  140.0425  154.2771 H   0  0  0  0  0  0  0  0  0  0  0  0
  150.1882  139.1804  155.6270 H   0  0  0  0  0  0  0  0  0  0  0  0
  149.3541  141.8317  154.2356 H   0  0  0  0  0  0  0  0  0  0  0  0
  147.9419  140.0303  152.8533 H   0  0  0  0  0  0  0  0  0  0  0  0
  145.5108  139.5456  153.2668 H   0  0  0  0  0  0  0  0  0  0  0  0
  146.3970  138.5024  152.1680 H   0  0  0  0  0  0  0  0  0  0  0  0
  146.9364  137.2114  154.5279 H   0  0  0  0  0  0  0  0  0  0  0  0
  145.4159  137.9432  154.9670 H   0  0  0  0  0  0  0  0  0  0  0  0
  146.8365  136.0714  151.9719 H   0  0  0  0  0  0  0  0  0  0  0  0
  145.5245  134.2517  150.8486 H   0  0  0  0  0  0  0  0  0  0  0  0
  143.2247  133.7295  151.7007 H   0  0  0  0  0  0  0  0  0  0  0  0
  143.4701  136.6411  154.6204 H   0  0  0  0  0  0  0  0  0  0  0  0
  149.1604  141.2572  157.2603 H   0  0  0  0  0  0  0  0  0  0  0  0
  149.7008  142.7915  156.4507 H   0  0  0  0  0  0  0  0  0  0  0  0
  1  2  2  0  0  0  0
  2  3  1  0  0  0  0
  2  8  1  0  0  0  0
  3  7  1  0  0  0  0
  3  4  1  0  0  0  0
  3 24  1  0  0  0  0
  4  5  1  0  0  0  0
  4 25  1  0  0  0  0
  4 26  1  0  0  0  0
  5  6  1  0  0  0  0
  5 27  1  0  0  0  0
  5 28  1  0  0  0  0
  6  7  1  0  0  0  0
  6 29  1  0  0  0  0
  6 30  1  0  0  0  0
  7 31  1  0  0  0  0
  7 32  1  0  0  0  0
  8 23  1  0  0  0  0
  8  9  1  0  0  0  0
  9 10  1  0  0  0  0
  9 33  1  0  0  0  0
  9 34  1  0  0  0  0
 10 11  1  0  0  0  0
 10 23  1  0  0  0  0
 10 35  1  0  0  0  0
 11 12  2  0  0  0  0
 11 13  2  0  0  0  0
 11 14  1  0  0  0  0
 14 15  1  0  0  0  0
 14 36  1  0  0  0  0
 15 16  1  0  0  0  0
 15 37  1  0  0  0  0
 15 38  1  0  0  0  0
 16 17  1  0  0  0  0
 16 39  1  0  0  0  0
 16 40  1  0  0  0  0
 17 22  1  0  0  0  0
 17 18  2  0  0  0  0
 18 19  1  0  0  0  0
 18 41  1  0  0  0  0
 19 20  2  0  0  0  0
 19 42  1  0  0  0  0
 20 21  1  0  0  0  0
 20 43  1  0  0  0  0
 21 22  2  0  0  0  0
 22 44  1  0  0  0  0
 23 45  1  0  0  0  0
 23 46  1  0  0  0  0
M  END
> <s_m_source_file>
AV-unprocessed.smi

> <i_m_source_file_index>
2504

> <i_lp_mmshare_version>
43012

> <i_f3d_flags>
0

> <s_epik_input>
W0NIMl0xW0NIMl1bQ0gyXVtDSDJdW0NIXTFDKD1PKU4yW0NIMl1bQ0hdKFtDSDJdMilTKD1PKSg9TylbTkhdW0NIMl1bQ0gyXWMzW2NIXVtjSF1bY0hdbltjSF0z

> <s_epik_cmdline>
J2VwaWtfcHl0aG9uJywgJy1waCcsICc3LjAnLCAnLXRuJywgJzgnLCAnLW1hJywgJzIwMCcsICctbWV0YWxfYmluZGluZycsICctaW1hZScsICc8aW5maWxlLm1hZT4nLCAnLW9tYWUnLCAnPG91dGZpbGUubWFlPic=

> <r_epik_Ionization_Penalty>
0.0107611

> <r_epik_Ionization_Penalty_Charging>
0

> <r_epik_Ionization_Penalty_Neutral>
0.0107611

> <r_epik_State_Penalty>
0.00821942

> <r_epik_Charging_Adjusted_Penalty>
0.00821942

> <i_epik_Tot_Q>
0

> <i_epik_Tot_abs_Q>
0

> <r_epik_Metal_State_Penalty>
0.0376733

> <b_epik_Metal_Only>
0

> <s_lp_Force_Field>
OPLS_2005

> <r_lp_Energy>
34.3459

> <b_lp_Chiralities_Consistent>
1

> <s_lp_Variant>
AV-unprocessed.smi:2504-1

> <Gold.Version>
5.8.1

> <Gold.Id.Protein>
6NUR|6NUR_protein|mol2

> <Gold.PLP.Fitness>
50.9842

> <Gold.PLP.PLP>
-42.5795

> <Gold.PLP.part.hbond>
-1.9555

> <Gold.PLP.part.metal>
0.0000

> <Gold.PLP.part.buried>
-1.0023

> <Gold.PLP.part.nonpolar>
-39.2335

> <Gold.PLP.part.repulsive>
0.3516

> <Gold.PLP.ligand.clash>
0.0000

> <Gold.PLP.ligand.torsion>
1.1477

> <Gold.PLP.Chemscore.Hbond>
2.0000

> <Gold.PLP.Chemscore.CHOScore>
1.0000

> <Gold.PLP.Chemscore.Metal>
0.0000

> <Gold.Chemscore.Hbonds>
donor molecule, donor type, donor heavy atom, donor atom, acceptor molecule, acceptor atom, score
      L1  H    14    36       P1  7957  0.14
      P1  H  7997  8008       L1     1  1.00

> <Gold.PLP.Chemscore.Internal.Correction>
1.7000

> <Gold.Rescore>
     Score         DG    S(hbond)    S(metal)    S(lipo)     H(rot)  DE(clash)    DE(int)     intcor
     15.30     -18.98       1.98        0.00      99.44       1.85       0.17       3.51       ----

> <Gold.Chemscore.Fitness>
15.2986

> <Gold.Chemscore.DG>
-18.9772

> <Gold.Chemscore.ZeroCoef>
-5.4800

> <Gold.Chemscore.Hbond>
1.9753

> <Gold.Chemscore.Metal>
0.0000

> <Gold.Chemscore.Lipo>
99.4386

> <Gold.Chemscore.Internal_Hbond>
0.0000

> <Gold.Chemscore.DEClash>
0.1684

> <Gold.Chemscore.DEInternal>
3.5102

> <Gold.Chemscore.Rot>
1.8494

> <Gold.Chemscore.Internal.Correction>
   9.000000E+99

> <Gold.Chemscore.Hbonds>
donor molecule, donor type, donor heavy atom, donor atom, acceptor molecule, acceptor atom, score
      L1  H    14    36       P1  7957  0.15
      P1  H  7997  8008       L1     1  0.99

> <Gold.Chemscore.Hbond.Weighted>
-6.5974

> <Gold.Chemscore.Metal.Weighted>
-0.0000

> <Gold.Chemscore.Lipo.Weighted>
-11.6343

> <Gold.Chemscore.Internal_Hbond.Weighted>
0.0000

> <Gold.Chemscore.DEClash.Weighted>
0.1684

> <Gold.Chemscore.DEInternal.Weighted>
3.5102

> <Gold.Chemscore.Rot.Weighted>
4.7346

> <Gold.Chemscore.Internal.Correction.Weighted>
   9.000000E+99

> <Gold.Protein.RotatedTorsions>
[ 6907 6896 6895 6894 ] final  169.70 input  -60.11 | X-H torsion
[ 7974 7965 7964 7962 ] final   46.37 input  175.53 | X-H torsion
[ 8008 7997 7996 7995 ] final  -69.38 input   59.86 | X-H torsion
[ 10167 10162 10161 10158 ] final   44.69 input  -65.29 | X-H torsion
[ 10718 10713 10712 10709 ] final  103.10 input   66.30 | X-H torsion
[ 10763 10752 10751 10750 ] final -179.50 input  -60.55 | X-H torsion
[ 11005 11000 10999 10996 ] final  -21.30 input  -57.11 | X-H torsion

> <Gold.Protein.ActiveResidues>
 VAL166  LYS551  ARG553  GLY616  TRP617  ASP618  TYR619  PRO620  LYS621  CYS622 
 ASP623  PHE694  ASN695  SER759  ASP760  ASP761  ALA762  ILE779  LEU786  VAL792 
 PHE793  MET794  SER795  GLU796  ALA797  LYS798  CYS799  TRP800  GLU811  SER814 

> <Gold.Protein.RotatedAtoms>
  151.8277  133.3404  159.3603 H   0  0  0  0  0  0  0  0  0  0  0  0  # atno 6907 bound_to 6896
  150.7274  134.5513  159.5805 H   0  0  0  0  0  0  0  0  0  0  0  0  # atno 6908 bound_to 6896
  152.2959  134.7668  160.0419 H   0  0  0  0  0  0  0  0  0  0  0  0  # atno 6909 bound_to 6896
  146.0395  139.4863  142.9787 H   0  0  0  0  0  0  0  0  0  0  0  0  # atno 7974 bound_to 7965
  154.4934  140.0854  156.7645 H   0  0  0  0  0  0  0  0  0  0  0  0  # atno 8008 bound_to 7997
  155.4174  140.3444  155.4250 H   0  0  0  0  0  0  0  0  0  0  0  0  # atno 8009 bound_to 7997
  156.1361  140.1515  156.8980 H   0  0  0  0  0  0  0  0  0  0  0  0  # atno 8010 bound_to 7997
  140.3317  144.2580  150.6167 H   0  0  0  0  0  0  0  0  0  0  0  0  # atno 10167 bound_to 10162
  157.6782  131.0770  150.5505 H   0  0  0  0  0  0  0  0  0  0  0  0  # atno 10718 bound_to 10713
  154.5342  135.2802  155.1153 H   0  0  0  0  0  0  0  0  0  0  0  0  # atno 10763 bound_to 10752
  154.2661  135.6312  153.5296 H   0  0  0  0  0  0  0  0  0  0  0  0  # atno 10764 bound_to 10752
  152.9964  135.5617  154.5864 H   0  0  0  0  0  0  0  0  0  0  0  0  # atno 10765 bound_to 10752
  140.8547  133.7831  156.0006 H   0  0  0  0  0  0  0  0  0  0  0  0  # atno 11005 bound_to 11000
  145.6908  141.0165  143.1556 LP  0  0  0  0  0  0  0  0  0  0  0  0  # atno 17320 bound_to 7965
  144.7068  139.8530  143.7427 LP  0  0  0  0  0  0  0  0  0  0  0  0  # atno 17321 bound_to 7965
  140.5391  143.2227  151.8115 LP  0  0  0  0  0  0  0  0  0  0  0  0  # atno 17342 bound_to 10162
  139.4855  144.4624  151.9525 LP  0  0  0  0  0  0  0  0  0  0  0  0  # atno 17343 bound_to 10162
  156.5810  130.4304  149.5977 LP  0  0  0  0  0  0  0  0  0  0  0  0  # atno 17370 bound_to 10713
  156.2662  130.6990  151.1774 LP  0  0  0  0  0  0  0  0  0  0  0  0  # atno 17371 bound_to 10713
  140.8750  134.2680  157.5172 LP  0  0  0  0  0  0  0  0  0  0  0  0  # atno 17394 bound_to 11000
  139.8705  134.9586  156.4307 LP  0  0  0  0  0  0  0  0  0  0  0  0  # atno 17395 bound_to 11000

$$$$
