AV-unprocessed.smi:1834|AV-procd|sdf|7471|dock1
  -GOLD-   22720 9163D 1   1.00000     0.00000
 Structure written by MMmdl.
 46 47  0  0  0  0  0  0  0  0  2 V2000
  144.4119  143.6190  155.6428 C   0  0  0  0  0  0  0  0  0  0  0  0
  145.8707  143.9418  155.9965 C   0  0  0  0  0  0  0  0  0  0  0  0
  146.7676  142.7648  155.8654 N   0  3  1  0  0  0  0  0  0  0  0  0
  146.6380  141.8367  157.0191 C   0  0  0  0  0  0  0  0  0  0  0  0
  147.6497  140.6823  156.9320 C   0  0  0  0  0  0  0  0  0  0  0  0
  147.5303  139.9377  155.5936 C   0  0  0  0  0  0  0  0  0  0  0  0
  147.6352  140.9098  154.4035 C   0  0  2  0  0  0  0  0  0  0  0  0
  149.0884  141.3933  154.1793 C   0  0  0  0  0  0  0  0  0  0  0  0
  149.5803  142.2249  155.2744 N   0  0  0  0  0  0  0  0  0  0  0  0
  150.5084  141.8526  156.1678 C   0  0  0  0  0  0  0  0  0  0  0  0
  151.0601  140.7522  156.1487 O   0  0  0  0  0  0  0  0  0  0  0  0
  150.7370  142.8232  157.0690 N   0  0  0  0  0  0  0  0  0  0  0  0
  151.5465  142.7909  158.1609 C   0  0  0  0  0  0  0  0  0  0  0  0
  152.1449  141.7140  158.7560 C   0  0  0  0  0  0  0  0  0  0  0  0
  152.8444  142.3074  159.8469 C   0  0  0  0  0  0  0  0  0  0  0  0
  153.6992  141.6281  160.8758 C   0  0  0  0  0  0  0  0  0  0  0  0
  152.6785  143.6239  159.9064 N   0  0  0  0  0  0  0  0  0  0  0  0
  151.8736  143.9279  158.8655 N   0  0  0  0  0  0  0  0  0  0  0  0
  151.4798  145.3034  158.6293 C   0  0  0  0  0  0  0  0  0  0  0  0
  146.6003  142.0478  154.5722 C   0  0  0  0  0  0  0  0  0  0  0  0
  143.7944  144.5144  155.7154 H   0  0  0  0  0  0  0  0  0  0  0  0
  143.9790  142.8736  156.3090 H   0  0  0  0  0  0  0  0  0  0  0  0
  144.3286  143.2482  154.6213 H   0  0  0  0  0  0  0  0  0  0  0  0
  146.2056  144.7286  155.3193 H   0  0  0  0  0  0  0  0  0  0  0  0
  145.9402  144.3541  157.0040 H   0  0  0  0  0  0  0  0  0  0  0  0
  146.7982  142.3803  157.9510 H   0  0  0  0  0  0  0  0  0  0  0  0
  145.6215  141.4412  157.0538 H   0  0  0  0  0  0  0  0  0  0  0  0
  148.6612  141.0691  157.0584 H   0  0  0  0  0  0  0  0  0  0  0  0
  147.4880  139.9869  157.7561 H   0  0  0  0  0  0  0  0  0  0  0  0
  148.2913  139.1598  155.5233 H   0  0  0  0  0  0  0  0  0  0  0  0
  146.5677  139.4257  155.5560 H   0  0  0  0  0  0  0  0  0  0  0  0
  147.3547  140.3519  153.5090 H   0  0  0  0  0  0  0  0  0  0  0  0
  149.7585  140.5503  154.0072 H   0  0  0  0  0  0  0  0  0  0  0  0
  149.1331  141.9960  153.2717 H   0  0  0  0  0  0  0  0  0  0  0  0
  149.1824  143.1494  155.3579 H   0  0  0  0  0  0  0  0  0  0  0  0
  150.2337  143.6876  156.9330 H   0  0  0  0  0  0  0  0  0  0  0  0
  152.1026  140.6720  158.4777 H   0  0  0  0  0  0  0  0  0  0  0  0
  153.7104  140.5480  160.7282 H   0  0  0  0  0  0  0  0  0  0  0  0
  153.3301  141.8208  161.8835 H   0  0  0  0  0  0  0  0  0  0  0  0
  154.7297  141.9799  160.8240 H   0  0  0  0  0  0  0  0  0  0  0  0
  150.3924  145.3811  158.6471 H   0  0  0  0  0  0  0  0  0  0  0  0
  151.8451  145.6263  157.6540 H   0  0  0  0  0  0  0  0  0  0  0  0
  151.8933  145.9591  159.3969 H   0  0  0  0  0  0  0  0  0  0  0  0
  145.5936  141.6287  154.5336 H   0  0  0  0  0  0  0  0  0  0  0  0
  146.6622  142.7403  153.7348 H   0  0  0  0  0  0  0  0  0  0  0  0
  147.7132  143.1201  155.8882 H   0  0  0  0  0  0  0  0  0  0  0  0
  1  2  1  0  0  0  0
  1 21  1  0  0  0  0
  1 22  1  0  0  0  0
  1 23  1  0  0  0  0
  2  3  1  0  0  0  0
  2 24  1  0  0  0  0
  2 25  1  0  0  0  0
  3 20  1  0  0  0  0
  3  4  1  0  0  0  0
  3 46  1  0  0  0  0
  4  5  1  0  0  0  0
  4 26  1  0  0  0  0
  4 27  1  0  0  0  0
  5  6  1  0  0  0  0
  5 28  1  0  0  0  0
  5 29  1  0  0  0  0
  6  7  1  0  0  0  0
  6 30  1  0  0  0  0
  6 31  1  0  0  0  0
  7  8  1  0  0  0  0
  7 20  1  0  0  0  0
  7 32  1  0  0  0  0
  8  9  1  0  0  0  0
  8 33  1  0  0  0  0
  8 34  1  0  0  0  0
  9 10  1  0  0  0  0
  9 35  1  0  0  0  0
 10 11  2  0  0  0  0
 10 12  1  0  0  0  0
 12 13  1  0  0  0  0
 12 36  1  0  0  0  0
 13 18  1  0  0  0  0
 13 14  2  0  0  0  0
 14 15  1  0  0  0  0
 14 37  1  0  0  0  0
 15 16  1  0  0  0  0
 15 17  2  0  0  0  0
 16 38  1  0  0  0  0
 16 39  1  0  0  0  0
 16 40  1  0  0  0  0
 17 18  1  0  0  0  0
 18 19  1  0  0  0  0
 19 41  1  0  0  0  0
 19 42  1  0  0  0  0
 19 43  1  0  0  0  0
 20 44  1  0  0  0  0
 20 45  1  0  0  0  0
M  CHG  1   3   1
M  END
> <s_m_source_file>
AV-unprocessed.smi

> <i_m_source_file_index>
1834

> <i_lp_mmshare_version>
43012

> <i_f3d_flags>
0

> <s_epik_input>
W0NIM11bQ0gyXU4xW0NIMl1bQ0gyXVtDSDJdW0NASF0oW0NIMl0xKVtDSDJdW05IXUMoPU8pW05IXWMyW2NIXWMoW0NIM10pbm4yW0NIM10=

> <s_epik_cmdline>
J2VwaWtfcHl0aG9uJywgJy1waCcsICc3LjAnLCAnLXRuJywgJzgnLCAnLW1hJywgJzIwMCcsICctbWV0YWxfYmluZGluZycsICctaW1hZScsICc8aW5maWxlLm1hZT4nLCAnLW9tYWUnLCAnPG91dGZpbGUubWFlPic=

> <r_lp_tautomer_probability>
1

> <r_epik_Ionization_Penalty>
0.000466842

> <r_epik_Ionization_Penalty_Charging>
0.000378984

> <r_epik_Ionization_Penalty_Neutral>
8.78572e-05

> <r_epik_State_Penalty>
0.000231434

> <r_epik_Charging_Adjusted_Penalty>
0.000610418

> <i_epik_Tot_Q>
1

> <i_epik_Tot_abs_Q>
1

> <r_epik_Metal_State_Penalty>
-0

> <b_epik_Metal_Only>
0

> <s_lp_Force_Field>
OPLS_2005

> <r_lp_Energy>
21.0152

> <b_lp_Chiralities_Consistent>
1

> <s_lp_Variant>
AV-unprocessed.smi:1834-3

> <Gold.Version>
5.8.1

> <Gold.Id.Protein>
6NUR|6NUR_protein|mol2

> <Gold.PLP.Fitness>
44.0877

> <Gold.PLP.PLP>
-35.8144

> <Gold.PLP.part.hbond>
-3.0972

> <Gold.PLP.part.metal>
0.0000

> <Gold.PLP.part.buried>
-2.7915

> <Gold.PLP.part.nonpolar>
-28.0851

> <Gold.PLP.part.repulsive>
0.2829

> <Gold.PLP.ligand.clash>
0.8099

> <Gold.PLP.ligand.torsion>
0.2098

> <Gold.PLP.Chemscore.Hbond>
3.1575

> <Gold.PLP.Chemscore.CHOScore>
0.0000

> <Gold.PLP.Chemscore.Metal>
0.0000

> <Gold.Chemscore.Hbonds>
donor molecule, donor type, donor heavy atom, donor atom, acceptor molecule, acceptor atom, score
      L1  H     3    46       P1  8028  1.76
      L1  H     9    35       P1  8028  1.00
      L1  H    12    36       P1  8028  0.73

> <Gold.PLP.Chemscore.Internal.Correction>
0.0304

> <Gold.Rescore>
     Score         DG    S(hbond)    S(metal)    S(lipo)     H(rot)  DE(clash)    DE(int)     intcor
     12.50     -16.58       1.97        0.00      70.02       1.43       0.50       3.58       ----

> <Gold.Chemscore.Fitness>
12.5035

> <Gold.Chemscore.DG>
-16.5834

> <Gold.Chemscore.ZeroCoef>
-5.4800

> <Gold.Chemscore.Hbond>
1.9669

> <Gold.Chemscore.Metal>
0.0000

> <Gold.Chemscore.Lipo>
70.0215

> <Gold.Chemscore.Internal_Hbond>
0.0000

> <Gold.Chemscore.DEClash>
0.5010

> <Gold.Chemscore.DEInternal>
3.5789

> <Gold.Chemscore.Rot>
1.4291

> <Gold.Chemscore.Internal.Correction>
   9.000000E+99

> <Gold.Chemscore.Hbonds>
donor molecule, donor type, donor heavy atom, donor atom, acceptor molecule, acceptor atom, score
      L1  H     3    46       P1  8028  0.22
      L1  H     9    35       P1  8028  0.99
      L1  H    12    36       P1  8028  0.70

> <Gold.Chemscore.Hbond.Weighted>
-6.5693

> <Gold.Chemscore.Metal.Weighted>
-0.0000

> <Gold.Chemscore.Lipo.Weighted>
-8.1925

> <Gold.Chemscore.Internal_Hbond.Weighted>
0.0000

> <Gold.Chemscore.DEClash.Weighted>
0.5010

> <Gold.Chemscore.DEInternal.Weighted>
3.5789

> <Gold.Chemscore.Rot.Weighted>
3.6584

> <Gold.Chemscore.Internal.Correction.Weighted>
   9.000000E+99

> <Gold.Protein.RotatedTorsions>
[ 6907 6896 6895 6894 ] final   49.05 input  -60.11 | X-H torsion
[ 7974 7965 7964 7962 ] final  167.37 input  175.53 | X-H torsion
[ 8008 7997 7996 7995 ] final   20.59 input   59.86 | X-H torsion
[ 10167 10162 10161 10158 ] final -105.08 input  -65.29 | X-H torsion
[ 10718 10713 10712 10709 ] final  -34.86 input   66.30 | X-H torsion
[ 10763 10752 10751 10750 ] final   50.19 input  -60.55 | X-H torsion
[ 11005 11000 10999 10996 ] final -167.50 input  -57.11 | X-H torsion

> <Gold.Protein.ActiveResidues>
 VAL166  LYS551  ARG553  GLY616  TRP617  ASP618  TYR619  PRO620  LYS621  CYS622 
 ASP623  PHE694  ASN695  SER759  ASP760  ASP761  ALA762  ILE779  LEU786  VAL792 
 PHE793  MET794  SER795  GLU796  ALA797  LYS798  CYS799  TRP800  GLU811  SER814 

> <Gold.Protein.RotatedAtoms>
  152.2865  134.7770  160.0386 H   0  0  0  0  0  0  0  0  0  0  0  0  # atno 6907 bound_to 6896
  151.8331  133.3406  159.3628 H   0  0  0  0  0  0  0  0  0  0  0  0  # atno 6908 bound_to 6896
  150.7211  134.5392  159.5783 H   0  0  0  0  0  0  0  0  0  0  0  0  # atno 6909 bound_to 6896
  144.7427  139.8751  143.6392 H   0  0  0  0  0  0  0  0  0  0  0  0  # atno 7974 bound_to 7965
  154.9379  140.3049  155.5135 H   0  0  0  0  0  0  0  0  0  0  0  0  # atno 8008 bound_to 7997
  156.2998  140.2342  156.4383 H   0  0  0  0  0  0  0  0  0  0  0  0  # atno 8009 bound_to 7997
  154.8174  140.0425  157.1374 H   0  0  0  0  0  0  0  0  0  0  0  0  # atno 8010 bound_to 7997
  140.2024  143.3808  152.1118 H   0  0  0  0  0  0  0  0  0  0  0  0  # atno 10167 bound_to 10162
  156.3456  130.4300  149.7749 H   0  0  0  0  0  0  0  0  0  0  0  0  # atno 10718 bound_to 10713
  152.9785  135.5887  154.4212 H   0  0  0  0  0  0  0  0  0  0  0  0  # atno 10763 bound_to 10752
  154.3836  135.2767  155.2199 H   0  0  0  0  0  0  0  0  0  0  0  0  # atno 10764 bound_to 10752
  154.4101  135.6083  153.6002 H   0  0  0  0  0  0  0  0  0  0  0  0  # atno 10765 bound_to 10752
  140.5525  134.5414  157.5125 H   0  0  0  0  0  0  0  0  0  0  0  0  # atno 11005 bound_to 11000
  146.1252  139.4276  143.0203 LP  0  0  0  0  0  0  0  0  0  0  0  0  # atno 17320 bound_to 7965
  145.7246  141.0063  143.1384 LP  0  0  0  0  0  0  0  0  0  0  0  0  # atno 17321 bound_to 7965
  139.5212  144.7043  151.5402 LP  0  0  0  0  0  0  0  0  0  0  0  0  # atno 17342 bound_to 10162
  140.6381  143.8944  150.6666 LP  0  0  0  0  0  0  0  0  0  0  0  0  # atno 17343 bound_to 10162
  156.4969  130.8111  151.3117 LP  0  0  0  0  0  0  0  0  0  0  0  0  # atno 17370 bound_to 10713
  157.7453  130.9957  150.2754 LP  0  0  0  0  0  0  0  0  0  0  0  0  # atno 17371 bound_to 10713
  139.9448  134.7722  156.0589 LP  0  0  0  0  0  0  0  0  0  0  0  0  # atno 17394 bound_to 11000
  141.1163  133.6627  156.3102 LP  0  0  0  0  0  0  0  0  0  0  0  0  # atno 17395 bound_to 11000

$$$$
