#       Name:                AV-unprocessed.smi:3186
#       Creating user name   scv26
#       Creation time:       Fri Mar 27 18:01:16 2020


#       File generated by GOLD software.
#

@<TRIPOS>MOLECULE
AV-unprocessed.smi:3186
    38    39     1
SMALL
NO_CHARGES


@<TRIPOS>ATOM
      1 ****        -2.5313   1.2748   2.2100 C.3            1 S1                 0.0000
      2 ****        -2.7066   2.1419   0.9758 C.ar           1 S1                 0.0000
      3 ****        -3.1933   3.4607   1.1117 C.ar           1 S1                 0.0000
      4 ****        -3.3813   4.2986   0.0709 N.ar           1 S1                 0.0000
      5 ****        -3.0885   3.8451  -1.1650 C.ar           1 S1                 0.0000
      6 ****        -2.5979   2.5489  -1.4158 C.ar           1 S1                 0.0000
      7 ****        -2.4016   1.6739  -0.3267 C.ar           1 S1                 0.0000
      8 ****        -1.8663   0.2740  -0.5829 C.3            1 S1                 0.0000
      9 ****        -0.3336   0.2194  -0.5171 C.3            1 S1                 0.0000
     10 ****         0.1588  -1.1505  -0.7727 N.4            1 S1                 1.0000
     11 ****         1.6284  -1.3152  -0.7087 C.3            1 S1                 0.0000
     12 ****         2.1135  -1.3907   0.7566 C.3            1 S1                 0.0000
     13 ****         3.6419  -1.5094   0.8751 C.3            1 S1                 0.0000
     14 ****         4.1895  -2.7716   0.1954 C.3            1 S1                 0.0000
     15 ****         3.8353  -2.7600  -1.5820 S.3            1 S1                 0.0000
     16 ****         2.0334  -2.5753  -1.4951 C.3            1 S1                 0.0000
     17 ****        -2.7103   1.8463   3.1215 H              1 S1                 0.0000
     18 ****        -1.5197   0.8732   2.2642 H              1 S1                 0.0000
     19 ****        -3.2357   0.4430   2.1925 H              1 S1                 0.0000
     20 ****        -3.4402   3.8584   2.0853 H              1 S1                 0.0000
     21 ****        -3.2482   4.5360  -1.9796 H              1 S1                 0.0000
     22 ****        -2.3778   2.2377  -2.4265 H              1 S1                 0.0000
     23 ****        -2.3029  -0.4266   0.1292 H              1 S1                 0.0000
     24 ****        -2.2042  -0.0550  -1.5667 H              1 S1                 0.0000
     25 ****         0.0944   0.8972  -1.2570 H              1 S1                 0.0000
     26 ****         0.0049   0.5598   0.4607 H              1 S1                 0.0000
     27 ****        -0.2681  -1.7887  -0.1166 H              1 S1                 0.0000
     28 ****         2.0863  -0.4532  -1.1969 H              1 S1                 0.0000
     29 ****         1.8002  -0.5024   1.3042 H              1 S1                 0.0000
     30 ****         1.6431  -2.2371   1.2590 H              1 S1                 0.0000
     31 ****         4.1161  -0.6253   0.4471 H              1 S1                 0.0000
     32 ****         3.9196  -1.5226   1.9296 H              1 S1                 0.0000
     33 ****         5.2685  -2.8393   0.3366 H              1 S1                 0.0000
     34 ****         3.7515  -3.6654   0.6411 H              1 S1                 0.0000
     35 ****         1.6089  -3.4697  -1.0371 H              1 S1                 0.0000
     36 ****         1.6501  -2.5269  -2.5149 H              1 S1                 0.0000
     37 ****        -0.1380  -1.4041  -1.7044 H              1 S1                 0.0000
     38 ****        -3.7268   5.2264   0.2115 LP             1 S1                 0.0000
@<TRIPOS>BOND
    1    1    2 1     
    2    1   17 1     
    3    1   18 1     
    4    1   19 1     
    5    2    7 ar    
    6    2    3 ar    
    7    3    4 ar    
    8    3   20 1     
    9    4    5 ar    
   10    5    6 ar    
   11    5   21 1     
   12    6    7 ar    
   13    6   22 1     
   14    7    8 1     
   15    8    9 1     
   16    8   23 1     
   17    8   24 1     
   18    9   10 1     
   19    9   25 1     
   20    9   26 1     
   21   10   11 1     
   22   10   27 1     
   23   10   37 1     
   24   11   16 1     
   25   11   12 1     
   26   11   28 1     
   27   12   13 1     
   28   12   29 1     
   29   12   30 1     
   30   13   14 1     
   31   13   31 1     
   32   13   32 1     
   33   14   15 1     
   34   14   33 1     
   35   14   34 1     
   36   15   16 1     
   37   16   35 1     
   38   16   36 1     
   39    4   38 1     
@<TRIPOS>SUBSTRUCTURE
      1 S1             1
@<TRIPOS>SET
LONE_PAIRS      STATIC     ATOMS    <user>   **** ""
1 38
DONOR_HYDROGENS      STATIC     ATOMS    <user>   **** ""
2 27 37
ATOM$BLUE        STATIC     ATOMS    COLORGROUP SYSTEM
1 38
ATOM$RED        STATIC     ATOMS    COLORGROUP SYSTEM
2 27 37
