AV-unprocessed.smi:54|AV-procd|sdf|540|dock2
  -GOLD-   2262016423D 1   1.00000     0.00000
 Structure written by MMmdl.
 44 46  0  0  0  0  0  0  0  0  1 V2000
  152.0466  145.8722  160.2193 C   0  0  0  0  0  0  0  0  0  0  0  0
  150.9139  145.3276  159.3339 C   0  0  0  0  0  0  0  0  0  0  0  0
  149.6998  144.9060  160.1773 C   0  0  0  0  0  0  0  0  0  0  0  0
  151.4126  144.1558  158.4808 C   0  0  0  0  0  0  0  0  0  0  0  0
  152.5655  143.7312  158.5665 O   0  0  0  0  0  0  0  0  0  0  0  0
  150.4335  143.5884  157.5703 N   0  0  0  0  0  0  0  0  0  0  0  0
  150.6094  142.5637  156.7035 C   0  0  0  0  0  0  0  0  0  0  0  0
  149.7206  142.2340  155.7771 N   0  0  0  0  0  0  0  0  0  0  0  0
  150.0750  141.1632  155.0049 C   0  0  0  0  0  0  0  0  0  0  0  0
  151.2370  140.4271  155.1010 C   0  0  0  0  0  0  0  0  0  0  0  0
  151.2408  139.4117  154.1511 N   0  0  0  0  0  0  0  0  0  0  0  0
  150.1040  139.5564  153.5286 C   0  0  0  0  0  0  0  0  0  0  0  0
  149.3354  140.6005  153.9880 N   0  0  0  0  0  0  0  0  0  0  0  0
  147.9886  141.0620  153.5335 C   0  0  1  0  0  0  0  0  0  0  0  0
  147.5749  140.2172  152.4998 O   0  0  0  0  0  0  0  0  0  0  0  0
  146.3736  139.5363  152.8490 C   0  0  1  0  0  0  0  0  0  0  0  0
  146.3276  138.1371  152.2105 C   0  0  0  0  0  0  0  0  0  0  0  0
  146.4185  138.2375  150.8053 O   0  0  0  0  0  0  0  0  0  0  0  0
  146.2875  139.6094  154.3803 C   0  0  1  0  0  0  0  0  0  0  0  0
  146.9654  138.5308  154.9978 O   0  0  0  0  0  0  0  0  0  0  0  0
  146.9841  140.9256  154.6884 C   0  0  2  0  0  0  0  0  0  0  0  0
  146.0653  141.9999  154.6940 O   0  0  0  0  0  0  0  0  0  0  0  0
  152.2125  140.7758  156.0930 C   0  0  0  0  0  0  0  0  0  0  0  0
  153.2949  140.2390  156.3189 O   0  0  0  0  0  0  0  0  0  0  0  0
  151.8112  141.8739  156.8655 N   0  0  0  0  0  0  0  0  0  0  0  0
  148.1518  142.0845  153.1896 H   0  0  0  0  0  0  0  0  0  0  0  0
  145.5606  140.1371  152.4376 H   0  0  0  0  0  0  0  0  0  0  0  0
  145.2542  139.5935  154.7294 H   0  0  0  0  0  0  0  0  0  0  0  0
  147.4889  140.9180  155.6561 H   0  0  0  0  0  0  0  0  0  0  0  0
  152.9107  146.1659  159.6222 H   0  0  0  0  0  0  0  0  0  0  0  0
  152.3804  145.1302  160.9459 H   0  0  0  0  0  0  0  0  0  0  0  0
  151.7188  146.7519  160.7736 H   0  0  0  0  0  0  0  0  0  0  0  0
  150.5960  146.1269  158.6629 H   0  0  0  0  0  0  0  0  0  0  0  0
  148.8996  144.5093  159.5513 H   0  0  0  0  0  0  0  0  0  0  0  0
  149.2938  145.7558  160.7264 H   0  0  0  0  0  0  0  0  0  0  0  0
  149.9644  144.1386  160.9061 H   0  0  0  0  0  0  0  0  0  0  0  0
  149.5194  144.0157  157.5853 H   0  0  0  0  0  0  0  0  0  0  0  0
  149.7981  138.9025  152.7250 H   0  0  0  0  0  0  0  0  0  0  0  0
  147.1682  137.5405  152.5651 H   0  0  0  0  0  0  0  0  0  0  0  0
  145.4201  137.5990  152.4853 H   0  0  0  0  0  0  0  0  0  0  0  0
  145.5441  138.2935  150.4505 H   0  0  0  0  0  0  0  0  0  0  0  0
  146.3871  137.7833  155.0097 H   0  0  0  0  0  0  0  0  0  0  0  0
  145.2602  141.7082  154.2942 H   0  0  0  0  0  0  0  0  0  0  0  0
  152.4493  142.1723  157.5884 H   0  0  0  0  0  0  0  0  0  0  0  0
  1  2  1  0  0  0  0
  1 30  1  0  0  0  0
  1 31  1  0  0  0  0
  1 32  1  0  0  0  0
  2  3  1  0  0  0  0
  2  4  1  0  0  0  0
  2 33  1  0  0  0  0
  3 34  1  0  0  0  0
  3 35  1  0  0  0  0
  3 36  1  0  0  0  0
  4  5  2  0  0  0  0
  4  6  1  0  0  0  0
  6 37  1  0  0  0  0
  6  7  1  0  0  0  0
  7 25  1  0  0  0  0
  7  8  2  0  0  0  0
  8  9  1  0  0  0  0
  9 13  1  0  0  0  0
  9 10  2  0  0  0  0
 10 11  1  0  0  0  0
 10 23  1  0  0  0  0
 11 12  2  0  0  0  0
 12 13  1  0  0  0  0
 12 38  1  0  0  0  0
 13 14  1  0  0  0  0
 14 26  1  0  0  0  0
 14 21  1  0  0  0  0
 14 15  1  0  0  0  0
 15 16  1  0  0  0  0
 16 27  1  0  0  0  0
 16 17  1  0  0  0  0
 16 19  1  0  0  0  0
 17 18  1  0  0  0  0
 17 39  1  0  0  0  0
 17 40  1  0  0  0  0
 18 41  1  0  0  0  0
 19 28  1  0  0  0  0
 19 20  1  0  0  0  0
 19 21  1  0  0  0  0
 20 42  1  0  0  0  0
 21 29  1  0  0  0  0
 21 22  1  0  0  0  0
 22 43  1  0  0  0  0
 23 24  2  0  0  0  0
 23 25  1  0  0  0  0
 25 44  1  0  0  0  0
M  END
> <s_m_source_file>
AV-unprocessed.smi

> <i_m_source_file_index>
54

> <i_lp_mmshare_version>
43012

> <i_f3d_flags>
0

> <s_epik_input>
W0NIM11bQ0hdKFtDSDNdKUMoPU8pW05IXWMobjEpW25IXWMoPU8pYyhjMTIpbltjSF1uMltDQEBIXTNPW0NASF0oW0NIMl1bT0hdKVtDQEBIXShbT0hdKVtDQEhdM1tPSF0=

> <s_epik_cmdline>
J2VwaWtfcHl0aG9uJywgJy1waCcsICc3LjAnLCAnLXRuJywgJzgnLCAnLW1hJywgJzIwMCcsICctbWV0YWxfYmluZGluZycsICctaW1hZScsICc8aW5maWxlLm1hZT4nLCAnLW9tYWUnLCAnPG91dGZpbGUubWFlPic=

> <r_lp_tautomer_probability>
0.85571

> <r_epik_Ionization_Penalty>
0.0316551

> <r_epik_Ionization_Penalty_Charging>
0.0316043

> <r_epik_Ionization_Penalty_Neutral>
5.07097e-05

> <r_epik_State_Penalty>
3.15494e-07

> <r_epik_Charging_Adjusted_Penalty>
0.0316047

> <i_epik_Tot_Q>
0

> <i_epik_Tot_abs_Q>
0

> <r_epik_Metal_State_Penalty>
0.421206

> <b_epik_Metal_Only>
0

> <s_epik_Chemistry_Notes>
This compound contains an acetal/aminal-like group ( X-CH(R)-Y where X, Y are N, S, or O) that may be acid/base labile, releasing an aldehyde.

> <s_lp_Force_Field>
OPLS_2005

> <r_lp_Energy>
34.69

> <b_lp_Chiralities_Consistent>
1

> <s_lp_Variant>
AV-unprocessed.smi:54-12

> <Gold.Version>
5.8.1

> <Gold.Id.Protein>
6NUR|6NUR_protein|mol2

> <Gold.PLP.Fitness>
50.0339

> <Gold.PLP.PLP>
-36.4169

> <Gold.PLP.part.hbond>
-5.0000

> <Gold.PLP.part.metal>
0.0000

> <Gold.PLP.part.buried>
-2.2878

> <Gold.PLP.part.nonpolar>
-35.4230

> <Gold.PLP.part.repulsive>
6.1241

> <Gold.PLP.ligand.clash>
0.0000

> <Gold.PLP.ligand.torsion>
0.0361

> <Gold.PLP.Chemscore.Hbond>
3.3063

> <Gold.PLP.Chemscore.CHOScore>
1.2442

> <Gold.PLP.Chemscore.Metal>
0.0000

> <Gold.Chemscore.Hbonds>
donor molecule, donor type, donor heavy atom, donor atom, acceptor molecule, acceptor atom, score
      L1  H     6    37       P1  8028  0.21
      L1  H    18    41       P1 10171  1.00
      P1  H  7954  7966       L1    18  1.00
      P1  H  7997  8008       L1    24  0.15
      L1  C    12    38       P1  7948  0.13
      L1  C    12    38       P1  7957  0.40

> <Gold.PLP.Chemscore.Internal.Correction>
0.0378

> <Gold.Rescore>
     Score         DG    S(hbond)    S(metal)    S(lipo)     H(rot)  DE(clash)    DE(int)     intcor
      5.62     -11.28       2.83        0.00      57.28       4.05       5.57       0.08       ----

> <Gold.Chemscore.Fitness>
5.6245

> <Gold.Chemscore.DG>
-11.2807

> <Gold.Chemscore.ZeroCoef>
-5.4800

> <Gold.Chemscore.Hbond>
2.8337

> <Gold.Chemscore.Metal>
0.0000

> <Gold.Chemscore.Lipo>
57.2844

> <Gold.Chemscore.Internal_Hbond>
0.0000

> <Gold.Chemscore.DEClash>
5.5712

> <Gold.Chemscore.DEInternal>
0.0850

> <Gold.Chemscore.Rot>
4.0493

> <Gold.Chemscore.Internal.Correction>
   9.000000E+99

> <Gold.Chemscore.Hbonds>
donor molecule, donor type, donor heavy atom, donor atom, acceptor molecule, acceptor atom, score
      L1  H     6    37       P1  8028  0.05
      L1  H    18    41       P1 10171  1.00
      P1  H  7954  7966       L1    18  0.89
      P1  H  7997  8008       L1    24  0.15

> <Gold.Chemscore.Hbond.Weighted>
-9.4647

> <Gold.Chemscore.Metal.Weighted>
-0.0000

> <Gold.Chemscore.Lipo.Weighted>
-6.7023

> <Gold.Chemscore.Internal_Hbond.Weighted>
0.0000

> <Gold.Chemscore.DEClash.Weighted>
5.5712

> <Gold.Chemscore.DEInternal.Weighted>
0.0850

> <Gold.Chemscore.Rot.Weighted>
10.3662

> <Gold.Chemscore.Internal.Correction.Weighted>
   9.000000E+99

> <Gold.Protein.RotatedTorsions>
[ 6907 6896 6895 6894 ] final   93.72 input  -60.11 | X-H torsion
[ 7974 7965 7964 7962 ] final -157.39 input  175.53 | X-H torsion
[ 8008 7997 7996 7995 ] final  -72.90 input   59.86 | X-H torsion
[ 10167 10162 10161 10158 ] final   92.95 input  -65.29 | X-H torsion
[ 10718 10713 10712 10709 ] final  -96.15 input   66.30 | X-H torsion
[ 10763 10752 10751 10750 ] final -177.17 input  -60.55 | X-H torsion
[ 11005 11000 10999 10996 ] final  -26.40 input  -57.11 | X-H torsion

> <Gold.Protein.ActiveResidues>
 VAL166  LYS551  ARG553  GLY616  TRP617  ASP618  TYR619  PRO620  LYS621  CYS622 
 ASP623  PHE694  ASN695  SER759  ASP760  ASP761  ALA762  ILE779  LEU786  VAL792 
 PHE793  MET794  SER795  GLU796  ALA797  LYS798  CYS799  TRP800  GLU811  SER814 

> <Gold.Protein.RotatedAtoms>
  152.5452  134.1304  159.8436 H   0  0  0  0  0  0  0  0  0  0  0  0  # atno 6907 bound_to 6896
  151.1350  133.5003  159.2605 H   0  0  0  0  0  0  0  0  0  0  0  0  # atno 6908 bound_to 6896
  151.1634  135.0294  159.8775 H   0  0  0  0  0  0  0  0  0  0  0  0  # atno 6909 bound_to 6896
  144.7550  140.3976  143.6019 H   0  0  0  0  0  0  0  0  0  0  0  0  # atno 7974 bound_to 7965
  154.5203  140.0789  156.8159 H   0  0  0  0  0  0  0  0  0  0  0  0  # atno 8008 bound_to 7997
  155.3590  140.3417  155.4222 H   0  0  0  0  0  0  0  0  0  0  0  0  # atno 8009 bound_to 7997
  156.1674  140.1608  156.8495 H   0  0  0  0  0  0  0  0  0  0  0  0  # atno 8010 bound_to 7997
  139.8227  144.6724  150.9498 H   0  0  0  0  0  0  0  0  0  0  0  0  # atno 10167 bound_to 10162
  156.0056  130.5139  150.6183 H   0  0  0  0  0  0  0  0  0  0  0  0  # atno 10718 bound_to 10713
  154.5634  135.2822  155.0897 H   0  0  0  0  0  0  0  0  0  0  0  0  # atno 10763 bound_to 10752
  154.2297  135.6376  153.5175 H   0  0  0  0  0  0  0  0  0  0  0  0  # atno 10764 bound_to 10752
  153.0036  135.5534  154.6235 H   0  0  0  0  0  0  0  0  0  0  0  0  # atno 10765 bound_to 10752
  140.9026  133.7514  156.0564 H   0  0  0  0  0  0  0  0  0  0  0  0  # atno 11005 bound_to 11000
  145.6809  139.1618  143.2701 LP  0  0  0  0  0  0  0  0  0  0  0  0  # atno 17320 bound_to 7965
  146.1550  140.6871  142.9304 LP  0  0  0  0  0  0  0  0  0  0  0  0  # atno 17321 bound_to 7965
  140.7812  143.4076  151.1045 LP  0  0  0  0  0  0  0  0  0  0  0  0  # atno 17342 bound_to 10162
  139.7735  143.8459  152.3125 LP  0  0  0  0  0  0  0  0  0  0  0  0  # atno 17343 bound_to 10162
  157.4003  131.0809  151.1314 LP  0  0  0  0  0  0  0  0  0  0  0  0  # atno 17370 bound_to 10713
  157.1978  130.6381  149.5727 LP  0  0  0  0  0  0  0  0  0  0  0  0  # atno 17371 bound_to 10713
  140.8211  134.3288  157.5381 LP  0  0  0  0  0  0  0  0  0  0  0  0  # atno 17394 bound_to 11000
  139.8744  134.9310  156.3516 LP  0  0  0  0  0  0  0  0  0  0  0  0  # atno 17395 bound_to 11000

$$$$
