#       Name:                AV-unprocessed.smi:699
#       Creating user name   scv26
#       Creation time:       Fri Mar 27 00:38:37 2020


#       File generated by GOLD software.
#

@<TRIPOS>MOLECULE
AV-unprocessed.smi:699
    39    40     1
SMALL
NO_CHARGES


@<TRIPOS>ATOM
      1 ****        -2.0291  -0.5538   3.7966 N.am           1 S1                 0.0000
      2 ****        -2.7126  -0.2434   2.6922 C.2            1 S1                 0.0000
      3 ****        -3.5569   0.6503   2.6775 O.2            1 S1                 0.0000
      4 ****        -2.4011  -1.0549   1.4255 C.3            1 S1                 0.0000
      5 ****        -3.6311  -1.7757   0.8549 C.3            1 S1                 0.0000
      6 ****        -3.3027  -1.9686  -0.6224 C.3            1 S1                 0.0000
      7 ****        -2.5609  -0.6924  -1.0180 C.3            1 S1                 0.0000
      8 ****        -1.8663  -0.1840   0.2616 C.3            1 S1                 0.0000
      9 ****        -0.4101  -0.2756   0.1692 N.am           1 S1                 0.0000
     10 ****         0.3781   0.5939  -0.4791 C.2            1 S1                 0.0000
     11 ****        -0.0509   1.5723  -1.0897 O.2            1 S1                 0.0000
     12 ****         1.6721   0.2408  -0.3850 N.am           1 S1                 0.0000
     13 ****         2.8160   0.8918  -0.9239 C.ar           1 S1                 0.0000
     14 ****         4.0053   0.1362  -1.0278 C.ar           1 S1                 0.0000
     15 ****         5.1712   0.7387  -1.5429 C.ar           1 S1                 0.0000
     16 ****         5.1464   2.0337  -1.9237 N.pl3          1 S1                 1.0000
     17 ****         4.0388   2.8005  -1.8313 C.ar           1 S1                 0.0000
     18 ****         2.8426   2.2526  -1.3243 C.ar           1 S1                 0.0000
     19 ****        -2.2054  -0.0466   4.6519 H              1 S1                 0.0000
     20 ****        -1.3425  -1.2934   3.7762 H              1 S1                 0.0000
     21 ****        -1.6626  -1.8225   1.6663 H              1 S1                 0.0000
     22 ****        -3.8231  -2.7254   1.3552 H              1 S1                 0.0000
     23 ****        -4.5297  -1.1639   0.9508 H              1 S1                 0.0000
     24 ****        -2.6422  -2.8285  -0.7416 H              1 S1                 0.0000
     25 ****        -4.1901  -2.1434  -1.2313 H              1 S1                 0.0000
     26 ****        -1.8739  -0.8648  -1.8476 H              1 S1                 0.0000
     27 ****        -3.2825   0.0540  -1.3525 H              1 S1                 0.0000
     28 ****        -2.1388   0.8637   0.4085 H              1 S1                 0.0000
     29 ****         0.0242  -1.0579   0.6362 H              1 S1                 0.0000
     30 ****         1.8558  -0.6310   0.0899 H              1 S1                 0.0000
     31 ****         4.0272  -0.8996  -0.7208 H              1 S1                 0.0000
     32 ****         6.1160   0.2276  -1.6584 H              1 S1                 0.0000
     33 ****         4.1425   3.8250  -2.1581 H              1 S1                 0.0000
     34 ****         1.9768   2.8916  -1.2431 H              1 S1                 0.0000
     35 ****         6.0011   2.4518  -2.2921 H              1 S1                 0.0000
     36 ****        -3.7494   1.1701   3.5099 LP             1 S1                 0.0000
     37 ****        -4.0511   0.8574   1.8332 LP             1 S1                 0.0000
     38 ****        -1.0343   1.7513  -1.1196 LP             1 S1                 0.0000
     39 ****         0.5838   2.1885  -1.5560 LP             1 S1                 0.0000
@<TRIPOS>BOND
    1    1    2 am    
    2    1   19 1     
    3    1   20 1     
    4    2    3 2     
    5    2    4 1     
    6    4    8 1     
    7    4    5 1     
    8    4   21 1     
    9    5    6 1     
   10    5   22 1     
   11    5   23 1     
   12    6    7 1     
   13    6   24 1     
   14    6   25 1     
   15    7    8 1     
   16    7   26 1     
   17    7   27 1     
   18    8    9 1     
   19    8   28 1     
   20    9   10 am    
   21    9   29 1     
   22   10   11 2     
   23   10   12 am    
   24   12   13 1     
   25   12   30 1     
   26   13   18 ar    
   27   13   14 ar    
   28   14   15 ar    
   29   14   31 1     
   30   15   16 ar    
   31   15   32 1     
   32   16   17 ar    
   33   16   35 1     
   34   17   18 ar    
   35   17   33 1     
   36   18   34 1     
   37    3   36 1     
   38    3   37 1     
   39   11   38 1     
   40   11   39 1     
@<TRIPOS>SUBSTRUCTURE
      1 S1             1
@<TRIPOS>SET
LONE_PAIRS      STATIC     ATOMS    <user>   **** ""
4 36 37 38 39
DONOR_HYDROGENS      STATIC     ATOMS    <user>   **** ""
5 19 20 29 30 35
ATOM$BLUE        STATIC     ATOMS    COLORGROUP SYSTEM
4 36 37 38 39
ATOM$RED        STATIC     ATOMS    COLORGROUP SYSTEM
5 19 20 29 30 35
