AV-unprocessed.smi:1769|AV-procd|sdf|7151|dock4
  -GOLD-   22720 8393D 1   1.00000     0.00000
 Structure written by MMmdl.
 41 42  0  0  0  0  0  0  0  0  1 V2000
  152.4930  143.8076  161.8955 C   0  0  0  0  0  0  0  0  0  0  0  0
  153.0810  142.5269  161.2988 C   0  0  0  0  0  0  0  0  0  0  0  0
  153.6497  141.7429  162.0588 O   0  0  0  0  0  0  0  0  0  0  0  0
  152.9560  142.2974  159.9693 N   0  0  0  0  0  0  0  0  0  0  0  0
  152.2168  143.1474  159.0271 C   0  0  0  0  0  0  0  0  0  0  0  0
  150.9342  142.4101  158.6027 C   0  0  0  0  0  0  0  0  0  0  0  0
  151.2654  141.0295  158.0041 C   0  0  0  0  0  0  0  0  0  0  0  0
  152.1993  140.2104  158.9269 C   0  0  1  0  0  0  0  0  0  0  0  0
  152.6361  138.9030  158.2527 C   0  0  0  0  0  0  0  0  0  0  0  0
  153.8243  138.7021  157.9991 O   0  0  0  0  0  0  0  0  0  0  0  0
  151.6648  138.0226  157.9655 N   0  0  0  0  0  0  0  0  0  0  0  0
  151.8705  136.7331  157.3174 C   0  0  0  0  0  0  0  0  0  0  0  0
  150.9965  136.5885  156.0614 C   0  0  0  0  0  0  0  0  0  0  0  0
  150.6990  135.1375  155.7396 C   0  0  0  0  0  0  0  0  0  0  0  0
  151.3014  134.0964  156.4754 C   0  0  0  0  0  0  0  0  0  0  0  0
  150.9900  132.7639  156.1434 C   0  0  0  0  0  0  0  0  0  0  0  0
  150.0858  132.5290  155.0883 C   0  0  0  0  0  0  0  0  0  0  0  0
  149.5024  133.5181  154.3775 N   0  0  0  0  0  0  0  0  0  0  0  0
  149.8074  134.7933  154.7013 C   0  0  0  0  0  0  0  0  0  0  0  0
  153.4251  141.0616  159.3295 C   0  0  0  0  0  0  0  0  0  0  0  0
  151.4205  143.8663  161.7067 H   0  0  0  0  0  0  0  0  0  0  0  0
  152.9774  144.6882  161.4724 H   0  0  0  0  0  0  0  0  0  0  0  0
  152.6422  143.8324  162.9757 H   0  0  0  0  0  0  0  0  0  0  0  0
  151.9665  144.1292  159.4262 H   0  0  0  0  0  0  0  0  0  0  0  0
  152.8413  143.3403  158.1536 H   0  0  0  0  0  0  0  0  0  0  0  0
  150.2816  142.2875  159.4681 H   0  0  0  0  0  0  0  0  0  0  0  0
  150.3799  143.0071  157.8781 H   0  0  0  0  0  0  0  0  0  0  0  0
  150.3429  140.4793  157.8147 H   0  0  0  0  0  0  0  0  0  0  0  0
  151.7393  141.1768  157.0321 H   0  0  0  0  0  0  0  0  0  0  0  0
  151.6464  139.9621  159.8351 H   0  0  0  0  0  0  0  0  0  0  0  0
  150.7157  138.2648  158.2105 H   0  0  0  0  0  0  0  0  0  0  0  0
  152.9250  136.6032  157.0675 H   0  0  0  0  0  0  0  0  0  0  0  0
  151.6233  135.9501  158.0349 H   0  0  0  0  0  0  0  0  0  0  0  0
  150.0553  137.1232  156.1959 H   0  0  0  0  0  0  0  0  0  0  0  0
  151.4894  137.0447  155.2017 H   0  0  0  0  0  0  0  0  0  0  0  0
  151.9879  134.3135  157.2807 H   0  0  0  0  0  0  0  0  0  0  0  0
  151.4327  131.9412  156.6849 H   0  0  0  0  0  0  0  0  0  0  0  0
  149.8237  131.5195  154.8082 H   0  0  0  0  0  0  0  0  0  0  0  0
  149.3228  135.5611  154.1161 H   0  0  0  0  0  0  0  0  0  0  0  0
  154.0195  141.3202  158.4514 H   0  0  0  0  0  0  0  0  0  0  0  0
  154.0906  140.4853  159.9746 H   0  0  0  0  0  0  0  0  0  0  0  0
  1  2  1  0  0  0  0
  1 21  1  0  0  0  0
  1 22  1  0  0  0  0
  1 23  1  0  0  0  0
  2  3  2  0  0  0  0
  2  4  1  0  0  0  0
  4 20  1  0  0  0  0
  4  5  1  0  0  0  0
  5  6  1  0  0  0  0
  5 24  1  0  0  0  0
  5 25  1  0  0  0  0
  6  7  1  0  0  0  0
  6 26  1  0  0  0  0
  6 27  1  0  0  0  0
  7  8  1  0  0  0  0
  7 28  1  0  0  0  0
  7 29  1  0  0  0  0
  8  9  1  0  0  0  0
  8 20  1  0  0  0  0
  8 30  1  0  0  0  0
  9 10  2  0  0  0  0
  9 11  1  0  0  0  0
 11 12  1  0  0  0  0
 11 31  1  0  0  0  0
 12 13  1  0  0  0  0
 12 32  1  0  0  0  0
 12 33  1  0  0  0  0
 13 14  1  0  0  0  0
 13 34  1  0  0  0  0
 13 35  1  0  0  0  0
 14 19  1  0  0  0  0
 14 15  2  0  0  0  0
 15 16  1  0  0  0  0
 15 36  1  0  0  0  0
 16 17  2  0  0  0  0
 16 37  1  0  0  0  0
 17 18  1  0  0  0  0
 17 38  1  0  0  0  0
 18 19  2  0  0  0  0
 19 39  1  0  0  0  0
 20 40  1  0  0  0  0
 20 41  1  0  0  0  0
M  END
> <s_m_source_file>
AV-unprocessed.smi

> <i_m_source_file_index>
1769

> <i_lp_mmshare_version>
43012

> <i_f3d_flags>
0

> <s_epik_input>
W0NIM11DKD1PKU4xW0NIMl1bQ0gyXVtDSDJdW0NASF0oW0NIMl0xKUMoPU8pW05IXVtDSDJdW0NIMl1jMltjSF1bY0hdW2NIXW5bY0hdMg==

> <s_epik_cmdline>
J2VwaWtfcHl0aG9uJywgJy1waCcsICc3LjAnLCAnLXRuJywgJzgnLCAnLW1hJywgJzIwMCcsICctbWV0YWxfYmluZGluZycsICctaW1hZScsICc8aW5maWxlLm1hZT4nLCAnLW9tYWUnLCAnPG91dGZpbGUubWFlPic=

> <r_epik_Ionization_Penalty>
0.0134099

> <r_epik_Ionization_Penalty_Charging>
0

> <r_epik_Ionization_Penalty_Neutral>
0.0134099

> <r_epik_State_Penalty>
0.010434

> <r_epik_Charging_Adjusted_Penalty>
0.010434

> <i_epik_Tot_Q>
0

> <i_epik_Tot_abs_Q>
0

> <r_epik_Metal_State_Penalty>
0.0102025

> <b_epik_Metal_Only>
0

> <s_lp_Force_Field>
OPLS_2005

> <r_lp_Energy>
22.5889

> <b_lp_Chiralities_Consistent>
1

> <s_lp_Variant>
AV-unprocessed.smi:1769-1

> <Gold.Version>
5.8.1

> <Gold.Id.Protein>
6NUR|6NUR_protein|mol2

> <Gold.PLP.Fitness>
44.4679

> <Gold.PLP.PLP>
-38.9161

> <Gold.PLP.part.hbond>
-1.0000

> <Gold.PLP.part.metal>
0.0000

> <Gold.PLP.part.buried>
-5.9223

> <Gold.PLP.part.nonpolar>
-30.9704

> <Gold.PLP.part.repulsive>
0.2002

> <Gold.PLP.ligand.clash>
0.0000

> <Gold.PLP.ligand.torsion>
0.2463

> <Gold.PLP.Chemscore.Hbond>
1.0000

> <Gold.PLP.Chemscore.CHOScore>
1.0000

> <Gold.PLP.Chemscore.Metal>
0.0000

> <Gold.Chemscore.Hbonds>
donor molecule, donor type, donor heavy atom, donor atom, acceptor molecule, acceptor atom, score
      P1  H  7997  8009       L1    10  1.00
      L1  C    19    39       P1  7948  1.00

> <Gold.PLP.Chemscore.Internal.Correction>
0.0444

> <Gold.Rescore>
     Score         DG    S(hbond)    S(metal)    S(lipo)     H(rot)  DE(clash)    DE(int)     intcor
     15.23     -15.56       0.97        0.00      91.63       1.52       0.12       0.22       ----

> <Gold.Chemscore.Fitness>
15.2259

> <Gold.Chemscore.DG>
-15.5627

> <Gold.Chemscore.ZeroCoef>
-5.4800

> <Gold.Chemscore.Hbond>
0.9743

> <Gold.Chemscore.Metal>
0.0000

> <Gold.Chemscore.Lipo>
91.6324

> <Gold.Chemscore.Internal_Hbond>
0.0000

> <Gold.Chemscore.DEClash>
0.1182

> <Gold.Chemscore.DEInternal>
0.2186

> <Gold.Chemscore.Rot>
1.5205

> <Gold.Chemscore.Internal.Correction>
   9.000000E+99

> <Gold.Chemscore.Hbonds>
donor molecule, donor type, donor heavy atom, donor atom, acceptor molecule, acceptor atom, score
      P1  H  7997  8009       L1    10  0.96

> <Gold.Chemscore.Hbond.Weighted>
-3.2542

> <Gold.Chemscore.Metal.Weighted>
-0.0000

> <Gold.Chemscore.Lipo.Weighted>
-10.7210

> <Gold.Chemscore.Internal_Hbond.Weighted>
0.0000

> <Gold.Chemscore.DEClash.Weighted>
0.1182

> <Gold.Chemscore.DEInternal.Weighted>
0.2186

> <Gold.Chemscore.Rot.Weighted>
3.8926

> <Gold.Chemscore.Internal.Correction.Weighted>
   9.000000E+99

> <Gold.Protein.RotatedTorsions>
[ 6907 6896 6895 6894 ] final   78.72 input  -60.11 | X-H torsion
[ 7974 7965 7964 7962 ] final    4.17 input  175.53 | X-H torsion
[ 8008 7997 7996 7995 ] final  133.58 input   59.86 | X-H torsion
[ 10167 10162 10161 10158 ] final   83.75 input  -65.29 | X-H torsion
[ 10718 10713 10712 10709 ] final   47.90 input   66.30 | X-H torsion
[ 10763 10752 10751 10750 ] final   97.00 input  -60.55 | X-H torsion
[ 11005 11000 10999 10996 ] final  126.19 input  -57.11 | X-H torsion

> <Gold.Protein.ActiveResidues>
 VAL166  LYS551  ARG553  GLY616  TRP617  ASP618  TYR619  PRO620  LYS621  CYS622 
 ASP623  PHE694  ASN695  SER759  ASP760  ASP761  ALA762  ILE779  LEU786  VAL792 
 PHE793  MET794  SER795  GLU796  ALA797  LYS798  CYS799  TRP800  GLU811  SER814 

> <Gold.Protein.RotatedAtoms>
  152.5171  134.3621  159.9288 H   0  0  0  0  0  0  0  0  0  0  0  0  # atno 6907 bound_to 6896
  151.3573  133.3896  159.2694 H   0  0  0  0  0  0  0  0  0  0  0  0  # atno 6908 bound_to 6896
  150.9679  134.9076  159.7828 H   0  0  0  0  0  0  0  0  0  0  0  0  # atno 6909 bound_to 6896
  146.2444  140.0575  142.8371 H   0  0  0  0  0  0  0  0  0  0  0  0  # atno 7974 bound_to 7965
  156.2993  140.2518  156.3276 H   0  0  0  0  0  0  0  0  0  0  0  0  # atno 8008 bound_to 7997
  154.9176  140.0401  157.1999 H   0  0  0  0  0  0  0  0  0  0  0  0  # atno 8009 bound_to 7997
  154.8343  140.2880  155.5705 H   0  0  0  0  0  0  0  0  0  0  0  0  # atno 8010 bound_to 7997
  139.9152  144.6247  150.8496 H   0  0  0  0  0  0  0  0  0  0  0  0  # atno 10167 bound_to 10162
  157.4632  130.8209  149.7908 H   0  0  0  0  0  0  0  0  0  0  0  0  # atno 10718 bound_to 10713
  153.2717  135.4198  155.0994 H   0  0  0  0  0  0  0  0  0  0  0  0  # atno 10763 bound_to 10752
  154.8458  135.3474  154.6235 H   0  0  0  0  0  0  0  0  0  0  0  0  # atno 10764 bound_to 10752
  153.6655  135.7046  153.5221 H   0  0  0  0  0  0  0  0  0  0  0  0  # atno 10765 bound_to 10752
  139.9443  134.9631  156.8669 H   0  0  0  0  0  0  0  0  0  0  0  0  # atno 11005 bound_to 11000
  145.0929  140.9296  143.4758 LP  0  0  0  0  0  0  0  0  0  0  0  0  # atno 17320 bound_to 7965
  145.0752  139.3001  143.5812 LP  0  0  0  0  0  0  0  0  0  0  0  0  # atno 17321 bound_to 7965
  140.7676  143.3337  151.2356 LP  0  0  0  0  0  0  0  0  0  0  0  0  # atno 17342 bound_to 10162
  139.6908  143.9695  152.2858 LP  0  0  0  0  0  0  0  0  0  0  0  0  # atno 17343 bound_to 10162
  156.0038  130.3866  150.2506 LP  0  0  0  0  0  0  0  0  0  0  0  0  # atno 17370 bound_to 10713
  157.0685  131.0110  151.3198 LP  0  0  0  0  0  0  0  0  0  0  0  0  # atno 17371 bound_to 10713
  140.5873  134.0295  155.7486 LP  0  0  0  0  0  0  0  0  0  0  0  0  # atno 17394 bound_to 11000
  141.1089  133.9649  157.2947 LP  0  0  0  0  0  0  0  0  0  0  0  0  # atno 17395 bound_to 11000

$$$$
