AV-unprocessed.smi:2885|AV-procd|sdf|11086|dock8
  -GOLD-   2272015563D 1   1.00000     0.00000
 Structure written by MMmdl.
 40 42  0  0  0  0  0  0  0  0  1 V2000
  143.9344  146.7594  156.0876 N   0  0  0  0  0  0  0  0  0  0  0  0
  143.3963  145.7618  156.7947 C   0  0  0  0  0  0  0  0  0  0  0  0
  142.3544  145.2043  156.4566 O   0  0  0  0  0  0  0  0  0  0  0  0
  144.1235  145.4157  158.0462 C   0  0  0  0  0  0  0  0  0  0  0  0
  145.2055  146.0740  158.5868 C   0  0  0  0  0  0  0  0  0  0  0  0
  145.5715  145.3749  159.7307 N   0  0  0  0  0  0  0  0  0  0  0  0
  146.6822  145.7138  160.6113 C   0  0  0  0  0  0  0  0  0  0  0  0
  147.8046  144.6744  160.5456 C   0  0  0  0  0  0  0  0  0  0  0  0
  148.0655  143.9919  161.5358 O   0  0  0  0  0  0  0  0  0  0  0  0
  148.4446  144.5497  159.3722 N   0  0  0  0  0  0  0  0  0  0  0  0
  149.4400  143.5313  159.0659 C   0  0  0  0  0  0  0  0  0  0  0  0
  150.6648  144.1527  158.3984 C   0  0  0  0  0  0  0  0  0  0  0  0
  151.9709  143.3516  158.3030 C   0  0  0  0  0  0  0  0  0  0  0  0
  152.7357  144.6653  158.4899 C   0  0  0  0  0  0  0  0  0  0  0  0
  151.4694  145.2353  159.1342 C   0  0  0  0  0  0  0  0  0  0  0  0
  144.7004  144.3496  159.8322 C   0  0  0  0  0  0  0  0  0  0  0  0
  144.7637  143.3231  160.9187 C   0  0  0  0  0  0  0  0  0  0  0  0
  143.5418  142.9814  161.7420 C   0  0  0  0  0  0  0  0  0  0  0  0
  144.6910  143.7204  162.3764 C   0  0  0  0  0  0  0  0  0  0  0  0
  143.8242  144.3084  158.8340 N   0  0  0  0  0  0  0  0  0  0  0  0
  143.4949  147.0579  155.2292 H   0  0  0  0  0  0  0  0  0  0  0  0
  144.7726  147.2143  156.4177 H   0  0  0  0  0  0  0  0  0  0  0  0
  145.7392  146.9536  158.2578 H   0  0  0  0  0  0  0  0  0  0  0  0
  147.0801  146.6889  160.3276 H   0  0  0  0  0  0  0  0  0  0  0  0
  146.3104  145.8069  161.6320 H   0  0  0  0  0  0  0  0  0  0  0  0
  148.1663  145.1568  158.6149 H   0  0  0  0  0  0  0  0  0  0  0  0
  149.7212  143.0429  159.9991 H   0  0  0  0  0  0  0  0  0  0  0  0
  149.0045  142.7565  158.4332 H   0  0  0  0  0  0  0  0  0  0  0  0
  150.4164  144.5241  157.4016 H   0  0  0  0  0  0  0  0  0  0  0  0
  152.1091  142.6619  159.1374 H   0  0  0  0  0  0  0  0  0  0  0  0
  152.1349  142.8599  157.3437 H   0  0  0  0  0  0  0  0  0  0  0  0
  153.5985  144.6017  159.1535 H   0  0  0  0  0  0  0  0  0  0  0  0
  152.9841  145.1493  157.5440 H   0  0  0  0  0  0  0  0  0  0  0  0
  151.2266  146.2583  158.8448 H   0  0  0  0  0  0  0  0  0  0  0  0
  151.4551  145.1108  160.2184 H   0  0  0  0  0  0  0  0  0  0  0  0
  145.4310  142.5092  160.6414 H   0  0  0  0  0  0  0  0  0  0  0  0
  142.6285  143.5432  161.5548 H   0  0  0  0  0  0  0  0  0  0  0  0
  143.3994  141.9392  162.0198 H   0  0  0  0  0  0  0  0  0  0  0  0
  145.3203  143.1733  163.0753 H   0  0  0  0  0  0  0  0  0  0  0  0
  144.5389  144.7723  162.6099 H   0  0  0  0  0  0  0  0  0  0  0  0
  1  2  1  0  0  0  0
  1 21  1  0  0  0  0
  1 22  1  0  0  0  0
  2  3  2  0  0  0  0
  2  4  1  0  0  0  0
  4 20  1  0  0  0  0
  4  5  2  0  0  0  0
  5  6  1  0  0  0  0
  5 23  1  0  0  0  0
  6  7  1  0  0  0  0
  6 16  1  0  0  0  0
  7  8  1  0  0  0  0
  7 24  1  0  0  0  0
  7 25  1  0  0  0  0
  8  9  2  0  0  0  0
  8 10  1  0  0  0  0
 10 11  1  0  0  0  0
 10 26  1  0  0  0  0
 11 12  1  0  0  0  0
 11 27  1  0  0  0  0
 11 28  1  0  0  0  0
 12 15  1  0  0  0  0
 12 13  1  0  0  0  0
 12 29  1  0  0  0  0
 13 14  1  0  0  0  0
 13 30  1  0  0  0  0
 13 31  1  0  0  0  0
 14 15  1  0  0  0  0
 14 32  1  0  0  0  0
 14 33  1  0  0  0  0
 15 34  1  0  0  0  0
 15 35  1  0  0  0  0
 16 17  1  0  0  0  0
 16 20  2  0  0  0  0
 17 19  1  0  0  0  0
 17 18  1  0  0  0  0
 17 36  1  0  0  0  0
 18 19  1  0  0  0  0
 18 37  1  0  0  0  0
 18 38  1  0  0  0  0
 19 39  1  0  0  0  0
 19 40  1  0  0  0  0
M  END
> <s_m_source_file>
AV-unprocessed.smi

> <i_m_source_file_index>
2885

> <i_lp_mmshare_version>
43012

> <i_f3d_flags>
0

> <s_epik_input>
W05IMl1DKD1PKWMxW2NIXW4oYyhuMSlbQ0hdMltDSDJdW0NIMl0yKVtDSDJdQyg9TylbTkhdW0NIMl1bQ0hdM1tDSDJdW0NIMl1bQ0gyXTM=

> <s_epik_cmdline>
J2VwaWtfcHl0aG9uJywgJy1waCcsICc3LjAnLCAnLXRuJywgJzgnLCAnLW1hJywgJzIwMCcsICctbWV0YWxfYmluZGluZycsICctaW1hZScsICc8aW5maWxlLm1hZT4nLCAnLW9tYWUnLCAnPG91dGZpbGUubWFlPic=

> <r_lp_tautomer_probability>
1

> <r_epik_Ionization_Penalty>
0.00135877

> <r_epik_Ionization_Penalty_Charging>
0.00135847

> <r_epik_Ionization_Penalty_Neutral>
3.0068e-07

> <r_epik_State_Penalty>
0.000904027

> <r_epik_Charging_Adjusted_Penalty>
0.00226249

> <i_epik_Tot_Q>
0

> <i_epik_Tot_abs_Q>
0

> <r_epik_Metal_State_Penalty>
-0

> <b_epik_Metal_Only>
0

> <s_lp_Force_Field>
OPLS_2005

> <r_lp_Energy>
17.7141

> <b_lp_Chiralities_Consistent>
1

> <s_lp_Variant>
AV-unprocessed.smi:2885-1

> <Gold.Version>
5.8.1

> <Gold.Id.Protein>
6NUR|6NUR_protein|mol2

> <Gold.PLP.Fitness>
44.3495

> <Gold.PLP.PLP>
-37.6986

> <Gold.PLP.part.hbond>
-1.9758

> <Gold.PLP.part.metal>
0.0000

> <Gold.PLP.part.buried>
-4.8602

> <Gold.PLP.part.nonpolar>
-31.5401

> <Gold.PLP.part.repulsive>
0.4046

> <Gold.PLP.ligand.clash>
0.0000

> <Gold.PLP.ligand.torsion>
0.3217

> <Gold.PLP.Chemscore.Hbond>
1.9760

> <Gold.PLP.Chemscore.CHOScore>
0.3618

> <Gold.PLP.Chemscore.Metal>
0.0000

> <Gold.Chemscore.Hbonds>
donor molecule, donor type, donor heavy atom, donor atom, acceptor molecule, acceptor atom, score
      L1  H    10    26       P1  8029  1.00
      P1  H  6933  6944       L1     9  1.00
      L1  C     5    23       P1  8029  0.46

> <Gold.PLP.Chemscore.Internal.Correction>
0.2809

> <Gold.Rescore>
     Score         DG    S(hbond)    S(metal)    S(lipo)     H(rot)  DE(clash)    DE(int)     intcor
     16.23     -16.75       1.86        0.00      86.61       1.98       0.32       0.19       ----

> <Gold.Chemscore.Fitness>
16.2311

> <Gold.Chemscore.DG>
-16.7460

> <Gold.Chemscore.ZeroCoef>
-5.4800

> <Gold.Chemscore.Hbond>
1.8559

> <Gold.Chemscore.Metal>
0.0000

> <Gold.Chemscore.Lipo>
86.6136

> <Gold.Chemscore.Internal_Hbond>
0.0000

> <Gold.Chemscore.DEClash>
0.3234

> <Gold.Chemscore.DEInternal>
0.1916

> <Gold.Chemscore.Rot>
1.9791

> <Gold.Chemscore.Internal.Correction>
   9.000000E+99

> <Gold.Chemscore.Hbonds>
donor molecule, donor type, donor heavy atom, donor atom, acceptor molecule, acceptor atom, score
      L1  H    10    26       P1  8029  0.97
      P1  H  6933  6944       L1     9  0.95

> <Gold.Chemscore.Hbond.Weighted>
-6.1987

> <Gold.Chemscore.Metal.Weighted>
-0.0000

> <Gold.Chemscore.Lipo.Weighted>
-10.1338

> <Gold.Chemscore.Internal_Hbond.Weighted>
0.0000

> <Gold.Chemscore.DEClash.Weighted>
0.3234

> <Gold.Chemscore.DEInternal.Weighted>
0.1916

> <Gold.Chemscore.Rot.Weighted>
5.0665

> <Gold.Chemscore.Internal.Correction.Weighted>
   9.000000E+99

> <Gold.Protein.RotatedTorsions>
[ 6907 6896 6895 6894 ] final  -80.70 input  -60.11 | X-H torsion
[ 7974 7965 7964 7962 ] final  -74.08 input  175.53 | X-H torsion
[ 8008 7997 7996 7995 ] final -152.60 input   59.86 | X-H torsion
[ 10167 10162 10161 10158 ] final  -96.93 input  -65.29 | X-H torsion
[ 10718 10713 10712 10709 ] final -128.90 input   66.30 | X-H torsion
[ 10763 10752 10751 10750 ] final    3.81 input  -60.55 | X-H torsion
[ 11005 11000 10999 10996 ] final -164.32 input  -57.11 | X-H torsion

> <Gold.Protein.ActiveResidues>
 VAL166  LYS551  ARG553  GLY616  TRP617  ASP618  TYR619  PRO620  LYS621  CYS622 
 ASP623  PHE694  ASN695  SER759  ASP760  ASP761  ALA762  ILE779  LEU786  VAL792 
 PHE793  MET794  SER795  GLU796  ALA797  LYS798  CYS799  TRP800  GLU811  SER814 

> <Gold.Protein.RotatedAtoms>
  150.6924  134.3929  159.5084 H   0  0  0  0  0  0  0  0  0  0  0  0  # atno 6907 bound_to 6896
  152.1714  134.8828  160.0543 H   0  0  0  0  0  0  0  0  0  0  0  0  # atno 6908 bound_to 6896
  151.9852  133.3737  159.4160 H   0  0  0  0  0  0  0  0  0  0  0  0  # atno 6909 bound_to 6896
  145.6438  140.9303  143.1021 H   0  0  0  0  0  0  0  0  0  0  0  0  # atno 7974 bound_to 7965
  155.6577  140.0719  157.2565 H   0  0  0  0  0  0  0  0  0  0  0  0  # atno 8008 bound_to 7997
  154.4149  140.1722  156.1793 H   0  0  0  0  0  0  0  0  0  0  0  0  # atno 8009 bound_to 7997
  155.9723  140.3361  155.6590 H   0  0  0  0  0  0  0  0  0  0  0  0  # atno 8010 bound_to 7997
  140.2887  143.3235  152.0368 H   0  0  0  0  0  0  0  0  0  0  0  0  # atno 10167 bound_to 10162
  156.1995  130.6848  151.0521 H   0  0  0  0  0  0  0  0  0  0  0  0  # atno 10718 bound_to 10713
  153.2788  135.6939  153.7406 H   0  0  0  0  0  0  0  0  0  0  0  0  # atno 10763 bound_to 10752
  153.6402  135.3395  155.3069 H   0  0  0  0  0  0  0  0  0  0  0  0  # atno 10764 bound_to 10752
  154.8488  135.4430  154.1834 H   0  0  0  0  0  0  0  0  0  0  0  0  # atno 10765 bound_to 10752
  140.5882  134.5072  157.5189 H   0  0  0  0  0  0  0  0  0  0  0  0  # atno 11005 bound_to 11000
  144.7147  139.8239  143.7402 LP  0  0  0  0  0  0  0  0  0  0  0  0  # atno 17320 bound_to 7965
  146.1259  139.4285  143.0199 LP  0  0  0  0  0  0  0  0  0  0  0  0  # atno 17321 bound_to 7965
  139.4943  144.6540  151.6612 LP  0  0  0  0  0  0  0  0  0  0  0  0  # atno 17342 bound_to 10162
  140.5751  144.0043  150.6237 LP  0  0  0  0  0  0  0  0  0  0  0  0  # atno 17343 bound_to 10162
  157.6977  131.0788  150.6918 LP  0  0  0  0  0  0  0  0  0  0  0  0  # atno 17370 bound_to 10713
  156.6975  130.4613  149.5582 LP  0  0  0  0  0  0  0  0  0  0  0  0  # atno 17371 bound_to 10713
  139.9286  134.8007  156.0996 LP  0  0  0  0  0  0  0  0  0  0  0  0  # atno 17394 bound_to 11000
  141.0952  133.6698  156.2629 LP  0  0  0  0  0  0  0  0  0  0  0  0  # atno 17395 bound_to 11000

$$$$
