AV-unprocessed.smi:804|AV-procd|sdf|3794|dock5
  -GOLD-   22720 1233D 1   1.00000     0.00000
 Structure written by MMmdl.
 39 40  0  0  0  0  0  0  0  0  1 V2000
  152.6141  138.3999  154.2198 C   0  0  0  0  0  0  0  0  0  0  0  0
  151.4628  138.4595  155.2392 C   0  0  0  0  0  0  0  0  0  0  0  0
  150.5338  139.6375  154.8773 C   0  0  0  0  0  0  0  0  0  0  0  0
  150.6892  137.1251  155.2027 C   0  0  0  0  0  0  0  0  0  0  0  0
  152.0722  138.6684  156.5571 N   0  0  0  0  0  0  0  0  0  0  0  0
  152.9031  137.8559  157.2357 C   0  0  0  0  0  0  0  0  0  0  0  0
  153.3256  136.7815  156.8082 O   0  0  0  0  0  0  0  0  0  0  0  0
  153.3684  138.3835  158.5617 C   0  0  0  0  0  0  0  0  0  0  0  0
  153.0621  139.6720  158.8366 N   0  0  0  0  0  0  0  0  0  0  0  0
  153.4545  140.1898  160.0072 C   0  0  0  0  0  0  0  0  0  0  0  0
  153.1141  141.5228  160.2732 N   0  0  0  0  0  0  0  0  0  0  0  0
  153.4939  142.1758  161.5290 C   0  0  0  0  0  0  0  0  0  0  0  0
  152.4914  143.2810  161.9025 C   0  0  0  0  0  0  0  0  0  0  0  0
  152.3618  144.2004  160.8259 O   0  0  0  0  0  0  0  0  0  0  0  0
  151.8578  143.5650  159.6582 C   0  0  0  0  0  0  0  0  0  0  0  0
  152.8386  142.4754  159.1943 C   0  0  0  0  0  0  0  0  0  0  0  0
  154.1451  139.5252  160.9418 N   0  0  0  0  0  0  0  0  0  0  0  0
  154.4757  138.2425  160.6860 C   0  0  0  0  0  0  0  0  0  0  0  0
  154.1107  137.6028  159.4859 C   0  0  0  0  0  0  0  0  0  0  0  0
  154.5998  135.9673  159.1989 Cl  0  0  0  0  0  0  0  0  0  0  0  0
  152.2405  138.2456  153.2068 H   0  0  0  0  0  0  0  0  0  0  0  0
  153.3019  137.5830  154.4425 H   0  0  0  0  0  0  0  0  0  0  0  0
  153.1927  139.3246  154.2176 H   0  0  0  0  0  0  0  0  0  0  0  0
  151.0607  140.5907  154.9346 H   0  0  0  0  0  0  0  0  0  0  0  0
  149.6702  139.6980  155.5396 H   0  0  0  0  0  0  0  0  0  0  0  0
  150.1497  139.5357  153.8618 H   0  0  0  0  0  0  0  0  0  0  0  0
  150.3130  136.9176  154.2005 H   0  0  0  0  0  0  0  0  0  0  0  0
  149.8281  137.1306  155.8709 H   0  0  0  0  0  0  0  0  0  0  0  0
  151.3262  136.2886  155.4928 H   0  0  0  0  0  0  0  0  0  0  0  0
  151.8239  139.5326  157.0164 H   0  0  0  0  0  0  0  0  0  0  0  0
  153.5422  141.4702  162.3581 H   0  0  0  0  0  0  0  0  0  0  0  0
  154.4926  142.5983  161.4141 H   0  0  0  0  0  0  0  0  0  0  0  0
  151.5184  142.8553  162.1528 H   0  0  0  0  0  0  0  0  0  0  0  0
  152.8393  143.8175  162.7853 H   0  0  0  0  0  0  0  0  0  0  0  0
  150.8714  143.1418  159.8557 H   0  0  0  0  0  0  0  0  0  0  0  0
  151.7315  144.3127  158.8751 H   0  0  0  0  0  0  0  0  0  0  0  0
  153.7793  142.9282  158.8791 H   0  0  0  0  0  0  0  0  0  0  0  0
  152.4121  141.9875  158.3184 H   0  0  0  0  0  0  0  0  0  0  0  0
  155.0438  137.7248  161.4446 H   0  0  0  0  0  0  0  0  0  0  0  0
  1  2  1  0  0  0  0
  1 21  1  0  0  0  0
  1 22  1  0  0  0  0
  1 23  1  0  0  0  0
  2  3  1  0  0  0  0
  2  4  1  0  0  0  0
  2  5  1  0  0  0  0
  3 24  1  0  0  0  0
  3 25  1  0  0  0  0
  3 26  1  0  0  0  0
  4 27  1  0  0  0  0
  4 28  1  0  0  0  0
  4 29  1  0  0  0  0
  5  6  1  0  0  0  0
  5 30  1  0  0  0  0
  6  7  2  0  0  0  0
  6  8  1  0  0  0  0
  8 19  1  0  0  0  0
  8  9  2  0  0  0  0
  9 10  1  0  0  0  0
 10 11  1  0  0  0  0
 10 17  2  0  0  0  0
 11 16  1  0  0  0  0
 11 12  1  0  0  0  0
 12 13  1  0  0  0  0
 12 31  1  0  0  0  0
 12 32  1  0  0  0  0
 13 14  1  0  0  0  0
 13 33  1  0  0  0  0
 13 34  1  0  0  0  0
 14 15  1  0  0  0  0
 15 16  1  0  0  0  0
 15 35  1  0  0  0  0
 15 36  1  0  0  0  0
 16 37  1  0  0  0  0
 16 38  1  0  0  0  0
 17 18  1  0  0  0  0
 18 19  2  0  0  0  0
 18 39  1  0  0  0  0
 19 20  1  0  0  0  0
M  END
> <s_m_source_file>
AV-unprocessed.smi

> <i_m_source_file_index>
804

> <i_lp_mmshare_version>
43012

> <i_f3d_flags>
0

> <s_epik_input>
W0NIM11DKFtDSDNdKShbQ0gzXSlbTkhdQyg9TyljMW5jKG5bY0hdYzFDbClOMltDSDJdW0NIMl1PW0NIMl1bQ0gyXTI=

> <s_epik_cmdline>
J2VwaWtfcHl0aG9uJywgJy1waCcsICc3LjAnLCAnLXRuJywgJzgnLCAnLW1hJywgJzIwMCcsICctbWV0YWxfYmluZGluZycsICctaW1hZScsICc8aW5maWxlLm1hZT4nLCAnLW9tYWUnLCAnPG91dGZpbGUubWFlPic=

> <r_lp_tautomer_probability>
1

> <r_epik_Ionization_Penalty>
1.02082e-05

> <r_epik_Ionization_Penalty_Charging>
0

> <r_epik_Ionization_Penalty_Neutral>
1.02082e-05

> <r_epik_State_Penalty>
-0

> <r_epik_Charging_Adjusted_Penalty>
0

> <i_epik_Tot_Q>
0

> <i_epik_Tot_abs_Q>
0

> <r_epik_Metal_State_Penalty>
0.00994437

> <b_epik_Metal_Only>
0

> <s_lp_Force_Field>
OPLS_2005

> <r_lp_Energy>
15.0003

> <b_lp_Chiralities_Consistent>
1

> <s_lp_Variant>
AV-unprocessed.smi:804-1

> <Gold.Version>
5.8.1

> <Gold.Id.Protein>
6NUR|6NUR_protein|mol2

> <Gold.PLP.Fitness>
38.8585

> <Gold.PLP.PLP>
-36.2865

> <Gold.PLP.part.hbond>
-1.0000

> <Gold.PLP.part.metal>
0.0000

> <Gold.PLP.part.buried>
-4.7494

> <Gold.PLP.part.nonpolar>
-29.7655

> <Gold.PLP.part.repulsive>
0.2084

> <Gold.PLP.ligand.clash>
0.0000

> <Gold.PLP.ligand.torsion>
0.1920

> <Gold.PLP.Chemscore.Hbond>
0.9406

> <Gold.PLP.Chemscore.CHOScore>
0.0000

> <Gold.PLP.Chemscore.Metal>
0.0000

> <Gold.Chemscore.Hbonds>
donor molecule, donor type, donor heavy atom, donor atom, acceptor molecule, acceptor atom, score
      P1  H 10752 10764       L1     7  0.92

> <Gold.PLP.Chemscore.Internal.Correction>
0.1342

> <Gold.Rescore>
     Score         DG    S(hbond)    S(metal)    S(lipo)     H(rot)  DE(clash)    DE(int)     intcor
     15.15     -16.83       0.99        0.00      90.71       1.00       0.17       1.51       ----

> <Gold.Chemscore.Fitness>
15.1545

> <Gold.Chemscore.DG>
-16.8304

> <Gold.Chemscore.ZeroCoef>
-5.4800

> <Gold.Chemscore.Hbond>
0.9873

> <Gold.Chemscore.Metal>
0.0000

> <Gold.Chemscore.Lipo>
90.7071

> <Gold.Chemscore.Internal_Hbond>
0.0000

> <Gold.Chemscore.DEClash>
0.1679

> <Gold.Chemscore.DEInternal>
1.5080

> <Gold.Chemscore.Rot>
1.0000

> <Gold.Chemscore.Internal.Correction>
   9.000000E+99

> <Gold.Chemscore.Hbonds>
donor molecule, donor type, donor heavy atom, donor atom, acceptor molecule, acceptor atom, score
      P1  H 10752 10764       L1     7  0.84

> <Gold.Chemscore.Hbond.Weighted>
-3.2977

> <Gold.Chemscore.Metal.Weighted>
-0.0000

> <Gold.Chemscore.Lipo.Weighted>
-10.6127

> <Gold.Chemscore.Internal_Hbond.Weighted>
0.0000

> <Gold.Chemscore.DEClash.Weighted>
0.1679

> <Gold.Chemscore.DEInternal.Weighted>
1.5080

> <Gold.Chemscore.Rot.Weighted>
2.5600

> <Gold.Chemscore.Internal.Correction.Weighted>
   9.000000E+99

> <Gold.Protein.RotatedTorsions>
[ 6907 6896 6895 6894 ] final   33.35 input  -60.11 | X-H torsion
[ 7974 7965 7964 7962 ] final -100.90 input  175.53 | X-H torsion
[ 8008 7997 7996 7995 ] final   25.16 input   59.86 | X-H torsion
[ 10167 10162 10161 10158 ] final  105.94 input  -65.29 | X-H torsion
[ 10718 10713 10712 10709 ] final   21.11 input   66.30 | X-H torsion
[ 10763 10752 10751 10750 ] final   -0.94 input  -60.55 | X-H torsion
[ 11005 11000 10999 10996 ] final  -62.32 input  -57.11 | X-H torsion

> <Gold.Protein.ActiveResidues>
 VAL166  LYS551  ARG553  GLY616  TRP617  ASP618  TYR619  PRO620  LYS621  CYS622 
 ASP623  PHE694  ASN695  SER759  ASP760  ASP761  ALA762  ILE779  LEU786  VAL792 
 PHE793  MET794  SER795  GLU796  ALA797  LYS798  CYS799  TRP800  GLU811  SER814 

> <Gold.Protein.RotatedAtoms>
  152.0872  134.9431  160.0572 H   0  0  0  0  0  0  0  0  0  0  0  0  # atno 6907 bound_to 6896
  152.0697  133.4096  159.4462 H   0  0  0  0  0  0  0  0  0  0  0  0  # atno 6908 bound_to 6896
  150.6836  134.3026  159.4756 H   0  0  0  0  0  0  0  0  0  0  0  0  # atno 6909 bound_to 6896
  145.2886  140.9346  143.2891 H   0  0  0  0  0  0  0  0  0  0  0  0  # atno 7974 bound_to 7965
  155.0074  140.3132  155.4843 H   0  0  0  0  0  0  0  0  0  0  0  0  # atno 8008 bound_to 7997
  156.2915  140.2221  156.5128 H   0  0  0  0  0  0  0  0  0  0  0  0  # atno 8009 bound_to 7997
  154.7564  140.0462  157.0925 H   0  0  0  0  0  0  0  0  0  0  0  0  # atno 8010 bound_to 7997
  139.7050  144.7088  151.1121 H   0  0  0  0  0  0  0  0  0  0  0  0  # atno 10167 bound_to 10162
  157.1338  130.6603  149.5960 H   0  0  0  0  0  0  0  0  0  0  0  0  # atno 10718 bound_to 10713
  153.3384  135.6979  153.6888 H   0  0  0  0  0  0  0  0  0  0  0  0  # atno 10763 bound_to 10752
  153.5662  135.3525  155.2820 H   0  0  0  0  0  0  0  0  0  0  0  0  # atno 10764 bound_to 10752
  154.8632  135.4261  154.2591 H   0  0  0  0  0  0  0  0  0  0  0  0  # atno 10765 bound_to 10752
  141.1356  133.6639  156.5510 H   0  0  0  0  0  0  0  0  0  0  0  0  # atno 11005 bound_to 11000
  144.9192  139.4432  143.6549 LP  0  0  0  0  0  0  0  0  0  0  0  0  # atno 17320 bound_to 7965
  146.3192  139.8043  142.8959 LP  0  0  0  0  0  0  0  0  0  0  0  0  # atno 17321 bound_to 7965
  140.7719  143.5371  150.9356 LP  0  0  0  0  0  0  0  0  0  0  0  0  # atno 17342 bound_to 10162
  139.9054  143.6785  152.3124 LP  0  0  0  0  0  0  0  0  0  0  0  0  # atno 17343 bound_to 10162
  155.9802  130.4801  150.6760 LP  0  0  0  0  0  0  0  0  0  0  0  0  # atno 17370 bound_to 10713
  157.4368  131.0856  151.0984 LP  0  0  0  0  0  0  0  0  0  0  0  0  # atno 17371 bound_to 10713
  140.4064  134.7311  157.4810 LP  0  0  0  0  0  0  0  0  0  0  0  0  # atno 17394 bound_to 11000
  140.0459  134.6200  155.8922 LP  0  0  0  0  0  0  0  0  0  0  0  0  # atno 17395 bound_to 11000

$$$$
