#       Name:                AV-unprocessed.smi:1284
#       Creating user name   scv26
#       Creation time:       Fri Mar 27 04:50:21 2020


#       File generated by GOLD software.
#

@<TRIPOS>MOLECULE
AV-unprocessed.smi:1284
    44    46     1
SMALL
NO_CHARGES


@<TRIPOS>ATOM
      1 ****        -0.9819   3.6484  -2.9207 N.am           1 S1                 0.0000
      2 ****        -0.0842   3.0275  -2.1502 C.2            1 S1                 0.0000
      3 ****         0.9921   2.6284  -2.5894 O.2            1 S1                 0.0000
      4 ****        -0.4380   2.8396  -0.6718 C.3            1 S1                 0.0000
      5 ****        -1.3878   1.6810  -0.5436 C.2            1 S1                 0.0000
      6 ****        -2.7111   1.8556  -0.5681 N.2            1 S1                 0.0000
      7 ****        -3.1926   0.5709  -0.4111 C.ar           1 S1                 0.0000
      8 ****        -4.5195   0.0878  -0.3566 C.ar           1 S1                 0.0000
      9 ****        -4.7712  -1.2889  -0.1826 C.ar           1 S1                 0.0000
     10 ****        -3.7022  -2.2003  -0.0611 C.ar           1 S1                 0.0000
     11 ****        -2.3725  -1.7397  -0.1149 C.ar           1 S1                 0.0000
     12 ****        -2.1271  -0.3645  -0.2892 C.ar           1 S1                 0.0000
     13 ****        -0.9679   0.3989  -0.3798 N.pl3          1 S1                 0.0000
     14 ****         0.3941  -0.1141  -0.3082 C.3            1 S1                 0.0000
     15 ****         0.8471  -0.3995   1.1376 C.3            1 S1                 0.0000
     16 ****         0.7473   0.7740   1.9211 O.3            1 S1                 0.0000
     17 ****         2.2476  -0.9904   1.1687 C.ar           1 S1                 0.0000
     18 ****         2.4282  -2.3701   1.4063 C.ar           1 S1                 0.0000
     19 ****         3.7236  -2.9228   1.4288 C.ar           1 S1                 0.0000
     20 ****         4.8453  -2.0997   1.2120 C.ar           1 S1                 0.0000
     21 ****         4.6711  -0.7237   0.9697 C.ar           1 S1                 0.0000
     22 ****         3.3761  -0.1706   0.9469 C.ar           1 S1                 0.0000
     23 ****        -0.7917   3.7841  -3.9029 H              1 S1                 0.0000
     24 ****        -1.8511   3.9714  -2.5205 H              1 S1                 0.0000
     25 ****         0.4603   2.6740  -0.0774 H              1 S1                 0.0000
     26 ****        -0.9094   3.7438  -0.2841 H              1 S1                 0.0000
     27 ****        -5.3451   0.7780  -0.4476 H              1 S1                 0.0000
     28 ****        -5.7893  -1.6470  -0.1409 H              1 S1                 0.0000
     29 ****        -3.9036  -3.2530   0.0735 H              1 S1                 0.0000
     30 ****        -1.5511  -2.4345  -0.0221 H              1 S1                 0.0000
     31 ****         0.4368  -1.0325  -0.8948 H              1 S1                 0.0000
     32 ****         1.0761   0.5809  -0.7958 H              1 S1                 0.0000
     33 ****         0.1619  -1.1233   1.5807 H              1 S1                 0.0000
     34 ****         0.9373   0.5503   2.8193 H              1 S1                 0.0000
     35 ****         1.5743  -3.0106   1.5709 H              1 S1                 0.0000
     36 ****         3.8567  -3.9790   1.6114 H              1 S1                 0.0000
     37 ****         5.8385  -2.5241   1.2294 H              1 S1                 0.0000
     38 ****         5.5303  -0.0918   0.8000 H              1 S1                 0.0000
     39 ****         3.2508   0.8853   0.7555 H              1 S1                 0.0000
     40 ****         1.2202   2.7645  -3.5534 LP             1 S1                 0.0000
     41 ****         1.6398   2.1676  -1.9826 LP             1 S1                 0.0000
     42 ****        -3.2261   2.7062  -0.6739 LP             1 S1                 0.0000
     43 ****        -0.1782   1.1468   1.8545 LP             1 S1                 0.0000
     44 ****         1.4047   1.4539   1.5962 LP             1 S1                 0.0000
@<TRIPOS>BOND
    1    1    2 am    
    2    1   23 1     
    3    1   24 1     
    4    2    3 2     
    5    2    4 1     
    6    4    5 1     
    7    4   25 1     
    8    4   26 1     
    9    5   13 1     
   10    5    6 2     
   11    6    7 1     
   12    7   12 ar    
   13    7    8 ar    
   14    8    9 ar    
   15    8   27 1     
   16    9   10 ar    
   17    9   28 1     
   18   10   11 ar    
   19   10   29 1     
   20   11   12 ar    
   21   11   30 1     
   22   12   13 1     
   23   13   14 1     
   24   14   15 1     
   25   14   31 1     
   26   14   32 1     
   27   15   16 1     
   28   15   17 1     
   29   15   33 1     
   30   16   34 1     
   31   17   22 ar    
   32   17   18 ar    
   33   18   19 ar    
   34   18   35 1     
   35   19   20 ar    
   36   19   36 1     
   37   20   21 ar    
   38   20   37 1     
   39   21   22 ar    
   40   21   38 1     
   41   22   39 1     
   42    3   40 1     
   43    3   41 1     
   44    6   42 1     
   45   16   43 1     
   46   16   44 1     
@<TRIPOS>SUBSTRUCTURE
      1 S1             1
@<TRIPOS>SET
LONE_PAIRS      STATIC     ATOMS    <user>   **** ""
5 40 41 42 43 44
DONOR_HYDROGENS      STATIC     ATOMS    <user>   **** ""
3 23 24 34
ATOM$BLUE        STATIC     ATOMS    COLORGROUP SYSTEM
5 40 41 42 43 44
ATOM$RED        STATIC     ATOMS    COLORGROUP SYSTEM
3 23 24 34
