#       Name:                AV-unprocessed.smi:517
#       Creating user name   scv26
#       Creation time:       Thu Mar 26 23:26:23 2020


#       File generated by GOLD software.
#

@<TRIPOS>MOLECULE
AV-unprocessed.smi:517
    40    41     1
SMALL
NO_CHARGES


@<TRIPOS>ATOM
      1 ****        -3.5330   1.8383   1.2696 C.3            1 S1                 0.0000
      2 ****        -3.1369   0.3617   1.3368 C.3            1 S1                 0.0000
      3 ****        -1.7235   0.2721   1.3152 O.3            1 S1                 0.0000
      4 ****        -1.2497  -1.0623   1.3909 C.3            1 S1                 0.0000
      5 ****         0.2846  -1.0617   1.3303 C.3            1 S1                 0.0000
      6 ****         0.7840  -0.4638   0.0997 N.pl3          1 S1                 0.0000
      7 ****         1.0515  -1.0705  -1.0855 C.2            1 S1                 0.0000
      8 ****         0.8652  -2.5494  -1.2900 C.3            1 S1                 0.0000
      9 ****         2.1539  -3.3318  -1.0033 C.3            1 S1                 0.0000
     10 ****         0.4438  -2.8627  -2.6024 O.3            1 S1                 0.0000
     11 ****         1.5229  -0.2727  -2.0469 N.2            1 S1                 0.0000
     12 ****         1.5411   0.9658  -1.4374 C.ar           1 S1                 0.0000
     13 ****         1.9298   2.2295  -1.9367 C.ar           1 S1                 0.0000
     14 ****         1.8570   3.3743  -1.1164 C.ar           1 S1                 0.0000
     15 ****         1.3971   3.2719   0.2124 C.ar           1 S1                 0.0000
     16 ****         1.0088   2.0215   0.7305 C.ar           1 S1                 0.0000
     17 ****         1.0824   0.8819  -0.0929 C.ar           1 S1                 0.0000
     18 ****        -4.6170   1.9523   1.2730 H              1 S1                 0.0000
     19 ****        -3.1492   2.3049   0.3621 H              1 S1                 0.0000
     20 ****        -3.1354   2.3886   2.1226 H              1 S1                 0.0000
     21 ****        -3.5308  -0.0891   2.2488 H              1 S1                 0.0000
     22 ****        -3.5609  -0.1781   0.4889 H              1 S1                 0.0000
     23 ****        -1.5828  -1.5223   2.3223 H              1 S1                 0.0000
     24 ****        -1.6596  -1.6527   0.5701 H              1 S1                 0.0000
     25 ****         0.6880  -0.5026   2.1752 H              1 S1                 0.0000
     26 ****         0.6743  -2.0747   1.4276 H              1 S1                 0.0000
     27 ****         0.0761  -2.9073  -0.6297 H              1 S1                 0.0000
     28 ****         2.4939  -3.1659   0.0192 H              1 S1                 0.0000
     29 ****         2.9594  -3.0290  -1.6734 H              1 S1                 0.0000
     30 ****         2.0006  -4.4040  -1.1291 H              1 S1                 0.0000
     31 ****        -0.3690  -2.4110  -2.7707 H              1 S1                 0.0000
     32 ****         2.2831   2.3181  -2.9533 H              1 S1                 0.0000
     33 ****         2.1543   4.3357  -1.5088 H              1 S1                 0.0000
     34 ****         1.3419   4.1537   0.8338 H              1 S1                 0.0000
     35 ****         0.6532   1.9400   1.7469 H              1 S1                 0.0000
     36 ****        -1.3602   0.7836   2.0940 LP             1 S1                 0.0000
     37 ****        -1.3916   0.6800   0.4646 LP             1 S1                 0.0000
     38 ****         0.3053  -3.8495  -2.6861 LP             1 S1                 0.0000
     39 ****         1.1371  -2.5665  -3.2594 LP             1 S1                 0.0000
     40 ****         1.7955  -0.5130  -2.9785 LP             1 S1                 0.0000
@<TRIPOS>BOND
    1    1    2 1     
    2    1   18 1     
    3    1   19 1     
    4    1   20 1     
    5    2    3 1     
    6    2   21 1     
    7    2   22 1     
    8    3    4 1     
    9    4    5 1     
   10    4   23 1     
   11    4   24 1     
   12    5    6 1     
   13    5   25 1     
   14    5   26 1     
   15    6   17 1     
   16    6    7 1     
   17    7    8 1     
   18    7   11 2     
   19    8    9 1     
   20    8   10 1     
   21    8   27 1     
   22    9   28 1     
   23    9   29 1     
   24    9   30 1     
   25   10   31 1     
   26   11   12 1     
   27   12   17 ar    
   28   12   13 ar    
   29   13   14 ar    
   30   13   32 1     
   31   14   15 ar    
   32   14   33 1     
   33   15   16 ar    
   34   15   34 1     
   35   16   17 ar    
   36   16   35 1     
   37    3   36 1     
   38    3   37 1     
   39   10   38 1     
   40   10   39 1     
   41   11   40 1     
@<TRIPOS>SUBSTRUCTURE
      1 S1             1
@<TRIPOS>SET
LONE_PAIRS      STATIC     ATOMS    <user>   **** ""
5 36 37 38 39 40
DONOR_HYDROGENS      STATIC     ATOMS    <user>   **** ""
1 31
ATOM$BLUE        STATIC     ATOMS    COLORGROUP SYSTEM
5 36 37 38 39 40
ATOM$RED        STATIC     ATOMS    COLORGROUP SYSTEM
1 31
