AV-unprocessed.smi:783|AV-procd|sdf|3716|dock5
  -GOLD-   22720 1143D 1   1.00000     0.00000
 Structure written by MMmdl.
 45 46  0  0  0  0  0  0  0  0  1 V2000
  152.3406  139.1601  154.5605 C   0  0  0  0  0  0  0  0  0  0  0  0
  151.6235  140.3959  155.1417 C   0  0  2  0  0  0  0  0  0  0  0  0
  151.5966  140.3926  156.6778 C   0  0  0  0  0  0  0  0  0  0  0  0
  150.9626  139.5341  157.2917 O   0  0  0  0  0  0  0  0  0  0  0  0
  152.3022  141.3607  157.2843 N   0  0  0  0  0  0  0  0  0  0  0  0
  152.4568  141.5372  158.7287 C   0  0  0  0  0  0  0  0  0  0  0  0
  152.2563  143.0167  159.1811 C   0  0  0  0  0  0  0  0  0  0  0  0
  152.6792  143.2467  160.6716 C   0  0  0  0  0  0  0  0  0  0  0  0
  151.9306  143.9155  161.3889 O   0  0  0  0  0  0  0  0  0  0  0  0
  153.8415  142.7562  161.1826 N   0  0  0  0  0  0  0  0  0  0  0  0
  154.8390  141.9151  160.5133 C   0  0  0  0  0  0  0  0  0  0  0  0
  154.2160  143.0830  162.5624 C   0  0  0  0  0  0  0  0  0  0  0  0
  153.0720  143.9257  158.2185 C   0  0  0  0  0  0  0  0  0  0  0  0
  152.4272  145.3152  158.2471 C   0  0  0  0  0  0  0  0  0  0  0  0
  150.9760  145.0817  158.6718 C   0  0  0  0  0  0  0  0  0  0  0  0
  150.8355  143.5716  158.9082 C   0  0  0  0  0  0  0  0  0  0  0  0
  150.2741  140.5566  154.6119 N   0  0  0  0  0  0  0  0  0  0  0  0
  149.4054  141.6105  154.8126 C   0  0  0  0  0  0  0  0  0  0  0  0
  148.2427  141.3157  154.1600 C   0  0  0  0  0  0  0  0  0  0  0  0
  148.4903  140.0357  153.5912 C   0  0  0  0  0  0  0  0  0  0  0  0
  149.7007  139.5806  153.8694 N   0  0  0  0  0  0  0  0  0  0  0  0
  153.3649  139.0932  154.9286 H   0  0  0  0  0  0  0  0  0  0  0  0
  152.3882  139.2149  153.4726 H   0  0  0  0  0  0  0  0  0  0  0  0
  151.8356  138.2291  154.8217 H   0  0  0  0  0  0  0  0  0  0  0  0
  152.1953  141.2711  154.8282 H   0  0  0  0  0  0  0  0  0  0  0  0
  152.7900  142.0211  156.6968 H   0  0  0  0  0  0  0  0  0  0  0  0
  151.7015  140.9085  159.2008 H   0  0  0  0  0  0  0  0  0  0  0  0
  153.3999  141.1139  159.0658 H   0  0  0  0  0  0  0  0  0  0  0  0
  154.5288  141.4753  159.5720 H   0  0  0  0  0  0  0  0  0  0  0  0
  155.1173  141.0807  161.1581 H   0  0  0  0  0  0  0  0  0  0  0  0
  155.7414  142.4955  160.3201 H   0  0  0  0  0  0  0  0  0  0  0  0
  153.5039  142.6494  163.2660 H   0  0  0  0  0  0  0  0  0  0  0  0
  154.2337  144.1636  162.7136 H   0  0  0  0  0  0  0  0  0  0  0  0
  155.2064  142.7088  162.8249 H   0  0  0  0  0  0  0  0  0  0  0  0
  154.1390  143.9649  158.4426 H   0  0  0  0  0  0  0  0  0  0  0  0
  152.9981  143.5429  157.1994 H   0  0  0  0  0  0  0  0  0  0  0  0
  152.9296  145.9541  158.9744 H   0  0  0  0  0  0  0  0  0  0  0  0
  152.4967  145.8084  157.2770 H   0  0  0  0  0  0  0  0  0  0  0  0
  150.7700  145.6294  159.5922 H   0  0  0  0  0  0  0  0  0  0  0  0
  150.2687  145.4320  157.9193 H   0  0  0  0  0  0  0  0  0  0  0  0
  150.4280  143.1059  158.0098 H   0  0  0  0  0  0  0  0  0  0  0  0
  150.1132  143.3968  159.7025 H   0  0  0  0  0  0  0  0  0  0  0  0
  149.6843  142.4748  155.3974 H   0  0  0  0  0  0  0  0  0  0  0  0
  147.3494  141.9198  154.1022 H   0  0  0  0  0  0  0  0  0  0  0  0
  147.8297  139.4258  152.9924 H   0  0  0  0  0  0  0  0  0  0  0  0
  1  2  1  0  0  0  0
  1 22  1  0  0  0  0
  1 23  1  0  0  0  0
  1 24  1  0  0  0  0
  2  3  1  0  0  0  0
  2 17  1  0  0  0  0
  2 25  1  0  0  0  0
  3  4  2  0  0  0  0
  3  5  1  0  0  0  0
  5  6  1  0  0  0  0
  5 26  1  0  0  0  0
  6  7  1  0  0  0  0
  6 27  1  0  0  0  0
  6 28  1  0  0  0  0
  7 16  1  0  0  0  0
  7  8  1  0  0  0  0
  7 13  1  0  0  0  0
  8  9  2  0  0  0  0
  8 10  1  0  0  0  0
 10 11  1  0  0  0  0
 10 12  1  0  0  0  0
 11 29  1  0  0  0  0
 11 30  1  0  0  0  0
 11 31  1  0  0  0  0
 12 32  1  0  0  0  0
 12 33  1  0  0  0  0
 12 34  1  0  0  0  0
 13 14  1  0  0  0  0
 13 35  1  0  0  0  0
 13 36  1  0  0  0  0
 14 15  1  0  0  0  0
 14 37  1  0  0  0  0
 14 38  1  0  0  0  0
 15 16  1  0  0  0  0
 15 39  1  0  0  0  0
 15 40  1  0  0  0  0
 16 41  1  0  0  0  0
 16 42  1  0  0  0  0
 17 21  1  0  0  0  0
 17 18  1  0  0  0  0
 18 19  2  0  0  0  0
 18 43  1  0  0  0  0
 19 20  1  0  0  0  0
 19 44  1  0  0  0  0
 20 21  2  0  0  0  0
 20 45  1  0  0  0  0
M  END
> <s_m_source_file>
AV-unprocessed.smi

> <i_m_source_file_index>
783

> <i_lp_mmshare_version>
43012

> <i_f3d_flags>
0

> <s_epik_input>
bjFbY0hdW2NIXVtjSF1uMVtDQEhdKFtDSDNdKUMoPU8pW05IXVtDSDJdQzIoQyg9TylOKFtDSDNdKVtDSDNdKVtDSDJdW0NIMl1bQ0gyXVtDSDJdMg==

> <s_epik_cmdline>
J2VwaWtfcHl0aG9uJywgJy1waCcsICc3LjAnLCAnLXRuJywgJzgnLCAnLW1hJywgJzIwMCcsICctbWV0YWxfYmluZGluZycsICctaW1hZScsICc8aW5maWxlLm1hZT4nLCAnLW9tYWUnLCAnPG91dGZpbGUubWFlPic=

> <r_lp_tautomer_probability>
1

> <r_epik_Ionization_Penalty>
3.31274e-05

> <r_epik_Ionization_Penalty_Charging>
0

> <r_epik_Ionization_Penalty_Neutral>
3.31274e-05

> <r_epik_State_Penalty>
-0

> <r_epik_Charging_Adjusted_Penalty>
0

> <i_epik_Tot_Q>
0

> <i_epik_Tot_abs_Q>
0

> <r_epik_Metal_State_Penalty>
-0

> <b_epik_Metal_Only>
0

> <s_lp_Force_Field>
OPLS_2005

> <r_lp_Energy>
39.8422

> <b_lp_Chiralities_Consistent>
1

> <s_lp_Variant>
AV-unprocessed.smi:783-1

> <Gold.Version>
5.8.1

> <Gold.Id.Protein>
6NUR|6NUR_protein|mol2

> <Gold.PLP.Fitness>
52.8212

> <Gold.PLP.PLP>
-50.8471

> <Gold.PLP.part.hbond>
-0.1087

> <Gold.PLP.part.metal>
0.0000

> <Gold.PLP.part.buried>
-3.0756

> <Gold.PLP.part.nonpolar>
-47.6955

> <Gold.PLP.part.repulsive>
0.7817

> <Gold.PLP.ligand.clash>
0.0000

> <Gold.PLP.ligand.torsion>
0.7011

> <Gold.PLP.Chemscore.Hbond>
0.0000

> <Gold.PLP.Chemscore.CHOScore>
1.0230

> <Gold.PLP.Chemscore.Metal>
0.0000

> <Gold.Chemscore.Hbonds>
donor molecule, donor type, donor heavy atom, donor atom, acceptor molecule, acceptor atom, score
      L1  C    18    43       P1  8028  1.00
      L1  C    20    45       P1  7957  0.03

> <Gold.PLP.Chemscore.Internal.Correction>
0.3071

> <Gold.Rescore>
     Score         DG    S(hbond)    S(metal)    S(lipo)     H(rot)  DE(clash)    DE(int)     intcor
     13.02     -14.94       0.00        0.00     121.25       1.84       0.17       1.76       ----

> <Gold.Chemscore.Fitness>
13.0155

> <Gold.Chemscore.DG>
-14.9431

> <Gold.Chemscore.ZeroCoef>
-5.4800

> <Gold.Chemscore.Hbond>
0.0000

> <Gold.Chemscore.Metal>
0.0000

> <Gold.Chemscore.Lipo>
121.2476

> <Gold.Chemscore.Internal_Hbond>
0.0000

> <Gold.Chemscore.DEClash>
0.1655

> <Gold.Chemscore.DEInternal>
1.7621

> <Gold.Chemscore.Rot>
1.8449

> <Gold.Chemscore.Internal.Correction>
   9.000000E+99

> <Gold.Chemscore.Hbond.Weighted>
-0.0000

> <Gold.Chemscore.Metal.Weighted>
-0.0000

> <Gold.Chemscore.Lipo.Weighted>
-14.1860

> <Gold.Chemscore.Internal_Hbond.Weighted>
0.0000

> <Gold.Chemscore.DEClash.Weighted>
0.1655

> <Gold.Chemscore.DEInternal.Weighted>
1.7621

> <Gold.Chemscore.Rot.Weighted>
4.7229

> <Gold.Chemscore.Internal.Correction.Weighted>
   9.000000E+99

> <Gold.Protein.RotatedTorsions>
[ 6907 6896 6895 6894 ] final  111.32 input  -60.11 | X-H torsion
[ 7974 7965 7964 7962 ] final   10.13 input  175.53 | X-H torsion
[ 8008 7997 7996 7995 ] final  119.68 input   59.86 | X-H torsion
[ 10167 10162 10161 10158 ] final -106.20 input  -65.29 | X-H torsion
[ 10718 10713 10712 10709 ] final  -86.02 input   66.30 | X-H torsion
[ 10763 10752 10751 10750 ] final  -12.69 input  -60.55 | X-H torsion
[ 11005 11000 10999 10996 ] final -142.13 input  -57.11 | X-H torsion

> <Gold.Protein.ActiveResidues>
 VAL166  LYS551  ARG553  GLY616  TRP617  ASP618  TYR619  PRO620  LYS621  CYS622 
 ASP623  PHE694  ASN695  SER759  ASP760  ASP761  ALA762  ILE779  LEU786  VAL792 
 PHE793  MET794  SER795  GLU796  ALA797  LYS798  CYS799  TRP800  GLU811  SER814 

> <Gold.Protein.RotatedAtoms>
  152.4975  133.8674  159.7280 H   0  0  0  0  0  0  0  0  0  0  0  0  # atno 6907 bound_to 6896
  150.9170  133.6918  159.2848 H   0  0  0  0  0  0  0  0  0  0  0  0  # atno 6908 bound_to 6896
  151.4308  135.1013  159.9694 H   0  0  0  0  0  0  0  0  0  0  0  0  # atno 6909 bound_to 6896
  146.2393  139.9680  142.8450 H   0  0  0  0  0  0  0  0  0  0  0  0  # atno 7974 bound_to 7965
  156.2607  140.2847  156.1029 H   0  0  0  0  0  0  0  0  0  0  0  0  # atno 8008 bound_to 7997
  155.1340  140.0394  157.2799 H   0  0  0  0  0  0  0  0  0  0  0  0  # atno 8009 bound_to 7997
  154.6578  140.2559  155.7148 H   0  0  0  0  0  0  0  0  0  0  0  0  # atno 8010 bound_to 7997
  140.1904  143.3897  152.1211 H   0  0  0  0  0  0  0  0  0  0  0  0  # atno 10167 bound_to 10162
  155.9992  130.4751  150.4651 H   0  0  0  0  0  0  0  0  0  0  0  0  # atno 10718 bound_to 10713
  153.5022  135.7017  153.5825 H   0  0  0  0  0  0  0  0  0  0  0  0  # atno 10763 bound_to 10752
  153.3952  135.3886  155.1950 H   0  0  0  0  0  0  0  0  0  0  0  0  # atno 10764 bound_to 10752
  154.8710  135.3868  154.4494 H   0  0  0  0  0  0  0  0  0  0  0  0  # atno 10765 bound_to 10752
  140.8255  134.2579  157.4881 H   0  0  0  0  0  0  0  0  0  0  0  0  # atno 11005 bound_to 11000
  145.1708  140.9720  143.4323 LP  0  0  0  0  0  0  0  0  0  0  0  0  # atno 17320 bound_to 7965
  145.0030  139.3580  143.6158 LP  0  0  0  0  0  0  0  0  0  0  0  0  # atno 17321 bound_to 7965
  139.5258  144.7100  151.5234 LP  0  0  0  0  0  0  0  0  0  0  0  0  # atno 17342 bound_to 10162
  140.6460  143.8794  150.6737 LP  0  0  0  0  0  0  0  0  0  0  0  0  # atno 17343 bound_to 10162
  157.2672  131.0579  151.2283 LP  0  0  0  0  0  0  0  0  0  0  0  0  # atno 17370 bound_to 10713
  157.3376  130.7017  149.6362 LP  0  0  0  0  0  0  0  0  0  0  0  0  # atno 17371 bound_to 10713
  139.8706  134.9558  156.4219 LP  0  0  0  0  0  0  0  0  0  0  0  0  # atno 17394 bound_to 11000
  140.9053  133.7750  155.9728 LP  0  0  0  0  0  0  0  0  0  0  0  0  # atno 17395 bound_to 11000

$$$$
