AV-unprocessed.smi:3188|AV-procd|sdf|12183|dock5
  -GOLD-   2272018 23D 1   1.00000     0.00000
 Structure written by MMmdl.
 40 41  0  0  0  0  0  0  0  0  2 V2000
  152.3181  144.7239  157.9584 C   0  0  0  0  0  0  0  0  0  0  0  0
  152.4157  144.0226  159.3034 C   0  0  0  0  0  0  0  0  0  0  0  0
  152.1661  144.6898  160.4476 C   0  0  0  0  0  0  0  0  0  0  0  0
  152.2930  144.0993  161.8409 C   0  0  0  0  0  0  0  0  0  0  0  0
  152.5591  142.5851  161.8334 C   0  0  0  0  0  0  0  0  0  0  0  0
  153.4877  142.1827  160.6746 C   0  0  1  0  0  0  0  0  0  0  0  0
  153.9544  140.7210  160.7883 C   0  0  0  0  0  0  0  0  0  0  0  0
  152.8581  142.5528  159.3014 C   0  0  1  0  0  0  0  0  0  0  0  0
  151.7124  141.5933  158.8839 C   0  0  0  0  0  0  0  0  0  0  0  0
  151.1064  141.9473  157.5853 N   0  3  0  0  0  0  0  0  0  0  0  0
  150.0885  140.9884  157.1145 C   0  0  0  0  0  0  0  0  0  0  0  0
  150.1345  140.8422  155.5869 C   0  0  0  0  0  0  0  0  0  0  0  0
  150.8664  139.6576  155.1826 N   0  0  0  0  0  0  0  0  0  0  0  0
  150.6173  138.8122  154.1212 C   0  0  0  0  0  0  0  0  0  0  0  0
  151.6097  137.8789  154.2198 C   0  0  0  0  0  0  0  0  0  0  0  0
  152.4081  138.1906  155.3190 N   0  0  0  0  0  0  0  0  0  0  0  0
  151.9500  139.2593  155.8909 N   0  0  0  0  0  0  0  0  0  0  0  0
  153.2108  144.5348  157.3618 H   0  0  0  0  0  0  0  0  0  0  0  0
  152.2297  145.8035  158.0861 H   0  0  0  0  0  0  0  0  0  0  0  0
  151.4457  144.3942  157.3971 H   0  0  0  0  0  0  0  0  0  0  0  0
  151.8827  145.7317  160.4074 H   0  0  0  0  0  0  0  0  0  0  0  0
  153.1167  144.6129  162.3379 H   0  0  0  0  0  0  0  0  0  0  0  0
  151.3926  144.3201  162.4147 H   0  0  0  0  0  0  0  0  0  0  0  0
  152.9926  142.2914  162.7902 H   0  0  0  0  0  0  0  0  0  0  0  0
  151.6145  142.0466  161.7535 H   0  0  0  0  0  0  0  0  0  0  0  0
  154.3920  142.7860  160.7742 H   0  0  0  0  0  0  0  0  0  0  0  0
  153.1165  140.0265  160.8474 H   0  0  0  0  0  0  0  0  0  0  0  0
  154.5520  140.5771  161.6889 H   0  0  0  0  0  0  0  0  0  0  0  0
  154.5736  140.4370  159.9370 H   0  0  0  0  0  0  0  0  0  0  0  0
  153.6551  142.4598  158.5620 H   0  0  0  0  0  0  0  0  0  0  0  0
  152.0812  140.5729  158.7883 H   0  0  0  0  0  0  0  0  0  0  0  0
  150.9334  141.5805  159.6469 H   0  0  0  0  0  0  0  0  0  0  0  0
  150.6740  142.8560  157.6738 H   0  0  0  0  0  0  0  0  0  0  0  0
  150.2600  140.0200  157.5867 H   0  0  0  0  0  0  0  0  0  0  0  0
  149.1021  141.3318  157.4305 H   0  0  0  0  0  0  0  0  0  0  0  0
  149.1254  140.7849  155.1755 H   0  0  0  0  0  0  0  0  0  0  0  0
  150.6116  141.7137  155.1364 H   0  0  0  0  0  0  0  0  0  0  0  0
  149.8004  138.9402  153.4262 H   0  0  0  0  0  0  0  0  0  0  0  0
  151.8142  137.0188  153.5992 H   0  0  0  0  0  0  0  0  0  0  0  0
  151.8403  142.0046  156.8937 H   0  0  0  0  0  0  0  0  0  0  0  0
  1  2  1  0  0  0  0
  1 18  1  0  0  0  0
  1 19  1  0  0  0  0
  1 20  1  0  0  0  0
  2  8  1  0  0  0  0
  2  3  2  0  0  0  0
  3  4  1  0  0  0  0
  3 21  1  0  0  0  0
  4  5  1  0  0  0  0
  4 22  1  0  0  0  0
  4 23  1  0  0  0  0
  5  6  1  0  0  0  0
  5 24  1  0  0  0  0
  5 25  1  0  0  0  0
  6  7  1  0  0  0  0
  6  8  1  0  0  0  0
  6 26  1  0  0  0  0
  7 27  1  0  0  0  0
  7 28  1  0  0  0  0
  7 29  1  0  0  0  0
  8  9  1  0  0  0  0
  8 30  1  0  0  0  0
  9 10  1  0  0  0  0
  9 31  1  0  0  0  0
  9 32  1  0  0  0  0
 10 11  1  0  0  0  0
 10 33  1  0  0  0  0
 10 40  1  0  0  0  0
 11 12  1  0  0  0  0
 11 34  1  0  0  0  0
 11 35  1  0  0  0  0
 12 13  1  0  0  0  0
 12 36  1  0  0  0  0
 12 37  1  0  0  0  0
 13 17  1  0  0  0  0
 13 14  1  0  0  0  0
 14 15  2  0  0  0  0
 14 38  1  0  0  0  0
 15 16  1  0  0  0  0
 15 39  1  0  0  0  0
 16 17  2  0  0  0  0
M  CHG  1  10   1
M  END
> <s_m_source_file>
AV-unprocessed.smi

> <i_m_source_file_index>
3188

> <i_lp_mmshare_version>
43012

> <i_f3d_flags>
0

> <s_epik_input>
W0NIM11DMT1bQ0hdW0NIMl1bQ0gyXVtDQEBIXShbQ0gzXSlbQ0BIXTFbQ0gyXVtOSF1bQ0gyXVtDSDJdbjJbY0hdW2NIXW5uMg==

> <s_epik_cmdline>
J2VwaWtfcHl0aG9uJywgJy1waCcsICc3LjAnLCAnLXRuJywgJzgnLCAnLW1hJywgJzIwMCcsICctbWV0YWxfYmluZGluZycsICctaW1hZScsICc8aW5maWxlLm1hZT4nLCAnLW9tYWUnLCAnPG91dGZpbGUubWFlPic=

> <r_lp_tautomer_probability>
1

> <r_epik_Ionization_Penalty>
0.007268

> <r_epik_Ionization_Penalty_Charging>
0.00726786

> <r_epik_Ionization_Penalty_Neutral>
1.34882e-07

> <r_epik_State_Penalty>
0.00542069

> <r_epik_Charging_Adjusted_Penalty>
0.0126886

> <i_epik_Tot_Q>
1

> <i_epik_Tot_abs_Q>
1

> <r_epik_Metal_State_Penalty>
-0

> <b_epik_Metal_Only>
0

> <s_lp_Force_Field>
OPLS_2005

> <r_lp_Energy>
14.7496

> <b_lp_Chiralities_Consistent>
1

> <s_lp_Variant>
AV-unprocessed.smi:3188-1

> <Gold.Version>
5.8.1

> <Gold.Id.Protein>
6NUR|6NUR_protein|mol2

> <Gold.PLP.Fitness>
51.4732

> <Gold.PLP.PLP>
-47.1499

> <Gold.PLP.part.hbond>
0.0000

> <Gold.PLP.part.metal>
0.0000

> <Gold.PLP.part.buried>
-5.8651

> <Gold.PLP.part.nonpolar>
-41.4997

> <Gold.PLP.part.repulsive>
0.0651

> <Gold.PLP.ligand.clash>
0.0000

> <Gold.PLP.ligand.torsion>
0.8670

> <Gold.PLP.Chemscore.Hbond>
0.0000

> <Gold.PLP.Chemscore.CHOScore>
2.0000

> <Gold.PLP.Chemscore.Metal>
0.0000

> <Gold.Chemscore.Hbonds>
donor molecule, donor type, donor heavy atom, donor atom, acceptor molecule, acceptor atom, score
      L1  C    14    38       P1  7957  1.00
      L1  C    15    39       P1  7949  1.00

> <Gold.PLP.Chemscore.Internal.Correction>
0.0573

> <Gold.Rescore>
     Score         DG    S(hbond)    S(metal)    S(lipo)     H(rot)  DE(clash)    DE(int)     intcor
     14.19     -17.00       0.00        0.00     137.41       1.78       1.32       1.49       ----

> <Gold.Chemscore.Fitness>
14.1926

> <Gold.Chemscore.DG>
-16.9975

> <Gold.Chemscore.ZeroCoef>
-5.4800

> <Gold.Chemscore.Hbond>
0.0000

> <Gold.Chemscore.Metal>
0.0000

> <Gold.Chemscore.Lipo>
137.4060

> <Gold.Chemscore.Internal_Hbond>
0.0000

> <Gold.Chemscore.DEClash>
1.3160

> <Gold.Chemscore.DEInternal>
1.4889

> <Gold.Chemscore.Rot>
1.7809

> <Gold.Chemscore.Internal.Correction>
   9.000000E+99

> <Gold.Chemscore.Hbond.Weighted>
-0.0000

> <Gold.Chemscore.Metal.Weighted>
-0.0000

> <Gold.Chemscore.Lipo.Weighted>
-16.0765

> <Gold.Chemscore.Internal_Hbond.Weighted>
0.0000

> <Gold.Chemscore.DEClash.Weighted>
1.3160

> <Gold.Chemscore.DEInternal.Weighted>
1.4889

> <Gold.Chemscore.Rot.Weighted>
4.5590

> <Gold.Chemscore.Internal.Correction.Weighted>
   9.000000E+99

> <Gold.Protein.RotatedTorsions>
[ 6907 6896 6895 6894 ] final -155.25 input  -60.11 | X-H torsion
[ 7974 7965 7964 7962 ] final   81.77 input  175.53 | X-H torsion
[ 8008 7997 7996 7995 ] final  177.22 input   59.86 | X-H torsion
[ 10167 10162 10161 10158 ] final   29.31 input  -65.29 | X-H torsion
[ 10718 10713 10712 10709 ] final  -40.78 input   66.30 | X-H torsion
[ 10763 10752 10751 10750 ] final -143.74 input  -60.55 | X-H torsion
[ 11005 11000 10999 10996 ] final  161.98 input  -57.11 | X-H torsion

> <Gold.Protein.ActiveResidues>
 VAL166  LYS551  ARG553  GLY616  TRP617  ASP618  TYR619  PRO620  LYS621  CYS622 
 ASP623  PHE694  ASN695  SER759  ASP760  ASP761  ALA762  ILE779  LEU786  VAL792 
 PHE793  MET794  SER795  GLU796  ALA797  LYS798  CYS799  TRP800  GLU811  SER814 

> <Gold.Protein.RotatedAtoms>
  151.2697  133.4261  159.2620 H   0  0  0  0  0  0  0  0  0  0  0  0  # atno 6907 bound_to 6896
  151.0457  134.9638  159.8195 H   0  0  0  0  0  0  0  0  0  0  0  0  # atno 6908 bound_to 6896
  152.5373  134.2653  159.9003 H   0  0  0  0  0  0  0  0  0  0  0  0  # atno 6909 bound_to 6896
  145.6338  139.2410  143.2069 H   0  0  0  0  0  0  0  0  0  0  0  0  # atno 7974 bound_to 7965
  156.0680  140.1364  156.9863 H   0  0  0  0  0  0  0  0  0  0  0  0  # atno 8008 bound_to 7997
  154.4516  140.0978  156.6687 H   0  0  0  0  0  0  0  0  0  0  0  0  # atno 8009 bound_to 7997
  155.5274  140.3458  155.4421 H   0  0  0  0  0  0  0  0  0  0  0  0  # atno 8010 bound_to 7997
  140.4777  144.0665  150.6255 H   0  0  0  0  0  0  0  0  0  0  0  0  # atno 10167 bound_to 10162
  156.2776  130.4213  149.8371 H   0  0  0  0  0  0  0  0  0  0  0  0  # atno 10718 bound_to 10713
  154.8457  135.3459  154.6235 H   0  0  0  0  0  0  0  0  0  0  0  0  # atno 10763 bound_to 10752
  153.6844  135.6978  153.5113 H   0  0  0  0  0  0  0  0  0  0  0  0  # atno 10764 bound_to 10752
  153.2643  135.4313  155.0881 H   0  0  0  0  0  0  0  0  0  0  0  0  # atno 10765 bound_to 10752
  140.2212  134.8195  157.3222 H   0  0  0  0  0  0  0  0  0  0  0  0  # atno 11005 bound_to 11000
  146.1335  140.7154  142.9401 LP  0  0  0  0  0  0  0  0  0  0  0  0  # atno 17320 bound_to 7965
  144.7183  140.4287  143.7027 LP  0  0  0  0  0  0  0  0  0  0  0  0  # atno 17321 bound_to 7965
  140.3898  143.2758  152.0073 LP  0  0  0  0  0  0  0  0  0  0  0  0  # atno 17342 bound_to 10162
  139.4828  144.6087  151.7474 LP  0  0  0  0  0  0  0  0  0  0  0  0  # atno 17343 bound_to 10162
  156.5830  130.8474  151.3388 LP  0  0  0  0  0  0  0  0  0  0  0  0  # atno 17370 bound_to 10713
  157.7304  130.9685  150.1831 LP  0  0  0  0  0  0  0  0  0  0  0  0  # atno 17371 bound_to 10713
  140.1848  134.4445  155.7750 LP  0  0  0  0  0  0  0  0  0  0  0  0  # atno 17394 bound_to 11000
  141.2223  133.7000  156.7929 LP  0  0  0  0  0  0  0  0  0  0  0  0  # atno 17395 bound_to 11000

$$$$
