#       Name:                AV-unprocessed.smi:3311
#       Creating user name   scv26
#       Creation time:       Fri Mar 27 19:06:46 2020


#       File generated by GOLD software.
#

@<TRIPOS>MOLECULE
AV-unprocessed.smi:3311
    47    48     1
SMALL
NO_CHARGES


@<TRIPOS>ATOM
      1 ****        -2.2677  -0.0167  -1.1942 C.3            1 S1                 0.0000
      2 ****        -1.6357  -0.1722   0.2076 C.3            1 S1                 0.0000
      3 ****        -0.1704  -0.2005   0.1240 N.3            1 S1                 0.0000
      4 ****         0.4654   1.0278  -0.3589 C.3            1 S1                 0.0000
      5 ****         2.0064   0.9725  -0.2559 C.3            1 S1                 0.0000
      6 ****         2.3317   0.9521   1.1229 O.3            1 S1                 0.0000
      7 ****         2.6048  -0.2742  -0.9568 C.3            1 S1                 0.0000
      8 ****         4.1438  -0.2656  -0.9892 C.3            1 S1                 0.0000
      9 ****         4.6849   1.0240  -1.6211 C.3            1 S1                 0.0000
     10 ****         4.1472   2.2600  -0.8874 C.3            1 S1                 0.0000
     11 ****         2.6081   2.2652  -0.8576 C.3            1 S1                 0.0000
     12 ****        -2.1358  -1.4344   0.9608 C.3            1 S1                 0.0000
     13 ****        -1.6422  -1.4874   2.4190 C.3            1 S1                 0.0000
     14 ****        -3.5892  -1.5503   0.9364 N.pl3          1 S1                 0.0000
     15 ****        -4.5324  -0.6912   1.4653 C.2            1 S1                 0.0000
     16 ****        -5.7628  -1.2185   1.1963 C.2            1 S1                 0.0000
     17 ****        -5.4682  -2.4193   0.4926 C.2            1 S1                 0.0000
     18 ****        -4.1687  -2.6157   0.3401 N.2            1 S1                 0.0000
     19 ****        -3.3556   0.0217  -1.1486 H              1 S1                 0.0000
     20 ****        -1.9948  -0.8492  -1.8435 H              1 S1                 0.0000
     21 ****        -1.9568   0.9053  -1.6838 H              1 S1                 0.0000
     22 ****        -1.9335   0.6963   0.7967 H              1 S1                 0.0000
     23 ****         0.2148  -0.4370   1.0332 H              1 S1                 0.0000
     24 ****         0.1931   1.2005  -1.3996 H              1 S1                 0.0000
     25 ****         0.0942   1.8852   0.2043 H              1 S1                 0.0000
     26 ****         3.2729   0.9386   1.2066 H              1 S1                 0.0000
     27 ****         2.2652  -1.1899  -0.4715 H              1 S1                 0.0000
     28 ****         2.2328  -0.3200  -1.9813 H              1 S1                 0.0000
     29 ****         4.5350  -0.3696   0.0235 H              1 S1                 0.0000
     30 ****         4.5055  -1.1299  -1.5468 H              1 S1                 0.0000
     31 ****         5.7752   1.0214  -1.5983 H              1 S1                 0.0000
     32 ****         4.3967   1.0671  -2.6722 H              1 S1                 0.0000
     33 ****         4.5388   2.2824   0.1302 H              1 S1                 0.0000
     34 ****         4.5103   3.1654  -1.3742 H              1 S1                 0.0000
     35 ****         2.2444   2.3875  -1.8789 H              1 S1                 0.0000
     36 ****         2.2553   3.1390  -0.3079 H              1 S1                 0.0000
     37 ****        -1.7326  -2.3099   0.4474 H              1 S1                 0.0000
     38 ****        -0.5541  -1.5246   2.4738 H              1 S1                 0.0000
     39 ****        -2.0204  -2.3752   2.9269 H              1 S1                 0.0000
     40 ****        -1.9722  -0.6152   2.9841 H              1 S1                 0.0000
     41 ****        -4.2515   0.2152   1.9813 H              1 S1                 0.0000
     42 ****        -6.7262  -0.8094   1.4619 H              1 S1                 0.0000
     43 ****        -6.1554  -3.1492   0.0908 H              1 S1                 0.0000
     44 ****         0.0346  -0.8938  -0.5669 LP             1 S1                 0.0000
     45 ****         1.9428   0.1356   1.5498 LP             1 S1                 0.0000
     46 ****         1.9645   1.7684   1.5688 LP             1 S1                 0.0000
     47 ****        -3.7159  -3.3823  -0.1152 LP             1 S1                 0.0000
@<TRIPOS>BOND
    1    1    2 1     
    2    1   19 1     
    3    1   20 1     
    4    1   21 1     
    5    2    3 1     
    6    2   12 1     
    7    2   22 1     
    8    3    4 1     
    9    3   23 1     
   10    4    5 1     
   11    4   24 1     
   12    4   25 1     
   13    5   11 1     
   14    5    6 1     
   15    5    7 1     
   16    6   26 1     
   17    7    8 1     
   18    7   27 1     
   19    7   28 1     
   20    8    9 1     
   21    8   29 1     
   22    8   30 1     
   23    9   10 1     
   24    9   31 1     
   25    9   32 1     
   26   10   11 1     
   27   10   33 1     
   28   10   34 1     
   29   11   35 1     
   30   11   36 1     
   31   12   13 1     
   32   12   14 1     
   33   12   37 1     
   34   13   38 1     
   35   13   39 1     
   36   13   40 1     
   37   14   18 1     
   38   14   15 1     
   39   15   16 2     
   40   15   41 1     
   41   16   17 1     
   42   16   42 1     
   43   17   18 2     
   44   17   43 1     
   45    3   44 1     
   46    6   45 1     
   47    6   46 1     
   48   18   47 1     
@<TRIPOS>SUBSTRUCTURE
      1 S1             1
@<TRIPOS>SET
LONE_PAIRS      STATIC     ATOMS    <user>   **** ""
4 44 45 46 47
DONOR_HYDROGENS      STATIC     ATOMS    <user>   **** ""
2 23 26
ATOM$BLUE        STATIC     ATOMS    COLORGROUP SYSTEM
4 44 45 46 47
ATOM$RED        STATIC     ATOMS    COLORGROUP SYSTEM
2 23 26
