AV-unprocessed.smi:373|AV-procd|sdf|2449|dock1
  -GOLD-   2262022383D 1   1.00000     0.00000
 Structure written by MMmdl.
 40 41  0  0  0  0  0  0  0  0  1 V2000
  149.2481  133.3936  153.8624 C   0  0  0  0  0  0  0  0  0  0  0  0
  149.7568  134.4349  154.8652 C   0  0  0  0  0  0  0  0  0  0  0  0
  148.6935  135.4802  155.2194 C   0  0  0  0  0  0  0  0  0  0  0  0
  149.2574  136.4124  156.1298 O   0  0  0  0  0  0  0  0  0  0  0  0
  149.8377  137.5552  155.5156 C   0  0  2  0  0  0  0  0  0  0  0  0
  151.0121  137.1527  154.6001 C   0  0  0  0  0  0  0  0  0  0  0  0
  151.7312  138.4047  154.0726 C   0  0  0  0  0  0  0  0  0  0  0  0
  152.1673  139.3197  155.2287 C   0  0  0  0  0  0  0  0  0  0  0  0
  151.0325  139.6430  156.0902 N   0  0  0  0  0  0  0  0  0  0  0  0
  151.3015  140.6935  156.9871 C   0  0  0  0  0  0  0  0  0  0  0  0
  150.8017  141.9180  156.6921 N   0  0  0  0  0  0  0  0  0  0  0  0
  151.0283  142.9371  157.5472 C   0  0  0  0  0  0  0  0  0  0  0  0
  151.7539  142.7983  158.7496 C   0  0  0  0  0  0  0  0  0  0  0  0
  151.9853  143.9819  159.6437 C   0  0  0  0  0  0  0  0  0  0  0  0
  152.4941  143.7191  160.8514 N   0  0  0  0  0  0  0  0  0  0  0  0
  151.6699  145.1176  159.2943 O   0  0  0  0  0  0  0  0  0  0  0  0
  152.2875  141.5251  159.0486 C   0  0  0  0  0  0  0  0  0  0  0  0
  152.0578  140.4552  158.1616 C   0  0  0  0  0  0  0  0  0  0  0  0
  152.7274  138.9005  158.5185 Cl  0  0  0  0  0  0  0  0  0  0  0  0
  150.3345  138.4811  156.6399 C   0  0  0  0  0  0  0  0  0  0  0  0
  150.0282  132.6700  153.6248 H   0  0  0  0  0  0  0  0  0  0  0  0
  148.9351  133.8642  152.9301 H   0  0  0  0  0  0  0  0  0  0  0  0
  148.3961  132.8445  154.2642 H   0  0  0  0  0  0  0  0  0  0  0  0
  150.0874  133.9297  155.7734 H   0  0  0  0  0  0  0  0  0  0  0  0
  150.6338  134.9349  154.4533 H   0  0  0  0  0  0  0  0  0  0  0  0
  148.3520  135.9816  154.3135 H   0  0  0  0  0  0  0  0  0  0  0  0
  147.8292  134.9934  155.6738 H   0  0  0  0  0  0  0  0  0  0  0  0
  149.0843  138.0941  154.9375 H   0  0  0  0  0  0  0  0  0  0  0  0
  151.7171  136.5348  155.1577 H   0  0  0  0  0  0  0  0  0  0  0  0
  150.6651  136.5508  153.7606 H   0  0  0  0  0  0  0  0  0  0  0  0
  152.5984  138.1169  153.4780 H   0  0  0  0  0  0  0  0  0  0  0  0
  151.0654  138.9537  153.4055 H   0  0  0  0  0  0  0  0  0  0  0  0
  152.9340  138.8245  155.8263 H   0  0  0  0  0  0  0  0  0  0  0  0
  152.6191  140.2278  154.8286 H   0  0  0  0  0  0  0  0  0  0  0  0
  150.6084  143.8900  157.2590 H   0  0  0  0  0  0  0  0  0  0  0  0
  152.6791  144.4717  161.4982 H   0  0  0  0  0  0  0  0  0  0  0  0
  152.6980  142.7645  161.1103 H   0  0  0  0  0  0  0  0  0  0  0  0
  152.8731  141.3618  159.9418 H   0  0  0  0  0  0  0  0  0  0  0  0
  149.4899  138.8123  157.2459 H   0  0  0  0  0  0  0  0  0  0  0  0
  151.0080  137.9316  157.2995 H   0  0  0  0  0  0  0  0  0  0  0  0
  1  2  1  0  0  0  0
  1 21  1  0  0  0  0
  1 22  1  0  0  0  0
  1 23  1  0  0  0  0
  2  3  1  0  0  0  0
  2 24  1  0  0  0  0
  2 25  1  0  0  0  0
  3  4  1  0  0  0  0
  3 26  1  0  0  0  0
  3 27  1  0  0  0  0
  4  5  1  0  0  0  0
  5 20  1  0  0  0  0
  5  6  1  0  0  0  0
  5 28  1  0  0  0  0
  6  7  1  0  0  0  0
  6 29  1  0  0  0  0
  6 30  1  0  0  0  0
  7  8  1  0  0  0  0
  7 31  1  0  0  0  0
  7 32  1  0  0  0  0
  8  9  1  0  0  0  0
  8 33  1  0  0  0  0
  8 34  1  0  0  0  0
  9 10  1  0  0  0  0
  9 20  1  0  0  0  0
 10 18  1  0  0  0  0
 10 11  2  0  0  0  0
 11 12  1  0  0  0  0
 12 13  2  0  0  0  0
 12 35  1  0  0  0  0
 13 14  1  0  0  0  0
 13 17  1  0  0  0  0
 14 15  1  0  0  0  0
 14 16  2  0  0  0  0
 15 36  1  0  0  0  0
 15 37  1  0  0  0  0
 17 18  2  0  0  0  0
 17 38  1  0  0  0  0
 18 19  1  0  0  0  0
 20 39  1  0  0  0  0
 20 40  1  0  0  0  0
M  END
> <s_m_source_file>
AV-unprocessed.smi

> <i_m_source_file_index>
373

> <i_lp_mmshare_version>
43012

> <i_f3d_flags>
0

> <s_epik_input>
W0NIM11bQ0gyXVtDSDJdT1tDQEBIXTFbQ0gyXVtDSDJdW0NIMl1OKFtDSDJdMSljMm5bY0hdYyhDKD1PKVtOSDJdKVtjSF1jMkNs

> <s_epik_cmdline>
J2VwaWtfcHl0aG9uJywgJy1waCcsICc3LjAnLCAnLXRuJywgJzgnLCAnLW1hJywgJzIwMCcsICctbWV0YWxfYmluZGluZycsICctaW1hZScsICc8aW5maWxlLm1hZT4nLCAnLW9tYWUnLCAnPG91dGZpbGUubWFlPic=

> <r_lp_tautomer_probability>
1

> <r_epik_Ionization_Penalty>
3.23666e-05

> <r_epik_Ionization_Penalty_Charging>
0

> <r_epik_Ionization_Penalty_Neutral>
3.23666e-05

> <r_epik_State_Penalty>
-0

> <r_epik_Charging_Adjusted_Penalty>
0

> <i_epik_Tot_Q>
0

> <i_epik_Tot_abs_Q>
0

> <r_epik_Metal_State_Penalty>
-0

> <b_epik_Metal_Only>
0

> <s_lp_Force_Field>
OPLS_2005

> <r_lp_Energy>
19.8682

> <b_lp_Chiralities_Consistent>
1

> <s_lp_Variant>
AV-unprocessed.smi:373-1

> <Gold.Version>
5.8.1

> <Gold.Id.Protein>
6NUR|6NUR_protein|mol2

> <Gold.PLP.Fitness>
35.4443

> <Gold.PLP.PLP>
-33.1754

> <Gold.PLP.part.hbond>
0.0000

> <Gold.PLP.part.metal>
0.0000

> <Gold.PLP.part.buried>
-6.9580

> <Gold.PLP.part.nonpolar>
-27.2991

> <Gold.PLP.part.repulsive>
0.2545

> <Gold.PLP.ligand.clash>
0.0000

> <Gold.PLP.ligand.torsion>
0.5069

> <Gold.PLP.Chemscore.Hbond>
0.0000

> <Gold.PLP.Chemscore.CHOScore>
1.0000

> <Gold.PLP.Chemscore.Metal>
0.0000

> <Gold.Chemscore.Hbonds>
donor molecule, donor type, donor heavy atom, donor atom, acceptor molecule, acceptor atom, score
      L1  C    12    35       P1  8028  1.00

> <Gold.PLP.Chemscore.Internal.Correction>
0.2826

> <Gold.Rescore>
     Score         DG    S(hbond)    S(metal)    S(lipo)     H(rot)  DE(clash)    DE(int)     intcor
     10.52     -11.05       0.00        0.00      81.96       1.57       0.07       0.46       ----

> <Gold.Chemscore.Fitness>
10.5205

> <Gold.Chemscore.DG>
-11.0539

> <Gold.Chemscore.ZeroCoef>
-5.4800

> <Gold.Chemscore.Hbond>
0.0000

> <Gold.Chemscore.Metal>
0.0000

> <Gold.Chemscore.Lipo>
81.9632

> <Gold.Chemscore.Internal_Hbond>
0.0000

> <Gold.Chemscore.DEClash>
0.0727

> <Gold.Chemscore.DEInternal>
0.4607

> <Gold.Chemscore.Rot>
1.5687

> <Gold.Chemscore.Internal.Correction>
   9.000000E+99

> <Gold.Chemscore.Hbond.Weighted>
-0.0000

> <Gold.Chemscore.Metal.Weighted>
-0.0000

> <Gold.Chemscore.Lipo.Weighted>
-9.5897

> <Gold.Chemscore.Internal_Hbond.Weighted>
0.0000

> <Gold.Chemscore.DEClash.Weighted>
0.0727

> <Gold.Chemscore.DEInternal.Weighted>
0.4607

> <Gold.Chemscore.Rot.Weighted>
4.0158

> <Gold.Chemscore.Internal.Correction.Weighted>
   9.000000E+99

> <Gold.Protein.RotatedTorsions>
[ 6907 6896 6895 6894 ] final   93.44 input  -60.11 | X-H torsion
[ 7974 7965 7964 7962 ] final -177.94 input  175.53 | X-H torsion
[ 8008 7997 7996 7995 ] final  -43.93 input   59.86 | X-H torsion
[ 10167 10162 10161 10158 ] final  102.18 input  -65.29 | X-H torsion
[ 10718 10713 10712 10709 ] final  -74.15 input   66.30 | X-H torsion
[ 10763 10752 10751 10750 ] final -164.97 input  -60.55 | X-H torsion
[ 11005 11000 10999 10996 ] final  -46.46 input  -57.11 | X-H torsion

> <Gold.Protein.ActiveResidues>
 VAL166  LYS551  ARG553  GLY616  TRP617  ASP618  TYR619  PRO620  LYS621  CYS622 
 ASP623  PHE694  ASN695  SER759  ASP760  ASP761  ALA762  ILE779  LEU786  VAL792 
 PHE793  MET794  SER795  GLU796  ALA797  LYS798  CYS799  TRP800  GLU811  SER814 

> <Gold.Protein.RotatedAtoms>
  152.5452  134.1348  159.8453 H   0  0  0  0  0  0  0  0  0  0  0  0  # atno 6907 bound_to 6896
  151.1390  133.4977  159.2605 H   0  0  0  0  0  0  0  0  0  0  0  0  # atno 6908 bound_to 6896
  151.1593  135.0276  159.8758 H   0  0  0  0  0  0  0  0  0  0  0  0  # atno 6909 bound_to 6896
  144.7129  140.0944  143.6419 H   0  0  0  0  0  0  0  0  0  0  0  0  # atno 7974 bound_to 7965
  154.3997  140.1435  156.3600 H   0  0  0  0  0  0  0  0  0  0  0  0  # atno 8008 bound_to 7997
  155.8190  140.3470  155.5482 H   0  0  0  0  0  0  0  0  0  0  0  0  # atno 8009 bound_to 7997
  155.8308  140.0912  157.1784 H   0  0  0  0  0  0  0  0  0  0  0  0  # atno 8010 bound_to 7997
  139.7372  144.7021  151.0630 H   0  0  0  0  0  0  0  0  0  0  0  0  # atno 10167 bound_to 10162
  156.0253  130.4410  150.2849 H   0  0  0  0  0  0  0  0  0  0  0  0  # atno 10718 bound_to 10713
  154.6977  135.2982  154.9387 H   0  0  0  0  0  0  0  0  0  0  0  0  # atno 10763 bound_to 10752
  154.0329  135.6667  153.4786 H   0  0  0  0  0  0  0  0  0  0  0  0  # atno 10764 bound_to 10752
  153.0658  135.5089  154.8104 H   0  0  0  0  0  0  0  0  0  0  0  0  # atno 10765 bound_to 10752
  141.0580  133.6719  156.3158 H   0  0  0  0  0  0  0  0  0  0  0  0  # atno 11005 bound_to 11000
  145.9592  139.2788  143.1165 LP  0  0  0  0  0  0  0  0  0  0  0  0  # atno 17320 bound_to 7965
  145.9239  140.9096  143.0391 LP  0  0  0  0  0  0  0  0  0  0  0  0  # atno 17321 bound_to 7965
  140.7780  143.4969  150.9821 LP  0  0  0  0  0  0  0  0  0  0  0  0  # atno 17342 bound_to 10162
  139.8657  143.7257  152.3170 LP  0  0  0  0  0  0  0  0  0  0  0  0  # atno 17343 bound_to 10162
  157.0952  131.0180  151.3106 LP  0  0  0  0  0  0  0  0  0  0  0  0  # atno 17370 bound_to 10713
  157.4823  130.7772  149.7426 LP  0  0  0  0  0  0  0  0  0  0  0  0  # atno 17371 bound_to 10713
  140.5925  134.5636  157.5502 LP  0  0  0  0  0  0  0  0  0  0  0  0  # atno 17394 bound_to 11000
  139.9407  134.7792  156.0685 LP  0  0  0  0  0  0  0  0  0  0  0  0  # atno 17395 bound_to 11000

$$$$
