#       Name:                AV-unprocessed.smi:103
#       Creating user name   scv26
#       Creation time:       Thu Mar 26 17:54:30 2020


#       File generated by GOLD software.
#

@<TRIPOS>MOLECULE
AV-unprocessed.smi:103
    64    66     1
SMALL
NO_CHARGES


@<TRIPOS>ATOM
      1 ****        -2.4599   2.8006  -4.3189 C.3            1 S1                 0.0000
      2 ****        -2.3898   1.5686  -3.4265 C.2            1 S1                 0.0000
      3 ****        -2.0309   0.4779  -3.8704 O.2            1 S1                 0.0000
      4 ****        -2.7468   1.8332  -2.1576 O.3            1 S1                 0.0000
      5 ****        -2.7032   0.8170  -1.1659 C.3            1 S1                 0.0000
      6 ****        -1.6969   1.1944  -0.0672 C.3            1 S1                 0.0000
      7 ****        -0.3624   1.0680  -0.5469 O.3            1 S1                 0.0000
      8 ****         0.1289  -0.1793  -0.1998 C.3            1 S1                 0.0000
      9 ****         1.6349  -0.1600  -0.3336 N.pl3          1 S1                 0.0000
     10 ****         2.3955   0.1684  -1.4475 C.2            1 S1                 0.0000
     11 ****         1.8145   0.6744  -3.0700 S.o2           1 S1                 0.0000
     12 ****         1.0154  -0.8533  -3.7113 C.3            1 S1                 0.0000
     13 ****         0.8011   1.7204  -2.8747 O.2            1 S1                 0.0000
     14 ****         3.0105   0.9507  -3.8820 O.2            1 S1                 0.0000
     15 ****         3.6894   0.0509  -1.3345 N.2            1 S1                 0.0000
     16 ****         3.8584  -0.3969  -0.0378 C.ar           1 S1                 0.0000
     17 ****         4.9978  -0.7321   0.7367 C.ar           1 S1                 0.0000
     18 ****         6.2507  -0.6433   0.2695 N.pl3          1 S1                 0.0000
     19 ****         4.8156  -1.1664   2.0039 N.ar           1 S1                 0.0000
     20 ****         3.5759  -1.2701   2.4876 C.ar           1 S1                 0.0000
     21 ****         2.4204  -0.9929   1.8803 N.ar           1 S1                 0.0000
     22 ****         2.5921  -0.5444   0.6006 C.ar           1 S1                 0.0000
     23 ****        -0.4103  -0.4163   1.2113 C.3            1 S1                 0.0000
     24 ****        -0.5182  -1.8111   1.4684 O.3            1 S1                 0.0000
     25 ****        -0.6352  -2.2589   2.7306 C.2            1 S1                 0.0000
     26 ****        -0.7209  -3.7774   2.8013 C.3            1 S1                 0.0000
     27 ****        -0.6698  -1.5644   3.7463 O.2            1 S1                 0.0000
     28 ****        -1.7849   0.2373   1.1341 C.3            1 S1                 0.0000
     29 ****        -2.0385   0.9385   2.3447 O.3            1 S1                 0.0000
     30 ****        -3.3006   1.1748   2.7388 C.2            1 S1                 0.0000
     31 ****        -3.3631   1.9181   4.0661 C.3            1 S1                 0.0000
     32 ****        -4.3219   0.8517   2.1321 O.2            1 S1                 0.0000
     33 ****        -1.5009   3.3190  -4.3168 H              1 S1                 0.0000
     34 ****        -3.2279   3.4897  -3.9667 H              1 S1                 0.0000
     35 ****        -2.6969   2.5151  -5.3438 H              1 S1                 0.0000
     36 ****        -3.7011   0.7465  -0.7324 H              1 S1                 0.0000
     37 ****        -2.4747  -0.1687  -1.5735 H              1 S1                 0.0000
     38 ****        -1.8612   2.2281   0.2406 H              1 S1                 0.0000
     39 ****        -0.2092  -0.9346  -0.9085 H              1 S1                 0.0000
     40 ****         0.6787  -0.6790  -4.7328 H              1 S1                 0.0000
     41 ****         0.1574  -1.1159  -3.0968 H              1 S1                 0.0000
     42 ****         1.7357  -1.6707  -3.7024 H              1 S1                 0.0000
     43 ****         6.4139  -0.3252  -0.6752 H              1 S1                 0.0000
     44 ****         7.0289  -0.8905   0.8634 H              1 S1                 0.0000
     45 ****         3.4970  -1.6245   3.5047 H              1 S1                 0.0000
     46 ****         0.2128   0.1186   1.9284 H              1 S1                 0.0000
     47 ****         0.2315  -4.2221   2.5127 H              1 S1                 0.0000
     48 ****        -1.4954  -4.1461   2.1286 H              1 S1                 0.0000
     49 ****        -0.9610  -4.1005   3.8143 H              1 S1                 0.0000
     50 ****        -2.5433  -0.5275   0.9555 H              1 S1                 0.0000
     51 ****        -2.9965   1.2820   4.8721 H              1 S1                 0.0000
     52 ****        -4.3883   2.2102   4.2941 H              1 S1                 0.0000
     53 ****        -2.7485   2.8176   4.0271 H              1 S1                 0.0000
     54 ****        -1.7785   0.3888  -4.8339 LP             1 S1                 0.0000
     55 ****        -1.9917  -0.3189  -3.2675 LP             1 S1                 0.0000
     56 ****         0.2093   1.7788  -0.1370 LP             1 S1                 0.0000
     57 ****        -0.3538   1.1660  -1.5421 LP             1 S1                 0.0000
     58 ****         4.3912   0.2396  -2.0215 LP             1 S1                 0.0000
     59 ****         5.6017  -1.4075   2.5731 LP             1 S1                 0.0000
     60 ****         1.5261  -1.1015   2.3143 LP             1 S1                 0.0000
     61 ****        -0.6083  -0.5689   3.6737 LP             1 S1                 0.0000
     62 ****        -0.7594  -1.9956   4.6441 LP             1 S1                 0.0000
     63 ****        -4.2532   0.3664   1.2604 LP             1 S1                 0.0000
     64 ****        -5.2201   1.0745   2.5109 LP             1 S1                 0.0000
@<TRIPOS>BOND
    1    1    2 1     
    2    1   33 1     
    3    1   34 1     
    4    1   35 1     
    5    2    3 2     
    6    2    4 1     
    7    4    5 1     
    8    5    6 1     
    9    5   36 1     
   10    5   37 1     
   11    6   28 1     
   12    6    7 1     
   13    6   38 1     
   14    7    8 1     
   15    8    9 1     
   16    8   23 1     
   17    8   39 1     
   18    9   22 1     
   19    9   10 1     
   20   10   11 1     
   21   10   15 2     
   22   11   12 1     
   23   11   13 2     
   24   11   14 2     
   25   12   40 1     
   26   12   41 1     
   27   12   42 1     
   28   15   16 1     
   29   16   22 ar    
   30   16   17 ar    
   31   17   18 1     
   32   17   19 ar    
   33   18   43 1     
   34   18   44 1     
   35   19   20 ar    
   36   20   21 ar    
   37   20   45 1     
   38   21   22 ar    
   39   23   24 1     
   40   23   28 1     
   41   23   46 1     
   42   24   25 1     
   43   25   26 1     
   44   25   27 2     
   45   26   47 1     
   46   26   48 1     
   47   26   49 1     
   48   28   29 1     
   49   28   50 1     
   50   29   30 1     
   51   30   31 1     
   52   30   32 2     
   53   31   51 1     
   54   31   52 1     
   55   31   53 1     
   56    3   54 1     
   57    3   55 1     
   58    7   56 1     
   59    7   57 1     
   60   15   58 1     
   61   19   59 1     
   62   21   60 1     
   63   27   61 1     
   64   27   62 1     
   65   32   63 1     
   66   32   64 1     
@<TRIPOS>SUBSTRUCTURE
      1 S1             1
@<TRIPOS>SET
LONE_PAIRS      STATIC     ATOMS    <user>   **** ""
13 54 55 56 57 13 14 58 59 60 61 62 63 64
DONOR_HYDROGENS      STATIC     ATOMS    <user>   **** ""
2 43 44
ATOM$BLUE        STATIC     ATOMS    COLORGROUP SYSTEM
13 54 55 56 57 13 14 58 59 60 61 62 63 64
ATOM$RED        STATIC     ATOMS    COLORGROUP SYSTEM
2 43 44
