#       Name:                AV-unprocessed.smi:232
#       Creating user name   scv26
#       Creation time:       Thu Mar 26 20:31:27 2020


#       File generated by GOLD software.
#

@<TRIPOS>MOLECULE
AV-unprocessed.smi:232
    60    63     1
SMALL
NO_CHARGES


@<TRIPOS>ATOM
      1 ****        -3.9414  -2.3875   3.9589 C.3            1 S1                 0.0000
      2 ****        -3.3180  -1.7565   2.7080 C.3            1 S1                 0.0000
      3 ****        -3.4920  -0.2248   2.6503 C.3            1 S1                 0.0000
      4 ****        -4.9529   0.2347   2.5439 C.3            1 S1                 0.0000
      5 ****        -4.8971   1.5306   1.7256 C.3            1 S1                 0.0000
      6 ****        -3.4132   1.7119   1.3813 C.3            1 S1                 0.0000
      7 ****        -3.1789   2.3619   0.0070 C.3            1 S1                 0.0000
      8 ****        -2.8406   0.3762   1.4916 N.3            1 S1                 0.0000
      9 ****        -1.4876   0.3339   1.4754 C.ar           1 S1                 0.0000
     10 ****        -0.7670   0.8088   2.5263 N.ar           1 S1                 0.0000
     11 ****         0.5686   0.7589   2.4958 C.ar           1 S1                 0.0000
     12 ****         1.3655   0.2854   1.5347 N.ar           1 S1                 0.0000
     13 ****         0.6413  -0.1873   0.4795 C.ar           1 S1                 0.0000
     14 ****        -0.7766  -0.1981   0.3689 C.ar           1 S1                 0.0000
     15 ****        -1.1588  -0.7513  -0.8464 N.2            1 S1                 0.0000
     16 ****        -0.0275  -1.0522  -1.4242 C.2            1 S1                 0.0000
     17 ****         1.1019  -0.7505  -0.6972 N.pl3          1 S1                 0.0000
     18 ****         2.4778  -0.9816  -1.0994 C.3            1 S1                 0.0000
     19 ****         3.0128   0.1220  -2.0329 C.3            1 S1                 0.0000
     20 ****         2.9509   1.3681  -1.3653 O.3            1 S1                 0.0000
     21 ****         4.4664  -0.1382  -2.4704 C.3            1 S1                 0.0000
     22 ****         5.0318   0.9048  -3.4365 C.3            1 S1                 0.0000
     23 ****         6.1245   0.1219  -4.1266 C.3            1 S1                 0.0000
     24 ****         5.4768  -1.2512  -4.2705 C.3            1 S1                 0.0000
     25 ****         4.5602  -1.3695  -3.1850 O.3            1 S1                 0.0000
     26 ****        -3.7688  -3.4639   3.9747 H              1 S1                 0.0000
     27 ****        -5.0189  -2.2261   3.9935 H              1 S1                 0.0000
     28 ****        -3.5089  -1.9675   4.8675 H              1 S1                 0.0000
     29 ****        -2.2566  -2.0067   2.6941 H              1 S1                 0.0000
     30 ****        -3.7483  -2.2120   1.8151 H              1 S1                 0.0000
     31 ****        -3.0661   0.2136   3.5546 H              1 S1                 0.0000
     32 ****        -5.5554  -0.5038   2.0131 H              1 S1                 0.0000
     33 ****        -5.4015   0.3831   3.5266 H              1 S1                 0.0000
     34 ****        -5.4999   1.4186   0.8233 H              1 S1                 0.0000
     35 ****        -5.2852   2.3864   2.2788 H              1 S1                 0.0000
     36 ****        -2.9609   2.3435   2.1481 H              1 S1                 0.0000
     37 ****        -3.6612   3.3379  -0.0481 H              1 S1                 0.0000
     38 ****        -3.5813   1.7448  -0.7971 H              1 S1                 0.0000
     39 ****        -2.1166   2.5113  -0.1879 H              1 S1                 0.0000
     40 ****         1.0709   1.1548   3.3661 H              1 S1                 0.0000
     41 ****         0.0157  -1.5058  -2.4037 H              1 S1                 0.0000
     42 ****         3.0972  -1.0614  -0.2051 H              1 S1                 0.0000
     43 ****         2.5243  -1.9518  -1.5953 H              1 S1                 0.0000
     44 ****         2.3774   0.1839  -2.9174 H              1 S1                 0.0000
     45 ****         3.4653   1.3105  -0.5745 H              1 S1                 0.0000
     46 ****         5.1189  -0.2104  -1.5982 H              1 S1                 0.0000
     47 ****         4.2762   1.2088  -4.1626 H              1 S1                 0.0000
     48 ****         5.4004   1.7981  -2.9315 H              1 S1                 0.0000
     49 ****         6.4278   0.5537  -5.0805 H              1 S1                 0.0000
     50 ****         7.0030   0.0589  -3.4829 H              1 S1                 0.0000
     51 ****         4.9152  -1.3121  -5.2032 H              1 S1                 0.0000
     52 ****         6.2098  -2.0581  -4.2628 H              1 S1                 0.0000
     53 ****        -3.0255  -0.1706   0.6751 LP             1 S1                 0.0000
     54 ****        -1.2355   1.1949   3.3210 LP             1 S1                 0.0000
     55 ****         2.3644   0.2782   1.5823 LP             1 S1                 0.0000
     56 ****        -2.0853  -0.8874  -1.1972 LP             1 S1                 0.0000
     57 ****         2.0012   1.5808  -1.1352 LP             1 S1                 0.0000
     58 ****         3.3195   2.0859  -1.9559 LP             1 S1                 0.0000
     59 ****         3.6580  -1.6120  -3.5416 LP             1 S1                 0.0000
     60 ****         4.8770  -2.0865  -2.5640 LP             1 S1                 0.0000
@<TRIPOS>BOND
    1    1    2 1     
    2    1   26 1     
    3    1   27 1     
    4    1   28 1     
    5    2    3 1     
    6    2   29 1     
    7    2   30 1     
    8    3    8 1     
    9    3    4 1     
   10    3   31 1     
   11    4    5 1     
   12    4   32 1     
   13    4   33 1     
   14    5    6 1     
   15    5   34 1     
   16    5   35 1     
   17    6    7 1     
   18    6    8 1     
   19    6   36 1     
   20    7   37 1     
   21    7   38 1     
   22    7   39 1     
   23    8    9 1     
   24    9   14 ar    
   25    9   10 ar    
   26   10   11 ar    
   27   11   12 ar    
   28   11   40 1     
   29   12   13 ar    
   30   13   17 1     
   31   13   14 ar    
   32   14   15 1     
   33   15   16 2     
   34   16   17 1     
   35   16   41 1     
   36   17   18 1     
   37   18   19 1     
   38   18   42 1     
   39   18   43 1     
   40   19   20 1     
   41   19   21 1     
   42   19   44 1     
   43   20   45 1     
   44   21   25 1     
   45   21   22 1     
   46   21   46 1     
   47   22   23 1     
   48   22   47 1     
   49   22   48 1     
   50   23   24 1     
   51   23   49 1     
   52   23   50 1     
   53   24   25 1     
   54   24   51 1     
   55   24   52 1     
   56    8   53 1     
   57   10   54 1     
   58   12   55 1     
   59   15   56 1     
   60   20   57 1     
   61   20   58 1     
   62   25   59 1     
   63   25   60 1     
@<TRIPOS>SUBSTRUCTURE
      1 S1             1
@<TRIPOS>SET
LONE_PAIRS      STATIC     ATOMS    <user>   **** ""
8 53 54 55 56 57 58 59 60
DONOR_HYDROGENS      STATIC     ATOMS    <user>   **** ""
1 45
ATOM$BLUE        STATIC     ATOMS    COLORGROUP SYSTEM
8 53 54 55 56 57 58 59 60
ATOM$RED        STATIC     ATOMS    COLORGROUP SYSTEM
1 45
