#       Name:                AV-unprocessed.smi:3025
#       Creating user name   scv26
#       Creation time:       Fri Mar 27 16:45:05 2020


#       File generated by GOLD software.
#

@<TRIPOS>MOLECULE
AV-unprocessed.smi:3025
    44    45     1
SMALL
NO_CHARGES


@<TRIPOS>ATOM
      1 ****        -1.2055  -5.3519  -1.5539 C.3            1 S1                 0.0000
      2 ****        -1.5968  -3.8761  -1.4203 C.3            1 S1                 0.0000
      3 ****        -1.0657  -3.2429  -0.1232 C.3            1 S1                 0.0000
      4 ****        -1.5242  -1.7874   0.1044 C.3            1 S1                 0.0000
      5 ****        -0.9232  -0.8070  -0.9258 C.3            1 S1                 0.0000
      6 ****        -1.3710   0.6415  -0.6650 C.3            1 S1                 0.0000
      7 ****        -1.0371   1.1105   0.7670 C.3            1 S1                 0.0000
      8 ****         0.4191   1.2792   0.9822 N.4            1 S1                 1.0000
      9 ****         1.0247   2.4609   0.3357 C.3            1 S1                 0.0000
     10 ****         2.5075   2.5827   0.7016 C.3            1 S1                 0.0000
     11 ****         3.1458   3.7836   0.0430 C.2            1 S1                 0.0000
     12 ****         3.7124   3.7978  -1.1800 N.pl3          1 S1                -1.0000
     13 ****         4.1348   5.0132  -1.4684 N.2            1 S1                 0.0000
     14 ****         3.8009   5.7397  -0.3953 C.2            1 S1                 0.0000
     15 ****         3.1851   5.0144   0.5449 N.2            1 S1                 0.0000
     16 ****        -1.6201   0.1251   1.7969 C.3            1 S1                 0.0000
     17 ****        -1.1776  -1.3253   1.5341 C.3            1 S1                 0.0000
     18 ****        -1.5907  -5.7730  -2.4827 H              1 S1                 0.0000
     19 ****        -1.6069  -5.9426  -0.7300 H              1 S1                 0.0000
     20 ****        -0.1220  -5.4736  -1.5580 H              1 S1                 0.0000
     21 ****        -1.2177  -3.3354  -2.2869 H              1 S1                 0.0000
     22 ****        -2.6836  -3.7910  -1.4524 H              1 S1                 0.0000
     23 ****        -1.4050  -3.8525   0.7155 H              1 S1                 0.0000
     24 ****         0.0239  -3.2931  -0.1089 H              1 S1                 0.0000
     25 ****        -2.6106  -1.7600   0.0050 H              1 S1                 0.0000
     26 ****         0.1657  -0.8654  -0.9032 H              1 S1                 0.0000
     27 ****        -1.2229  -1.0861  -1.9355 H              1 S1                 0.0000
     28 ****        -0.9373   1.3072  -1.4105 H              1 S1                 0.0000
     29 ****        -2.4501   0.7038  -0.8117 H              1 S1                 0.0000
     30 ****        -1.5047   2.0815   0.9368 H              1 S1                 0.0000
     31 ****         0.5725   1.3739   1.9759 H              1 S1                 0.0000
     32 ****         0.9240   2.3858  -0.7468 H              1 S1                 0.0000
     33 ****         0.4922   3.3596   0.6497 H              1 S1                 0.0000
     34 ****         2.6272   2.6702   1.7822 H              1 S1                 0.0000
     35 ****         3.0488   1.6872   0.3941 H              1 S1                 0.0000
     36 ****         4.0024   6.7996  -0.3016 H              1 S1                 0.0000
     37 ****        -1.3402   0.4245   2.8077 H              1 S1                 0.0000
     38 ****        -2.7093   0.1737   1.7595 H              1 S1                 0.0000
     39 ****        -1.6552  -1.9820   2.2621 H              1 S1                 0.0000
     40 ****        -0.1036  -1.4175   1.7008 H              1 S1                 0.0000
     41 ****         0.8949   0.4475   0.6629 H              1 S1                 0.0000
     42 ****         3.7996   3.0030  -1.7807 LP             1 S1                 0.0000
     43 ****         4.5985   5.3215  -2.2990 LP             1 S1                 0.0000
     44 ****         2.8333   5.3274   1.4270 LP             1 S1                 0.0000
@<TRIPOS>BOND
    1    1    2 1     
    2    1   18 1     
    3    1   19 1     
    4    1   20 1     
    5    2    3 1     
    6    2   21 1     
    7    2   22 1     
    8    3    4 1     
    9    3   23 1     
   10    3   24 1     
   11    4   17 1     
   12    4    5 1     
   13    4   25 1     
   14    5    6 1     
   15    5   26 1     
   16    5   27 1     
   17    6    7 1     
   18    6   28 1     
   19    6   29 1     
   20    7    8 1     
   21    7   16 1     
   22    7   30 1     
   23    8    9 1     
   24    8   31 1     
   25    8   41 1     
   26    9   10 1     
   27    9   32 1     
   28    9   33 1     
   29   10   34 1     
   30   10   35 1     
   31   10   11 1     
   32   11   15 2     
   33   11   12 1     
   34   12   13 1     
   35   13   14 2     
   36   14   15 1     
   37   14   36 1     
   38   16   17 1     
   39   16   37 1     
   40   16   38 1     
   41   17   39 1     
   42   17   40 1     
   43   12   42 1     
   44   13   43 1     
   45   15   44 1     
@<TRIPOS>SUBSTRUCTURE
      1 S1             1
@<TRIPOS>SET
LONE_PAIRS      STATIC     ATOMS    <user>   **** ""
3 42 43 44
DONOR_HYDROGENS      STATIC     ATOMS    <user>   **** ""
2 31 41
ATOM$BLUE        STATIC     ATOMS    COLORGROUP SYSTEM
3 42 43 44
ATOM$RED        STATIC     ATOMS    COLORGROUP SYSTEM
2 31 41
