AV-unprocessed.smi:2768|AV-procd|sdf|10651|dock2
  -GOLD-   2272015103D 1   1.00000     0.00000
 Structure written by MMmdl.
 35 36  0  0  0  0  0  0  0  0  1 V2000
  152.8867  139.6384  155.3404 O   0  0  0  0  0  0  0  0  0  0  0  0
  151.7495  139.5674  155.8077 C   0  0  0  0  0  0  0  0  0  0  0  0
  151.3626  140.2380  156.9057 N   0  0  0  0  0  0  0  0  0  0  0  0
  152.2134  141.0947  157.7287 C   0  0  1  0  0  0  0  0  0  0  0  0
  151.3681  142.3093  158.1669 C   0  0  0  0  0  0  0  0  0  0  0  0
  152.0981  143.1947  159.1866 C   0  0  0  0  0  0  0  0  0  0  0  0
  152.5260  142.3769  160.4111 C   0  0  0  0  0  0  0  0  0  0  0  0
  153.4212  141.2052  159.9887 C   0  0  0  0  0  0  0  0  0  0  0  0
  152.7313  140.2973  158.9522 C   0  0  2  0  0  0  0  0  0  0  0  0
  153.6889  139.3446  158.5347 O   0  0  0  0  0  0  0  0  0  0  0  0
  150.6959  138.6609  155.1542 C   0  0  0  0  0  0  0  0  0  0  0  0
  151.2798  137.9733  154.1701 F   0  0  0  0  0  0  0  0  0  0  0  0
  150.2448  137.7850  156.0551 F   0  0  0  0  0  0  0  0  0  0  0  0
  149.5349  139.4981  154.6213 C   0  0  0  0  0  0  0  0  0  0  0  0
  148.3686  138.8876  154.1049 C   0  0  0  0  0  0  0  0  0  0  0  0
  147.3384  139.7100  153.6095 C   0  0  0  0  0  0  0  0  0  0  0  0
  147.5080  141.1068  153.6451 C   0  0  0  0  0  0  0  0  0  0  0  0
  148.7060  141.6219  154.1772 C   0  0  0  0  0  0  0  0  0  0  0  0
  149.6996  140.8424  154.6540 N   0  0  0  0  0  0  0  0  0  0  0  0
  153.0636  141.4682  157.1542 H   0  0  0  0  0  0  0  0  0  0  0  0
  151.9025  139.7736  159.4310 H   0  0  0  0  0  0  0  0  0  0  0  0
  150.4084  140.1196  157.2146 H   0  0  0  0  0  0  0  0  0  0  0  0
  151.0943  142.9048  157.2952 H   0  0  0  0  0  0  0  0  0  0  0  0
  150.4316  141.9659  158.6092 H   0  0  0  0  0  0  0  0  0  0  0  0
  152.9738  143.6486  158.7208 H   0  0  0  0  0  0  0  0  0  0  0  0
  151.4508  144.0159  159.4958 H   0  0  0  0  0  0  0  0  0  0  0  0
  153.0574  143.0149  161.1177 H   0  0  0  0  0  0  0  0  0  0  0  0
  151.6451  142.0005  160.9325 H   0  0  0  0  0  0  0  0  0  0  0  0
  154.3483  141.6017  159.5715 H   0  0  0  0  0  0  0  0  0  0  0  0
  153.7036  140.6223  160.8663 H   0  0  0  0  0  0  0  0  0  0  0  0
  153.2363  138.6239  158.1231 H   0  0  0  0  0  0  0  0  0  0  0  0
  148.2611  137.8135  154.0813 H   0  0  0  0  0  0  0  0  0  0  0  0
  146.4347  139.2768  153.2072 H   0  0  0  0  0  0  0  0  0  0  0  0
  146.7394  141.7682  153.2732 H   0  0  0  0  0  0  0  0  0  0  0  0
  148.8711  142.6883  154.2198 H   0  0  0  0  0  0  0  0  0  0  0  0
  1  2  2  0  0  0  0
  2  3  1  0  0  0  0
  2 11  1  0  0  0  0
  3  4  1  0  0  0  0
  3 22  1  0  0  0  0
  4 20  1  0  0  0  0
  4  9  1  0  0  0  0
  4  5  1  0  0  0  0
  5  6  1  0  0  0  0
  5 23  1  0  0  0  0
  5 24  1  0  0  0  0
  6  7  1  0  0  0  0
  6 25  1  0  0  0  0
  6 26  1  0  0  0  0
  7  8  1  0  0  0  0
  7 27  1  0  0  0  0
  7 28  1  0  0  0  0
  8  9  1  0  0  0  0
  8 29  1  0  0  0  0
  8 30  1  0  0  0  0
  9 21  1  0  0  0  0
  9 10  1  0  0  0  0
 10 31  1  0  0  0  0
 11 12  1  0  0  0  0
 11 13  1  0  0  0  0
 11 14  1  0  0  0  0
 14 19  1  0  0  0  0
 14 15  2  0  0  0  0
 15 16  1  0  0  0  0
 15 32  1  0  0  0  0
 16 17  2  0  0  0  0
 16 33  1  0  0  0  0
 17 18  1  0  0  0  0
 17 34  1  0  0  0  0
 18 19  2  0  0  0  0
 18 35  1  0  0  0  0
M  END
> <s_m_source_file>
AV-unprocessed.smi

> <i_m_source_file_index>
2768

> <i_lp_mmshare_version>
43012

> <i_f3d_flags>
0

> <s_epik_input>
bjFbY0hdW2NIXVtjSF1bY0hdYzFDKEYpKEYpQyg9TylbTkhdW0NAQEhdMltDSDJdW0NIMl1bQ0gyXVtDSDJdW0NASF0yW09IXQ==

> <s_epik_cmdline>
J2VwaWtfcHl0aG9uJywgJy1waCcsICc3LjAnLCAnLXRuJywgJzgnLCAnLW1hJywgJzIwMCcsICctbWV0YWxfYmluZGluZycsICctaW1hZScsICc8aW5maWxlLm1hZT4nLCAnLW9tYWUnLCAnPG91dGZpbGUubWFlPic=

> <r_lp_tautomer_probability>
1

> <r_epik_Ionization_Penalty>
4.19456e-05

> <r_epik_Ionization_Penalty_Charging>
0

> <r_epik_Ionization_Penalty_Neutral>
4.19456e-05

> <r_epik_State_Penalty>
-0

> <r_epik_Charging_Adjusted_Penalty>
0

> <i_epik_Tot_Q>
0

> <i_epik_Tot_abs_Q>
0

> <r_epik_Metal_State_Penalty>
0.0354684

> <b_epik_Metal_Only>
0

> <s_lp_Force_Field>
OPLS_2005

> <r_lp_Energy>
17.5256

> <b_lp_Chiralities_Consistent>
1

> <s_lp_Variant>
AV-unprocessed.smi:2768-4

> <Gold.Version>
5.8.1

> <Gold.Id.Protein>
6NUR|6NUR_protein|mol2

> <Gold.PLP.Fitness>
47.6101

> <Gold.PLP.PLP>
-38.8444

> <Gold.PLP.part.hbond>
-3.3930

> <Gold.PLP.part.metal>
0.0000

> <Gold.PLP.part.buried>
-3.0971

> <Gold.PLP.part.nonpolar>
-31.8399

> <Gold.PLP.part.repulsive>
0.2179

> <Gold.PLP.ligand.clash>
0.0000

> <Gold.PLP.ligand.torsion>
0.5404

> <Gold.PLP.Chemscore.Hbond>
2.2778

> <Gold.PLP.Chemscore.CHOScore>
1.0000

> <Gold.PLP.Chemscore.Metal>
0.0000

> <Gold.Chemscore.Hbonds>
donor molecule, donor type, donor heavy atom, donor atom, acceptor molecule, acceptor atom, score
      P1  H  7989  7998       L1    19  0.29
      P1  H  7997  8009       L1    10  0.93
      P1  H  7997  8010       L1     1  0.94
      L1  C    18    35       P1  8028  1.00

> <Gold.PLP.Chemscore.Internal.Correction>
0.0129

> <Gold.Rescore>
     Score         DG    S(hbond)    S(metal)    S(lipo)     H(rot)  DE(clash)    DE(int)     intcor
     14.74     -16.68       1.65        0.00      92.34       2.00       0.00       1.94       ----

> <Gold.Chemscore.Fitness>
14.7412

> <Gold.Chemscore.DG>
-16.6792

> <Gold.Chemscore.ZeroCoef>
-5.4800

> <Gold.Chemscore.Hbond>
1.6488

> <Gold.Chemscore.Metal>
0.0000

> <Gold.Chemscore.Lipo>
92.3446

> <Gold.Chemscore.Internal_Hbond>
0.0000

> <Gold.Chemscore.DEClash>
0.0019

> <Gold.Chemscore.DEInternal>
1.9361

> <Gold.Chemscore.Rot>
1.9969

> <Gold.Chemscore.Internal.Correction>
   9.000000E+99

> <Gold.Chemscore.Hbonds>
donor molecule, donor type, donor heavy atom, donor atom, acceptor molecule, acceptor atom, score
      P1  H  7989  7998       L1    19  0.04
      P1  H  7997  8009       L1    10  0.57
      P1  H  7997  8010       L1     1  0.91

> <Gold.Chemscore.Hbond.Weighted>
-5.5071

> <Gold.Chemscore.Metal.Weighted>
-0.0000

> <Gold.Chemscore.Lipo.Weighted>
-10.8043

> <Gold.Chemscore.Internal_Hbond.Weighted>
0.0000

> <Gold.Chemscore.DEClash.Weighted>
0.0019

> <Gold.Chemscore.DEInternal.Weighted>
1.9361

> <Gold.Chemscore.Rot.Weighted>
5.1122

> <Gold.Chemscore.Internal.Correction.Weighted>
   9.000000E+99

> <Gold.Protein.RotatedTorsions>
[ 6907 6896 6895 6894 ] final   44.76 input  -60.11 | X-H torsion
[ 7974 7965 7964 7962 ] final   49.88 input  175.53 | X-H torsion
[ 8008 7997 7996 7995 ] final  119.89 input   59.86 | X-H torsion
[ 10167 10162 10161 10158 ] final  -76.94 input  -65.29 | X-H torsion
[ 10718 10713 10712 10709 ] final  -27.90 input   66.30 | X-H torsion
[ 10763 10752 10751 10750 ] final   20.34 input  -60.55 | X-H torsion
[ 11005 11000 10999 10996 ] final -128.33 input  -57.11 | X-H torsion

> <Gold.Protein.ActiveResidues>
 VAL166  LYS551  ARG553  GLY616  TRP617  ASP618  TYR619  PRO620  LYS621  CYS622 
 ASP623  PHE694  ASN695  SER759  ASP760  ASP761  ALA762  ILE779  LEU786  VAL792 
 PHE793  MET794  SER795  GLU796  ALA797  LYS798  CYS799  TRP800  GLU811  SER814 

> <Gold.Protein.RotatedAtoms>
  152.2364  134.8272  160.0466 H   0  0  0  0  0  0  0  0  0  0  0  0  # atno 6907 bound_to 6896
  151.9002  133.3531  159.3836 H   0  0  0  0  0  0  0  0  0  0  0  0  # atno 6908 bound_to 6896
  150.7040  134.4762  159.5493 H   0  0  0  0  0  0  0  0  0  0  0  0  # atno 6909 bound_to 6896
  146.0066  139.4496  142.9982 H   0  0  0  0  0  0  0  0  0  0  0  0  # atno 7974 bound_to 7965
  156.2617  140.2843  156.1063 H   0  0  0  0  0  0  0  0  0  0  0  0  # atno 8008 bound_to 7997
  155.1305  140.0393  157.2791 H   0  0  0  0  0  0  0  0  0  0  0  0  # atno 8009 bound_to 7997
  154.6603  140.2565  155.7123 H   0  0  0  0  0  0  0  0  0  0  0  0  # atno 8010 bound_to 7997
  140.4814  143.2401  151.8052 H   0  0  0  0  0  0  0  0  0  0  0  0  # atno 10167 bound_to 10162
  156.4322  130.4447  149.7109 H   0  0  0  0  0  0  0  0  0  0  0  0  # atno 10718 bound_to 10713
  153.1085  135.6691  153.9542 H   0  0  0  0  0  0  0  0  0  0  0  0  # atno 10763 bound_to 10752
  153.9092  135.3027  155.3450 H   0  0  0  0  0  0  0  0  0  0  0  0  # atno 10764 bound_to 10752
  154.7506  135.5036  153.9359 H   0  0  0  0  0  0  0  0  0  0  0  0  # atno 10765 bound_to 10752
  140.9525  134.1046  157.4048 H   0  0  0  0  0  0  0  0  0  0  0  0  # atno 11005 bound_to 11000
  145.7407  141.0009  143.1302 LP  0  0  0  0  0  0  0  0  0  0  0  0  # atno 17320 bound_to 7965
  144.6938  139.9095  143.7463 LP  0  0  0  0  0  0  0  0  0  0  0  0  # atno 17321 bound_to 7965
  139.4834  144.4768  151.9357 LP  0  0  0  0  0  0  0  0  0  0  0  0  # atno 17342 bound_to 10162
  140.3853  144.2684  150.5904 LP  0  0  0  0  0  0  0  0  0  0  0  0  # atno 17343 bound_to 10162
  156.4007  130.7673  151.2681 LP  0  0  0  0  0  0  0  0  0  0  0  0  # atno 17370 bound_to 10713
  157.7508  131.0240  150.3860 LP  0  0  0  0  0  0  0  0  0  0  0  0  # atno 17371 bound_to 10713
  139.8852  135.0070  156.6419 LP  0  0  0  0  0  0  0  0  0  0  0  0  # atno 17394 bound_to 11000
  140.7582  133.8840  155.8398 LP  0  0  0  0  0  0  0  0  0  0  0  0  # atno 17395 bound_to 11000

$$$$
