AV-unprocessed.smi:1677|AV-procd|sdf|6723|dock9
  -GOLD-   22720 7463D 1   1.00000     0.00000
 Structure written by MMmdl.
 37 38  0  0  0  0  0  0  0  0  2 V2000
  149.2207  139.3666  156.1370 C   0  0  0  0  0  0  0  0  0  0  0  0
  150.1454  140.4713  155.6006 C   0  0  1  0  0  0  0  0  0  0  0  0
  149.6104  141.1416  154.3166 C   0  0  0  0  0  0  0  0  0  0  0  0
  148.1461  141.1994  154.2725 N   0  0  0  0  0  0  0  0  0  0  0  0
  147.3231  141.9480  155.0743 C   0  0  0  0  0  0  0  0  0  0  0  0
  146.0392  141.6825  154.6728 C   0  0  0  0  0  0  0  0  0  0  0  0
  146.1326  140.7813  153.6460 N   0  3  0  0  0  0  0  0  0  0  0  0
  147.4145  140.4861  153.4064 C   0  0  0  0  0  0  0  0  0  0  0  0
  150.3483  141.4717  156.6441 N   0  0  0  0  0  0  0  0  0  0  0  0
  151.2419  141.3841  157.6421 C   0  0  0  0  0  0  0  0  0  0  0  0
  152.0174  140.4363  157.7715 O   0  0  0  0  0  0  0  0  0  0  0  0
  151.2625  142.5457  158.6442 C   0  0  1  0  0  0  0  0  0  0  0  0
  152.2986  142.2949  159.7635 C   0  0  0  0  0  0  0  0  0  0  0  0
  152.5146  143.5242  160.6282 C   0  0  0  0  0  0  0  0  0  0  0  0
  152.1320  144.7601  160.2637 C   0  0  0  0  0  0  0  0  0  0  0  0
  151.4464  145.0678  158.9439 C   0  0  0  0  0  0  0  0  0  0  0  0
  151.5390  143.8945  157.9495 C   0  0  0  0  0  0  0  0  0  0  0  0
  149.1087  138.5531  155.4201 H   0  0  0  0  0  0  0  0  0  0  0  0
  148.2262  139.7554  156.3595 H   0  0  0  0  0  0  0  0  0  0  0  0
  149.6211  138.9338  157.0547 H   0  0  0  0  0  0  0  0  0  0  0  0
  151.1076  140.0072  155.3754 H   0  0  0  0  0  0  0  0  0  0  0  0
  149.9991  142.1569  154.2217 H   0  0  0  0  0  0  0  0  0  0  0  0
  149.9377  140.5951  153.4310 H   0  0  0  0  0  0  0  0  0  0  0  0
  147.7032  142.5981  155.8495 H   0  0  0  0  0  0  0  0  0  0  0  0
  145.0914  142.0567  155.0317 H   0  0  0  0  0  0  0  0  0  0  0  0
  147.7845  139.8088  152.6571 H   0  0  0  0  0  0  0  0  0  0  0  0
  149.7533  142.2874  156.6159 H   0  0  0  0  0  0  0  0  0  0  0  0
  150.2754  142.6123  159.1063 H   0  0  0  0  0  0  0  0  0  0  0  0
  151.9620  141.4765  160.4009 H   0  0  0  0  0  0  0  0  0  0  0  0
  153.2648  141.9996  159.3513 H   0  0  0  0  0  0  0  0  0  0  0  0
  153.0130  143.3731  161.5745 H   0  0  0  0  0  0  0  0  0  0  0  0
  152.3013  145.5927  160.9307 H   0  0  0  0  0  0  0  0  0  0  0  0
  150.4025  145.3030  159.1531 H   0  0  0  0  0  0  0  0  0  0  0  0
  151.8921  145.9615  158.5064 H   0  0  0  0  0  0  0  0  0  0  0  0
  152.5380  143.8797  157.5103 H   0  0  0  0  0  0  0  0  0  0  0  0
  150.8438  144.0567  157.1245 H   0  0  0  0  0  0  0  0  0  0  0  0
  145.3465  140.3923  153.1401 H   0  0  0  0  0  0  0  0  0  0  0  0
  1  2  1  0  0  0  0
  1 18  1  0  0  0  0
  1 19  1  0  0  0  0
  1 20  1  0  0  0  0
  2  3  1  0  0  0  0
  2  9  1  0  0  0  0
  2 21  1  0  0  0  0
  3  4  1  0  0  0  0
  3 22  1  0  0  0  0
  3 23  1  0  0  0  0
  4  8  1  0  0  0  0
  4  5  1  0  0  0  0
  5  6  2  0  0  0  0
  5 24  1  0  0  0  0
  6  7  1  0  0  0  0
  6 25  1  0  0  0  0
  7  8  2  0  0  0  0
  7 37  1  0  0  0  0
  8 26  1  0  0  0  0
  9 10  1  0  0  0  0
  9 27  1  0  0  0  0
 10 11  2  0  0  0  0
 10 12  1  0  0  0  0
 12 17  1  0  0  0  0
 12 13  1  0  0  0  0
 12 28  1  0  0  0  0
 13 14  1  0  0  0  0
 13 29  1  0  0  0  0
 13 30  1  0  0  0  0
 14 15  2  0  0  0  0
 14 31  1  0  0  0  0
 15 16  1  0  0  0  0
 15 32  1  0  0  0  0
 16 17  1  0  0  0  0
 16 33  1  0  0  0  0
 16 34  1  0  0  0  0
 17 35  1  0  0  0  0
 17 36  1  0  0  0  0
M  CHG  1   7   1
M  END
> <s_m_source_file>
AV-unprocessed.smi

> <i_m_source_file_index>
1677

> <i_lp_mmshare_version>
43012

> <i_f3d_flags>
0

> <s_epik_input>
W2NIXTFuW2NIXVtjSF1uMVtDSDJdW0NAQEhdKFtDSDNdKVtOSF1DKD1PKVtDQEBIXTJbQ0gyXVtDSF09W0NIXVtDSDJdW0NIMl0y

> <s_epik_cmdline>
J2VwaWtfcHl0aG9uJywgJy1waCcsICc3LjAnLCAnLXRuJywgJzgnLCAnLW1hJywgJzIwMCcsICctbWV0YWxfYmluZGluZycsICctaW1hZScsICc8aW5maWxlLm1hZT4nLCAnLW9tYWUnLCAnPG91dGZpbGUubWFlPic=

> <r_lp_tautomer_probability>
1

> <r_epik_Ionization_Penalty>
0.245541

> <r_epik_Ionization_Penalty_Charging>
0

> <r_epik_Ionization_Penalty_Neutral>
0.245541

> <r_epik_State_Penalty>
0.236686

> <r_epik_Charging_Adjusted_Penalty>
0.236686

> <i_epik_Tot_Q>
1

> <i_epik_Tot_abs_Q>
1

> <r_epik_Metal_State_Penalty>
0.529594

> <b_epik_Metal_Only>
0

> <s_lp_Force_Field>
OPLS_2005

> <r_lp_Energy>
11.602

> <b_lp_Chiralities_Consistent>
1

> <s_lp_Variant>
AV-unprocessed.smi:1677-4

> <Gold.Version>
5.8.1

> <Gold.Id.Protein>
6NUR|6NUR_protein|mol2

> <Gold.PLP.Fitness>
47.6828

> <Gold.PLP.PLP>
-37.3249

> <Gold.PLP.part.hbond>
-1.0000

> <Gold.PLP.part.metal>
0.0000

> <Gold.PLP.part.buried>
-3.0769

> <Gold.PLP.part.nonpolar>
-33.6785

> <Gold.PLP.part.repulsive>
0.0385

> <Gold.PLP.ligand.clash>
0.0000

> <Gold.PLP.ligand.torsion>
0.7698

> <Gold.PLP.Chemscore.Hbond>
2.0000

> <Gold.PLP.Chemscore.CHOScore>
1.9533

> <Gold.PLP.Chemscore.Metal>
0.0000

> <Gold.Chemscore.Hbonds>
donor molecule, donor type, donor heavy atom, donor atom, acceptor molecule, acceptor atom, score
      L1  H     7    37       P1 10175  2.00
      L1  C     5    24       P1  8028  0.99
      L1  C     8    26       P1  7957  1.00

> <Gold.PLP.Chemscore.Internal.Correction>
0.0376

> <Gold.Rescore>
     Score         DG    S(hbond)    S(metal)    S(lipo)     H(rot)  DE(clash)    DE(int)     intcor
     14.28     -15.10       0.97        0.00      94.24       1.81       0.07       0.75       ----

> <Gold.Chemscore.Fitness>
14.2752

> <Gold.Chemscore.DG>
-15.1034

> <Gold.Chemscore.ZeroCoef>
-5.4800

> <Gold.Chemscore.Hbond>
0.9710

> <Gold.Chemscore.Metal>
0.0000

> <Gold.Chemscore.Lipo>
94.2377

> <Gold.Chemscore.Internal_Hbond>
0.0000

> <Gold.Chemscore.DEClash>
0.0747

> <Gold.Chemscore.DEInternal>
0.7536

> <Gold.Chemscore.Rot>
1.8147

> <Gold.Chemscore.Internal.Correction>
   9.000000E+99

> <Gold.Chemscore.Hbonds>
donor molecule, donor type, donor heavy atom, donor atom, acceptor molecule, acceptor atom, score
      L1  H     7    37       P1 10175  0.93

> <Gold.Chemscore.Hbond.Weighted>
-3.2432

> <Gold.Chemscore.Metal.Weighted>
-0.0000

> <Gold.Chemscore.Lipo.Weighted>
-11.0258

> <Gold.Chemscore.Internal_Hbond.Weighted>
0.0000

> <Gold.Chemscore.DEClash.Weighted>
0.0747

> <Gold.Chemscore.DEInternal.Weighted>
0.7536

> <Gold.Chemscore.Rot.Weighted>
4.6456

> <Gold.Chemscore.Internal.Correction.Weighted>
   9.000000E+99

> <Gold.Protein.RotatedTorsions>
[ 6907 6896 6895 6894 ] final -114.77 input  -60.11 | X-H torsion
[ 7974 7965 7964 7962 ] final  -35.71 input  175.53 | X-H torsion
[ 8008 7997 7996 7995 ] final -147.15 input   59.86 | X-H torsion
[ 10167 10162 10161 10158 ] final -101.97 input  -65.29 | X-H torsion
[ 10718 10713 10712 10709 ] final  144.56 input   66.30 | X-H torsion
[ 10763 10752 10751 10750 ] final -118.06 input  -60.55 | X-H torsion
[ 11005 11000 10999 10996 ] final -144.45 input  -57.11 | X-H torsion

> <Gold.Protein.ActiveResidues>
 VAL166  LYS551  ARG553  GLY616  TRP617  ASP618  TYR619  PRO620  LYS621  CYS622 
 ASP623  PHE694  ASN695  SER759  ASP760  ASP761  ALA762  ILE779  LEU786  VAL792 
 PHE793  MET794  SER795  GLU796  ALA797  LYS798  CYS799  TRP800  GLU811  SER814 

> <Gold.Protein.RotatedAtoms>
  150.7927  133.8753  159.3270 H   0  0  0  0  0  0  0  0  0  0  0  0  # atno 6907 bound_to 6896
  151.6586  135.0990  160.0184 H   0  0  0  0  0  0  0  0  0  0  0  0  # atno 6908 bound_to 6896
  152.4004  133.6770  159.6347 H   0  0  0  0  0  0  0  0  0  0  0  0  # atno 6909 bound_to 6896
  146.0724  140.6191  142.8946 H   0  0  0  0  0  0  0  0  0  0  0  0  # atno 7974 bound_to 7965
  155.5709  140.0634  157.2807 H   0  0  0  0  0  0  0  0  0  0  0  0  # atno 8008 bound_to 7997
  154.4361  140.1869  156.0924 H   0  0  0  0  0  0  0  0  0  0  0  0  # atno 8009 bound_to 7997
  156.0377  140.3299  155.7213 H   0  0  0  0  0  0  0  0  0  0  0  0  # atno 8010 bound_to 7997
  140.2356  143.3575  152.0847 H   0  0  0  0  0  0  0  0  0  0  0  0  # atno 10167 bound_to 10162
  157.3558  131.0957  151.0960 H   0  0  0  0  0  0  0  0  0  0  0  0  # atno 10718 bound_to 10713
  154.8575  135.4287  154.2079 H   0  0  0  0  0  0  0  0  0  0  0  0  # atno 10763 bound_to 10752
  153.3111  135.6976  153.7120 H   0  0  0  0  0  0  0  0  0  0  0  0  # atno 10764 bound_to 10752
  153.6212  135.3501  155.2985 H   0  0  0  0  0  0  0  0  0  0  0  0  # atno 10765 bound_to 10752
  140.8023  134.2842  157.4973 H   0  0  0  0  0  0  0  0  0  0  0  0  # atno 11005 bound_to 11000
  144.7240  140.4464  143.6987 LP  0  0  0  0  0  0  0  0  0  0  0  0  # atno 17320 bound_to 7965
  145.6368  139.1544  143.2938 LP  0  0  0  0  0  0  0  0  0  0  0  0  # atno 17321 bound_to 7965
  139.5095  144.6868  151.5867 LP  0  0  0  0  0  0  0  0  0  0  0  0  # atno 17342 bound_to 10162
  140.6152  143.9362  150.6483 LP  0  0  0  0  0  0  0  0  0  0  0  0  # atno 17343 bound_to 10162
  157.2118  130.6441  149.5777 LP  0  0  0  0  0  0  0  0  0  0  0  0  # atno 17370 bound_to 10713
  155.9729  130.4657  150.6264 LP  0  0  0  0  0  0  0  0  0  0  0  0  # atno 17371 bound_to 10713
  139.8720  134.9437  156.3859 LP  0  0  0  0  0  0  0  0  0  0  0  0  # atno 17394 bound_to 11000
  140.9282  133.7598  155.9991 LP  0  0  0  0  0  0  0  0  0  0  0  0  # atno 17395 bound_to 11000

$$$$
