AV-unprocessed.smi:726|AV-procd|sdf|3514|dock1
  -GOLD-   22720 0513D 1   1.00000     0.00000
 Structure written by MMmdl.
 24 24  0  0  0  0  0  0  0  0  2 V2000
  152.1704  143.8770  158.4311 C   0  0  0  0  0  0  0  0  0  0  0  0
  152.7226  142.5176  158.8401 C   0  0  0  0  0  0  0  0  0  0  0  0
  153.7919  142.4686  159.6682 C   0  0  0  0  0  0  0  0  0  0  0  0
  154.3090  141.1809  160.1587 C   0  0  0  0  0  0  0  0  0  0  0  0
  155.3223  141.1031  160.8508 O   0  0  0  0  0  0  0  0  0  0  0  0
  153.5248  139.9972  159.7854 C   0  0  0  0  0  0  0  0  0  0  0  0
  152.4758  140.1422  158.9530 C   0  0  0  0  0  0  0  0  0  0  0  0
  151.7009  139.0952  158.6353 O   0  0  0  0  0  0  0  0  0  0  0  0
  152.0635  141.3591  158.3650 N   0  0  0  0  0  0  0  0  0  0  0  0
  151.1308  141.4281  157.2151 C   0  0  2  0  0  0  0  0  0  0  0  0
  149.6561  141.2558  157.6356 C   0  0  0  0  0  0  0  0  0  0  0  0
  151.5623  140.5573  156.0186 C   0  0  0  0  0  0  0  0  0  0  0  0
  150.8962  140.6295  154.9618 O   0  0  0  0  0  0  0  0  0  0  0  0
  152.5660  139.8303  156.1876 O   0  5  0  0  0  0  0  0  0  0  0  0
  152.4840  144.6502  159.1331 H   0  0  0  0  0  0  0  0  0  0  0  0
  151.0802  143.8853  158.4223 H   0  0  0  0  0  0  0  0  0  0  0  0
  152.5378  144.1560  157.4432 H   0  0  0  0  0  0  0  0  0  0  0  0
  154.2700  143.3727  160.0163 H   0  0  0  0  0  0  0  0  0  0  0  0
  153.7904  139.0385  160.2067 H   0  0  0  0  0  0  0  0  0  0  0  0
  151.1784  142.4201  156.7737 H   0  0  0  0  0  0  0  0  0  0  0  0
  148.9872  141.4022  156.7871 H   0  0  0  0  0  0  0  0  0  0  0  0
  149.3829  141.9898  158.3936 H   0  0  0  0  0  0  0  0  0  0  0  0
  149.4510  140.2677  158.0460 H   0  0  0  0  0  0  0  0  0  0  0  0
  151.7906  138.9452  157.7071 H   0  0  0  0  0  0  0  0  0  0  0  0
  1  2  1  0  0  0  0
  1 15  1  0  0  0  0
  1 16  1  0  0  0  0
  1 17  1  0  0  0  0
  2  9  1  0  0  0  0
  2  3  2  0  0  0  0
  3  4  1  0  0  0  0
  3 18  1  0  0  0  0
  4  5  2  0  0  0  0
  4  6  1  0  0  0  0
  6  7  2  0  0  0  0
  6 19  1  0  0  0  0
  7  8  1  0  0  0  0
  7  9  1  0  0  0  0
  8 24  1  0  0  0  0
  9 10  1  0  0  0  0
 10 11  1  0  0  0  0
 10 12  1  0  0  0  0
 10 20  1  0  0  0  0
 11 21  1  0  0  0  0
 11 22  1  0  0  0  0
 11 23  1  0  0  0  0
 12 13  2  0  0  0  0
 12 14  1  0  0  0  0
M  CHG  1  14  -1
M  END
> <s_m_source_file>
AV-unprocessed.smi

> <i_m_source_file_index>
726

> <i_lp_mmshare_version>
43012

> <i_f3d_flags>
0

> <s_epik_input>
W0NIM11jMVtjSF1jKFtPSF0pW2NIXWMoPU8pbjFbQ0BIXShbQ0gzXSlDKD1PKVtPSF0=

> <s_epik_cmdline>
J2VwaWtfcHl0aG9uJywgJy1waCcsICc3LjAnLCAnLXRuJywgJzgnLCAnLW1hJywgJzIwMCcsICctbWV0YWxfYmluZGluZycsICctaW1hZScsICc8aW5maWxlLm1hZT4nLCAnLW9tYWUnLCAnPG91dGZpbGUubWFlPic=

> <r_epik_Ionization_Penalty>
0.000857085

> <r_epik_Ionization_Penalty_Charging>
0.000857085

> <r_epik_Ionization_Penalty_Neutral>
0

> <r_epik_State_Penalty>
1.45659

> <r_epik_Charging_Adjusted_Penalty>
1.45745

> <i_epik_Tot_Q>
-1

> <i_epik_Tot_abs_Q>
1

> <r_epik_Metal_State_Penalty>
1.45659

> <b_epik_Metal_Only>
0

> <s_lp_Force_Field>
OPLS_2005

> <r_lp_Energy>
4.32013

> <b_lp_Chiralities_Consistent>
1

> <s_lp_Variant>
AV-unprocessed.smi:726-5

> <Gold.Version>
5.8.1

> <Gold.Id.Protein>
6NUR|6NUR_protein|mol2

> <Gold.PLP.Fitness>
39.5034

> <Gold.PLP.PLP>
-30.7511

> <Gold.PLP.part.hbond>
-3.0000

> <Gold.PLP.part.metal>
0.0000

> <Gold.PLP.part.buried>
-3.4712

> <Gold.PLP.part.nonpolar>
-23.6885

> <Gold.PLP.part.repulsive>
0.0583

> <Gold.PLP.ligand.clash>
0.0000

> <Gold.PLP.ligand.torsion>
0.2881

> <Gold.PLP.Chemscore.Hbond>
3.0000

> <Gold.PLP.Chemscore.CHOScore>
0.0000

> <Gold.PLP.Chemscore.Metal>
0.0000

> <Gold.Chemscore.Hbonds>
donor molecule, donor type, donor heavy atom, donor atom, acceptor molecule, acceptor atom, score
      P1  H  7989  7998       L1    13  0.94
      P1  H  7997  8009       L1    14  2.00

> <Gold.PLP.Chemscore.Internal.Correction>
0.3286

> <Gold.Rescore>
     Score         DG    S(hbond)    S(metal)    S(lipo)     H(rot)  DE(clash)    DE(int)     intcor
      8.19     -11.88       1.98        0.00      44.52       2.11       0.00       3.69       ----

> <Gold.Chemscore.Fitness>
8.1887

> <Gold.Chemscore.DG>
-11.8817

> <Gold.Chemscore.ZeroCoef>
-5.4800

> <Gold.Chemscore.Hbond>
1.9764

> <Gold.Chemscore.Metal>
0.0000

> <Gold.Chemscore.Lipo>
44.5151

> <Gold.Chemscore.Internal_Hbond>
0.0000

> <Gold.Chemscore.DEClash>
0.0000

> <Gold.Chemscore.DEInternal>
3.6931

> <Gold.Chemscore.Rot>
2.1124

> <Gold.Chemscore.Internal.Correction>
   9.000000E+99

> <Gold.Chemscore.Hbonds>
donor molecule, donor type, donor heavy atom, donor atom, acceptor molecule, acceptor atom, score
      P1  H  7989  7998       L1    13  0.91
      P1  H  7997  8009       L1    14  1.00

> <Gold.Chemscore.Hbond.Weighted>
-6.6013

> <Gold.Chemscore.Metal.Weighted>
-0.0000

> <Gold.Chemscore.Lipo.Weighted>
-5.2083

> <Gold.Chemscore.Internal_Hbond.Weighted>
0.0000

> <Gold.Chemscore.DEClash.Weighted>
0.0000

> <Gold.Chemscore.DEInternal.Weighted>
3.6931

> <Gold.Chemscore.Rot.Weighted>
5.4078

> <Gold.Chemscore.Internal.Correction.Weighted>
   9.000000E+99

> <Gold.Protein.RotatedTorsions>
[ 6907 6896 6895 6894 ] final   54.52 input  -60.11 | X-H torsion
[ 7974 7965 7964 7962 ] final -160.58 input  175.53 | X-H torsion
[ 8008 7997 7996 7995 ] final -162.76 input   59.86 | X-H torsion
[ 10167 10162 10161 10158 ] final  175.28 input  -65.29 | X-H torsion
[ 10718 10713 10712 10709 ] final   53.66 input   66.30 | X-H torsion
[ 10763 10752 10751 10750 ] final  128.01 input  -60.55 | X-H torsion
[ 11005 11000 10999 10996 ] final  167.72 input  -57.11 | X-H torsion

> <Gold.Protein.ActiveResidues>
 VAL166  LYS551  ARG553  GLY616  TRP617  ASP618  TYR619  PRO620  LYS621  CYS622 
 ASP623  PHE694  ASN695  SER759  ASP760  ASP761  ALA762  ILE779  LEU786  VAL792 
 PHE793  MET794  SER795  GLU796  ALA797  LYS798  CYS799  TRP800  GLU811  SER814 

> <Gold.Protein.RotatedAtoms>
  152.3447  134.7088  160.0253 H   0  0  0  0  0  0  0  0  0  0  0  0  # atno 6907 bound_to 6896
  151.7461  133.3319  159.3387 H   0  0  0  0  0  0  0  0  0  0  0  0  # atno 6908 bound_to 6896
  150.7501  134.6167  159.6159 H   0  0  0  0  0  0  0  0  0  0  0  0  # atno 6909 bound_to 6896
  144.7422  140.3520  143.6113 H   0  0  0  0  0  0  0  0  0  0  0  0  # atno 7974 bound_to 7965
  155.8115  140.0906  157.1901 H   0  0  0  0  0  0  0  0  0  0  0  0  # atno 8008 bound_to 7997
  154.3980  140.1453  156.3452 H   0  0  0  0  0  0  0  0  0  0  0  0  # atno 8009 bound_to 7997
  155.8360  140.3441  155.5604 H   0  0  0  0  0  0  0  0  0  0  0  0  # atno 8010 bound_to 7997
  139.5171  144.3050  152.0344 H   0  0  0  0  0  0  0  0  0  0  0  0  # atno 10167 bound_to 10162
  157.5186  130.8550  149.8529 H   0  0  0  0  0  0  0  0  0  0  0  0  # atno 10718 bound_to 10713
  153.7186  135.3257  155.3262 H   0  0  0  0  0  0  0  0  0  0  0  0  # atno 10763 bound_to 10752
  154.8363  135.4494  154.1240 H   0  0  0  0  0  0  0  0  0  0  0  0  # atno 10764 bound_to 10752
  153.2354  135.6965  153.7922 H   0  0  0  0  0  0  0  0  0  0  0  0  # atno 10765 bound_to 10752
  140.2797  134.7760  157.3748 H   0  0  0  0  0  0  0  0  0  0  0  0  # atno 11005 bound_to 11000
  145.7266  139.1724  143.2454 LP  0  0  0  0  0  0  0  0  0  0  0  0  # atno 17320 bound_to 7965
  146.1238  140.7275  142.9445 LP  0  0  0  0  0  0  0  0  0  0  0  0  # atno 17321 bound_to 7965
  140.2496  144.4183  150.6227 LP  0  0  0  0  0  0  0  0  0  0  0  0  # atno 17342 bound_to 10162
  140.6234  143.2178  151.6648 LP  0  0  0  0  0  0  0  0  0  0  0  0  # atno 17343 bound_to 10162
  156.0338  130.3757  150.1616 LP  0  0  0  0  0  0  0  0  0  0  0  0  # atno 17370 bound_to 10713
  156.9804  130.9862  151.3438 LP  0  0  0  0  0  0  0  0  0  0  0  0  # atno 17371 bound_to 10713
  140.1295  134.5114  155.8117 LP  0  0  0  0  0  0  0  0  0  0  0  0  # atno 17394 bound_to 11000
  141.2164  133.6784  156.7012 LP  0  0  0  0  0  0  0  0  0  0  0  0  # atno 17395 bound_to 11000

$$$$
