AV-unprocessed.smi:3245|AV-procd|sdf|12406|dock7
  -GOLD-   2272018283D 1   1.00000     0.00000
 Structure written by MMmdl.
 35 36  0  0  0  0  0  0  0  0  3 V2000
  146.5396  137.2256  154.4046 C   0  0  0  0  0  0  0  0  0  0  0  0
  146.7142  138.1796  153.2154 C   0  0  2  0  0  0  0  0  0  0  0  0
  146.0692  137.5886  151.9424 C   0  0  0  0  0  0  0  0  0  0  0  0
  144.8371  136.8693  152.2130 N   0  0  0  0  0  0  0  0  0  0  0  0
  143.7062  137.3174  152.8625 C   0  0  0  0  0  0  0  0  0  0  0  0
  142.7999  136.2960  152.8497 C   0  0  0  0  0  0  0  0  0  0  0  0
  143.4779  135.2494  152.1643 C   0  0  0  0  0  0  0  0  0  0  0  0
  144.6986  135.5946  151.7872 N   0  0  0  0  0  0  0  0  0  0  0  0
  148.1552  138.4514  153.0097 N   0  3  0  0  0  0  0  0  0  0  0  0
  148.9184  138.7197  154.2451 C   0  0  0  0  0  0  0  0  0  0  0  0
  150.4268  138.5852  153.9978 C   0  0  0  0  0  0  0  0  0  0  0  0
  151.1888  139.1240  155.1264 N   0  0  0  0  0  0  0  0  0  0  0  0
  150.9362  140.2999  155.7090 C   0  0  0  0  0  0  0  0  0  0  0  0
  150.0645  141.1176  155.4125 O   0  0  0  0  0  0  0  0  0  0  0  0
  151.9160  140.4626  156.8473 C   0  0  0  0  0  0  0  0  0  0  0  0
  152.6715  139.2316  156.7816 N   0  5  0  0  0  0  0  0  0  0  0  0
  152.1952  138.4890  155.7557 C   0  0  0  0  0  0  0  0  0  0  0  0
  152.5850  137.3746  155.4090 O   0  0  0  0  0  0  0  0  0  0  0  0
  145.4847  137.0315  154.6008 H   0  0  0  0  0  0  0  0  0  0  0  0
  146.9693  137.6480  155.3136 H   0  0  0  0  0  0  0  0  0  0  0  0
  147.0252  136.2666  154.2206 H   0  0  0  0  0  0  0  0  0  0  0  0
  146.2074  139.1118  153.4714 H   0  0  0  0  0  0  0  0  0  0  0  0
  145.8670  138.3761  151.2142 H   0  0  0  0  0  0  0  0  0  0  0  0
  146.7606  136.8954  151.4616 H   0  0  0  0  0  0  0  0  0  0  0  0
  143.6381  138.3159  153.2687 H   0  0  0  0  0  0  0  0  0  0  0  0
  141.8028  136.2964  153.2643 H   0  0  0  0  0  0  0  0  0  0  0  0
  143.1210  134.2573  151.9292 H   0  0  0  0  0  0  0  0  0  0  0  0
  148.5745  137.6496  152.5612 H   0  0  0  0  0  0  0  0  0  0  0  0
  148.6995  139.7229  154.6100 H   0  0  0  0  0  0  0  0  0  0  0  0
  148.5943  138.0242  155.0202 H   0  0  0  0  0  0  0  0  0  0  0  0
  150.6907  137.5397  153.8294 H   0  0  0  0  0  0  0  0  0  0  0  0
  150.7019  139.1117  153.0818 H   0  0  0  0  0  0  0  0  0  0  0  0
  152.5264  141.3521  156.6877 H   0  0  0  0  0  0  0  0  0  0  0  0
  151.3767  140.5872  157.7869 H   0  0  0  0  0  0  0  0  0  0  0  0
  148.2417  139.2471  152.3932 H   0  0  0  0  0  0  0  0  0  0  0  0
  1  2  1  0  0  0  0
  1 19  1  0  0  0  0
  1 20  1  0  0  0  0
  1 21  1  0  0  0  0
  2  3  1  0  0  0  0
  2  9  1  0  0  0  0
  2 22  1  0  0  0  0
  3  4  1  0  0  0  0
  3 23  1  0  0  0  0
  3 24  1  0  0  0  0
  4  8  1  0  0  0  0
  4  5  1  0  0  0  0
  5  6  2  0  0  0  0
  5 25  1  0  0  0  0
  6  7  1  0  0  0  0
  6 26  1  0  0  0  0
  7  8  2  0  0  0  0
  7 27  1  0  0  0  0
  9 10  1  0  0  0  0
  9 28  1  0  0  0  0
  9 35  1  0  0  0  0
 10 11  1  0  0  0  0
 10 29  1  0  0  0  0
 10 30  1  0  0  0  0
 11 12  1  0  0  0  0
 11 31  1  0  0  0  0
 11 32  1  0  0  0  0
 12 17  1  0  0  0  0
 12 13  1  0  0  0  0
 13 14  2  0  0  0  0
 13 15  1  0  0  0  0
 15 16  1  0  0  0  0
 15 33  1  0  0  0  0
 15 34  1  0  0  0  0
 16 17  1  0  0  0  0
 17 18  2  0  0  0  0
M  CHG  1   9   1
M  CHG  1  16  -1
M  END
> <s_m_source_file>
AV-unprocessed.smi

> <i_m_source_file_index>
3245

> <i_lp_mmshare_version>
43012

> <i_f3d_flags>
0

> <s_epik_input>
bjFbY0hdW2NIXVtjSF1uMVtDSDJdW0NAQEhdKFtDSDNdKVtOSF1bQ0gyXVtDSDJdTjJDKD1PKVtDSDJdW05IXUMyPU8=

> <s_epik_cmdline>
J2VwaWtfcHl0aG9uJywgJy1waCcsICc3LjAnLCAnLXRuJywgJzgnLCAnLW1hJywgJzIwMCcsICctbWV0YWxfYmluZGluZycsICctaW1hZScsICc8aW5maWxlLm1hZT4nLCAnLW9tYWUnLCAnPG91dGZpbGUubWFlPic=

> <r_lp_tautomer_probability>
1

> <r_epik_Ionization_Penalty>
5.1873

> <r_epik_Ionization_Penalty_Charging>
5.18729

> <r_epik_Ionization_Penalty_Neutral>
3.83745e-06

> <r_epik_State_Penalty>
5.18822

> <r_epik_Charging_Adjusted_Penalty>
10.3755

> <i_epik_Tot_Q>
0

> <i_epik_Tot_abs_Q>
2

> <r_epik_Metal_State_Penalty>
1.25934

> <b_epik_Metal_Only>
1

> <s_lp_Force_Field>
OPLS_2005

> <r_lp_Energy>
10.3219

> <b_lp_Chiralities_Consistent>
1

> <s_lp_Variant>
AV-unprocessed.smi:3245-5

> <Gold.Version>
5.8.1

> <Gold.Id.Protein>
6NUR|6NUR_protein|mol2

> <Gold.PLP.Fitness>
47.9075

> <Gold.PLP.PLP>
-30.0867

> <Gold.PLP.part.hbond>
-4.4675

> <Gold.PLP.part.metal>
0.0000

> <Gold.PLP.part.buried>
-1.7092

> <Gold.PLP.part.nonpolar>
-24.0587

> <Gold.PLP.part.repulsive>
0.3382

> <Gold.PLP.ligand.clash>
0.0000

> <Gold.PLP.ligand.torsion>
0.5916

> <Gold.PLP.Chemscore.Hbond>
5.3120

> <Gold.PLP.Chemscore.CHOScore>
1.0000

> <Gold.PLP.Chemscore.Metal>
0.0000

> <Gold.Chemscore.Hbonds>
donor molecule, donor type, donor heavy atom, donor atom, acceptor molecule, acceptor atom, score
      L1  H     9    28       P1  7948  2.00
      L1  H     9    35       P1  7957  0.77
      P1  H  7997  8008       L1    16  1.50
      P1  H 10752 10765       L1    18  0.61
      L1  C     5    25       P1 10175  1.00

> <Gold.PLP.Chemscore.Internal.Correction>
0.0680

> <Gold.Rescore>
     Score         DG    S(hbond)    S(metal)    S(lipo)     H(rot)  DE(clash)    DE(int)     intcor
     10.49     -12.71       2.61        0.00      45.47       2.66       0.11       2.11       ----

> <Gold.Chemscore.Fitness>
10.4935

> <Gold.Chemscore.DG>
-12.7128

> <Gold.Chemscore.ZeroCoef>
-5.4800

> <Gold.Chemscore.Hbond>
2.6115

> <Gold.Chemscore.Metal>
0.0000

> <Gold.Chemscore.Lipo>
45.4730

> <Gold.Chemscore.Internal_Hbond>
0.0000

> <Gold.Chemscore.DEClash>
0.1053

> <Gold.Chemscore.DEInternal>
2.1140

> <Gold.Chemscore.Rot>
2.6601

> <Gold.Chemscore.Internal.Correction>
   9.000000E+99

> <Gold.Chemscore.Hbonds>
donor molecule, donor type, donor heavy atom, donor atom, acceptor molecule, acceptor atom, score
      L1  H     9    28       P1  7948  0.99
      L1  H     9    35       P1  7957  0.74
      P1  H  7997  8008       L1    16  0.09
      P1  H 10752 10765       L1    18  0.59

> <Gold.Chemscore.Hbond.Weighted>
-8.7223

> <Gold.Chemscore.Metal.Weighted>
-0.0000

> <Gold.Chemscore.Lipo.Weighted>
-5.3203

> <Gold.Chemscore.Internal_Hbond.Weighted>
0.0000

> <Gold.Chemscore.DEClash.Weighted>
0.1053

> <Gold.Chemscore.DEInternal.Weighted>
2.1140

> <Gold.Chemscore.Rot.Weighted>
6.8098

> <Gold.Chemscore.Internal.Correction.Weighted>
   9.000000E+99

> <Gold.Protein.RotatedTorsions>
[ 6907 6896 6895 6894 ] final  133.24 input  -60.11 | X-H torsion
[ 7974 7965 7964 7962 ] final   42.07 input  175.53 | X-H torsion
[ 8008 7997 7996 7995 ] final  -52.32 input   59.86 | X-H torsion
[ 10167 10162 10161 10158 ] final  118.07 input  -65.29 | X-H torsion
[ 10718 10713 10712 10709 ] final -105.02 input   66.30 | X-H torsion
[ 10763 10752 10751 10750 ] final -170.55 input  -60.55 | X-H torsion
[ 11005 11000 10999 10996 ] final  -32.52 input  -57.11 | X-H torsion

> <Gold.Protein.ActiveResidues>
 VAL166  LYS551  ARG553  GLY616  TRP617  ASP618  TYR619  PRO620  LYS621  CYS622 
 ASP623  PHE694  ASN695  SER759  ASP760  ASP761  ALA762  ILE779  LEU786  VAL792 
 PHE793  MET794  SER795  GLU796  ALA797  LYS798  CYS799  TRP800  GLU811  SER814 

> <Gold.Protein.RotatedAtoms>
  152.3240  133.5885  159.5763 H   0  0  0  0  0  0  0  0  0  0  0  0  # atno 6907 bound_to 6896
  150.7387  133.9968  159.3634 H   0  0  0  0  0  0  0  0  0  0  0  0  # atno 6908 bound_to 6896
  151.7849  135.0752  160.0430 H   0  0  0  0  0  0  0  0  0  0  0  0  # atno 6909 bound_to 6896
  146.0771  139.5343  142.9560 H   0  0  0  0  0  0  0  0  0  0  0  0  # atno 7974 bound_to 7965
  154.4104  140.1226  156.4972 H   0  0  0  0  0  0  0  0  0  0  0  0  # atno 8008 bound_to 7997
  155.6931  140.3495  155.4882 H   0  0  0  0  0  0  0  0  0  0  0  0  # atno 8009 bound_to 7997
  155.9451  140.1094  157.1013 H   0  0  0  0  0  0  0  0  0  0  0  0  # atno 8010 bound_to 7997
  139.6136  144.7087  151.2789 H   0  0  0  0  0  0  0  0  0  0  0  0  # atno 10167 bound_to 10162
  156.0328  130.5543  150.7480 H   0  0  0  0  0  0  0  0  0  0  0  0  # atno 10718 bound_to 10713
  154.6403  135.2898  155.0111 H   0  0  0  0  0  0  0  0  0  0  0  0  # atno 10763 bound_to 10752
  154.1240  135.6543  153.4912 H   0  0  0  0  0  0  0  0  0  0  0  0  # atno 10764 bound_to 10752
  153.0323  135.5294  154.7267 H   0  0  0  0  0  0  0  0  0  0  0  0  # atno 10765 bound_to 10752
  140.9558  133.7193  156.1292 H   0  0  0  0  0  0  0  0  0  0  0  0  # atno 11005 bound_to 11000
  145.6285  141.0309  143.1876 LP  0  0  0  0  0  0  0  0  0  0  0  0  # atno 17320 bound_to 7965
  144.7269  139.7848  143.7361 LP  0  0  0  0  0  0  0  0  0  0  0  0  # atno 17321 bound_to 7965
  140.7336  143.6791  150.8016 LP  0  0  0  0  0  0  0  0  0  0  0  0  # atno 17342 bound_to 10162
  140.0390  143.5366  152.2726 LP  0  0  0  0  0  0  0  0  0  0  0  0  # atno 17343 bound_to 10162
  157.5032  131.0920  151.0289 LP  0  0  0  0  0  0  0  0  0  0  0  0  # atno 17370 bound_to 10713
  157.0664  130.5846  149.5395 LP  0  0  0  0  0  0  0  0  0  0  0  0  # atno 17371 bound_to 10713
  140.7537  134.4016  157.5537 LP  0  0  0  0  0  0  0  0  0  0  0  0  # atno 17394 bound_to 11000
  139.8862  134.8916  156.2599 LP  0  0  0  0  0  0  0  0  0  0  0  0  # atno 17395 bound_to 11000

$$$$
