#       Name:                AV-unprocessed.smi:2104
#       Creating user name   scv26
#       Creation time:       Fri Mar 27 11:31:47 2020


#       File generated by GOLD software.
#

@<TRIPOS>MOLECULE
AV-unprocessed.smi:2104
    50    51     1
SMALL
NO_CHARGES


@<TRIPOS>ATOM
      1 ****        -4.5821   4.5625   3.5049 C.3            1 S1                 0.0000
      2 ****        -4.0695   3.2740   2.9595 C.2            1 S1                 0.0000
      3 ****        -3.8013   2.8414   1.6912 C.2            1 S1                 0.0000
      4 ****        -3.3444   1.5122   1.8967 C.2            1 S1                 0.0000
      5 ****        -2.9572   0.6983   0.8019 N.am           1 S1                 0.0000
      6 ****        -2.5127  -0.5693   0.8410 C.2            1 S1                 0.0000
      7 ****        -2.3697  -1.2404   1.8637 O.2            1 S1                 0.0000
      8 ****        -2.2329  -1.0250  -0.3881 N.am           1 S1                 0.0000
      9 ****        -1.6974  -2.3483  -0.6904 C.3            1 S1                 0.0000
     10 ****        -0.1947  -2.4337  -0.3866 C.3            1 S1                 0.0000
     11 ****         0.4878  -1.4880  -1.1971 O.3            1 S1                 0.0000
     12 ****         1.8805  -1.3766  -0.9323 C.3            1 S1                 0.0000
     13 ****         2.6428  -2.4898  -1.6812 C.3            1 S1                 0.0000
     14 ****         4.1630  -2.3248  -1.5416 C.3            1 S1                 0.0000
     15 ****         4.6123  -0.9373  -2.0196 C.3            1 S1                 0.0000
     16 ****         3.8641   0.1735  -1.2676 C.3            1 S1                 0.0000
     17 ****         2.3350   0.0247  -1.3993 C.3            1 S1                 0.0000
     18 ****         1.6119   1.1420  -0.6283 C.3            1 S1                 0.0000
     19 ****        -3.3333   1.1656   3.1747 N.2            1 S1                 0.0000
     20 ****        -3.7986   2.2927   3.8623 O.3            1 S1                 0.0000
     21 ****        -4.6472   5.3183   2.7221 H              1 S1                 0.0000
     22 ****        -3.9235   4.9417   4.2865 H              1 S1                 0.0000
     23 ****        -5.5764   4.4320   3.9326 H              1 S1                 0.0000
     24 ****        -3.9160   3.3893   0.7675 H              1 S1                 0.0000
     25 ****        -3.0238   1.1275  -0.1089 H              1 S1                 0.0000
     26 ****        -2.3771  -0.4052  -1.1719 H              1 S1                 0.0000
     27 ****        -2.2406  -3.1072  -0.1251 H              1 S1                 0.0000
     28 ****        -1.8755  -2.5596  -1.7450 H              1 S1                 0.0000
     29 ****        -0.0121  -2.2365   0.6707 H              1 S1                 0.0000
     30 ****         0.1648  -3.4412  -0.5956 H              1 S1                 0.0000
     31 ****         2.0709  -1.4592   0.1398 H              1 S1                 0.0000
     32 ****         2.3533  -3.4715  -1.3069 H              1 S1                 0.0000
     33 ****         2.3717  -2.4705  -2.7375 H              1 S1                 0.0000
     34 ****         4.4523  -2.4656  -0.4994 H              1 S1                 0.0000
     35 ****         4.6756  -3.0992  -2.1132 H              1 S1                 0.0000
     36 ****         5.6874  -0.8247  -1.8762 H              1 S1                 0.0000
     37 ****         4.4307  -0.8412  -3.0908 H              1 S1                 0.0000
     38 ****         4.1468   0.1505  -0.2141 H              1 S1                 0.0000
     39 ****         4.1783   1.1456  -1.6494 H              1 S1                 0.0000
     40 ****         2.0788   0.1304  -2.4547 H              1 S1                 0.0000
     41 ****         1.8122   1.0785   0.4417 H              1 S1                 0.0000
     42 ****         0.5317   1.0872  -0.7669 H              1 S1                 0.0000
     43 ****         1.9345   2.1261  -0.9692 H              1 S1                 0.0000
     44 ****        -2.5913  -0.8461   2.7556 LP             1 S1                 0.0000
     45 ****        -2.0320  -2.1796   1.8023 LP             1 S1                 0.0000
     46 ****         0.0697  -0.5916  -1.0497 LP             1 S1                 0.0000
     47 ****         0.3727  -1.7563  -2.1535 LP             1 S1                 0.0000
     48 ****        -3.0531   0.2883   3.5644 LP             1 S1                 0.0000
     49 ****        -4.6306   2.0599   4.3659 LP             1 S1                 0.0000
     50 ****        -3.0987   2.6087   4.5028 LP             1 S1                 0.0000
@<TRIPOS>BOND
    1    1    2 1     
    2    1   21 1     
    3    1   22 1     
    4    1   23 1     
    5    2   20 1     
    6    2    3 2     
    7    3    4 1     
    8    3   24 1     
    9    4    5 1     
   10    4   19 2     
   11    5    6 am    
   12    5   25 1     
   13    6    7 2     
   14    6    8 am    
   15    8    9 1     
   16    8   26 1     
   17    9   10 1     
   18    9   27 1     
   19    9   28 1     
   20   10   11 1     
   21   10   29 1     
   22   10   30 1     
   23   11   12 1     
   24   12   17 1     
   25   12   13 1     
   26   12   31 1     
   27   13   14 1     
   28   13   32 1     
   29   13   33 1     
   30   14   15 1     
   31   14   34 1     
   32   14   35 1     
   33   15   16 1     
   34   15   36 1     
   35   15   37 1     
   36   16   17 1     
   37   16   38 1     
   38   16   39 1     
   39   17   18 1     
   40   17   40 1     
   41   18   41 1     
   42   18   42 1     
   43   18   43 1     
   44   19   20 1     
   45    7   44 1     
   46    7   45 1     
   47   11   46 1     
   48   11   47 1     
   49   19   48 1     
   50   20   49 1     
   51   20   50 1     
@<TRIPOS>SUBSTRUCTURE
      1 S1             1
@<TRIPOS>SET
LONE_PAIRS      STATIC     ATOMS    <user>   **** ""
7 44 45 46 47 48 49 50
DONOR_HYDROGENS      STATIC     ATOMS    <user>   **** ""
2 25 26
ATOM$BLUE        STATIC     ATOMS    COLORGROUP SYSTEM
7 44 45 46 47 48 49 50
ATOM$RED        STATIC     ATOMS    COLORGROUP SYSTEM
2 25 26
