AV-unprocessed.smi:2843|AV-procd|sdf|10937|dock7
  -GOLD-   2272015383D 1   1.00000     0.00000
 Structure written by MMmdl.
 29 29  0  0  0  0  0  0  0  0  1 V2000
  153.4519  141.2599  160.0823 C   0  0  0  0  0  0  0  0  0  0  0  0
  153.0275  140.3034  159.0214 C   0  0  0  0  0  0  0  0  0  0  0  0
  151.8388  140.0836  158.3858 C   0  0  0  0  0  0  0  0  0  0  0  0
  152.1324  139.0274  157.4796 C   0  0  0  0  0  0  0  0  0  0  0  0
  151.2130  138.3544  156.5013 C   0  0  0  0  0  0  0  0  0  0  0  0
  151.8139  138.6571  154.7864 S   0  0  0  0  0  0  0  0  0  0  0  0
  152.7991  139.7492  154.8059 O   0  0  0  0  0  0  0  0  0  0  0  0
  152.1623  137.3648  154.1759 O   0  0  0  0  0  0  0  0  0  0  0  0
  150.4023  139.2485  153.9929 N   0  0  0  0  0  0  0  0  0  0  0  0
  149.7551  140.4361  154.5465 C   0  0  0  0  0  0  0  0  0  0  0  0
  148.2932  140.5092  154.0872 C   0  0  0  0  0  0  0  0  0  0  0  0
  147.6195  141.8265  154.4930 C   0  0  0  0  0  0  0  0  0  0  0  0
  148.3821  142.9180  154.0259 O   0  0  0  0  0  0  0  0  0  0  0  0
  153.3941  138.6399  157.5708 N   0  0  0  0  0  0  0  0  0  0  0  0
  153.9745  139.4509  158.5523 O   0  0  0  0  0  0  0  0  0  0  0  0
  152.6367  141.9326  160.3499 H   0  0  0  0  0  0  0  0  0  0  0  0
  154.2919  141.8660  159.7425 H   0  0  0  0  0  0  0  0  0  0  0  0
  153.7603  140.7270  160.9819 H   0  0  0  0  0  0  0  0  0  0  0  0
  150.9042  140.6022  158.5403 H   0  0  0  0  0  0  0  0  0  0  0  0
  151.1713  137.2771  156.6659 H   0  0  0  0  0  0  0  0  0  0  0  0
  150.1989  138.7442  156.5864 H   0  0  0  0  0  0  0  0  0  0  0  0
  149.7245  138.4989  153.8558 H   0  0  0  0  0  0  0  0  0  0  0  0
  149.8094  140.3960  155.6351 H   0  0  0  0  0  0  0  0  0  0  0  0
  150.3004  141.3243  154.2252 H   0  0  0  0  0  0  0  0  0  0  0  0
  148.2469  140.3964  153.0028 H   0  0  0  0  0  0  0  0  0  0  0  0
  147.7364  139.6715  154.5103 H   0  0  0  0  0  0  0  0  0  0  0  0
  146.6145  141.8900  154.0742 H   0  0  0  0  0  0  0  0  0  0  0  0
  147.5276  141.8947  155.5775 H   0  0  0  0  0  0  0  0  0  0  0  0
  148.5452  143.5032  154.7499 H   0  0  0  0  0  0  0  0  0  0  0  0
  1  2  1  0  0  0  0
  1 16  1  0  0  0  0
  1 17  1  0  0  0  0
  1 18  1  0  0  0  0
  2 15  1  0  0  0  0
  2  3  2  0  0  0  0
  3  4  1  0  0  0  0
  3 19  1  0  0  0  0
  4  5  1  0  0  0  0
  4 14  2  0  0  0  0
  5  6  1  0  0  0  0
  5 20  1  0  0  0  0
  5 21  1  0  0  0  0
  6  7  2  0  0  0  0
  6  8  2  0  0  0  0
  6  9  1  0  0  0  0
  9 10  1  0  0  0  0
  9 22  1  0  0  0  0
 10 11  1  0  0  0  0
 10 23  1  0  0  0  0
 10 24  1  0  0  0  0
 11 12  1  0  0  0  0
 11 25  1  0  0  0  0
 11 26  1  0  0  0  0
 12 13  1  0  0  0  0
 12 27  1  0  0  0  0
 12 28  1  0  0  0  0
 13 29  1  0  0  0  0
 14 15  1  0  0  0  0
M  END
> <s_m_source_file>
AV-unprocessed.smi

> <i_m_source_file_index>
2843

> <i_lp_mmshare_version>
43012

> <i_f3d_flags>
0

> <s_epik_input>
W0NIM11jMVtjSF1jKG5vMSlbQ0gyXVMoPU8pKD1PKVtOSF1bQ0gyXVtDSDJdW0NIMl1bT0hd

> <s_epik_cmdline>
J2VwaWtfcHl0aG9uJywgJy1waCcsICc3LjAnLCAnLXRuJywgJzgnLCAnLW1hJywgJzIwMCcsICctbWV0YWxfYmluZGluZycsICctaW1hZScsICc8aW5maWxlLm1hZT4nLCAnLW9tYWUnLCAnPG91dGZpbGUubWFlPic=

> <r_lp_tautomer_probability>
1

> <r_epik_Ionization_Penalty>
0.000153409

> <r_epik_Ionization_Penalty_Charging>
0

> <r_epik_Ionization_Penalty_Neutral>
0.000153409

> <r_epik_State_Penalty>
-0

> <r_epik_Charging_Adjusted_Penalty>
0

> <i_epik_Tot_Q>
0

> <i_epik_Tot_abs_Q>
0

> <r_epik_Metal_State_Penalty>
0.110712

> <b_epik_Metal_Only>
0

> <s_lp_Force_Field>
OPLS_2005

> <r_lp_Energy>
-3.16936

> <b_lp_Chiralities_Consistent>
1

> <s_lp_Variant>
AV-unprocessed.smi:2843-1

> <Gold.Version>
5.8.1

> <Gold.Id.Protein>
6NUR|6NUR_protein|mol2

> <Gold.PLP.Fitness>
39.4417

> <Gold.PLP.PLP>
-29.5620

> <Gold.PLP.part.hbond>
-9.6050

> <Gold.PLP.part.metal>
0.0000

> <Gold.PLP.part.buried>
-1.2054

> <Gold.PLP.part.nonpolar>
-18.2868

> <Gold.PLP.part.repulsive>
0.1874

> <Gold.PLP.ligand.clash>
0.0000

> <Gold.PLP.ligand.torsion>
0.3084

> <Gold.PLP.Chemscore.Hbond>
3.4432

> <Gold.PLP.Chemscore.CHOScore>
0.0000

> <Gold.PLP.Chemscore.Metal>
0.0000

> <Gold.Chemscore.Hbonds>
donor molecule, donor type, donor heavy atom, donor atom, acceptor molecule, acceptor atom, score
      L1  H    13    29       P1  8028  0.99
      P1  H  7989  7998       L1     7  0.27
      P1  H  7997  8009       L1    15  0.31
      P1  H  7997  8010       L1     7  0.99
      P1  H 10752 10764       L1     8  0.86

> <Gold.PLP.Chemscore.Internal.Correction>
0.1670

> <Gold.Rescore>
     Score         DG    S(hbond)    S(metal)    S(lipo)     H(rot)  DE(clash)    DE(int)     intcor
     12.92     -13.48       2.96        0.00      51.57       3.09       0.13       0.43       ----

> <Gold.Chemscore.Fitness>
12.9222

> <Gold.Chemscore.DG>
-13.4791

> <Gold.Chemscore.ZeroCoef>
-5.4800

> <Gold.Chemscore.Hbond>
2.9595

> <Gold.Chemscore.Metal>
0.0000

> <Gold.Chemscore.Lipo>
51.5715

> <Gold.Chemscore.Internal_Hbond>
0.0000

> <Gold.Chemscore.DEClash>
0.1281

> <Gold.Chemscore.DEInternal>
0.4289

> <Gold.Chemscore.Rot>
3.0935

> <Gold.Chemscore.Internal.Correction>
   9.000000E+99

> <Gold.Chemscore.Hbonds>
donor molecule, donor type, donor heavy atom, donor atom, acceptor molecule, acceptor atom, score
      L1  H    13    29       P1  8028  0.92
      P1  H  7989  7998       L1     7  0.02
      P1  H  7997  8009       L1    15  0.02
      P1  H  7997  8010       L1     7  0.93
      P1  H  8011  8017       L1    13  0.01
      P1  H 10752 10764       L1     8  0.85

> <Gold.Chemscore.Hbond.Weighted>
-9.8847

> <Gold.Chemscore.Metal.Weighted>
-0.0000

> <Gold.Chemscore.Lipo.Weighted>
-6.0339

> <Gold.Chemscore.Internal_Hbond.Weighted>
0.0000

> <Gold.Chemscore.DEClash.Weighted>
0.1281

> <Gold.Chemscore.DEInternal.Weighted>
0.4289

> <Gold.Chemscore.Rot.Weighted>
7.9195

> <Gold.Chemscore.Internal.Correction.Weighted>
   9.000000E+99

> <Gold.Protein.RotatedTorsions>
[ 6907 6896 6895 6894 ] final  -68.53 input  -60.11 | X-H torsion
[ 7974 7965 7964 7962 ] final   46.97 input  175.53 | X-H torsion
[ 8008 7997 7996 7995 ] final  100.06 input   59.86 | X-H torsion
[ 10167 10162 10161 10158 ] final  116.13 input  -65.29 | X-H torsion
[ 10718 10713 10712 10709 ] final   16.07 input   66.30 | X-H torsion
[ 10763 10752 10751 10750 ] final  -86.18 input  -60.55 | X-H torsion
[ 11005 11000 10999 10996 ] final  -82.00 input  -57.11 | X-H torsion

> <Gold.Protein.ActiveResidues>
 VAL166  LYS551  ARG553  GLY616  TRP617  ASP618  TYR619  PRO620  LYS621  CYS622 
 ASP623  PHE694  ASN695  SER759  ASP760  ASP761  ALA762  ILE779  LEU786  VAL792 
 PHE793  MET794  SER795  GLU796  ALA797  LYS798  CYS799  TRP800  GLU811  SER814 

> <Gold.Protein.RotatedAtoms>
  150.7351  134.5726  159.5897 H   0  0  0  0  0  0  0  0  0  0  0  0  # atno 6907 bound_to 6896
  152.3160  134.7436  160.0334 H   0  0  0  0  0  0  0  0  0  0  0  0  # atno 6908 bound_to 6896
  151.7967  133.3329  159.3551 H   0  0  0  0  0  0  0  0  0  0  0  0  # atno 6909 bound_to 6896
  146.0341  139.4799  142.9819 H   0  0  0  0  0  0  0  0  0  0  0  0  # atno 7974 bound_to 7965
  156.1167  140.3219  155.8149 H   0  0  0  0  0  0  0  0  0  0  0  0  # atno 8008 bound_to 7997
  155.4578  140.0537  157.3011 H   0  0  0  0  0  0  0  0  0  0  0  0  # atno 8009 bound_to 7997
  154.4798  140.2048  155.9806 H   0  0  0  0  0  0  0  0  0  0  0  0  # atno 8010 bound_to 7997
  139.6268  144.7109  151.2516 H   0  0  0  0  0  0  0  0  0  0  0  0  # atno 10167 bound_to 10162
  157.0625  130.6315  149.5789 H   0  0  0  0  0  0  0  0  0  0  0  0  # atno 10718 bound_to 10713
  154.6195  135.5458  153.7560 H   0  0  0  0  0  0  0  0  0  0  0  0  # atno 10763 bound_to 10752
  153.0232  135.6409  154.1461 H   0  0  0  0  0  0  0  0  0  0  0  0  # atno 10764 bound_to 10752
  154.1396  135.2909  155.3144 H   0  0  0  0  0  0  0  0  0  0  0  0  # atno 10765 bound_to 10752
  141.1665  133.7223  156.8506 H   0  0  0  0  0  0  0  0  0  0  0  0  # atno 11005 bound_to 11000
  145.6993  141.0141  143.1513 LP  0  0  0  0  0  0  0  0  0  0  0  0  # atno 17320 bound_to 7965
  144.7043  139.8625  143.7434 LP  0  0  0  0  0  0  0  0  0  0  0  0  # atno 17321 bound_to 7965
  140.7416  143.6553  150.8212 LP  0  0  0  0  0  0  0  0  0  0  0  0  # atno 17342 bound_to 10162
  140.0172  143.5580  152.2815 LP  0  0  0  0  0  0  0  0  0  0  0  0  # atno 17343 bound_to 10162
  155.9974  130.5045  150.7533 LP  0  0  0  0  0  0  0  0  0  0  0  0  # atno 17370 bound_to 10713
  157.4943  131.0913  151.0390 LP  0  0  0  0  0  0  0  0  0  0  0  0  # atno 17371 bound_to 10713
  140.1918  134.8960  157.3069 LP  0  0  0  0  0  0  0  0  0  0  0  0  # atno 17394 bound_to 11000
  140.2282  134.3941  155.7534 LP  0  0  0  0  0  0  0  0  0  0  0  0  # atno 17395 bound_to 11000

$$$$
