#       Name:                AV-unprocessed.smi:1797
#       Creating user name   scv26
#       Creation time:       Fri Mar 27 08:50:55 2020


#       File generated by GOLD software.
#

@<TRIPOS>MOLECULE
AV-unprocessed.smi:1797
    36    37     1
SMALL
NO_CHARGES


@<TRIPOS>ATOM
      1 ****         0.2562   6.5364  -4.0947 C.3            1 S1                 0.0000
      2 ****         0.5915   5.2590  -3.4038 C.2            1 S1                 0.0000
      3 ****         1.7862   4.6681  -3.5206 N.2            1 S1                 0.0000
      4 ****         1.8641   3.4911  -2.7902 N.2            1 S1                 0.0000
      5 ****         0.7229   3.2259  -2.1379 C.2            1 S1                 0.0000
      6 ****         0.5046   2.0827  -1.3146 N.am           1 S1                 0.0000
      7 ****         1.3264   1.0856  -0.9222 C.2            1 S1                 0.0000
      8 ****         2.5000   1.0534  -1.2882 O.2            1 S1                 0.0000
      9 ****         0.7893   0.1439  -0.1291 N.am           1 S1                 0.0000
     10 ****         1.4917  -1.0192   0.4026 C.3            1 S1                 0.0000
     11 ****         0.7482  -1.5557   1.6321 C.3            1 S1                 0.0000
     12 ****         1.4761  -2.7694   2.2314 C.3            1 S1                 0.0000
     13 ****         1.9093  -3.8017   1.1798 C.2            1 S1                 0.0000
     14 ****         2.1959  -4.9426   1.5354 O.2            1 S1                 0.0000
     15 ****         1.9999  -3.4234  -0.1073 N.am           1 S1                 0.0000
     16 ****         1.6068  -2.1285  -0.6624 C.3            1 S1                 0.0000
     17 ****        -0.5552   4.4060  -2.3781 S.3            1 S1                 0.0000
     18 ****         1.0762   7.2476  -3.9919 H              1 S1                 0.0000
     19 ****        -0.6425   6.9769  -3.6626 H              1 S1                 0.0000
     20 ****         0.0808   6.3518  -5.1546 H              1 S1                 0.0000
     21 ****        -0.4380   2.0038  -0.9615 H              1 S1                 0.0000
     22 ****        -0.1831   0.2437   0.1260 H              1 S1                 0.0000
     23 ****         2.4932  -0.7171   0.7160 H              1 S1                 0.0000
     24 ****         0.6598  -0.7745   2.3880 H              1 S1                 0.0000
     25 ****        -0.2702  -1.8374   1.3592 H              1 S1                 0.0000
     26 ****         2.3736  -2.4340   2.7521 H              1 S1                 0.0000
     27 ****         0.8450  -3.2525   2.9781 H              1 S1                 0.0000
     28 ****         2.3193  -4.1154  -0.7698 H              1 S1                 0.0000
     29 ****         0.6468  -2.2678  -1.1613 H              1 S1                 0.0000
     30 ****         2.3219  -1.8429  -1.4344 H              1 S1                 0.0000
     31 ****         2.5369   5.0330  -4.0713 LP             1 S1                 0.0000
     32 ****         2.6762   2.9087  -2.7544 LP             1 S1                 0.0000
     33 ****         2.8576   1.7721  -1.8846 LP             1 S1                 0.0000
     34 ****         3.0966   0.3087  -0.9894 LP             1 S1                 0.0000
     35 ****         2.1460  -5.1922   2.5024 LP             1 S1                 0.0000
     36 ****         2.4789  -5.6212   0.8577 LP             1 S1                 0.0000
@<TRIPOS>BOND
    1    1    2 1     
    2    1   18 1     
    3    1   19 1     
    4    1   20 1     
    5    2   17 1     
    6    2    3 2     
    7    3    4 1     
    8    4    5 2     
    9    5    6 1     
   10    5   17 1     
   11    6    7 am    
   12    6   21 1     
   13    7    8 2     
   14    7    9 am    
   15    9   10 1     
   16    9   22 1     
   17   10   16 1     
   18   10   11 1     
   19   10   23 1     
   20   11   12 1     
   21   11   24 1     
   22   11   25 1     
   23   12   13 1     
   24   12   26 1     
   25   12   27 1     
   26   13   14 2     
   27   13   15 am    
   28   15   16 1     
   29   15   28 1     
   30   16   29 1     
   31   16   30 1     
   32    3   31 1     
   33    4   32 1     
   34    8   33 1     
   35    8   34 1     
   36   14   35 1     
   37   14   36 1     
@<TRIPOS>SUBSTRUCTURE
      1 S1             1
@<TRIPOS>SET
LONE_PAIRS      STATIC     ATOMS    <user>   **** ""
6 31 32 33 34 35 36
DONOR_HYDROGENS      STATIC     ATOMS    <user>   **** ""
3 21 22 28
ATOM$BLUE        STATIC     ATOMS    COLORGROUP SYSTEM
6 31 32 33 34 35 36
ATOM$RED        STATIC     ATOMS    COLORGROUP SYSTEM
3 21 22 28
