AV-unprocessed.smi:3156|AV-procd|sdf|12035|dock2
  -GOLD-   2272017453D 1   1.00000     0.00000
 Structure written by MMmdl.
 41 42  0  0  0  0  0  0  0  0  2 V2000
  152.0428  139.0158  157.5645 C   0  0  0  0  0  0  0  0  0  0  0  0
  151.8528  139.8432  156.2802 C   0  0  2  0  0  0  0  0  0  0  0  0
  150.5651  140.5682  156.3661 N   0  3  0  0  0  0  0  0  0  0  0  0
  150.2622  141.1431  157.6930 C   0  0  0  0  0  0  0  0  0  0  0  0
  151.3905  142.0760  158.1765 C   0  0  1  0  0  0  0  0  0  0  0  0
  151.3797  143.4371  157.4519 C   0  0  0  0  0  0  0  0  0  0  0  0
  152.4604  144.3622  158.0229 C   0  0  0  0  0  0  0  0  0  0  0  0
  152.3012  144.4630  159.5433 C   0  0  0  0  0  0  0  0  0  0  0  0
  152.2603  143.0603  160.1694 C   0  0  0  0  0  0  0  0  0  0  0  0
  151.2165  142.2935  159.5755 O   0  0  0  0  0  0  0  0  0  0  0  0
  151.9021  138.9874  154.9861 C   0  0  1  0  0  0  0  0  0  0  0  0
  153.3375  138.5893  154.5912 C   0  0  0  0  0  0  0  0  0  0  0  0
  151.0626  137.7994  155.0787 N   0  0  0  0  0  0  0  0  0  0  0  0
  149.7102  137.7280  155.3429 C   0  0  0  0  0  0  0  0  0  0  0  0
  149.3598  136.4085  155.3266 C   0  0  0  0  0  0  0  0  0  0  0  0
  150.5803  135.7376  155.0373 C   0  0  0  0  0  0  0  0  0  0  0  0
  151.5969  136.5716  154.8890 N   0  0  0  0  0  0  0  0  0  0  0  0
  153.0214  138.5363  157.5986 H   0  0  0  0  0  0  0  0  0  0  0  0
  151.2862  138.2350  157.6490 H   0  0  0  0  0  0  0  0  0  0  0  0
  151.9679  139.6481  158.4498 H   0  0  0  0  0  0  0  0  0  0  0  0
  152.6692  140.5671  156.2432 H   0  0  0  0  0  0  0  0  0  0  0  0
  150.5777  141.3173  155.6885 H   0  0  0  0  0  0  0  0  0  0  0  0
  149.3126  141.6771  157.6374 H   0  0  0  0  0  0  0  0  0  0  0  0
  150.1166  140.3281  158.4036 H   0  0  0  0  0  0  0  0  0  0  0  0
  152.3587  141.5947  158.0230 H   0  0  0  0  0  0  0  0  0  0  0  0
  151.5377  143.2974  156.3820 H   0  0  0  0  0  0  0  0  0  0  0  0
  150.4024  143.9086  157.5655 H   0  0  0  0  0  0  0  0  0  0  0  0
  153.4484  143.9678  157.7817 H   0  0  0  0  0  0  0  0  0  0  0  0
  152.3967  145.3505  157.5667 H   0  0  0  0  0  0  0  0  0  0  0  0
  153.1176  145.0452  159.9712 H   0  0  0  0  0  0  0  0  0  0  0  0
  151.3788  144.9944  159.7811 H   0  0  0  0  0  0  0  0  0  0  0  0
  153.2171  142.5505  160.0459 H   0  0  0  0  0  0  0  0  0  0  0  0
  152.0767  143.1343  161.2415 H   0  0  0  0  0  0  0  0  0  0  0  0
  151.4952  139.5899  154.1724 H   0  0  0  0  0  0  0  0  0  0  0  0
  153.9517  139.4642  154.3780 H   0  0  0  0  0  0  0  0  0  0  0  0
  153.3383  137.9695  153.6939 H   0  0  0  0  0  0  0  0  0  0  0  0
  153.8295  138.0248  155.3840 H   0  0  0  0  0  0  0  0  0  0  0  0
  149.1155  138.6122  155.5195 H   0  0  0  0  0  0  0  0  0  0  0  0
  148.3799  135.9866  155.4940 H   0  0  0  0  0  0  0  0  0  0  0  0
  150.7563  134.6773  154.9306 H   0  0  0  0  0  0  0  0  0  0  0  0
  149.8236  139.9277  156.1210 H   0  0  0  0  0  0  0  0  0  0  0  0
  1  2  1  0  0  0  0
  1 18  1  0  0  0  0
  1 19  1  0  0  0  0
  1 20  1  0  0  0  0
  2  3  1  0  0  0  0
  2 11  1  0  0  0  0
  2 21  1  0  0  0  0
  3  4  1  0  0  0  0
  3 22  1  0  0  0  0
  3 41  1  0  0  0  0
  4  5  1  0  0  0  0
  4 23  1  0  0  0  0
  4 24  1  0  0  0  0
  5 10  1  0  0  0  0
  5  6  1  0  0  0  0
  5 25  1  0  0  0  0
  6  7  1  0  0  0  0
  6 26  1  0  0  0  0
  6 27  1  0  0  0  0
  7  8  1  0  0  0  0
  7 28  1  0  0  0  0
  7 29  1  0  0  0  0
  8  9  1  0  0  0  0
  8 30  1  0  0  0  0
  8 31  1  0  0  0  0
  9 10  1  0  0  0  0
  9 32  1  0  0  0  0
  9 33  1  0  0  0  0
 11 12  1  0  0  0  0
 11 13  1  0  0  0  0
 11 34  1  0  0  0  0
 12 35  1  0  0  0  0
 12 36  1  0  0  0  0
 12 37  1  0  0  0  0
 13 17  1  0  0  0  0
 13 14  1  0  0  0  0
 14 15  2  0  0  0  0
 14 38  1  0  0  0  0
 15 16  1  0  0  0  0
 15 39  1  0  0  0  0
 16 17  2  0  0  0  0
 16 40  1  0  0  0  0
M  CHG  1   3   1
M  END
> <s_m_source_file>
AV-unprocessed.smi

> <i_m_source_file_index>
3156

> <i_lp_mmshare_version>
43012

> <i_f3d_flags>
0

> <s_epik_input>
bjFbY0hdW2NIXVtjSF1uMVtDQEBIXShbQ0gzXSlbQ0BIXShbQ0gzXSlbTkhdW0NIMl1bQ0BASF0yW0NIMl1bQ0gyXVtDSDJdW0NIMl1PMg==

> <s_epik_cmdline>
J2VwaWtfcHl0aG9uJywgJy1waCcsICc3LjAnLCAnLXRuJywgJzgnLCAnLW1hJywgJzIwMCcsICctbWV0YWxfYmluZGluZycsICctaW1hZScsICc8aW5maWxlLm1hZT4nLCAnLW9tYWUnLCAnPG91dGZpbGUubWFlPic=

> <r_lp_tautomer_probability>
1

> <r_epik_Ionization_Penalty>
0.00658015

> <r_epik_Ionization_Penalty_Charging>
0.00656881

> <r_epik_Ionization_Penalty_Neutral>
1.13431e-05

> <r_epik_State_Penalty>
0.0048654

> <r_epik_Charging_Adjusted_Penalty>
0.0114342

> <i_epik_Tot_Q>
1

> <i_epik_Tot_abs_Q>
1

> <r_epik_Metal_State_Penalty>
-0

> <b_epik_Metal_Only>
0

> <s_lp_Force_Field>
OPLS_2005

> <r_lp_Energy>
21.7915

> <b_lp_Chiralities_Consistent>
1

> <s_lp_Variant>
AV-unprocessed.smi:3156-7

> <Gold.Version>
5.8.1

> <Gold.Id.Protein>
6NUR|6NUR_protein|mol2

> <Gold.PLP.Fitness>
39.7608

> <Gold.PLP.PLP>
-37.7167

> <Gold.PLP.part.hbond>
-1.7950

> <Gold.PLP.part.metal>
0.0000

> <Gold.PLP.part.buried>
-3.6869

> <Gold.PLP.part.nonpolar>
-32.4651

> <Gold.PLP.part.repulsive>
0.2059

> <Gold.PLP.ligand.clash>
0.0000

> <Gold.PLP.ligand.torsion>
0.5200

> <Gold.PLP.Chemscore.Hbond>
1.0000

> <Gold.PLP.Chemscore.CHOScore>
0.0000

> <Gold.PLP.Chemscore.Metal>
0.0000

> <Gold.Chemscore.Hbonds>
donor molecule, donor type, donor heavy atom, donor atom, acceptor molecule, acceptor atom, score
      P1  H 10752 10764       L1    17  1.00

> <Gold.PLP.Chemscore.Internal.Correction>
0.0842

> <Gold.Rescore>
     Score         DG    S(hbond)    S(metal)    S(lipo)     H(rot)  DE(clash)    DE(int)     intcor
     16.07     -16.58       0.94        0.00     102.80       1.59       0.04       0.46       ----

> <Gold.Chemscore.Fitness>
16.0710

> <Gold.Chemscore.DG>
-16.5757

> <Gold.Chemscore.ZeroCoef>
-5.4800

> <Gold.Chemscore.Hbond>
0.9425

> <Gold.Chemscore.Metal>
0.0000

> <Gold.Chemscore.Lipo>
102.8039

> <Gold.Chemscore.Internal_Hbond>
0.0000

> <Gold.Chemscore.DEClash>
0.0430

> <Gold.Chemscore.DEInternal>
0.4617

> <Gold.Chemscore.Rot>
1.5938

> <Gold.Chemscore.Internal.Correction>
   9.000000E+99

> <Gold.Chemscore.Hbonds>
donor molecule, donor type, donor heavy atom, donor atom, acceptor molecule, acceptor atom, score
      P1  H 10752 10764       L1    17  0.55

> <Gold.Chemscore.Hbond.Weighted>
-3.1479

> <Gold.Chemscore.Metal.Weighted>
-0.0000

> <Gold.Chemscore.Lipo.Weighted>
-12.0281

> <Gold.Chemscore.Internal_Hbond.Weighted>
0.0000

> <Gold.Chemscore.DEClash.Weighted>
0.0430

> <Gold.Chemscore.DEInternal.Weighted>
0.4617

> <Gold.Chemscore.Rot.Weighted>
4.0802

> <Gold.Chemscore.Internal.Correction.Weighted>
   9.000000E+99

> <Gold.Protein.RotatedTorsions>
[ 6907 6896 6895 6894 ] final  154.05 input  -60.11 | X-H torsion
[ 7974 7965 7964 7962 ] final   31.57 input  175.53 | X-H torsion
[ 8008 7997 7996 7995 ] final  119.65 input   59.86 | X-H torsion
[ 10167 10162 10161 10158 ] final  -89.36 input  -65.29 | X-H torsion
[ 10718 10713 10712 10709 ] final -141.31 input   66.30 | X-H torsion
[ 10763 10752 10751 10750 ] final  -67.22 input  -60.55 | X-H torsion
[ 11005 11000 10999 10996 ] final  -63.53 input  -57.11 | X-H torsion

> <Gold.Protein.ActiveResidues>
 VAL166  LYS551  ARG553  GLY616  TRP617  ASP618  TYR619  PRO620  LYS621  CYS622 
 ASP623  PHE694  ASN695  SER759  ASP760  ASP761  ALA762  ILE779  LEU786  VAL792 
 PHE793  MET794  SER795  GLU796  ALA797  LYS798  CYS799  TRP800  GLU811  SER814 

> <Gold.Protein.RotatedAtoms>
  152.0640  133.4075  159.4429 H   0  0  0  0  0  0  0  0  0  0  0  0  # atno 6907 bound_to 6896
  150.6865  134.3168  159.4779 H   0  0  0  0  0  0  0  0  0  0  0  0  # atno 6908 bound_to 6896
  152.0992  134.9353  160.0620 H   0  0  0  0  0  0  0  0  0  0  0  0  # atno 6909 bound_to 6896
  146.1542  139.6640  142.9078 H   0  0  0  0  0  0  0  0  0  0  0  0  # atno 7974 bound_to 7965
  156.2606  140.2848  156.1025 H   0  0  0  0  0  0  0  0  0  0  0  0  # atno 8008 bound_to 7997
  155.1344  140.0394  157.2800 H   0  0  0  0  0  0  0  0  0  0  0  0  # atno 8009 bound_to 7997
  154.6575  140.2559  155.7151 H   0  0  0  0  0  0  0  0  0  0  0  0  # atno 8010 bound_to 7997
  140.3656  143.2820  151.9562 H   0  0  0  0  0  0  0  0  0  0  0  0  # atno 10167 bound_to 10162
  156.3325  130.7594  151.1714 H   0  0  0  0  0  0  0  0  0  0  0  0  # atno 10718 bound_to 10713
  154.3712  135.6094  153.5741 H   0  0  0  0  0  0  0  0  0  0  0  0  # atno 10763 bound_to 10752
  152.9790  135.5838  154.4519 H   0  0  0  0  0  0  0  0  0  0  0  0  # atno 10764 bound_to 10752
  154.4273  135.2847  155.1913 H   0  0  0  0  0  0  0  0  0  0  0  0  # atno 10765 bound_to 10752
  141.1396  133.6653  156.5694 H   0  0  0  0  0  0  0  0  0  0  0  0  # atno 11005 bound_to 11000
  145.4750  141.0437  143.2678 LP  0  0  0  0  0  0  0  0  0  0  0  0  # atno 17320 bound_to 7965
  144.7942  139.6268  143.7100 LP  0  0  0  0  0  0  0  0  0  0  0  0  # atno 17321 bound_to 7965
  139.4809  144.5954  151.7700 LP  0  0  0  0  0  0  0  0  0  0  0  0  # atno 17342 bound_to 10162
  140.5084  144.1062  150.5988 LP  0  0  0  0  0  0  0  0  0  0  0  0  # atno 17343 bound_to 10162
  157.7433  131.0477  150.4959 LP  0  0  0  0  0  0  0  0  0  0  0  0  # atno 17370 bound_to 10713
  156.5127  130.4143  149.6293 LP  0  0  0  0  0  0  0  0  0  0  0  0  # atno 17371 bound_to 10713
  140.3925  134.7428  157.4730 LP  0  0  0  0  0  0  0  0  0  0  0  0  # atno 17394 bound_to 11000
  140.0556  134.6069  155.8809 LP  0  0  0  0  0  0  0  0  0  0  0  0  # atno 17395 bound_to 11000

$$$$
