AV-unprocessed.smi:1423|AV-procd|sdf|5794|dock3
  -GOLD-   22720 5443D 1   1.00000     0.00000
 Structure written by MMmdl.
 43 44  0  0  0  0  0  0  0  0  1 V2000
  146.8504  128.6364  152.3029 C   0  0  0  0  0  0  0  0  0  0  0  0
  147.6668  128.9694  153.4206 O   0  0  0  0  0  0  0  0  0  0  0  0
  148.0866  130.2766  153.5586 C   0  0  0  0  0  0  0  0  0  0  0  0
  149.2542  130.5359  154.3029 C   0  0  0  0  0  0  0  0  0  0  0  0
  149.6903  131.8673  154.4481 C   0  0  0  0  0  0  0  0  0  0  0  0
  148.9418  132.9034  153.8381 C   0  0  0  0  0  0  0  0  0  0  0  0
  149.2618  134.2888  153.8951 N   0  0  0  0  0  0  0  0  0  0  0  0
  150.0194  134.9596  154.7802 C   0  0  0  0  0  0  0  0  0  0  0  0
  150.5602  134.4777  155.7746 O   0  0  0  0  0  0  0  0  0  0  0  0
  150.1184  136.2532  154.4420 N   0  0  0  0  0  0  0  0  0  0  0  0
  150.8831  137.2592  155.1726 C   0  0  0  0  0  0  0  0  0  0  0  0
  150.4628  137.3067  156.6500 C   0  0  0  0  0  0  0  0  0  0  0  0
  151.1765  138.4523  157.3889 C   0  0  0  0  0  0  0  0  0  0  0  0
  150.8904  139.7428  156.7526 N   0  0  0  0  0  0  0  0  0  0  0  0
  151.4972  140.8257  157.5608 C   0  0  0  0  0  0  0  0  0  0  0  0
  150.9971  142.2356  157.2212 C   0  0  0  0  0  0  0  0  0  0  0  0
  150.0569  142.3383  156.2788 N   0  0  0  0  0  0  0  0  0  0  0  0
  151.4516  143.2173  157.8048 O   0  0  0  0  0  0  0  0  0  0  0  0
  151.3660  139.7422  155.3611 C   0  0  0  0  0  0  0  0  0  0  0  0
  150.6589  138.6431  154.5484 C   0  0  0  0  0  0  0  0  0  0  0  0
  147.7865  132.5359  153.1172 C   0  0  0  0  0  0  0  0  0  0  0  0
  147.3626  131.2628  152.9752 N   0  0  0  0  0  0  0  0  0  0  0  0
  146.6063  127.5749  152.3375 H   0  0  0  0  0  0  0  0  0  0  0  0
  147.3660  128.8259  151.3603 H   0  0  0  0  0  0  0  0  0  0  0  0
  145.9119  129.1924  152.3159 H   0  0  0  0  0  0  0  0  0  0  0  0
  149.8069  129.7265  154.7565 H   0  0  0  0  0  0  0  0  0  0  0  0
  150.5832  132.0525  155.0225 H   0  0  0  0  0  0  0  0  0  0  0  0
  148.8860  134.8415  153.1384 H   0  0  0  0  0  0  0  0  0  0  0  0
  149.6384  136.5651  153.6106 H   0  0  0  0  0  0  0  0  0  0  0  0
  151.9471  137.0226  155.1099 H   0  0  0  0  0  0  0  0  0  0  0  0
  149.3828  137.4412  156.7283 H   0  0  0  0  0  0  0  0  0  0  0  0
  150.6922  136.3582  157.1371 H   0  0  0  0  0  0  0  0  0  0  0  0
  150.8350  138.4679  158.4247 H   0  0  0  0  0  0  0  0  0  0  0  0
  152.2527  138.2710  157.4130 H   0  0  0  0  0  0  0  0  0  0  0  0
  151.2742  140.6570  158.6153 H   0  0  0  0  0  0  0  0  0  0  0  0
  152.5843  140.7882  157.4655 H   0  0  0  0  0  0  0  0  0  0  0  0
  149.6957  143.2454  156.0223 H   0  0  0  0  0  0  0  0  0  0  0  0
  149.7091  141.5053  155.8262 H   0  0  0  0  0  0  0  0  0  0  0  0
  151.1632  140.6986  154.8793 H   0  0  0  0  0  0  0  0  0  0  0  0
  152.4475  139.5976  155.3333 H   0  0  0  0  0  0  0  0  0  0  0  0
  151.0250  138.6521  153.5211 H   0  0  0  0  0  0  0  0  0  0  0  0
  149.5910  138.8627  154.4978 H   0  0  0  0  0  0  0  0  0  0  0  0
  147.1803  133.2886  152.6343 H   0  0  0  0  0  0  0  0  0  0  0  0
  1  2  1  0  0  0  0
  1 23  1  0  0  0  0
  1 24  1  0  0  0  0
  1 25  1  0  0  0  0
  2  3  1  0  0  0  0
  3 22  1  0  0  0  0
  3  4  2  0  0  0  0
  4  5  1  0  0  0  0
  4 26  1  0  0  0  0
  5  6  2  0  0  0  0
  5 27  1  0  0  0  0
  6  7  1  0  0  0  0
  6 21  1  0  0  0  0
  7  8  1  0  0  0  0
  7 28  1  0  0  0  0
  8  9  2  0  0  0  0
  8 10  1  0  0  0  0
 10 11  1  0  0  0  0
 10 29  1  0  0  0  0
 11 20  1  0  0  0  0
 11 12  1  0  0  0  0
 11 30  1  0  0  0  0
 12 13  1  0  0  0  0
 12 31  1  0  0  0  0
 12 32  1  0  0  0  0
 13 14  1  0  0  0  0
 13 33  1  0  0  0  0
 13 34  1  0  0  0  0
 14 15  1  0  0  0  0
 14 19  1  0  0  0  0
 15 16  1  0  0  0  0
 15 35  1  0  0  0  0
 15 36  1  0  0  0  0
 16 17  1  0  0  0  0
 16 18  2  0  0  0  0
 17 37  1  0  0  0  0
 17 38  1  0  0  0  0
 19 20  1  0  0  0  0
 19 39  1  0  0  0  0
 19 40  1  0  0  0  0
 20 41  1  0  0  0  0
 20 42  1  0  0  0  0
 21 22  2  0  0  0  0
 21 43  1  0  0  0  0
M  END
> <s_m_source_file>
AV-unprocessed.smi

> <i_m_source_file_index>
1423

> <i_lp_mmshare_version>
43012

> <i_f3d_flags>
0

> <s_epik_input>
W0NIM11PYzFbY0hdW2NIXWMoW2NIXW4xKVtOSF1DKD1PKVtOSF1bQ0hdMltDSDJdW0NIMl1OKFtDSDJdW0NIMl0yKVtDSDJdQyg9TylbTkgyXQ==

> <s_epik_cmdline>
J2VwaWtfcHl0aG9uJywgJy1waCcsICc3LjAnLCAnLXRuJywgJzgnLCAnLW1hJywgJzIwMCcsICctbWV0YWxfYmluZGluZycsICctaW1hZScsICc8aW5maWxlLm1hZT4nLCAnLW9tYWUnLCAnPG91dGZpbGUubWFlPic=

> <r_lp_tautomer_probability>
1

> <r_epik_Ionization_Penalty>
0.16483

> <r_epik_Ionization_Penalty_Charging>
0

> <r_epik_Ionization_Penalty_Neutral>
0.16483

> <r_epik_State_Penalty>
0.154069

> <r_epik_Charging_Adjusted_Penalty>
0.154069

> <i_epik_Tot_Q>
0

> <i_epik_Tot_abs_Q>
0

> <r_epik_Metal_State_Penalty>
0.171364

> <b_epik_Metal_Only>
0

> <s_lp_Force_Field>
OPLS_2005

> <r_lp_Energy>
14.563

> <b_lp_Chiralities_Consistent>
1

> <s_lp_Variant>
AV-unprocessed.smi:1423-1

> <Gold.Version>
5.8.1

> <Gold.Id.Protein>
6NUR|6NUR_protein|mol2

> <Gold.PLP.Fitness>
42.2293

> <Gold.PLP.PLP>
-34.6567

> <Gold.PLP.part.hbond>
-3.8241

> <Gold.PLP.part.metal>
0.0000

> <Gold.PLP.part.buried>
-3.7097

> <Gold.PLP.part.nonpolar>
-27.2750

> <Gold.PLP.part.repulsive>
0.5270

> <Gold.PLP.ligand.clash>
0.0000

> <Gold.PLP.ligand.torsion>
0.5557

> <Gold.PLP.Chemscore.Hbond>
2.8920

> <Gold.PLP.Chemscore.CHOScore>
0.0000

> <Gold.PLP.Chemscore.Metal>
0.0000

> <Gold.Chemscore.Hbonds>
donor molecule, donor type, donor heavy atom, donor atom, acceptor molecule, acceptor atom, score
      L1  H     7    28       P1  7948  0.90
      L1  H    10    29       P1  7948  0.99
      L1  H    17    37       P1  8028  1.00

> <Gold.PLP.Chemscore.Internal.Correction>
0.0079

> <Gold.Rescore>
     Score         DG    S(hbond)    S(metal)    S(lipo)     H(rot)  DE(clash)    DE(int)     intcor
     12.19     -14.80       2.35        0.00      62.81       2.29       0.05       2.56       ----

> <Gold.Chemscore.Fitness>
12.1857

> <Gold.Chemscore.DG>
-14.7957

> <Gold.Chemscore.ZeroCoef>
-5.4800

> <Gold.Chemscore.Hbond>
2.3480

> <Gold.Chemscore.Metal>
0.0000

> <Gold.Chemscore.Lipo>
62.8060

> <Gold.Chemscore.Internal_Hbond>
0.0000

> <Gold.Chemscore.DEClash>
0.0524

> <Gold.Chemscore.DEInternal>
2.5575

> <Gold.Chemscore.Rot>
2.2949

> <Gold.Chemscore.Internal.Correction>
   9.000000E+99

> <Gold.Chemscore.Hbonds>
donor molecule, donor type, donor heavy atom, donor atom, acceptor molecule, acceptor atom, score
      L1  H     7    28       P1  7948  0.17
      L1  H    10    29       P1  7948  0.57
      L1  H    17    37       P1  8028  1.00

> <Gold.Chemscore.Hbond.Weighted>
-7.8424

> <Gold.Chemscore.Metal.Weighted>
-0.0000

> <Gold.Chemscore.Lipo.Weighted>
-7.3483

> <Gold.Chemscore.Internal_Hbond.Weighted>
0.0000

> <Gold.Chemscore.DEClash.Weighted>
0.0524

> <Gold.Chemscore.DEInternal.Weighted>
2.5575

> <Gold.Chemscore.Rot.Weighted>
5.8750

> <Gold.Chemscore.Internal.Correction.Weighted>
   9.000000E+99

> <Gold.Protein.RotatedTorsions>
[ 6907 6896 6895 6894 ] final  -83.26 input  -60.11 | X-H torsion
[ 7974 7965 7964 7962 ] final    4.51 input  175.53 | X-H torsion
[ 8008 7997 7996 7995 ] final  136.52 input   59.86 | X-H torsion
[ 10167 10162 10161 10158 ] final   60.03 input  -65.29 | X-H torsion
[ 10718 10713 10712 10709 ] final   78.73 input   66.30 | X-H torsion
[ 10763 10752 10751 10750 ] final -179.18 input  -60.55 | X-H torsion
[ 11005 11000 10999 10996 ] final -170.50 input  -57.11 | X-H torsion

> <Gold.Protein.ActiveResidues>
 VAL166  LYS551  ARG553  GLY616  TRP617  ASP618  TYR619  PRO620  LYS621  CYS622 
 ASP623  PHE694  ASN695  SER759  ASP760  ASP761  ALA762  ILE779  LEU786  VAL792 
 PHE793  MET794  SER795  GLU796  ALA797  LYS798  CYS799  TRP800  GLU811  SER814 

> <Gold.Protein.RotatedAtoms>
  150.6887  134.3539  159.4920 H   0  0  0  0  0  0  0  0  0  0  0  0  # atno 6907 bound_to 6896
  152.1377  134.9084  160.0564 H   0  0  0  0  0  0  0  0  0  0  0  0  # atno 6908 bound_to 6896
  152.0230  133.3871  159.4303 H   0  0  0  0  0  0  0  0  0  0  0  0  # atno 6909 bound_to 6896
  146.2444  140.0524  142.8374 H   0  0  0  0  0  0  0  0  0  0  0  0  # atno 7974 bound_to 7965
  156.3004  140.2443  156.3759 H   0  0  0  0  0  0  0  0  0  0  0  0  # atno 8008 bound_to 7997
  154.8746  140.0415  157.1765 H   0  0  0  0  0  0  0  0  0  0  0  0  # atno 8009 bound_to 7997
  154.8760  140.2942  155.5457 H   0  0  0  0  0  0  0  0  0  0  0  0  # atno 8010 bound_to 7997
  140.1700  144.4286  150.6666 H   0  0  0  0  0  0  0  0  0  0  0  0  # atno 10167 bound_to 10162
  157.6754  130.9881  150.1828 H   0  0  0  0  0  0  0  0  0  0  0  0  # atno 10718 bound_to 10713
  154.5384  135.2804  155.1118 H   0  0  0  0  0  0  0  0  0  0  0  0  # atno 10763 bound_to 10752
  154.2610  135.6321  153.5278 H   0  0  0  0  0  0  0  0  0  0  0  0  # atno 10764 bound_to 10752
  152.9973  135.5605  154.5916 H   0  0  0  0  0  0  0  0  0  0  0  0  # atno 10765 bound_to 10752
  140.5188  134.5729  157.5041 H   0  0  0  0  0  0  0  0  0  0  0  0  # atno 11005 bound_to 11000
  145.0973  140.9323  143.4733 LP  0  0  0  0  0  0  0  0  0  0  0  0  # atno 17320 bound_to 7965
  145.0709  139.3032  143.5832 LP  0  0  0  0  0  0  0  0  0  0  0  0  # atno 17321 bound_to 7965
  140.6588  143.2245  151.5905 LP  0  0  0  0  0  0  0  0  0  0  0  0  # atno 17342 bound_to 10162
  139.5342  144.2828  152.1215 LP  0  0  0  0  0  0  0  0  0  0  0  0  # atno 17343 bound_to 10162
  156.2557  130.3705  149.8184 LP  0  0  0  0  0  0  0  0  0  0  0  0  # atno 17370 bound_to 10713
  156.5944  130.8520  151.3416 LP  0  0  0  0  0  0  0  0  0  0  0  0  # atno 17371 bound_to 10713
  139.9617  134.7441  156.0222 LP  0  0  0  0  0  0  0  0  0  0  0  0  # atno 17394 bound_to 11000
  141.1345  133.6578  156.3557 LP  0  0  0  0  0  0  0  0  0  0  0  0  # atno 17395 bound_to 11000

$$$$
