AV-unprocessed.smi:3290|AV-procd|sdf|12617|dock10
  -GOLD-   2272018553D 1   1.00000     0.00000
 Structure written by MMmdl.
 43 44  0  0  0  0  0  0  0  0  2 V2000
  143.4915  134.4116  152.8781 C   0  0  0  0  0  0  0  0  0  0  0  0
  143.8367  134.5648  151.3826 C   0  0  2  0  0  0  0  0  0  0  0  0
  143.7445  133.2167  150.6364 C   0  0  0  0  0  0  0  0  0  0  0  0
  144.9092  132.2743  150.9844 C   0  0  0  0  0  0  0  0  0  0  0  0
  146.2652  132.9487  150.7302 C   0  0  0  0  0  0  0  0  0  0  0  0
  146.3762  134.2887  151.4745 C   0  0  0  0  0  0  0  0  0  0  0  0
  145.2097  135.2367  151.1123 C   0  0  2  0  0  0  0  0  0  0  0  0
  145.3410  136.6151  151.7907 C   0  0  0  0  0  0  0  0  0  0  0  0
  146.4047  137.4267  151.1675 N   0  3  0  0  0  0  0  0  0  0  0  0
  146.6070  138.7459  151.7998 C   0  0  0  0  0  0  0  0  0  0  0  0
  147.1350  138.6070  153.2390 C   0  0  1  0  0  0  0  0  0  0  0  0
  148.5139  138.3080  153.1771 O   0  0  0  0  0  0  0  0  0  0  0  0
  146.8564  139.8494  154.0724 C   0  0  0  0  0  0  0  0  0  0  0  0
  147.4313  141.0942  153.7368 C   0  0  0  0  0  0  0  0  0  0  0  0
  147.1249  142.2150  154.5340 C   0  0  0  0  0  0  0  0  0  0  0  0
  146.3042  142.1601  155.6045 N   0  0  0  0  0  0  0  0  0  0  0  0
  145.7575  140.9672  155.9216 C   0  0  0  0  0  0  0  0  0  0  0  0
  145.9985  139.7867  155.1905 C   0  0  0  0  0  0  0  0  0  0  0  0
  144.2349  133.8234  153.4149 H   0  0  0  0  0  0  0  0  0  0  0  0
  142.5293  133.9149  153.0053 H   0  0  0  0  0  0  0  0  0  0  0  0
  143.4150  135.3795  153.3730 H   0  0  0  0  0  0  0  0  0  0  0  0
  143.0675  135.2116  150.9581 H   0  0  0  0  0  0  0  0  0  0  0  0
  142.7934  132.7282  150.8521 H   0  0  0  0  0  0  0  0  0  0  0  0
  143.7485  133.4017  149.5614 H   0  0  0  0  0  0  0  0  0  0  0  0
  144.8413  131.9668  152.0282 H   0  0  0  0  0  0  0  0  0  0  0  0
  144.8344  131.3612  150.3930 H   0  0  0  0  0  0  0  0  0  0  0  0
  147.0739  132.2844  151.0367 H   0  0  0  0  0  0  0  0  0  0  0  0
  146.3932  133.1152  149.6599 H   0  0  0  0  0  0  0  0  0  0  0  0
  146.3993  134.1109  152.5499 H   0  0  0  0  0  0  0  0  0  0  0  0
  147.3316  134.7510  151.2252 H   0  0  0  0  0  0  0  0  0  0  0  0
  145.2589  135.4096  150.0355 H   0  0  0  0  0  0  0  0  0  0  0  0
  144.3995  137.1604  151.7104 H   0  0  0  0  0  0  0  0  0  0  0  0
  145.5570  136.4996  152.8536 H   0  0  0  0  0  0  0  0  0  0  0  0
  147.2711  136.9106  151.2282 H   0  0  0  0  0  0  0  0  0  0  0  0
  147.3122  139.3168  151.1940 H   0  0  0  0  0  0  0  0  0  0  0  0
  145.6649  139.2966  151.7970 H   0  0  0  0  0  0  0  0  0  0  0  0
  146.6510  137.7515  153.7128 H   0  0  0  0  0  0  0  0  0  0  0  0
  148.8799  138.7330  152.4160 H   0  0  0  0  0  0  0  0  0  0  0  0
  148.0921  141.1930  152.8880 H   0  0  0  0  0  0  0  0  0  0  0  0
  147.5478  143.1816  154.3031 H   0  0  0  0  0  0  0  0  0  0  0  0
  145.1051  140.9532  156.7822 H   0  0  0  0  0  0  0  0  0  0  0  0
  145.5328  138.8581  155.4866 H   0  0  0  0  0  0  0  0  0  0  0  0
  146.1793  137.5656  150.1927 H   0  0  0  0  0  0  0  0  0  0  0  0
  1  2  1  0  0  0  0
  1 19  1  0  0  0  0
  1 20  1  0  0  0  0
  1 21  1  0  0  0  0
  2  7  1  0  0  0  0
  2  3  1  0  0  0  0
  2 22  1  0  0  0  0
  3  4  1  0  0  0  0
  3 23  1  0  0  0  0
  3 24  1  0  0  0  0
  4  5  1  0  0  0  0
  4 25  1  0  0  0  0
  4 26  1  0  0  0  0
  5  6  1  0  0  0  0
  5 27  1  0  0  0  0
  5 28  1  0  0  0  0
  6  7  1  0  0  0  0
  6 29  1  0  0  0  0
  6 30  1  0  0  0  0
  7  8  1  0  0  0  0
  7 31  1  0  0  0  0
  8  9  1  0  0  0  0
  8 32  1  0  0  0  0
  8 33  1  0  0  0  0
  9 10  1  0  0  0  0
  9 34  1  0  0  0  0
  9 43  1  0  0  0  0
 10 11  1  0  0  0  0
 10 35  1  0  0  0  0
 10 36  1  0  0  0  0
 11 12  1  0  0  0  0
 11 13  1  0  0  0  0
 11 37  1  0  0  0  0
 12 38  1  0  0  0  0
 13 18  1  0  0  0  0
 13 14  2  0  0  0  0
 14 15  1  0  0  0  0
 14 39  1  0  0  0  0
 15 16  2  0  0  0  0
 15 40  1  0  0  0  0
 16 17  1  0  0  0  0
 17 18  2  0  0  0  0
 17 41  1  0  0  0  0
 18 42  1  0  0  0  0
M  CHG  1   9   1
M  END
> <s_m_source_file>
AV-unprocessed.smi

> <i_m_source_file_index>
3290

> <i_lp_mmshare_version>
43012

> <i_f3d_flags>
0

> <s_epik_input>
W0NIM11bQ0BASF0xW0NIMl1bQ0gyXVtDSDJdW0NIMl1bQ0BIXTFbQ0gyXVtOSF1bQ0gyXVtDQEhdKFtPSF0pYzJbY0hdW2NIXW5bY0hdW2NIXTI=

> <s_epik_cmdline>
J2VwaWtfcHl0aG9uJywgJy1waCcsICc3LjAnLCAnLXRuJywgJzgnLCAnLW1hJywgJzIwMCcsICctbWV0YWxfYmluZGluZycsICctaW1hZScsICc8aW5maWxlLm1hZT4nLCAnLW9tYWUnLCAnPG91dGZpbGUubWFlPic=

> <r_lp_tautomer_probability>
1

> <r_epik_Ionization_Penalty>
0.00420552

> <r_epik_Ionization_Penalty_Charging>
0.00207255

> <r_epik_Ionization_Penalty_Neutral>
0.00213297

> <r_epik_State_Penalty>
-0

> <r_epik_Charging_Adjusted_Penalty>
0.00207255

> <i_epik_Tot_Q>
1

> <i_epik_Tot_abs_Q>
1

> <r_epik_Metal_State_Penalty>
-0

> <b_epik_Metal_Only>
0

> <s_lp_Force_Field>
OPLS_2005

> <r_lp_Energy>
19.3175

> <b_lp_Chiralities_Consistent>
1

> <s_lp_Variant>
AV-unprocessed.smi:3290-7

> <Gold.Version>
5.8.1

> <Gold.Id.Protein>
6NUR|6NUR_protein|mol2

> <Gold.PLP.Fitness>
48.2508

> <Gold.PLP.PLP>
-37.3445

> <Gold.PLP.part.hbond>
-3.5895

> <Gold.PLP.part.metal>
0.0000

> <Gold.PLP.part.buried>
-4.7309

> <Gold.PLP.part.nonpolar>
-30.9413

> <Gold.PLP.part.repulsive>
0.3312

> <Gold.PLP.ligand.clash>
0.0000

> <Gold.PLP.ligand.torsion>
0.3483

> <Gold.PLP.Chemscore.Hbond>
3.0000

> <Gold.PLP.Chemscore.CHOScore>
0.8551

> <Gold.PLP.Chemscore.Metal>
0.0000

> <Gold.Chemscore.Hbonds>
donor molecule, donor type, donor heavy atom, donor atom, acceptor molecule, acceptor atom, score
      L1  H     9    34       P1  7948  2.00
      L1  H    12    38       P1  7957  1.00
      L1  C    15    40       P1  8028  1.00

> <Gold.PLP.Chemscore.Internal.Correction>
0.0377

> <Gold.Rescore>
     Score         DG    S(hbond)    S(metal)    S(lipo)     H(rot)  DE(clash)    DE(int)     intcor
     17.10     -17.63       1.99        0.00      91.80       2.05       0.04       0.48       ----

> <Gold.Chemscore.Fitness>
17.0985

> <Gold.Chemscore.DG>
-17.6262

> <Gold.Chemscore.ZeroCoef>
-5.4800

> <Gold.Chemscore.Hbond>
1.9920

> <Gold.Chemscore.Metal>
0.0000

> <Gold.Chemscore.Lipo>
91.7982

> <Gold.Chemscore.Internal_Hbond>
0.0000

> <Gold.Chemscore.DEClash>
0.0435

> <Gold.Chemscore.DEInternal>
0.4843

> <Gold.Chemscore.Rot>
2.0498

> <Gold.Chemscore.Internal.Correction>
   9.000000E+99

> <Gold.Chemscore.Hbonds>
donor molecule, donor type, donor heavy atom, donor atom, acceptor molecule, acceptor atom, score
      L1  H     9    34       P1  7948  1.00
      L1  H    12    38       P1  7957  0.92

> <Gold.Chemscore.Hbond.Weighted>
-6.6533

> <Gold.Chemscore.Metal.Weighted>
-0.0000

> <Gold.Chemscore.Lipo.Weighted>
-10.7404

> <Gold.Chemscore.Internal_Hbond.Weighted>
0.0000

> <Gold.Chemscore.DEClash.Weighted>
0.0435

> <Gold.Chemscore.DEInternal.Weighted>
0.4843

> <Gold.Chemscore.Rot.Weighted>
5.2475

> <Gold.Chemscore.Internal.Correction.Weighted>
   9.000000E+99

> <Gold.Protein.RotatedTorsions>
[ 6907 6896 6895 6894 ] final -164.92 input  -60.11 | X-H torsion
[ 7974 7965 7964 7962 ] final -131.21 input  175.53 | X-H torsion
[ 8008 7997 7996 7995 ] final  131.84 input   59.86 | X-H torsion
[ 10167 10162 10161 10158 ] final -110.89 input  -65.29 | X-H torsion
[ 10718 10713 10712 10709 ] final  -10.33 input   66.30 | X-H torsion
[ 10763 10752 10751 10750 ] final  169.87 input  -60.55 | X-H torsion
[ 11005 11000 10999 10996 ] final  164.95 input  -57.11 | X-H torsion

> <Gold.Protein.ActiveResidues>
 VAL166  LYS551  ARG553  GLY616  TRP617  ASP618  TYR619  PRO620  LYS621  CYS622 
 ASP623  PHE694  ASN695  SER759  ASP760  ASP761  ALA762  ILE779  LEU786  VAL792 
 PHE793  MET794  SER795  GLU796  ALA797  LYS798  CYS799  TRP800  GLU811  SER814 

> <Gold.Protein.RotatedAtoms>
  151.4195  133.3702  159.2754 H   0  0  0  0  0  0  0  0  0  0  0  0  # atno 6907 bound_to 6896
  150.9304  134.8720  159.7558 H   0  0  0  0  0  0  0  0  0  0  0  0  # atno 6908 bound_to 6896
  152.5025  134.4139  159.9510 H   0  0  0  0  0  0  0  0  0  0  0  0  # atno 6909 bound_to 6896
  144.9401  140.7229  143.4852 H   0  0  0  0  0  0  0  0  0  0  0  0  # atno 7974 bound_to 7965
  156.2975  140.2561  156.2991 H   0  0  0  0  0  0  0  0  0  0  0  0  # atno 8008 bound_to 7997
  154.9435  140.0395  157.2127 H   0  0  0  0  0  0  0  0  0  0  0  0  # atno 8009 bound_to 7997
  154.8104  140.2843  155.5862 H   0  0  0  0  0  0  0  0  0  0  0  0  # atno 8010 bound_to 7997
  140.1395  143.4291  152.1572 H   0  0  0  0  0  0  0  0  0  0  0  0  # atno 10167 bound_to 10162
  156.6751  130.5020  149.5988 H   0  0  0  0  0  0  0  0  0  0  0  0  # atno 10718 bound_to 10713
  154.3894  135.2754  155.2163 H   0  0  0  0  0  0  0  0  0  0  0  0  # atno 10763 bound_to 10752
  154.4236  135.5994  153.6028 H   0  0  0  0  0  0  0  0  0  0  0  0  # atno 10764 bound_to 10752
  152.9832  135.5978  154.4147 H   0  0  0  0  0  0  0  0  0  0  0  0  # atno 10765 bound_to 10752
  140.2511  134.7976  157.3503 H   0  0  0  0  0  0  0  0  0  0  0  0  # atno 11005 bound_to 11000
  145.3004  139.1852  143.4692 LP  0  0  0  0  0  0  0  0  0  0  0  0  # atno 17320 bound_to 7965
  146.3282  140.2994  142.8620 LP  0  0  0  0  0  0  0  0  0  0  0  0  # atno 17321 bound_to 7965
  139.5479  144.7314  151.4526 LP  0  0  0  0  0  0  0  0  0  0  0  0  # atno 17342 bound_to 10162
  140.6769  143.8170  150.7070 LP  0  0  0  0  0  0  0  0  0  0  0  0  # atno 17343 bound_to 10162
  156.1910  130.6559  151.1061 LP  0  0  0  0  0  0  0  0  0  0  0  0  # atno 17370 bound_to 10713
  157.7064  131.0754  150.6653 LP  0  0  0  0  0  0  0  0  0  0  0  0  # atno 17371 bound_to 10713
  140.1557  134.4793  155.7930 LP  0  0  0  0  0  0  0  0  0  0  0  0  # atno 17394 bound_to 11000
  141.2201  133.6880  156.7456 LP  0  0  0  0  0  0  0  0  0  0  0  0  # atno 17395 bound_to 11000

$$$$
