AV-unprocessed.smi:910|AV-procd|sdf|4134|dock5
  -GOLD-   22720 2 43D 1   1.00000     0.00000
 Structure written by MMmdl.
 45 46  0  0  0  0  0  0  0  0  2 V2000
  146.5441  137.6695  162.9198 C   0  0  0  0  0  0  0  0  0  0  0  0
  147.0751  136.6652  161.9464 C   0  0  0  0  0  0  0  0  0  0  0  0
  148.0535  136.9842  161.0179 N   0  0  0  0  0  0  0  0  0  0  0  0
  148.2854  135.8619  160.3342 C   0  0  0  0  0  0  0  0  0  0  0  0
  149.1717  135.7107  159.3372 N   0  5  0  0  0  0  0  0  0  0  0  0
  148.8626  136.1572  158.0992 C   0  0  0  0  0  0  0  0  0  0  0  0
  147.7781  136.6237  157.7421 O   0  0  0  0  0  0  0  0  0  0  0  0
  149.8629  136.0321  157.2146 N   0  0  0  0  0  0  0  0  0  0  0  0
  149.7726  136.2908  155.7808 C   0  0  0  0  0  0  0  0  0  0  0  0
  150.7005  137.4449  155.3712 C   0  0  0  0  0  0  0  0  0  0  0  0
  150.0012  138.6724  155.5081 O   0  0  0  0  0  0  0  0  0  0  0  0
  150.6486  139.8055  154.9439 C   0  0  2  0  0  0  0  0  0  0  0  0
  151.9724  140.0009  155.7059 C   0  0  0  0  0  0  0  0  0  0  0  0
  151.7354  140.3754  157.1794 C   0  0  0  0  0  0  0  0  0  0  0  0
  150.8418  141.6185  157.3029 C   0  0  0  0  0  0  0  0  0  0  0  0
  149.5150  141.4297  156.5511 C   0  0  0  0  0  0  0  0  0  0  0  0
  149.7495  141.0605  155.0722 C   0  0  2  0  0  0  0  0  0  0  0  0
  148.4243  140.9339  154.3058 C   0  0  0  0  0  0  0  0  0  0  0  0
  147.4995  134.8313  160.7570 O   0  0  0  0  0  0  0  0  0  0  0  0
  146.7440  135.3481  161.7740 C   0  0  0  0  0  0  0  0  0  0  0  0
  145.7748  134.4427  162.4544 C   0  0  0  0  0  0  0  0  0  0  0  0
  145.7380  138.2547  162.4774 H   0  0  0  0  0  0  0  0  0  0  0  0
  147.3231  138.3630  163.2374 H   0  0  0  0  0  0  0  0  0  0  0  0
  146.1506  137.1850  163.8135 H   0  0  0  0  0  0  0  0  0  0  0  0
  150.7348  135.6545  157.5549 H   0  0  0  0  0  0  0  0  0  0  0  0
  149.9904  135.3920  155.2020 H   0  0  0  0  0  0  0  0  0  0  0  0
  148.7399  136.5592  155.5586 H   0  0  0  0  0  0  0  0  0  0  0  0
  151.5831  137.4653  156.0114 H   0  0  0  0  0  0  0  0  0  0  0  0
  151.0462  137.2976  154.3472 H   0  0  0  0  0  0  0  0  0  0  0  0
  150.8862  139.6303  153.8926 H   0  0  0  0  0  0  0  0  0  0  0  0
  152.5735  139.0931  155.6460 H   0  0  0  0  0  0  0  0  0  0  0  0
  152.5545  140.7869  155.2236 H   0  0  0  0  0  0  0  0  0  0  0  0
  151.2684  139.5385  157.7005 H   0  0  0  0  0  0  0  0  0  0  0  0
  152.6897  140.5526  157.6754 H   0  0  0  0  0  0  0  0  0  0  0  0
  150.6447  141.8315  158.3539 H   0  0  0  0  0  0  0  0  0  0  0  0
  151.3669  142.4872  156.9042 H   0  0  0  0  0  0  0  0  0  0  0  0
  148.9262  140.6527  157.0395 H   0  0  0  0  0  0  0  0  0  0  0  0
  148.9254  142.3446  156.6190 H   0  0  0  0  0  0  0  0  0  0  0  0
  150.2922  141.8893  154.6151 H   0  0  0  0  0  0  0  0  0  0  0  0
  147.7884  140.1584  154.7324 H   0  0  0  0  0  0  0  0  0  0  0  0
  148.5965  140.6896  153.2575 H   0  0  0  0  0  0  0  0  0  0  0  0
  147.8641  141.8685  154.3387 H   0  0  0  0  0  0  0  0  0  0  0  0
  146.1068  134.2160  163.4674 H   0  0  0  0  0  0  0  0  0  0  0  0
  145.6710  133.5017  161.9137 H   0  0  0  0  0  0  0  0  0  0  0  0
  144.7908  134.9073  162.5158 H   0  0  0  0  0  0  0  0  0  0  0  0
  1 22  1  0  0  0  0
  1 23  1  0  0  0  0
  1 24  1  0  0  0  0
  1  2  1  0  0  0  0
  2  3  1  0  0  0  0
  2 20  2  0  0  0  0
  3  4  2  0  0  0  0
  4 19  1  0  0  0  0
  4  5  1  0  0  0  0
  5  6  1  0  0  0  0
  6  8  1  0  0  0  0
  6  7  2  0  0  0  0
  8  9  1  0  0  0  0
  8 25  1  0  0  0  0
  9 10  1  0  0  0  0
  9 26  1  0  0  0  0
  9 27  1  0  0  0  0
 10 11  1  0  0  0  0
 10 28  1  0  0  0  0
 10 29  1  0  0  0  0
 11 12  1  0  0  0  0
 12 17  1  0  0  0  0
 12 13  1  0  0  0  0
 12 30  1  0  0  0  0
 13 14  1  0  0  0  0
 13 31  1  0  0  0  0
 13 32  1  0  0  0  0
 14 15  1  0  0  0  0
 14 33  1  0  0  0  0
 14 34  1  0  0  0  0
 15 16  1  0  0  0  0
 15 35  1  0  0  0  0
 15 36  1  0  0  0  0
 16 17  1  0  0  0  0
 16 37  1  0  0  0  0
 16 38  1  0  0  0  0
 17 18  1  0  0  0  0
 17 39  1  0  0  0  0
 18 40  1  0  0  0  0
 18 41  1  0  0  0  0
 18 42  1  0  0  0  0
 19 20  1  0  0  0  0
 20 21  1  0  0  0  0
 21 43  1  0  0  0  0
 21 44  1  0  0  0  0
 21 45  1  0  0  0  0
M  CHG  1   5  -1
M  END
> <s_m_source_file>
AV-unprocessed.smi

> <i_m_source_file_index>
910

> <i_lp_mmshare_version>
43012

> <i_f3d_flags>
0

> <s_epik_input>
W0NIM11jMW5jKG9jMVtDSDNdKVtOSF1DKD1PKVtOSF1bQ0gyXVtDSDJdT1tDQEBIXTJbQ0gyXVtDSDJdW0NIMl1bQ0gyXVtDQEhdMltDSDNd

> <s_epik_cmdline>
J2VwaWtfcHl0aG9uJywgJy1waCcsICc3LjAnLCAnLXRuJywgJzgnLCAnLW1hJywgJzIwMCcsICctbWV0YWxfYmluZGluZycsICctaW1hZScsICc8aW5maWxlLm1hZT4nLCAnLW9tYWUnLCAnPG91dGZpbGUubWFlPic=

> <r_lp_tautomer_probability>
0.107061

> <r_epik_Ionization_Penalty>
10.1763

> <r_epik_Ionization_Penalty_Charging>
7.13067

> <r_epik_Ionization_Penalty_Neutral>
3.04564

> <r_epik_State_Penalty>
5.57927

> <r_epik_Charging_Adjusted_Penalty>
12.7099

> <i_epik_Tot_Q>
-1

> <i_epik_Tot_abs_Q>
1

> <r_epik_Metal_State_Penalty>
1.52303

> <b_epik_Metal_Only>
1

> <s_lp_Force_Field>
OPLS_2005

> <r_lp_Energy>
5.26856

> <b_lp_Chiralities_Consistent>
1

> <s_lp_Variant>
AV-unprocessed.smi:910-19

> <Gold.Version>
5.8.1

> <Gold.Id.Protein>
6NUR|6NUR_protein|mol2

> <Gold.PLP.Fitness>
43.0752

> <Gold.PLP.PLP>
-35.9010

> <Gold.PLP.part.hbond>
-2.4830

> <Gold.PLP.part.metal>
0.0000

> <Gold.PLP.part.buried>
-1.9615

> <Gold.PLP.part.nonpolar>
-31.5105

> <Gold.PLP.part.repulsive>
0.1154

> <Gold.PLP.ligand.clash>
0.0000

> <Gold.PLP.ligand.torsion>
0.9352

> <Gold.PLP.Chemscore.Hbond>
2.9780

> <Gold.PLP.Chemscore.CHOScore>
0.0000

> <Gold.PLP.Chemscore.Metal>
0.0000

> <Gold.Chemscore.Hbonds>
donor molecule, donor type, donor heavy atom, donor atom, acceptor molecule, acceptor atom, score
      P1  H  6896  6908       L1     5  1.92
      P1  H  6931  6943       L1     3  1.00
      P1  H  6934  6947       L1     3  0.17

> <Gold.PLP.Chemscore.Internal.Correction>
0.1106

> <Gold.Rescore>
     Score         DG    S(hbond)    S(metal)    S(lipo)     H(rot)  DE(clash)    DE(int)     intcor
     15.71     -16.87       1.59        0.00      87.43       1.62       0.21       0.94       ----

> <Gold.Chemscore.Fitness>
15.7136

> <Gold.Chemscore.DG>
-16.8681

> <Gold.Chemscore.ZeroCoef>
-5.4800

> <Gold.Chemscore.Hbond>
1.5862

> <Gold.Chemscore.Metal>
0.0000

> <Gold.Chemscore.Lipo>
87.4319

> <Gold.Chemscore.Internal_Hbond>
0.0000

> <Gold.Chemscore.DEClash>
0.2113

> <Gold.Chemscore.DEInternal>
0.9432

> <Gold.Chemscore.Rot>
1.6169

> <Gold.Chemscore.Internal.Correction>
   9.000000E+99

> <Gold.Chemscore.Hbonds>
donor molecule, donor type, donor heavy atom, donor atom, acceptor molecule, acceptor atom, score
      P1  H  6896  6908       L1     5  0.86
      P1  H  6931  6943       L1     3  0.38

> <Gold.Chemscore.Hbond.Weighted>
-5.2978

> <Gold.Chemscore.Metal.Weighted>
-0.0000

> <Gold.Chemscore.Lipo.Weighted>
-10.2295

> <Gold.Chemscore.Internal_Hbond.Weighted>
0.0000

> <Gold.Chemscore.DEClash.Weighted>
0.2113

> <Gold.Chemscore.DEInternal.Weighted>
0.9432

> <Gold.Chemscore.Rot.Weighted>
4.1393

> <Gold.Chemscore.Internal.Correction.Weighted>
   9.000000E+99

> <Gold.Protein.RotatedTorsions>
[ 6907 6896 6895 6894 ] final  157.79 input  -60.11 | X-H torsion
[ 7974 7965 7964 7962 ] final    5.49 input  175.53 | X-H torsion
[ 8008 7997 7996 7995 ] final  114.79 input   59.86 | X-H torsion
[ 10167 10162 10161 10158 ] final -149.08 input  -65.29 | X-H torsion
[ 10718 10713 10712 10709 ] final  -73.05 input   66.30 | X-H torsion
[ 10763 10752 10751 10750 ] final -133.30 input  -60.55 | X-H torsion
[ 11005 11000 10999 10996 ] final   53.55 input  -57.11 | X-H torsion

> <Gold.Protein.ActiveResidues>
 VAL166  LYS551  ARG553  GLY616  TRP617  ASP618  TYR619  PRO620  LYS621  CYS622 
 ASP623  PHE694  ASN695  SER759  ASP760  ASP761  ALA762  ILE779  LEU786  VAL792 
 PHE793  MET794  SER795  GLU796  ALA797  LYS798  CYS799  TRP800  GLU811  SER814 

> <Gold.Protein.RotatedAtoms>
  152.0099  133.3857  159.4215 H   0  0  0  0  0  0  0  0  0  0  0  0  # atno 6907 bound_to 6896
  150.6900  134.3742  159.5015 H   0  0  0  0  0  0  0  0  0  0  0  0  # atno 6908 bound_to 6896
  152.1501  134.8994  160.0599 H   0  0  0  0  0  0  0  0  0  0  0  0  # atno 6909 bound_to 6896
  146.2440  140.0376  142.8384 H   0  0  0  0  0  0  0  0  0  0  0  0  # atno 7974 bound_to 7965
  156.2342  140.2952  156.0269 H   0  0  0  0  0  0  0  0  0  0  0  0  # atno 8008 bound_to 7997
  155.2139  140.0413  157.2955 H   0  0  0  0  0  0  0  0  0  0  0  0  # atno 8009 bound_to 7997
  154.6049  140.2436  155.7751 H   0  0  0  0  0  0  0  0  0  0  0  0  # atno 8010 bound_to 7997
  139.7474  143.8570  152.2578 H   0  0  0  0  0  0  0  0  0  0  0  0  # atno 10167 bound_to 10162
  156.0295  130.4385  150.2685 H   0  0  0  0  0  0  0  0  0  0  0  0  # atno 10718 bound_to 10713
  154.8734  135.3770  154.4551 H   0  0  0  0  0  0  0  0  0  0  0  0  # atno 10763 bound_to 10752
  153.5224  135.7028  153.5730 H   0  0  0  0  0  0  0  0  0  0  0  0  # atno 10764 bound_to 10752
  153.3971  135.3957  155.1928 H   0  0  0  0  0  0  0  0  0  0  0  0  # atno 10765 bound_to 10752
  140.0758  134.5407  155.8998 H   0  0  0  0  0  0  0  0  0  0  0  0  # atno 11005 bound_to 11000
  145.1098  140.9398  143.4663 LP  0  0  0  0  0  0  0  0  0  0  0  0  # atno 17320 bound_to 7965
  145.0588  139.3122  143.5891 LP  0  0  0  0  0  0  0  0  0  0  0  0  # atno 17321 bound_to 7965
  139.8538  144.7151  150.9182 LP  0  0  0  0  0  0  0  0  0  0  0  0  # atno 17342 bound_to 10162
  140.7794  143.3876  151.1366 LP  0  0  0  0  0  0  0  0  0  0  0  0  # atno 17343 bound_to 10162
  157.0787  131.0137  151.3164 LP  0  0  0  0  0  0  0  0  0  0  0  0  # atno 17370 bound_to 10713
  157.4943  130.7841  149.7540 LP  0  0  0  0  0  0  0  0  0  0  0  0  # atno 17371 bound_to 10713
  141.2029  133.6628  156.6030 LP  0  0  0  0  0  0  0  0  0  0  0  0  # atno 17394 bound_to 11000
  140.3560  134.7728  157.4501 LP  0  0  0  0  0  0  0  0  0  0  0  0  # atno 17395 bound_to 11000

$$$$
