AV-unprocessed.smi:746|AV-procd|sdf|3578|dock5
  -GOLD-   22720 0573D 1   1.00000     0.00000
 Structure written by MMmdl.
 48 50  0  0  0  0  0  0  0  0  1 V2000
  145.5600  135.6280  150.9307 C   0  0  0  0  0  0  0  0  0  0  0  0
  145.0763  136.5266  151.9136 O   0  0  0  0  0  0  0  0  0  0  0  0
  146.1226  137.1818  152.6109 C   0  0  0  0  0  0  0  0  0  0  0  0
  146.8634  138.1161  151.6500 C   0  0  0  0  0  0  0  0  0  0  0  0
  146.5383  139.4644  151.9759 O   0  0  0  0  0  0  0  0  0  0  0  0
  147.2589  140.0933  152.9703 C   0  0  0  0  0  0  0  0  0  0  0  0
  148.1600  139.3276  153.7363 C   0  0  0  0  0  0  0  0  0  0  0  0
  148.9079  139.9669  154.7427 C   0  0  0  0  0  0  0  0  0  0  0  0
  148.7419  141.3512  154.9477 C   0  0  0  0  0  0  0  0  0  0  0  0
  149.5004  141.9710  155.9764 N   0  0  0  0  0  0  0  0  0  0  0  0
  150.6070  141.5137  156.5980 C   0  0  0  0  0  0  0  0  0  0  0  0
  151.0936  140.4071  156.3597 O   0  0  0  0  0  0  0  0  0  0  0  0
  151.0962  142.3399  157.5654 N   0  0  0  0  0  0  0  0  0  0  0  0
  150.4082  143.5836  157.9906 C   0  0  0  0  0  0  0  0  0  0  0  0
  151.3499  144.6831  158.4962 C   0  0  0  0  0  0  0  0  0  0  0  0
  152.2731  144.1481  159.5809 C   0  0  0  0  0  0  0  0  0  0  0  0
  153.1386  143.0302  158.9958 C   0  0  1  0  0  0  0  0  0  0  0  0
  153.9456  142.2933  160.0819 C   0  0  0  0  0  0  0  0  0  0  0  0
  153.2988  140.9097  160.2607 C   0  0  0  0  0  0  0  0  0  0  0  0
  152.0135  140.9294  159.4315 C   0  0  0  0  0  0  0  0  0  0  0  0
  152.3129  141.9259  158.3087 C   0  0  1  0  0  0  0  0  0  0  0  0
  147.7967  142.0291  154.1403 C   0  0  0  0  0  0  0  0  0  0  0  0
  147.0753  141.4212  153.1745 N   0  0  0  0  0  0  0  0  0  0  0  0
  144.7203  135.1531  150.4235 H   0  0  0  0  0  0  0  0  0  0  0  0
  146.1686  134.8426  151.3807 H   0  0  0  0  0  0  0  0  0  0  0  0
  146.1571  136.1472  150.1800 H   0  0  0  0  0  0  0  0  0  0  0  0
  145.7354  137.7413  153.4639 H   0  0  0  0  0  0  0  0  0  0  0  0
  146.8173  136.4346  152.9975 H   0  0  0  0  0  0  0  0  0  0  0  0
  147.9375  137.9626  151.7657 H   0  0  0  0  0  0  0  0  0  0  0  0
  146.5999  137.8841  150.6166 H   0  0  0  0  0  0  0  0  0  0  0  0
  148.2774  138.2697  153.5531 H   0  0  0  0  0  0  0  0  0  0  0  0
  149.6059  139.4004  155.3418 H   0  0  0  0  0  0  0  0  0  0  0  0
  149.1239  142.8376  156.3320 H   0  0  0  0  0  0  0  0  0  0  0  0
  149.8252  144.0290  157.1832 H   0  0  0  0  0  0  0  0  0  0  0  0
  149.6987  143.3213  158.7767 H   0  0  0  0  0  0  0  0  0  0  0  0
  151.9399  145.0774  157.6679 H   0  0  0  0  0  0  0  0  0  0  0  0
  150.7655  145.5175  158.8853 H   0  0  0  0  0  0  0  0  0  0  0  0
  152.9040  144.9491  159.9673 H   0  0  0  0  0  0  0  0  0  0  0  0
  151.6818  143.7790  160.4198 H   0  0  0  0  0  0  0  0  0  0  0  0
  153.8195  143.4758  158.2689 H   0  0  0  0  0  0  0  0  0  0  0  0
  154.9859  142.1794  159.7746 H   0  0  0  0  0  0  0  0  0  0  0  0
  153.9536  142.8474  161.0215 H   0  0  0  0  0  0  0  0  0  0  0  0
  153.9706  140.1414  159.8756 H   0  0  0  0  0  0  0  0  0  0  0  0
  153.1031  140.6768  161.3076 H   0  0  0  0  0  0  0  0  0  0  0  0
  151.7478  139.9398  159.0581 H   0  0  0  0  0  0  0  0  0  0  0  0
  151.1839  141.2886  160.0423 H   0  0  0  0  0  0  0  0  0  0  0  0
  153.0069  141.4419  157.6175 H   0  0  0  0  0  0  0  0  0  0  0  0
  147.5859  143.0794  154.2684 H   0  0  0  0  0  0  0  0  0  0  0  0
  1  2  1  0  0  0  0
  1 24  1  0  0  0  0
  1 25  1  0  0  0  0
  1 26  1  0  0  0  0
  2  3  1  0  0  0  0
  3  4  1  0  0  0  0
  3 27  1  0  0  0  0
  3 28  1  0  0  0  0
  4  5  1  0  0  0  0
  4 29  1  0  0  0  0
  4 30  1  0  0  0  0
  5  6  1  0  0  0  0
  6 23  1  0  0  0  0
  6  7  2  0  0  0  0
  7  8  1  0  0  0  0
  7 31  1  0  0  0  0
  8  9  2  0  0  0  0
  8 32  1  0  0  0  0
  9 10  1  0  0  0  0
  9 22  1  0  0  0  0
 10 11  1  0  0  0  0
 10 33  1  0  0  0  0
 11 12  2  0  0  0  0
 11 13  1  0  0  0  0
 13 21  1  0  0  0  0
 13 14  1  0  0  0  0
 14 15  1  0  0  0  0
 14 34  1  0  0  0  0
 14 35  1  0  0  0  0
 15 16  1  0  0  0  0
 15 36  1  0  0  0  0
 15 37  1  0  0  0  0
 16 17  1  0  0  0  0
 16 38  1  0  0  0  0
 16 39  1  0  0  0  0
 17 21  1  0  0  0  0
 17 18  1  0  0  0  0
 17 40  1  0  0  0  0
 18 19  1  0  0  0  0
 18 41  1  0  0  0  0
 18 42  1  0  0  0  0
 19 20  1  0  0  0  0
 19 43  1  0  0  0  0
 19 44  1  0  0  0  0
 20 21  1  0  0  0  0
 20 45  1  0  0  0  0
 20 46  1  0  0  0  0
 21 47  1  0  0  0  0
 22 23  2  0  0  0  0
 22 48  1  0  0  0  0
M  END
> <s_m_source_file>
AV-unprocessed.smi

> <i_m_source_file_index>
746

> <i_lp_mmshare_version>
43012

> <i_f3d_flags>
0

> <s_epik_input>
W0NIM11PW0NIMl1bQ0gyXU9jMVtjSF1bY0hdYyhbY0hdbjEpW05IXUMoPU8pTihbQ0gyXVtDSDJdW0NIMl0yKVtDQEhdKFtDQEBIXTIzKVtDSDJdW0NIMl1bQ0gyXTM=

> <s_epik_cmdline>
J2VwaWtfcHl0aG9uJywgJy1waCcsICc3LjAnLCAnLXRuJywgJzgnLCAnLW1hJywgJzIwMCcsICctbWV0YWxfYmluZGluZycsICctaW1hZScsICc8aW5maWxlLm1hZT4nLCAnLW9tYWUnLCAnPG91dGZpbGUubWFlPic=

> <r_lp_tautomer_probability>
1

> <r_epik_Ionization_Penalty>
8.29966e-05

> <r_epik_Ionization_Penalty_Charging>
0

> <r_epik_Ionization_Penalty_Neutral>
8.29966e-05

> <r_epik_State_Penalty>
-0

> <r_epik_Charging_Adjusted_Penalty>
0

> <i_epik_Tot_Q>
0

> <i_epik_Tot_abs_Q>
0

> <r_epik_Metal_State_Penalty>
-0

> <b_epik_Metal_Only>
0

> <s_lp_Force_Field>
OPLS_2005

> <r_lp_Energy>
59.487

> <b_lp_Chiralities_Consistent>
1

> <s_lp_Variant>
AV-unprocessed.smi:746-3

> <Gold.Version>
5.8.1

> <Gold.Id.Protein>
6NUR|6NUR_protein|mol2

> <Gold.PLP.Fitness>
46.1716

> <Gold.PLP.PLP>
-43.0312

> <Gold.PLP.part.hbond>
-1.0000

> <Gold.PLP.part.metal>
0.0000

> <Gold.PLP.part.buried>
-0.0801

> <Gold.PLP.part.nonpolar>
-44.1519

> <Gold.PLP.part.repulsive>
2.5041

> <Gold.PLP.ligand.clash>
0.9347

> <Gold.PLP.ligand.torsion>
0.6299

> <Gold.PLP.Chemscore.Hbond>
0.7520

> <Gold.PLP.Chemscore.CHOScore>
0.9561

> <Gold.PLP.Chemscore.Metal>
0.0000

> <Gold.Chemscore.Hbonds>
donor molecule, donor type, donor heavy atom, donor atom, acceptor molecule, acceptor atom, score
      L1  H    10    33       P1  8028  0.74
      L1  C    22    48       P1  8028  0.97

> <Gold.PLP.Chemscore.Internal.Correction>
0.2107

> <Gold.Rescore>
     Score         DG    S(hbond)    S(metal)    S(lipo)     H(rot)  DE(clash)    DE(int)     intcor
     15.34     -19.21       0.81        0.00     127.55       1.52       1.81       2.06       ----

> <Gold.Chemscore.Fitness>
15.3447

> <Gold.Chemscore.DG>
-19.2147

> <Gold.Chemscore.ZeroCoef>
-5.4800

> <Gold.Chemscore.Hbond>
0.8070

> <Gold.Chemscore.Metal>
0.0000

> <Gold.Chemscore.Lipo>
127.5497

> <Gold.Chemscore.Internal_Hbond>
0.0000

> <Gold.Chemscore.DEClash>
1.8054

> <Gold.Chemscore.DEInternal>
2.0646

> <Gold.Chemscore.Rot>
1.5172

> <Gold.Chemscore.Internal.Correction>
   9.000000E+99

> <Gold.Chemscore.Hbonds>
donor molecule, donor type, donor heavy atom, donor atom, acceptor molecule, acceptor atom, score
      L1  H    10    33       P1  8028  0.70

> <Gold.Chemscore.Hbond.Weighted>
-2.6955

> <Gold.Chemscore.Metal.Weighted>
-0.0000

> <Gold.Chemscore.Lipo.Weighted>
-14.9233

> <Gold.Chemscore.Internal_Hbond.Weighted>
0.0000

> <Gold.Chemscore.DEClash.Weighted>
1.8054

> <Gold.Chemscore.DEInternal.Weighted>
2.0646

> <Gold.Chemscore.Rot.Weighted>
3.8841

> <Gold.Chemscore.Internal.Correction.Weighted>
   9.000000E+99

> <Gold.Protein.RotatedTorsions>
[ 6907 6896 6895 6894 ] final   18.18 input  -60.11 | X-H torsion
[ 7974 7965 7964 7962 ] final  -37.91 input  175.53 | X-H torsion
[ 8008 7997 7996 7995 ] final  105.61 input   59.86 | X-H torsion
[ 10167 10162 10161 10158 ] final   -6.28 input  -65.29 | X-H torsion
[ 10718 10713 10712 10709 ] final  153.79 input   66.30 | X-H torsion
[ 10763 10752 10751 10750 ] final  -55.71 input  -60.55 | X-H torsion
[ 11005 11000 10999 10996 ] final  -13.72 input  -57.11 | X-H torsion

> <Gold.Protein.ActiveResidues>
 VAL166  LYS551  ARG553  GLY616  TRP617  ASP618  TYR619  PRO620  LYS621  CYS622 
 ASP623  PHE694  ASN695  SER759  ASP760  ASP761  ALA762  ILE779  LEU786  VAL792 
 PHE793  MET794  SER795  GLU796  ALA797  LYS798  CYS799  TRP800  GLU811  SER814 

> <Gold.Protein.RotatedAtoms>
  151.8613  135.0523  160.0469 H   0  0  0  0  0  0  0  0  0  0  0  0  # atno 6907 bound_to 6896
  152.2660  133.5335  159.5419 H   0  0  0  0  0  0  0  0  0  0  0  0  # atno 6908 bound_to 6896
  150.7134  134.0680  159.3896 H   0  0  0  0  0  0  0  0  0  0  0  0  # atno 6909 bound_to 6896
  146.0533  140.6451  142.9031 H   0  0  0  0  0  0  0  0  0  0  0  0  # atno 7974 bound_to 7965
  156.1674  140.3127  155.8912 H   0  0  0  0  0  0  0  0  0  0  0  0  # atno 8008 bound_to 7997
  155.3658  140.0479  157.3063 H   0  0  0  0  0  0  0  0  0  0  0  0  # atno 8009 bound_to 7997
  154.5206  140.2197  155.8994 H   0  0  0  0  0  0  0  0  0  0  0  0  # atno 8010 bound_to 7997
  140.6992  143.6211  150.8611 H   0  0  0  0  0  0  0  0  0  0  0  0  # atno 10167 bound_to 10162
  157.2402  131.0757  151.1797 H   0  0  0  0  0  0  0  0  0  0  0  0  # atno 10718 bound_to 10713
  154.1950  135.6421  153.5071 H   0  0  0  0  0  0  0  0  0  0  0  0  # atno 10763 bound_to 10752
  153.0025  135.5438  154.6375 H   0  0  0  0  0  0  0  0  0  0  0  0  # atno 10764 bound_to 10752
  154.5773  135.2922  155.0740 H   0  0  0  0  0  0  0  0  0  0  0  0  # atno 10765 bound_to 10752
  140.7790  133.8378  155.9275 H   0  0  0  0  0  0  0  0  0  0  0  0  # atno 11005 bound_to 11000
  144.7134  140.4123  143.7063 LP  0  0  0  0  0  0  0  0  0  0  0  0  # atno 17320 bound_to 7965
  145.6687  139.1595  143.2767 LP  0  0  0  0  0  0  0  0  0  0  0  0  # atno 17321 bound_to 7965
  139.9932  143.5824  152.2902 LP  0  0  0  0  0  0  0  0  0  0  0  0  # atno 17342 bound_to 10162
  139.6487  144.7659  151.2192 LP  0  0  0  0  0  0  0  0  0  0  0  0  # atno 17343 bound_to 10162
  157.3387  130.7022  149.6368 LP  0  0  0  0  0  0  0  0  0  0  0  0  # atno 17370 bound_to 10713
  155.9670  130.4286  150.4796 LP  0  0  0  0  0  0  0  0  0  0  0  0  # atno 17371 bound_to 10713
  140.9501  134.1790  157.4734 LP  0  0  0  0  0  0  0  0  0  0  0  0  # atno 17394 bound_to 11000
  139.8745  134.9906  156.5508 LP  0  0  0  0  0  0  0  0  0  0  0  0  # atno 17395 bound_to 11000

$$$$
