#       Name:                AV-unprocessed.smi:1839
#       Creating user name   scv26
#       Creation time:       Fri Mar 27 09:18:12 2020


#       File generated by GOLD software.
#

@<TRIPOS>MOLECULE
AV-unprocessed.smi:1839
    51    52     1
SMALL
NO_CHARGES


@<TRIPOS>ATOM
      1 ****        -3.9304  -3.0122   0.7929 C.3            1 S1                 0.0000
      2 ****        -2.8164  -2.5300  -0.0237 N.am           1 S1                 0.0000
      3 ****        -1.8661  -3.5760  -0.4210 C.3            1 S1                 0.0000
      4 ****        -2.5621  -1.2009  -0.1168 C.2            1 S1                 0.0000
      5 ****        -3.0303  -0.3889   0.6840 O.2            1 S1                 0.0000
      6 ****        -1.7315  -0.8220  -1.1171 N.am           1 S1                 0.0000
      7 ****        -1.9485  -1.1996  -2.5215 C.3            1 S1                 0.0000
      8 ****        -0.6021  -1.5605  -3.1739 C.3            1 S1                 0.0000
      9 ****         0.4056  -0.4065  -3.0301 C.3            1 S1                 0.0000
     10 ****         0.5167   0.0585  -1.5616 C.3            1 S1                 0.0000
     11 ****         1.4375   1.2763  -1.4180 C.2            1 S1                 0.0000
     12 ****         1.2237   2.3011  -2.0662 O.2            1 S1                 0.0000
     13 ****         2.4445   1.1574  -0.5398 N.am           1 S1                 0.0000
     14 ****         3.3529   2.2315  -0.1525 C.3            1 S1                 0.0000
     15 ****         2.7111   3.2397   0.8243 C.3            1 S1                 0.0000
     16 ****         2.0557   2.5928   2.0350 C.ar           1 S1                 0.0000
     17 ****         2.8049   2.3283   3.2012 C.ar           1 S1                 0.0000
     18 ****         2.1593   1.7037   4.2861 C.ar           1 S1                 0.0000
     19 ****         0.7972   1.3668   4.1636 C.ar           1 S1                 0.0000
     20 ****         0.1370   1.6735   2.9572 C.ar           1 S1                 0.0000
     21 ****         0.7467   2.2738   1.9130 N.ar           1 S1                 0.0000
     22 ****        -0.8854   0.3694  -0.9938 C.3            1 S1                 0.0000
     23 ****        -4.8136  -2.3817   0.6775 H              1 S1                 0.0000
     24 ****        -3.6522  -3.0225   1.8474 H              1 S1                 0.0000
     25 ****        -4.2203  -4.0243   0.5078 H              1 S1                 0.0000
     26 ****        -0.8354  -3.2184  -0.4234 H              1 S1                 0.0000
     27 ****        -2.1035  -3.9525  -1.4158 H              1 S1                 0.0000
     28 ****        -1.8997  -4.4211   0.2679 H              1 S1                 0.0000
     29 ****        -2.6506  -2.0266  -2.6293 H              1 S1                 0.0000
     30 ****        -2.4016  -0.3582  -3.0478 H              1 S1                 0.0000
     31 ****        -0.1970  -2.4595  -2.7084 H              1 S1                 0.0000
     32 ****        -0.7482  -1.7981  -4.2279 H              1 S1                 0.0000
     33 ****         1.3810  -0.7183  -3.4051 H              1 S1                 0.0000
     34 ****         0.0821   0.4226  -3.6614 H              1 S1                 0.0000
     35 ****         0.9415  -0.7626  -0.9806 H              1 S1                 0.0000
     36 ****         2.5462   0.2783  -0.0537 H              1 S1                 0.0000
     37 ****         4.2165   1.7678   0.3249 H              1 S1                 0.0000
     38 ****         3.7306   2.7459  -1.0371 H              1 S1                 0.0000
     39 ****         3.4663   3.9483   1.1658 H              1 S1                 0.0000
     40 ****         1.9634   3.8341   0.2967 H              1 S1                 0.0000
     41 ****         3.8506   2.5920   3.2620 H              1 S1                 0.0000
     42 ****         2.7002   1.4837   5.1947 H              1 S1                 0.0000
     43 ****         0.2707   0.8850   4.9741 H              1 S1                 0.0000
     44 ****        -0.9068   1.4293   2.8260 H              1 S1                 0.0000
     45 ****        -1.3502   1.2027  -1.5241 H              1 S1                 0.0000
     46 ****        -0.7898   0.6791   0.0487 H              1 S1                 0.0000
     47 ****        -3.6170  -0.7039   1.4301 LP             1 S1                 0.0000
     48 ****        -2.8234   0.5847   0.5875 LP             1 S1                 0.0000
     49 ****         0.4449   2.3435  -2.6920 LP             1 S1                 0.0000
     50 ****         1.8289   3.0909  -1.9669 LP             1 S1                 0.0000
     51 ****         0.2445   2.4771   1.0724 LP             1 S1                 0.0000
@<TRIPOS>BOND
    1    1    2 1     
    2    1   23 1     
    3    1   24 1     
    4    1   25 1     
    5    2    3 1     
    6    2    4 am    
    7    3   26 1     
    8    3   27 1     
    9    3   28 1     
   10    4    5 2     
   11    4    6 am    
   12    6   22 1     
   13    6    7 1     
   14    7    8 1     
   15    7   29 1     
   16    7   30 1     
   17    8    9 1     
   18    8   31 1     
   19    8   32 1     
   20    9   10 1     
   21    9   33 1     
   22    9   34 1     
   23   10   11 1     
   24   10   22 1     
   25   10   35 1     
   26   11   12 2     
   27   11   13 am    
   28   13   14 1     
   29   13   36 1     
   30   14   15 1     
   31   14   37 1     
   32   14   38 1     
   33   15   16 1     
   34   15   39 1     
   35   15   40 1     
   36   16   21 ar    
   37   16   17 ar    
   38   17   18 ar    
   39   17   41 1     
   40   18   19 ar    
   41   18   42 1     
   42   19   20 ar    
   43   19   43 1     
   44   20   21 ar    
   45   20   44 1     
   46   22   45 1     
   47   22   46 1     
   48    5   47 1     
   49    5   48 1     
   50   12   49 1     
   51   12   50 1     
   52   21   51 1     
@<TRIPOS>SUBSTRUCTURE
      1 S1             1
@<TRIPOS>SET
LONE_PAIRS      STATIC     ATOMS    <user>   **** ""
5 47 48 49 50 51
DONOR_HYDROGENS      STATIC     ATOMS    <user>   **** ""
1 36
ATOM$BLUE        STATIC     ATOMS    COLORGROUP SYSTEM
5 47 48 49 50 51
ATOM$RED        STATIC     ATOMS    COLORGROUP SYSTEM
1 36
