AV-unprocessed.smi:560|AV-procd|sdf|2932|dock9
  -GOLD-   2262023423D 1   1.00000     0.00000
 Structure written by MMmdl.
 41 42  0  0  0  0  0  0  0  0  3 V2000
  151.9293  144.4160  158.8766 C   0  0  0  0  0  0  0  0  0  0  0  0
  152.6982  143.0877  159.0012 C   0  0  2  0  0  0  0  0  0  0  0  0
  151.9513  141.9067  158.3626 C   0  0  0  0  0  0  0  0  0  0  0  0
  152.3683  140.7549  158.4918 O   0  0  0  0  0  0  0  0  0  0  0  0
  150.8466  142.2122  157.6637 N   0  0  0  0  0  0  0  0  0  0  0  0
  150.0109  141.2546  156.9462 C   0  0  2  0  0  0  0  0  0  0  0  0
  150.0124  141.5850  155.4451 C   0  0  0  0  0  0  0  0  0  0  0  0
  149.0780  140.6437  154.6672 C   0  0  0  0  0  0  0  0  0  0  0  0
  147.6943  140.6912  155.2116 N   0  3  1  0  0  0  0  0  0  0  0  0
  146.7216  139.9014  154.4137 C   0  0  0  0  0  0  0  0  0  0  0  0
  147.2893  138.5163  154.0867 C   0  0  0  0  0  0  0  0  0  0  0  0
  147.5224  138.3544  152.7686 N   0  5  0  0  0  0  0  0  0  0  0  0
  147.4818  137.7091  154.9929 O   0  0  0  0  0  0  0  0  0  0  0  0
  147.6605  140.3402  156.6536 C   0  0  0  0  0  0  0  0  0  0  0  0
  148.5646  141.2746  157.4743 C   0  0  0  0  0  0  0  0  0  0  0  0
  153.0087  142.7905  160.3933 N   0  0  0  0  0  0  0  0  0  0  0  0
  152.5973  143.4533  161.5336 C   0  0  0  0  0  0  0  0  0  0  0  0
  153.1372  142.8002  162.6039 C   0  0  0  0  0  0  0  0  0  0  0  0
  153.8746  141.7367  162.0135 C   0  0  0  0  0  0  0  0  0  0  0  0
  153.7944  141.7321  160.6926 N   0  0  0  0  0  0  0  0  0  0  0  0
  151.7038  144.6459  157.8347 H   0  0  0  0  0  0  0  0  0  0  0  0
  152.5190  145.2431  159.2731 H   0  0  0  0  0  0  0  0  0  0  0  0
  150.9862  144.3933  159.4240 H   0  0  0  0  0  0  0  0  0  0  0  0
  153.6395  143.2073  158.4609 H   0  0  0  0  0  0  0  0  0  0  0  0
  150.5788  143.1847  157.6072 H   0  0  0  0  0  0  0  0  0  0  0  0
  150.4268  140.2535  157.0782 H   0  0  0  0  0  0  0  0  0  0  0  0
  149.6943  142.6172  155.2901 H   0  0  0  0  0  0  0  0  0  0  0  0
  151.0245  141.5107  155.0456 H   0  0  0  0  0  0  0  0  0  0  0  0
  149.0795  140.9318  153.6156 H   0  0  0  0  0  0  0  0  0  0  0  0
  149.4536  139.6204  154.7137 H   0  0  0  0  0  0  0  0  0  0  0  0
  145.7739  139.8129  154.9475 H   0  0  0  0  0  0  0  0  0  0  0  0
  146.5005  140.4068  153.4717 H   0  0  0  0  0  0  0  0  0  0  0  0
  148.0724  137.5464  152.4543 H   0  0  0  0  0  0  0  0  0  0  0  0
  146.6385  140.4159  157.0269 H   0  0  0  0  0  0  0  0  0  0  0  0
  147.9710  139.3022  156.7838 H   0  0  0  0  0  0  0  0  0  0  0  0
  148.5390  140.9761  158.5229 H   0  0  0  0  0  0  0  0  0  0  0  0
  148.1685  142.2903  157.4325 H   0  0  0  0  0  0  0  0  0  0  0  0
  151.9603  144.3246  161.4878 H   0  0  0  0  0  0  0  0  0  0  0  0
  153.0231  143.0454  163.6493 H   0  0  0  0  0  0  0  0  0  0  0  0
  154.4610  140.9726  162.5021 H   0  0  0  0  0  0  0  0  0  0  0  0
  147.3820  141.6498  155.1426 H   0  0  0  0  0  0  0  0  0  0  0  0
  1  2  1  0  0  0  0
  1 21  1  0  0  0  0
  1 22  1  0  0  0  0
  1 23  1  0  0  0  0
  2  3  1  0  0  0  0
  2 16  1  0  0  0  0
  2 24  1  0  0  0  0
  3  4  2  0  0  0  0
  3  5  1  0  0  0  0
  5  6  1  0  0  0  0
  5 25  1  0  0  0  0
  6 15  1  0  0  0  0
  6  7  1  0  0  0  0
  6 26  1  0  0  0  0
  7  8  1  0  0  0  0
  7 27  1  0  0  0  0
  7 28  1  0  0  0  0
  8  9  1  0  0  0  0
  8 29  1  0  0  0  0
  8 30  1  0  0  0  0
  9 10  1  0  0  0  0
  9 14  1  0  0  0  0
  9 41  1  0  0  0  0
 10 11  1  0  0  0  0
 10 31  1  0  0  0  0
 10 32  1  0  0  0  0
 11 12  1  0  0  0  0
 11 13  2  0  0  0  0
 12 33  1  0  0  0  0
 14 15  1  0  0  0  0
 14 34  1  0  0  0  0
 14 35  1  0  0  0  0
 15 36  1  0  0  0  0
 15 37  1  0  0  0  0
 16 20  1  0  0  0  0
 16 17  1  0  0  0  0
 17 18  2  0  0  0  0
 17 38  1  0  0  0  0
 18 19  1  0  0  0  0
 18 39  1  0  0  0  0
 19 20  2  0  0  0  0
 19 40  1  0  0  0  0
M  CHG  1   9   1
M  CHG  1  12  -1
M  END
> <s_m_source_file>
AV-unprocessed.smi

> <i_m_source_file_index>
560

> <i_lp_mmshare_version>
43012

> <i_f3d_flags>
0

> <s_epik_input>
bjFbY0hdW2NIXVtjSF1uMVtDQEhdKFtDSDNdKUMoPU8pW05IXVtDSF0yW0NIMl1bQ0gyXU4oW0NIMl1bQ0gyXTIpW0NIMl1DKD1PKVtOSDJd

> <s_epik_cmdline>
J2VwaWtfcHl0aG9uJywgJy1waCcsICc3LjAnLCAnLXRuJywgJzgnLCAnLW1hJywgJzIwMCcsICctbWV0YWxfYmluZGluZycsICctaW1hZScsICc8aW5maWxlLm1hZT4nLCAnLW9tYWUnLCAnPG91dGZpbGUubWFlPic=

> <r_lp_tautomer_probability>
1

> <r_epik_Ionization_Penalty>
5.71084

> <r_epik_Ionization_Penalty_Charging>
5.71081

> <r_epik_Ionization_Penalty_Neutral>
3.04611e-05

> <r_epik_State_Penalty>
6.71277

> <r_epik_Charging_Adjusted_Penalty>
12.4236

> <i_epik_Tot_Q>
0

> <i_epik_Tot_abs_Q>
2

> <r_epik_Metal_State_Penalty>
2.67562

> <b_epik_Metal_Only>
1

> <s_lp_Force_Field>
OPLS_2005

> <r_lp_Energy>
10.6989

> <b_lp_Chiralities_Consistent>
1

> <s_lp_Variant>
AV-unprocessed.smi:560-7

> <Gold.Version>
5.8.1

> <Gold.Id.Protein>
6NUR|6NUR_protein|mol2

> <Gold.PLP.Fitness>
43.6274

> <Gold.PLP.PLP>
-41.8115

> <Gold.PLP.part.hbond>
-2.0000

> <Gold.PLP.part.metal>
0.0000

> <Gold.PLP.part.buried>
-5.9254

> <Gold.PLP.part.nonpolar>
-33.8520

> <Gold.PLP.part.repulsive>
0.1609

> <Gold.PLP.ligand.clash>
0.4117

> <Gold.PLP.ligand.torsion>
0.4249

> <Gold.PLP.Chemscore.Hbond>
1.0000

> <Gold.PLP.Chemscore.CHOScore>
0.0000

> <Gold.PLP.Chemscore.Metal>
0.0000

> <Gold.Chemscore.Hbonds>
donor molecule, donor type, donor heavy atom, donor atom, acceptor molecule, acceptor atom, score
      L1  H    12    33       P1  7948  1.00

> <Gold.PLP.Chemscore.Internal.Correction>
0.0774

> <Gold.Rescore>
     Score         DG    S(hbond)    S(metal)    S(lipo)     H(rot)  DE(clash)    DE(int)     intcor
     11.69     -13.33       1.00        0.00      92.73       2.47       0.01       1.63       ----

> <Gold.Chemscore.Fitness>
11.6879

> <Gold.Chemscore.DG>
-13.3303

> <Gold.Chemscore.ZeroCoef>
-5.4800

> <Gold.Chemscore.Hbond>
0.9980

> <Gold.Chemscore.Metal>
0.0000

> <Gold.Chemscore.Lipo>
92.7254

> <Gold.Chemscore.Internal_Hbond>
0.0000

> <Gold.Chemscore.DEClash>
0.0089

> <Gold.Chemscore.DEInternal>
1.6335

> <Gold.Chemscore.Rot>
2.4734

> <Gold.Chemscore.Internal.Correction>
   9.000000E+99

> <Gold.Chemscore.Hbonds>
donor molecule, donor type, donor heavy atom, donor atom, acceptor molecule, acceptor atom, score
      L1  H    12    33       P1  7948  1.00

> <Gold.Chemscore.Hbond.Weighted>
-3.3332

> <Gold.Chemscore.Metal.Weighted>
-0.0000

> <Gold.Chemscore.Lipo.Weighted>
-10.8489

> <Gold.Chemscore.Internal_Hbond.Weighted>
0.0000

> <Gold.Chemscore.DEClash.Weighted>
0.0089

> <Gold.Chemscore.DEInternal.Weighted>
1.6335

> <Gold.Chemscore.Rot.Weighted>
6.3318

> <Gold.Chemscore.Internal.Correction.Weighted>
   9.000000E+99

> <Gold.Protein.RotatedTorsions>
[ 6907 6896 6895 6894 ] final  -28.21 input  -60.11 | X-H torsion
[ 7974 7965 7964 7962 ] final  -63.51 input  175.53 | X-H torsion
[ 8008 7997 7996 7995 ] final   78.54 input   59.86 | X-H torsion
[ 10167 10162 10161 10158 ] final -136.38 input  -65.29 | X-H torsion
[ 10718 10713 10712 10709 ] final  138.73 input   66.30 | X-H torsion
[ 10763 10752 10751 10750 ] final  144.86 input  -60.55 | X-H torsion
[ 11005 11000 10999 10996 ] final -151.36 input  -57.11 | X-H torsion

> <Gold.Protein.ActiveResidues>
 VAL166  LYS551  ARG553  GLY616  TRP617  ASP618  TYR619  PRO620  LYS621  CYS622 
 ASP623  PHE694  ASN695  SER759  ASP760  ASP761  ALA762  ILE779  LEU786  VAL792 
 PHE793  MET794  SER795  GLU796  ALA797  LYS798  CYS799  TRP800  GLU811  SER814 

> <Gold.Protein.RotatedAtoms>
  151.1362  135.0156  159.8604 H   0  0  0  0  0  0  0  0  0  0  0  0  # atno 6907 bound_to 6896
  152.5452  134.1553  159.8545 H   0  0  0  0  0  0  0  0  0  0  0  0  # atno 6908 bound_to 6896
  151.1624  133.4791  159.2627 H   0  0  0  0  0  0  0  0  0  0  0  0  # atno 6909 bound_to 6896
  145.7782  140.8776  143.0344 H   0  0  0  0  0  0  0  0  0  0  0  0  # atno 7974 bound_to 7965
  155.8571  140.3455  155.5732 H   0  0  0  0  0  0  0  0  0  0  0  0  # atno 8008 bound_to 7997
  155.7974  140.0880  157.1995 H   0  0  0  0  0  0  0  0  0  0  0  0  # atno 8009 bound_to 7997
  154.4010  140.1472  156.3221 H   0  0  0  0  0  0  0  0  0  0  0  0  # atno 8010 bound_to 7997
  139.8683  143.6989  152.2642 H   0  0  0  0  0  0  0  0  0  0  0  0  # atno 10167 bound_to 10162
  157.4221  131.1039  151.0342 H   0  0  0  0  0  0  0  0  0  0  0  0  # atno 10718 bound_to 10713
  153.9959  135.2928  155.3407 H   0  0  0  0  0  0  0  0  0  0  0  0  # atno 10763 bound_to 10752
  154.7188  135.5118  153.8782 H   0  0  0  0  0  0  0  0  0  0  0  0  # atno 10764 bound_to 10752
  153.0788  135.6672  154.0206 H   0  0  0  0  0  0  0  0  0  0  0  0  # atno 10765 bound_to 10752
  140.7303  134.3628  157.5168 H   0  0  0  0  0  0  0  0  0  0  0  0  # atno 11005 bound_to 11000
  144.6801  139.9951  143.7484 LP  0  0  0  0  0  0  0  0  0  0  0  0  # atno 17320 bound_to 7965
  146.0101  139.3163  143.0875 LP  0  0  0  0  0  0  0  0  0  0  0  0  # atno 17321 bound_to 7965
  139.7308  144.7583  151.0806 LP  0  0  0  0  0  0  0  0  0  0  0  0  # atno 17342 bound_to 10162
  140.7764  143.5091  150.9675 LP  0  0  0  0  0  0  0  0  0  0  0  0  # atno 17343 bound_to 10162
  157.1269  130.6085  149.5519 LP  0  0  0  0  0  0  0  0  0  0  0  0  # atno 17370 bound_to 10713
  155.9884  130.4927  150.7168 LP  0  0  0  0  0  0  0  0  0  0  0  0  # atno 17371 bound_to 10713
  139.8828  134.9014  156.2810 LP  0  0  0  0  0  0  0  0  0  0  0  0  # atno 17394 bound_to 11000
  140.9926  133.7199  156.0837 LP  0  0  0  0  0  0  0  0  0  0  0  0  # atno 17395 bound_to 11000

$$$$
