AV-unprocessed.smi:3162|AV-procd|sdf|12063|dock4
  -GOLD-   2272017493D 1   1.00000     0.00000
 Structure written by MMmdl.
 37 37  0  0  0  0  0  0  0  0  2 V2000
  146.7487  141.3616  154.4285 C   0  0  0  0  0  0  0  0  0  0  0  0
  146.8664  140.6738  153.0590 C   0  0  0  0  0  0  0  0  0  0  0  0
  147.0647  139.1431  153.1203 C   0  0  2  0  0  0  0  0  0  0  0  0
  148.5171  138.8443  153.1408 N   0  3  0  0  0  0  0  0  0  0  0  0
  149.2356  139.1166  154.4089 C   0  0  2  0  0  0  0  0  0  0  0  0
  148.3572  138.6649  155.5878 C   0  0  0  0  0  0  0  0  0  0  0  0
  149.6634  140.5990  154.5166 C   0  0  0  0  0  0  0  0  0  0  0  0
  150.2925  140.9165  155.7860 N   0  0  0  0  0  0  0  0  0  0  0  0
  150.0317  141.9765  156.6282 C   0  0  0  0  0  0  0  0  0  0  0  0
  150.8670  141.8628  157.7032 C   0  0  0  0  0  0  0  0  0  0  0  0
  150.9820  142.7612  158.9011 C   0  0  0  0  0  0  0  0  0  0  0  0
  151.6109  140.6817  157.4205 C   0  0  0  0  0  0  0  0  0  0  0  0
  151.2638  140.1172  156.2752 N   0  0  0  0  0  0  0  0  0  0  0  0
  146.3859  138.4435  151.9320 C   0  0  0  0  0  0  0  0  0  0  0  0
  145.1955  137.8792  152.1524 N   0  0  0  0  0  0  0  0  0  0  0  0
  146.9284  138.4145  150.8289 O   0  0  0  0  0  0  0  0  0  0  0  0
  146.6935  142.4442  154.3119 H   0  0  0  0  0  0  0  0  0  0  0  0
  147.6121  141.1408  155.0562 H   0  0  0  0  0  0  0  0  0  0  0  0
  145.8528  141.0477  154.9640 H   0  0  0  0  0  0  0  0  0  0  0  0
  145.9882  140.9148  152.4577 H   0  0  0  0  0  0  0  0  0  0  0  0
  147.7151  141.1164  152.5355 H   0  0  0  0  0  0  0  0  0  0  0  0
  146.6181  138.7841  154.0494 H   0  0  0  0  0  0  0  0  0  0  0  0
  148.6582  137.8817  152.8677 H   0  0  0  0  0  0  0  0  0  0  0  0
  150.1310  138.4934  154.4243 H   0  0  0  0  0  0  0  0  0  0  0  0
  148.8888  138.7355  156.5370 H   0  0  0  0  0  0  0  0  0  0  0  0
  148.0485  137.6257  155.4716 H   0  0  0  0  0  0  0  0  0  0  0  0
  147.4553  139.2732  155.6653 H   0  0  0  0  0  0  0  0  0  0  0  0
  150.3751  140.8524  153.7310 H   0  0  0  0  0  0  0  0  0  0  0  0
  148.8003  141.2526  154.3772 H   0  0  0  0  0  0  0  0  0  0  0  0
  149.2809  142.7173  156.3949 H   0  0  0  0  0  0  0  0  0  0  0  0
  151.5193  142.2797  159.7184 H   0  0  0  0  0  0  0  0  0  0  0  0
  150.0032  143.0470  159.2865 H   0  0  0  0  0  0  0  0  0  0  0  0
  151.5162  143.6813  158.6637 H   0  0  0  0  0  0  0  0  0  0  0  0
  152.3879  140.2200  158.0117 H   0  0  0  0  0  0  0  0  0  0  0  0
  144.7132  137.4002  151.4057 H   0  0  0  0  0  0  0  0  0  0  0  0
  144.7827  137.9263  153.0732 H   0  0  0  0  0  0  0  0  0  0  0  0
  148.9419  139.4349  152.4404 H   0  0  0  0  0  0  0  0  0  0  0  0
  1  2  1  0  0  0  0
  1 17  1  0  0  0  0
  1 18  1  0  0  0  0
  1 19  1  0  0  0  0
  2  3  1  0  0  0  0
  2 20  1  0  0  0  0
  2 21  1  0  0  0  0
  3  4  1  0  0  0  0
  3 14  1  0  0  0  0
  3 22  1  0  0  0  0
  4  5  1  0  0  0  0
  4 23  1  0  0  0  0
  4 37  1  0  0  0  0
  5  6  1  0  0  0  0
  5  7  1  0  0  0  0
  5 24  1  0  0  0  0
  6 25  1  0  0  0  0
  6 26  1  0  0  0  0
  6 27  1  0  0  0  0
  7  8  1  0  0  0  0
  7 28  1  0  0  0  0
  7 29  1  0  0  0  0
  8 13  1  0  0  0  0
  8  9  1  0  0  0  0
  9 10  2  0  0  0  0
  9 30  1  0  0  0  0
 10 11  1  0  0  0  0
 10 12  1  0  0  0  0
 11 31  1  0  0  0  0
 11 32  1  0  0  0  0
 11 33  1  0  0  0  0
 12 13  2  0  0  0  0
 12 34  1  0  0  0  0
 14 15  1  0  0  0  0
 14 16  2  0  0  0  0
 15 35  1  0  0  0  0
 15 36  1  0  0  0  0
M  CHG  1   4   1
M  END
> <s_m_source_file>
AV-unprocessed.smi

> <i_m_source_file_index>
3162

> <i_lp_mmshare_version>
43012

> <i_f3d_flags>
0

> <s_epik_input>
W0NIM11bQ0gyXVtDQEBIXShDKD1PKVtOSDJdKVtOSF1bQ0BIXShbQ0gzXSlbQ0gyXW4xW2NIXWMoW0NIM10pW2NIXW4x

> <s_epik_cmdline>
J2VwaWtfcHl0aG9uJywgJy1waCcsICc3LjAnLCAnLXRuJywgJzgnLCAnLW1hJywgJzIwMCcsICctbWV0YWxfYmluZGluZycsICctaW1hZScsICc8aW5maWxlLm1hZT4nLCAnLW9tYWUnLCAnPG91dGZpbGUubWFlPic=

> <r_lp_tautomer_probability>
1

> <r_epik_Ionization_Penalty>
0.112112

> <r_epik_Ionization_Penalty_Charging>
0.112102

> <r_epik_Ionization_Penalty_Neutral>
9.73799e-06

> <r_epik_State_Penalty>
0.101811

> <r_epik_Charging_Adjusted_Penalty>
0.213914

> <i_epik_Tot_Q>
1

> <i_epik_Tot_abs_Q>
1

> <r_epik_Metal_State_Penalty>
0.101821

> <b_epik_Metal_Only>
0

> <s_lp_Force_Field>
OPLS_2005

> <r_lp_Energy>
5.61804

> <b_lp_Chiralities_Consistent>
1

> <s_lp_Variant>
AV-unprocessed.smi:3162-1

> <Gold.Version>
5.8.1

> <Gold.Id.Protein>
6NUR|6NUR_protein|mol2

> <Gold.PLP.Fitness>
45.3873

> <Gold.PLP.PLP>
-31.1886

> <Gold.PLP.part.hbond>
-5.0000

> <Gold.PLP.part.metal>
0.0000

> <Gold.PLP.part.buried>
-2.1796

> <Gold.PLP.part.nonpolar>
-25.6056

> <Gold.PLP.part.repulsive>
0.9114

> <Gold.PLP.ligand.clash>
0.0000

> <Gold.PLP.ligand.torsion>
1.4333

> <Gold.PLP.Chemscore.Hbond>
4.6160

> <Gold.PLP.Chemscore.CHOScore>
1.0000

> <Gold.PLP.Chemscore.Metal>
0.0000

> <Gold.Chemscore.Hbonds>
donor molecule, donor type, donor heavy atom, donor atom, acceptor molecule, acceptor atom, score
      L1  H     4    23       P1  7948  2.00
      L1  H     4    37       P1  7957  1.00
      L1  H    15    35       P1 10171  0.25
      P1  H  7954  7966       L1    16  1.00
      L1  C     9    30       P1  8028  1.00

> <Gold.PLP.Chemscore.Internal.Correction>
0.2174

> <Gold.Rescore>
     Score         DG    S(hbond)    S(metal)    S(lipo)     H(rot)  DE(clash)    DE(int)     intcor
     16.19     -18.73       3.67        0.00      63.19       2.51       0.93       1.61       ----

> <Gold.Chemscore.Fitness>
16.1903

> <Gold.Chemscore.DG>
-18.7308

> <Gold.Chemscore.ZeroCoef>
-5.4800

> <Gold.Chemscore.Hbond>
3.6747

> <Gold.Chemscore.Metal>
0.0000

> <Gold.Chemscore.Lipo>
63.1894

> <Gold.Chemscore.Internal_Hbond>
0.0000

> <Gold.Chemscore.DEClash>
0.9340

> <Gold.Chemscore.DEInternal>
1.6065

> <Gold.Chemscore.Rot>
2.5062

> <Gold.Chemscore.Internal.Correction>
   9.000000E+99

> <Gold.Chemscore.Hbonds>
donor molecule, donor type, donor heavy atom, donor atom, acceptor molecule, acceptor atom, score
      L1  H     4    23       P1  7948  0.99
      L1  H     4    37       P1  7957  0.96
      L1  H    15    35       P1 10171  0.24
      P1  H  7954  7966       L1    16  0.95

> <Gold.Chemscore.Hbond.Weighted>
-12.2735

> <Gold.Chemscore.Metal.Weighted>
-0.0000

> <Gold.Chemscore.Lipo.Weighted>
-7.3932

> <Gold.Chemscore.Internal_Hbond.Weighted>
0.0000

> <Gold.Chemscore.DEClash.Weighted>
0.9340

> <Gold.Chemscore.DEInternal.Weighted>
1.6065

> <Gold.Chemscore.Rot.Weighted>
6.4159

> <Gold.Chemscore.Internal.Correction.Weighted>
   9.000000E+99

> <Gold.Protein.RotatedTorsions>
[ 6907 6896 6895 6894 ] final   22.35 input  -60.11 | X-H torsion
[ 7974 7965 7964 7962 ] final  171.25 input  175.53 | X-H torsion
[ 8008 7997 7996 7995 ] final  -58.84 input   59.86 | X-H torsion
[ 10167 10162 10161 10158 ] final   -4.40 input  -65.29 | X-H torsion
[ 10718 10713 10712 10709 ] final  -68.10 input   66.30 | X-H torsion
[ 10763 10752 10751 10750 ] final -157.58 input  -60.55 | X-H torsion
[ 11005 11000 10999 10996 ] final  -30.73 input  -57.11 | X-H torsion

> <Gold.Protein.ActiveResidues>
 VAL166  LYS551  ARG553  GLY616  TRP617  ASP618  TYR619  PRO620  LYS621  CYS622 
 ASP623  PHE694  ASN695  SER759  ASP760  ASP761  ALA762  ILE779  LEU786  VAL792 
 PHE793  MET794  SER795  GLU796  ALA797  LYS798  CYS799  TRP800  GLU811  SER814 

> <Gold.Protein.RotatedAtoms>
  151.9258  135.0278  160.0525 H   0  0  0  0  0  0  0  0  0  0  0  0  # atno 6907 bound_to 6896
  152.2160  133.4943  159.5145 H   0  0  0  0  0  0  0  0  0  0  0  0  # atno 6908 bound_to 6896
  150.6988  134.1321  159.4116 H   0  0  0  0  0  0  0  0  0  0  0  0  # atno 6909 bound_to 6896
  144.7300  139.9322  143.6425 H   0  0  0  0  0  0  0  0  0  0  0  0  # atno 7974 bound_to 7965
  154.4326  140.1075  156.6021 H   0  0  0  0  0  0  0  0  0  0  0  0  # atno 8008 bound_to 7997
  155.5899  140.3492  155.4545 H   0  0  0  0  0  0  0  0  0  0  0  0  # atno 8009 bound_to 7997
  156.0254  140.1249  157.0303 H   0  0  0  0  0  0  0  0  0  0  0  0  # atno 8010 bound_to 7997
  140.6926  143.6428  150.8420 H   0  0  0  0  0  0  0  0  0  0  0  0  # atno 10167 bound_to 10162
  156.0522  130.4289  150.1952 H   0  0  0  0  0  0  0  0  0  0  0  0  # atno 10718 bound_to 10713
  154.7624  135.3121  154.8351 H   0  0  0  0  0  0  0  0  0  0  0  0  # atno 10763 bound_to 10752
  153.9109  135.6806  153.4755 H   0  0  0  0  0  0  0  0  0  0  0  0  # atno 10764 bound_to 10752
  153.1227  135.4815  154.9153 H   0  0  0  0  0  0  0  0  0  0  0  0  # atno 10765 bound_to 10752
  140.9408  133.7280  156.1073 H   0  0  0  0  0  0  0  0  0  0  0  0  # atno 11005 bound_to 11000
  146.0848  139.3837  143.0442 LP  0  0  0  0  0  0  0  0  0  0  0  0  # atno 17320 bound_to 7965
  145.7791  140.9864  143.1109 LP  0  0  0  0  0  0  0  0  0  0  0  0  # atno 17321 bound_to 7965
  140.0142  143.5610  152.2827 LP  0  0  0  0  0  0  0  0  0  0  0  0  # atno 17342 bound_to 10162
  139.6345  144.7648  151.2467 LP  0  0  0  0  0  0  0  0  0  0  0  0  # atno 17343 bound_to 10162
  157.0033  130.9929  151.3385 LP  0  0  0  0  0  0  0  0  0  0  0  0  # atno 17370 bound_to 10713
  157.5460  130.8151  149.8086 LP  0  0  0  0  0  0  0  0  0  0  0  0  # atno 17371 bound_to 10713
  140.7737  134.3804  157.5502 LP  0  0  0  0  0  0  0  0  0  0  0  0  # atno 17394 bound_to 11000
  139.8820  134.9038  156.2863 LP  0  0  0  0  0  0  0  0  0  0  0  0  # atno 17395 bound_to 11000

$$$$
