AV-unprocessed.smi:2051|AV-procd|sdf|8327|dock2
  -GOLD-   2272010593D 1   1.00000     0.00000
 Structure written by MMmdl.
 33 34  0  0  0  0  0  0  0  0  1 V2000
  150.0733  141.4716  157.9656 O   0  0  0  0  0  0  0  0  0  0  0  0
  150.7514  141.9463  157.0529 C   0  0  0  0  0  0  0  0  0  0  0  0
  151.0375  141.1429  155.7755 C   0  0  0  0  0  0  0  0  0  0  0  0
  149.8224  140.6857  155.0804 N   0  0  0  0  0  0  0  0  0  0  0  0
  148.8629  141.6659  154.7575 C   0  0  0  0  0  0  0  0  0  0  0  0
  147.7186  141.3591  154.1262 C   0  0  0  0  0  0  0  0  0  0  0  0
  147.4816  139.9789  153.7753 C   0  0  0  0  0  0  0  0  0  0  0  0
  148.3914  139.0328  154.0821 C   0  0  0  0  0  0  0  0  0  0  0  0
  149.6422  139.3633  154.7752 C   0  0  0  0  0  0  0  0  0  0  0  0
  150.4763  138.5046  155.0633 O   0  0  0  0  0  0  0  0  0  0  0  0
  151.2730  143.1814  157.0932 N   0  0  0  0  0  0  0  0  0  0  0  0
  151.1231  144.1227  158.1970 C   0  0  0  0  0  0  0  0  0  0  0  0
  152.2293  143.9470  159.2510 C   0  0  1  0  0  0  0  0  0  0  0  0
  151.9814  144.7241  160.5443 C   0  0  0  0  0  0  0  0  0  0  0  0
  152.6881  143.8977  161.6101 C   0  0  0  0  0  0  0  0  0  0  0  0
  153.0782  142.6061  160.8878 C   0  0  0  0  0  0  0  0  0  0  0  0
  152.2910  142.6044  159.7066 O   0  0  0  0  0  0  0  0  0  0  0  0
  151.6432  141.7621  155.1125 H   0  0  0  0  0  0  0  0  0  0  0  0
  151.6722  140.2906  156.0254 H   0  0  0  0  0  0  0  0  0  0  0  0
  149.1132  142.6723  155.0606 H   0  0  0  0  0  0  0  0  0  0  0  0
  146.9932  142.1238  153.8904 H   0  0  0  0  0  0  0  0  0  0  0  0
  146.5705  139.7036  153.2650 H   0  0  0  0  0  0  0  0  0  0  0  0
  148.1971  138.0052  153.8122 H   0  0  0  0  0  0  0  0  0  0  0  0
  151.8103  143.4956  156.2983 H   0  0  0  0  0  0  0  0  0  0  0  0
  151.1265  145.1440  157.8127 H   0  0  0  0  0  0  0  0  0  0  0  0
  150.1439  143.9653  158.6503 H   0  0  0  0  0  0  0  0  0  0  0  0
  153.2016  144.2265  158.8403 H   0  0  0  0  0  0  0  0  0  0  0  0
  152.3510  145.7482  160.4879 H   0  0  0  0  0  0  0  0  0  0  0  0
  150.9142  144.7659  160.7664 H   0  0  0  0  0  0  0  0  0  0  0  0
  153.5671  144.4064  162.0071 H   0  0  0  0  0  0  0  0  0  0  0  0
  152.0136  143.6949  162.4428 H   0  0  0  0  0  0  0  0  0  0  0  0
  154.1344  142.6229  160.6146 H   0  0  0  0  0  0  0  0  0  0  0  0
  152.8963  141.7156  161.4897 H   0  0  0  0  0  0  0  0  0  0  0  0
  1  2  2  0  0  0  0
  2  3  1  0  0  0  0
  2 11  1  0  0  0  0
  3  4  1  0  0  0  0
  3 18  1  0  0  0  0
  3 19  1  0  0  0  0
  4  9  1  0  0  0  0
  4  5  1  0  0  0  0
  5  6  2  0  0  0  0
  5 20  1  0  0  0  0
  6  7  1  0  0  0  0
  6 21  1  0  0  0  0
  7  8  2  0  0  0  0
  7 22  1  0  0  0  0
  8  9  1  0  0  0  0
  8 23  1  0  0  0  0
  9 10  2  0  0  0  0
 11 12  1  0  0  0  0
 11 24  1  0  0  0  0
 12 13  1  0  0  0  0
 12 25  1  0  0  0  0
 12 26  1  0  0  0  0
 13 17  1  0  0  0  0
 13 14  1  0  0  0  0
 13 27  1  0  0  0  0
 14 15  1  0  0  0  0
 14 28  1  0  0  0  0
 14 29  1  0  0  0  0
 15 16  1  0  0  0  0
 15 30  1  0  0  0  0
 15 31  1  0  0  0  0
 16 17  1  0  0  0  0
 16 32  1  0  0  0  0
 16 33  1  0  0  0  0
M  END
> <s_m_source_file>
AV-unprocessed.smi

> <i_m_source_file_index>
2051

> <i_lp_mmshare_version>
43012

> <i_f3d_flags>
0

> <s_epik_input>
TzFbQ0gyXVtDSDJdW0NIMl1bQ0BIXTFbQ0gyXVtOSF1DKD1PKVtDSDJdbjJbY0hdW2NIXVtjSF1bY0hdYzI9Tw==

> <s_epik_cmdline>
J2VwaWtfcHl0aG9uJywgJy1waCcsICc3LjAnLCAnLXRuJywgJzgnLCAnLW1hJywgJzIwMCcsICctbWV0YWxfYmluZGluZycsICctaW1hZScsICc8aW5maWxlLm1hZT4nLCAnLW9tYWUnLCAnPG91dGZpbGUubWFlPic=

> <r_lp_tautomer_probability>
1

> <r_epik_Ionization_Penalty>
3.94187e-07

> <r_epik_Ionization_Penalty_Charging>
3.67328e-07

> <r_epik_Ionization_Penalty_Neutral>
2.6859e-08

> <r_epik_State_Penalty>
-0

> <r_epik_Charging_Adjusted_Penalty>
3.67328e-07

> <i_epik_Tot_Q>
0

> <i_epik_Tot_abs_Q>
0

> <r_epik_Metal_State_Penalty>
-0

> <b_epik_Metal_Only>
0

> <s_lp_Force_Field>
OPLS_2005

> <r_lp_Energy>
26.6962

> <b_lp_Chiralities_Consistent>
1

> <s_lp_Variant>
AV-unprocessed.smi:2051-2

> <Gold.Version>
5.8.1

> <Gold.Id.Protein>
6NUR|6NUR_protein|mol2

> <Gold.PLP.Fitness>
42.1494

> <Gold.PLP.PLP>
-39.6686

> <Gold.PLP.part.hbond>
-0.3965

> <Gold.PLP.part.metal>
0.0000

> <Gold.PLP.part.buried>
-2.0690

> <Gold.PLP.part.nonpolar>
-35.5227

> <Gold.PLP.part.repulsive>
0.1853

> <Gold.PLP.ligand.clash>
0.0000

> <Gold.PLP.ligand.torsion>
0.2697

> <Gold.PLP.Chemscore.Hbond>
0.0000

> <Gold.PLP.Chemscore.CHOScore>
1.0000

> <Gold.PLP.Chemscore.Metal>
0.0000

> <Gold.Chemscore.Hbonds>
donor molecule, donor type, donor heavy atom, donor atom, acceptor molecule, acceptor atom, score
      L1  C     5    20       P1  8028  1.00

> <Gold.PLP.Chemscore.Internal.Correction>
0.0202

> <Gold.Rescore>
     Score         DG    S(hbond)    S(metal)    S(lipo)     H(rot)  DE(clash)    DE(int)     intcor
     11.96     -12.24       0.00        0.00      94.83       1.69       0.04       0.24       ----

> <Gold.Chemscore.Fitness>
11.9590

> <Gold.Chemscore.DG>
-12.2389

> <Gold.Chemscore.ZeroCoef>
-5.4800

> <Gold.Chemscore.Hbond>
0.0000

> <Gold.Chemscore.Metal>
0.0000

> <Gold.Chemscore.Lipo>
94.8259

> <Gold.Chemscore.Internal_Hbond>
0.0000

> <Gold.Chemscore.DEClash>
0.0396

> <Gold.Chemscore.DEInternal>
0.2404

> <Gold.Chemscore.Rot>
1.6936

> <Gold.Chemscore.Internal.Correction>
   9.000000E+99

> <Gold.Chemscore.Hbond.Weighted>
-0.0000

> <Gold.Chemscore.Metal.Weighted>
-0.0000

> <Gold.Chemscore.Lipo.Weighted>
-11.0946

> <Gold.Chemscore.Internal_Hbond.Weighted>
0.0000

> <Gold.Chemscore.DEClash.Weighted>
0.0396

> <Gold.Chemscore.DEInternal.Weighted>
0.2404

> <Gold.Chemscore.Rot.Weighted>
4.3357

> <Gold.Chemscore.Internal.Correction.Weighted>
   9.000000E+99

> <Gold.Protein.RotatedTorsions>
[ 6907 6896 6895 6894 ] final  177.45 input  -60.11 | X-H torsion
[ 7974 7965 7964 7962 ] final -150.32 input  175.53 | X-H torsion
[ 8008 7997 7996 7995 ] final -176.05 input   59.86 | X-H torsion
[ 10167 10162 10161 10158 ] final  134.08 input  -65.29 | X-H torsion
[ 10718 10713 10712 10709 ] final   91.45 input   66.30 | X-H torsion
[ 10763 10752 10751 10750 ] final  112.36 input  -60.55 | X-H torsion
[ 11005 11000 10999 10996 ] final -102.40 input  -57.11 | X-H torsion

> <Gold.Protein.ActiveResidues>
 VAL166  LYS551  ARG553  GLY616  TRP617  ASP618  TYR619  PRO620  LYS621  CYS622 
 ASP623  PHE694  ASN695  SER759  ASP760  ASP761  ALA762  ILE779  LEU786  VAL792 
 PHE793  MET794  SER795  GLU796  ALA797  LYS798  CYS799  TRP800  GLU811  SER814 

> <Gold.Protein.RotatedAtoms>
  151.7038  133.3311  159.3273 H   0  0  0  0  0  0  0  0  0  0  0  0  # atno 6907 bound_to 6896
  150.7724  134.6592  159.6340 H   0  0  0  0  0  0  0  0  0  0  0  0  # atno 6908 bound_to 6896
  152.3753  134.6675  160.0214 H   0  0  0  0  0  0  0  0  0  0  0  0  # atno 6909 bound_to 6896
  144.7914  140.4947  143.5770 H   0  0  0  0  0  0  0  0  0  0  0  0  # atno 7974 bound_to 7965
  155.9901  140.1199  157.0646 H   0  0  0  0  0  0  0  0  0  0  0  0  # atno 8008 bound_to 7997
  154.4209  140.1127  156.5622 H   0  0  0  0  0  0  0  0  0  0  0  0  # atno 8009 bound_to 7997
  155.6354  140.3473  155.4699 H   0  0  0  0  0  0  0  0  0  0  0  0  # atno 8010 bound_to 7997
  139.5271  144.6585  151.5088 H   0  0  0  0  0  0  0  0  0  0  0  0  # atno 10167 bound_to 10162
  157.6960  131.0408  150.3732 H   0  0  0  0  0  0  0  0  0  0  0  0  # atno 10718 bound_to 10713
  153.4767  135.3688  155.2420 H   0  0  0  0  0  0  0  0  0  0  0  0  # atno 10763 bound_to 10752
  154.8756  135.3944  154.3748 H   0  0  0  0  0  0  0  0  0  0  0  0  # atno 10764 bound_to 10752
  153.4345  135.7083  153.6274 H   0  0  0  0  0  0  0  0  0  0  0  0  # atno 10765 bound_to 10752
  141.1191  133.8555  157.1355 H   0  0  0  0  0  0  0  0  0  0  0  0  # atno 11005 bound_to 11000
  145.5784  139.1487  143.3249 LP  0  0  0  0  0  0  0  0  0  0  0  0  # atno 17320 bound_to 7965
  146.2168  140.5915  142.9035 LP  0  0  0  0  0  0  0  0  0  0  0  0  # atno 17321 bound_to 7965
  140.6422  143.8867  150.6702 LP  0  0  0  0  0  0  0  0  0  0  0  0  # atno 17342 bound_to 10162
  140.2205  143.3813  152.1647 LP  0  0  0  0  0  0  0  0  0  0  0  0  # atno 17343 bound_to 10162
  156.4154  130.3942  149.6862 LP  0  0  0  0  0  0  0  0  0  0  0  0  # atno 17370 bound_to 10713
  156.4131  130.7732  151.2746 LP  0  0  0  0  0  0  0  0  0  0  0  0  # atno 17371 bound_to 10713
  140.0134  134.9978  157.0442 LP  0  0  0  0  0  0  0  0  0  0  0  0  # atno 17394 bound_to 11000
  140.4561  134.1532  155.7186 LP  0  0  0  0  0  0  0  0  0  0  0  0  # atno 17395 bound_to 11000

$$$$
