AV-unprocessed.smi:2145|AV-procd|sdf|8735|dock6
  -GOLD-   2272011503D 1   1.00000     0.00000
 Structure written by MMmdl.
 44 46  0  0  0  0  0  0  0  0  1 V2000
  142.3843  146.2159  154.5552 C   0  0  0  0  0  0  0  0  0  0  0  0
  142.7468  145.1131  155.5485 C   0  0  0  0  0  0  0  0  0  0  0  0
  142.0421  144.9608  156.5458 O   0  0  0  0  0  0  0  0  0  0  0  0
  143.9449  144.2772  155.2530 C   0  0  0  0  0  0  0  0  0  0  0  0
  144.5647  144.3736  153.9871 C   0  0  0  0  0  0  0  0  0  0  0  0
  145.6966  143.5939  153.6823 C   0  0  0  0  0  0  0  0  0  0  0  0
  146.2367  142.7025  154.6298 C   0  0  0  0  0  0  0  0  0  0  0  0
  147.3448  141.9768  154.2483 O   0  0  0  0  0  0  0  0  0  0  0  0
  147.8246  140.9720  155.1317 C   0  0  0  0  0  0  0  0  0  0  0  0
  149.3162  140.7255  154.8434 C   0  0  1  0  0  0  0  0  0  0  0  0
  149.5179  140.8303  153.4493 O   0  0  0  0  0  0  0  0  0  0  0  0
  150.2635  141.7443  155.5125 C   0  0  0  0  0  0  0  0  0  0  0  0
  151.2173  141.1340  156.4294 N   0  0  0  0  0  0  0  0  0  0  0  0
  151.9805  140.0316  156.2279 C   0  0  0  0  0  0  0  0  0  0  0  0
  151.9325  139.2589  154.9482 C   0  0  0  0  0  0  0  0  0  0  0  0
  152.7772  139.6826  157.2381 N   0  0  0  0  0  0  0  0  0  0  0  0
  152.5110  140.6539  158.1836 C   0  0  0  0  0  0  0  0  0  0  0  0
  153.0389  140.8413  159.4812 C   0  0  0  0  0  0  0  0  0  0  0  0
  152.6088  141.9231  160.2775 C   0  0  0  0  0  0  0  0  0  0  0  0
  151.6468  142.8309  159.7890 C   0  0  0  0  0  0  0  0  0  0  0  0
  151.1088  142.6630  158.4986 C   0  0  0  0  0  0  0  0  0  0  0  0
  151.5413  141.5814  157.7076 C   0  0  0  0  0  0  0  0  0  0  0  0
  145.6171  142.6044  155.9002 C   0  0  0  0  0  0  0  0  0  0  0  0
  144.4844  143.3831  156.2067 C   0  0  0  0  0  0  0  0  0  0  0  0
  143.1917  146.9446  154.4824 H   0  0  0  0  0  0  0  0  0  0  0  0
  141.4832  146.7379  154.8776 H   0  0  0  0  0  0  0  0  0  0  0  0
  142.1983  145.7955  153.5667 H   0  0  0  0  0  0  0  0  0  0  0  0
  144.1783  145.0459  153.2344 H   0  0  0  0  0  0  0  0  0  0  0  0
  146.1549  143.6816  152.7081 H   0  0  0  0  0  0  0  0  0  0  0  0
  147.6733  141.2474  156.1771 H   0  0  0  0  0  0  0  0  0  0  0  0
  147.2533  140.0646  154.9380 H   0  0  0  0  0  0  0  0  0  0  0  0
  149.5866  139.7180  155.1596 H   0  0  0  0  0  0  0  0  0  0  0  0
  149.3126  139.9961  153.0546 H   0  0  0  0  0  0  0  0  0  0  0  0
  150.8160  142.3017  154.7554 H   0  0  0  0  0  0  0  0  0  0  0  0
  149.6842  142.4854  156.0647 H   0  0  0  0  0  0  0  0  0  0  0  0
  152.6365  138.4266  154.9790 H   0  0  0  0  0  0  0  0  0  0  0  0
  152.1994  139.9001  154.1079 H   0  0  0  0  0  0  0  0  0  0  0  0
  150.9341  138.8547  154.7846 H   0  0  0  0  0  0  0  0  0  0  0  0
  153.7761  140.1516  159.8644 H   0  0  0  0  0  0  0  0  0  0  0  0
  153.0189  142.0564  161.2678 H   0  0  0  0  0  0  0  0  0  0  0  0
  151.3224  143.6566  160.4055 H   0  0  0  0  0  0  0  0  0  0  0  0
  150.3700  143.3554  158.1233 H   0  0  0  0  0  0  0  0  0  0  0  0
  145.9906  141.9361  156.6611 H   0  0  0  0  0  0  0  0  0  0  0  0
  144.0442  143.2758  157.1868 H   0  0  0  0  0  0  0  0  0  0  0  0
  1  2  1  0  0  0  0
  1 25  1  0  0  0  0
  1 26  1  0  0  0  0
  1 27  1  0  0  0  0
  2  3  2  0  0  0  0
  2  4  1  0  0  0  0
  4 24  1  0  0  0  0
  4  5  2  0  0  0  0
  5  6  1  0  0  0  0
  5 28  1  0  0  0  0
  6  7  2  0  0  0  0
  6 29  1  0  0  0  0
  7  8  1  0  0  0  0
  7 23  1  0  0  0  0
  8  9  1  0  0  0  0
  9 10  1  0  0  0  0
  9 30  1  0  0  0  0
  9 31  1  0  0  0  0
 10 11  1  0  0  0  0
 10 12  1  0  0  0  0
 10 32  1  0  0  0  0
 11 33  1  0  0  0  0
 12 13  1  0  0  0  0
 12 34  1  0  0  0  0
 12 35  1  0  0  0  0
 13 22  1  0  0  0  0
 13 14  1  0  0  0  0
 14 15  1  0  0  0  0
 14 16  2  0  0  0  0
 15 36  1  0  0  0  0
 15 37  1  0  0  0  0
 15 38  1  0  0  0  0
 16 17  1  0  0  0  0
 17 22  2  0  0  0  0
 17 18  1  0  0  0  0
 18 19  2  0  0  0  0
 18 39  1  0  0  0  0
 19 20  1  0  0  0  0
 19 40  1  0  0  0  0
 20 21  2  0  0  0  0
 20 41  1  0  0  0  0
 21 22  1  0  0  0  0
 21 42  1  0  0  0  0
 23 24  2  0  0  0  0
 23 43  1  0  0  0  0
 24 44  1  0  0  0  0
M  END
> <s_m_source_file>
AV-unprocessed.smi

> <i_m_source_file_index>
2145

> <i_lp_mmshare_version>
43012

> <i_f3d_flags>
0

> <s_epik_input>
W0NIM11DKD1PKWMxW2NIXVtjSF1jKFtjSF1bY0hdMSlPW0NIMl1bQ0BIXShbT0hdKVtDSDJdbihjKG4yKVtDSDNdKWMoYzIzKVtjSF1bY0hdW2NIXVtjSF0z

> <s_epik_cmdline>
J2VwaWtfcHl0aG9uJywgJy1waCcsICc3LjAnLCAnLXRuJywgJzgnLCAnLW1hJywgJzIwMCcsICctbWV0YWxfYmluZGluZycsICctaW1hZScsICc8aW5maWxlLm1hZT4nLCAnLW9tYWUnLCAnPG91dGZpbGUubWFlPic=

> <r_lp_tautomer_probability>
0.99995

> <r_epik_Ionization_Penalty>
0.109398

> <r_epik_Ionization_Penalty_Charging>
0

> <r_epik_Ionization_Penalty_Neutral>
0.109398

> <r_epik_State_Penalty>
0.0991698

> <r_epik_Charging_Adjusted_Penalty>
0.0991698

> <i_epik_Tot_Q>
0

> <i_epik_Tot_abs_Q>
0

> <r_epik_Metal_State_Penalty>
0.000107943

> <b_epik_Metal_Only>
0

> <s_lp_Force_Field>
OPLS_2005

> <r_lp_Energy>
22.9418

> <b_lp_Chiralities_Consistent>
1

> <s_lp_Variant>
AV-unprocessed.smi:2145-2

> <Gold.Version>
5.8.1

> <Gold.Id.Protein>
6NUR|6NUR_protein|mol2

> <Gold.PLP.Fitness>
55.2349

> <Gold.PLP.PLP>
-50.6267

> <Gold.PLP.part.hbond>
-3.6058

> <Gold.PLP.part.metal>
0.0000

> <Gold.PLP.part.buried>
-7.0552

> <Gold.PLP.part.nonpolar>
-40.6513

> <Gold.PLP.part.repulsive>
0.1572

> <Gold.PLP.ligand.clash>
0.0000

> <Gold.PLP.ligand.torsion>
1.3719

> <Gold.PLP.Chemscore.Hbond>
2.4054

> <Gold.PLP.Chemscore.CHOScore>
0.0000

> <Gold.PLP.Chemscore.Metal>
0.0000

> <Gold.Chemscore.Hbonds>
donor molecule, donor type, donor heavy atom, donor atom, acceptor molecule, acceptor atom, score
      L1  H    11    33       P1  7957  0.22
      P1  H  7989  7998       L1    11  0.24
      P1  H  7997  8010       L1    16  1.00
      P1  H  8011  8017       L1    11  1.00

> <Gold.PLP.Chemscore.Internal.Correction>
0.1357

> <Gold.Rescore>
     Score         DG    S(hbond)    S(metal)    S(lipo)     H(rot)  DE(clash)    DE(int)     intcor
     16.50     -18.31       1.40        0.00     118.36       2.22       0.63       1.18       ----

> <Gold.Chemscore.Fitness>
16.5037

> <Gold.Chemscore.DG>
-18.3108

> <Gold.Chemscore.ZeroCoef>
-5.4800

> <Gold.Chemscore.Hbond>
1.3952

> <Gold.Chemscore.Metal>
0.0000

> <Gold.Chemscore.Lipo>
118.3562

> <Gold.Chemscore.Internal_Hbond>
0.0000

> <Gold.Chemscore.DEClash>
0.6288

> <Gold.Chemscore.DEInternal>
1.1784

> <Gold.Chemscore.Rot>
2.2176

> <Gold.Chemscore.Internal.Correction>
   9.000000E+99

> <Gold.Chemscore.Hbonds>
donor molecule, donor type, donor heavy atom, donor atom, acceptor molecule, acceptor atom, score
      L1  H    11    33       P1  7957  0.22
      P1  H  7989  7998       L1    11  0.02
      P1  H  7997  8010       L1    16  0.18
      P1  H  8011  8017       L1    11  0.96

> <Gold.Chemscore.Hbond.Weighted>
-4.6601

> <Gold.Chemscore.Metal.Weighted>
-0.0000

> <Gold.Chemscore.Lipo.Weighted>
-13.8477

> <Gold.Chemscore.Internal_Hbond.Weighted>
0.0000

> <Gold.Chemscore.DEClash.Weighted>
0.6288

> <Gold.Chemscore.DEInternal.Weighted>
1.1784

> <Gold.Chemscore.Rot.Weighted>
5.6769

> <Gold.Chemscore.Internal.Correction.Weighted>
   9.000000E+99

> <Gold.Protein.RotatedTorsions>
[ 6907 6896 6895 6894 ] final -162.84 input  -60.11 | X-H torsion
[ 7974 7965 7964 7962 ] final -132.14 input  175.53 | X-H torsion
[ 8008 7997 7996 7995 ] final   59.84 input   59.86 | X-H torsion
[ 10167 10162 10161 10158 ] final -118.23 input  -65.29 | X-H torsion
[ 10718 10713 10712 10709 ] final  -86.27 input   66.30 | X-H torsion
[ 10763 10752 10751 10750 ] final   54.03 input  -60.55 | X-H torsion
[ 11005 11000 10999 10996 ] final  -81.75 input  -57.11 | X-H torsion

> <Gold.Protein.ActiveResidues>
 VAL166  LYS551  ARG553  GLY616  TRP617  ASP618  TYR619  PRO620  LYS621  CYS622 
 ASP623  PHE694  ASN695  SER759  ASP760  ASP761  ALA762  ILE779  LEU786  VAL792 
 PHE793  MET794  SER795  GLU796  ALA797  LYS798  CYS799  TRP800  GLU811  SER814 

> <Gold.Protein.RotatedAtoms>
  151.3867  133.3803  159.2715 H   0  0  0  0  0  0  0  0  0  0  0  0  # atno 6907 bound_to 6896
  150.9536  134.8934  159.7698 H   0  0  0  0  0  0  0  0  0  0  0  0  # atno 6908 bound_to 6896
  152.5122  134.3823  159.9407 H   0  0  0  0  0  0  0  0  0  0  0  0  # atno 6909 bound_to 6896
  144.9313  140.7132  143.4904 H   0  0  0  0  0  0  0  0  0  0  0  0  # atno 7974 bound_to 7965
  155.5727  140.3490  155.4519 H   0  0  0  0  0  0  0  0  0  0  0  0  # atno 8008 bound_to 7997
  156.0432  140.1300  157.0158 H   0  0  0  0  0  0  0  0  0  0  0  0  # atno 8009 bound_to 7997
  154.4401  140.1020  156.6253 H   0  0  0  0  0  0  0  0  0  0  0  0  # atno 8010 bound_to 7997
  140.0597  143.4980  152.2038 H   0  0  0  0  0  0  0  0  0  0  0  0  # atno 10167 bound_to 10162
  155.9991  130.4759  150.4689 H   0  0  0  0  0  0  0  0  0  0  0  0  # atno 10718 bound_to 10713
  152.9800  135.5759  154.4838 H   0  0  0  0  0  0  0  0  0  0  0  0  # atno 10763 bound_to 10752
  154.4382  135.2775  155.1868 H   0  0  0  0  0  0  0  0  0  0  0  0  # atno 10764 bound_to 10752
  154.3547  135.6201  153.5714 H   0  0  0  0  0  0  0  0  0  0  0  0  # atno 10765 bound_to 10752
  141.1665  133.7211  156.8469 H   0  0  0  0  0  0  0  0  0  0  0  0  # atno 11005 bound_to 11000
  145.3137  139.1810  143.4625 LP  0  0  0  0  0  0  0  0  0  0  0  0  # atno 17320 bound_to 7965
  146.3248  140.3145  142.8629 LP  0  0  0  0  0  0  0  0  0  0  0  0  # atno 17321 bound_to 7965
  139.5901  144.7547  151.3421 LP  0  0  0  0  0  0  0  0  0  0  0  0  # atno 17342 bound_to 10162
  140.7178  143.7220  150.7689 LP  0  0  0  0  0  0  0  0  0  0  0  0  # atno 17343 bound_to 10162
  157.2706  131.0586  151.2262 LP  0  0  0  0  0  0  0  0  0  0  0  0  # atno 17370 bound_to 10713
  157.3344  130.7001  149.6344 LP  0  0  0  0  0  0  0  0  0  0  0  0  # atno 17371 bound_to 10713
  140.1943  134.8943  157.3096 LP  0  0  0  0  0  0  0  0  0  0  0  0  # atno 17394 bound_to 11000
  140.2256  134.3971  155.7545 LP  0  0  0  0  0  0  0  0  0  0  0  0  # atno 17395 bound_to 11000

$$$$
