AV-unprocessed.smi:72|AV-procd|sdf|664|dock2
  -GOLD-   2262016563D 1   1.00000     0.00000
 Structure written by MMmdl.
 29 30  0  0  0  0  0  0  0  0  1 V2000
  154.2115  138.6538  154.2024 N   0  0  0  0  0  0  0  0  0  0  0  0
  152.9331  138.7607  154.2800 C   0  0  0  0  0  0  0  0  0  0  0  0
  152.0098  137.8612  153.7260 N   0  0  0  0  0  0  0  0  0  0  0  0
  150.7430  138.0938  153.8821 C   0  0  0  0  0  0  0  0  0  0  0  0
  150.2517  139.2561  154.6088 N   0  0  0  0  0  0  0  0  0  0  0  0
  148.7703  139.5278  154.7941 C   0  0  1  0  0  0  0  0  0  0  0  0
  148.5258  139.9326  156.1127 O   0  0  0  0  0  0  0  0  0  0  0  0
  148.0997  141.2900  156.1257 C   0  0  2  0  0  0  0  0  0  0  0  0
  147.3197  141.6052  157.4148 C   0  0  0  0  0  0  0  0  0  0  0  0
  146.9592  142.9685  157.4994 O   0  0  0  0  0  0  0  0  0  0  0  0
  147.3568  141.4520  154.7992 C   0  0  1  0  0  0  0  0  0  0  0  0
  147.2034  142.8035  154.4075 O   0  0  0  0  0  0  0  0  0  0  0  0
  148.2270  140.6319  153.8506 C   0  0  1  0  0  0  0  0  0  0  0  0
  149.2471  141.4127  153.2450 O   0  0  0  0  0  0  0  0  0  0  0  0
  151.1710  140.1676  155.1816 C   0  0  0  0  0  0  0  0  0  0  0  0
  150.8084  141.1529  155.8238 O   0  0  0  0  0  0  0  0  0  0  0  0
  152.4764  139.8821  154.9855 N   0  0  0  0  0  0  0  0  0  0  0  0
  148.2729  138.5663  154.6563 H   0  0  0  0  0  0  0  0  0  0  0  0
  148.9993  141.9077  156.1077 H   0  0  0  0  0  0  0  0  0  0  0  0
  146.3722  140.9869  154.8548 H   0  0  0  0  0  0  0  0  0  0  0  0
  147.6321  140.1752  153.0591 H   0  0  0  0  0  0  0  0  0  0  0  0
  154.4678  137.8271  153.6830 H   0  0  0  0  0  0  0  0  0  0  0  0
  149.9750  137.4328  153.4811 H   0  0  0  0  0  0  0  0  0  0  0  0
  146.4259  140.9847  157.4824 H   0  0  0  0  0  0  0  0  0  0  0  0
  147.9363  141.3702  158.2827 H   0  0  0  0  0  0  0  0  0  0  0  0
  147.4746  143.4554  156.8745 H   0  0  0  0  0  0  0  0  0  0  0  0
  147.7813  143.3349  154.9331 H   0  0  0  0  0  0  0  0  0  0  0  0
  149.2588  141.2238  152.3193 H   0  0  0  0  0  0  0  0  0  0  0  0
  153.1554  140.5164  155.3798 H   0  0  0  0  0  0  0  0  0  0  0  0
  1  2  2  0  0  0  0
  1 22  1  0  0  0  0
  2 17  1  0  0  0  0
  2  3  1  0  0  0  0
  3  4  2  0  0  0  0
  4  5  1  0  0  0  0
  4 23  1  0  0  0  0
  5  6  1  0  0  0  0
  5 15  1  0  0  0  0
  6 18  1  0  0  0  0
  6 13  1  0  0  0  0
  6  7  1  0  0  0  0
  7  8  1  0  0  0  0
  8 19  1  0  0  0  0
  8  9  1  0  0  0  0
  8 11  1  0  0  0  0
  9 10  1  0  0  0  0
  9 24  1  0  0  0  0
  9 25  1  0  0  0  0
 10 26  1  0  0  0  0
 11 20  1  0  0  0  0
 11 12  1  0  0  0  0
 11 13  1  0  0  0  0
 12 27  1  0  0  0  0
 13 21  1  0  0  0  0
 13 14  1  0  0  0  0
 14 28  1  0  0  0  0
 15 16  2  0  0  0  0
 15 17  1  0  0  0  0
 17 29  1  0  0  0  0
M  END
> <s_m_source_file>
AV-unprocessed.smi

> <i_m_source_file_index>
72

> <i_lp_mmshare_version>
43012

> <i_f3d_flags>
0

> <s_epik_input>
W05IMl1jMW5bY0hdbihjKD1PKW4xKVtDQEBIXTJPW0NASF0oW0NIMl1bT0hdKVtDQEBIXShbT0hdKVtDQEhdMltPSF0=

> <s_epik_cmdline>
J2VwaWtfcHl0aG9uJywgJy1waCcsICc3LjAnLCAnLXRuJywgJzgnLCAnLW1hJywgJzIwMCcsICctbWV0YWxfYmluZGluZycsICctaW1hZScsICc8aW5maWxlLm1hZT4nLCAnLW9tYWUnLCAnPG91dGZpbGUubWFlPic=

> <r_lp_tautomer_probability>
7.17554e-07

> <r_epik_Ionization_Penalty>
0.0066451

> <r_epik_Ionization_Penalty_Charging>
0.00663793

> <r_epik_Ionization_Penalty_Neutral>
7.17052e-06

> <r_epik_State_Penalty>
0.419231

> <r_epik_Charging_Adjusted_Penalty>
0.425868

> <i_epik_Tot_Q>
0

> <i_epik_Tot_abs_Q>
0

> <r_epik_Metal_State_Penalty>
1.44144

> <b_epik_Metal_Only>
0

> <s_epik_Chemistry_Notes>
This compound contains an acetal/aminal-like group ( X-CH(R)-Y where X, Y are N, S, or O) that may be acid/base labile, releasing an aldehyde.

> <s_lp_Force_Field>
OPLS_2005

> <r_lp_Energy>
49.4302

> <b_lp_Chiralities_Consistent>
1

> <s_lp_Variant>
AV-unprocessed.smi:72-2

> <Gold.Version>
5.8.1

> <Gold.Id.Protein>
6NUR|6NUR_protein|mol2

> <Gold.PLP.Fitness>
37.6445

> <Gold.PLP.PLP>
-27.3570

> <Gold.PLP.part.hbond>
-7.4434

> <Gold.PLP.part.metal>
0.0000

> <Gold.PLP.part.buried>
-2.7837

> <Gold.PLP.part.nonpolar>
-17.9351

> <Gold.PLP.part.repulsive>
0.8598

> <Gold.PLP.ligand.clash>
0.7620

> <Gold.PLP.ligand.torsion>
0.4782

> <Gold.PLP.Chemscore.Hbond>
2.9857

> <Gold.PLP.Chemscore.CHOScore>
1.0000

> <Gold.PLP.Chemscore.Metal>
0.0000

> <Gold.Chemscore.Hbonds>
donor molecule, donor type, donor heavy atom, donor atom, acceptor molecule, acceptor atom, score
      L1  H    10    26       P1  8028  0.03
      L1  H    12    27       P1  8028  1.00
      L1  H    14    28       P1  7957  0.91
      P1  H  7997  8008       L1     1  0.33
      P1  H 10752 10764       L1     3  0.06
      L1  C     4    23       P1  7948  1.00

> <Gold.PLP.Chemscore.Internal.Correction>
0.0486

> <Gold.Rescore>
     Score         DG    S(hbond)    S(metal)    S(lipo)     H(rot)  DE(clash)    DE(int)     intcor
      1.36      -5.51       2.54        0.00      16.41       4.06       0.21       3.94       ----

> <Gold.Chemscore.Fitness>
1.3625

> <Gold.Chemscore.DG>
-5.5061

> <Gold.Chemscore.ZeroCoef>
-5.4800

> <Gold.Chemscore.Hbond>
2.5448

> <Gold.Chemscore.Metal>
0.0000

> <Gold.Chemscore.Lipo>
16.4112

> <Gold.Chemscore.Internal_Hbond>
0.0000

> <Gold.Chemscore.DEClash>
0.2063

> <Gold.Chemscore.DEInternal>
3.9372

> <Gold.Chemscore.Rot>
4.0600

> <Gold.Chemscore.Internal.Correction>
   9.000000E+99

> <Gold.Chemscore.Hbonds>
donor molecule, donor type, donor heavy atom, donor atom, acceptor molecule, acceptor atom, score
      L1  H    12    27       P1  8028  0.55
      L1  H    14    28       P1  7957  0.89
      P1  H  7997  8008       L1     1  0.03
      P1  H 10752 10764       L1     3  0.04

> <Gold.Chemscore.Hbond.Weighted>
-8.4996

> <Gold.Chemscore.Metal.Weighted>
-0.0000

> <Gold.Chemscore.Lipo.Weighted>
-1.9201

> <Gold.Chemscore.Internal_Hbond.Weighted>
0.0000

> <Gold.Chemscore.DEClash.Weighted>
0.2063

> <Gold.Chemscore.DEInternal.Weighted>
3.9372

> <Gold.Chemscore.Rot.Weighted>
10.3936

> <Gold.Chemscore.Internal.Correction.Weighted>
   9.000000E+99

> <Gold.Protein.RotatedTorsions>
[ 6907 6896 6895 6894 ] final  -38.75 input  -60.11 | X-H torsion
[ 7974 7965 7964 7962 ] final   21.01 input  175.53 | X-H torsion
[ 8008 7997 7996 7995 ] final   -4.60 input   59.86 | X-H torsion
[ 10167 10162 10161 10158 ] final  -97.04 input  -65.29 | X-H torsion
[ 10718 10713 10712 10709 ] final   78.12 input   66.30 | X-H torsion
[ 10763 10752 10751 10750 ] final  -87.04 input  -60.55 | X-H torsion
[ 11005 11000 10999 10996 ] final  -17.43 input  -57.11 | X-H torsion

> <Gold.Protein.ActiveResidues>
 VAL166  LYS551  ARG553  GLY616  TRP617  ASP618  TYR619  PRO620  LYS621  CYS622 
 ASP623  PHE694  ASN695  SER759  ASP760  ASP761  ALA762  ILE779  LEU786  VAL792 
 PHE793  MET794  SER795  GLU796  ALA797  LYS798  CYS799  TRP800  GLU811  SER814 

> <Gold.Protein.RotatedAtoms>
  150.9986  134.9304  159.7940 H   0  0  0  0  0  0  0  0  0  0  0  0  # atno 6907 bound_to 6896
  152.5271  134.3184  159.9149 H   0  0  0  0  0  0  0  0  0  0  0  0  # atno 6908 bound_to 6896
  151.3190  133.4006  159.2687 H   0  0  0  0  0  0  0  0  0  0  0  0  # atno 6909 bound_to 6896
  146.2088  139.8087  142.8705 H   0  0  0  0  0  0  0  0  0  0  0  0  # atno 7974 bound_to 7965
  154.6125  140.2479  155.7650 H   0  0  0  0  0  0  0  0  0  0  0  0  # atno 8008 bound_to 7997
  156.2379  140.2943  156.0314 H   0  0  0  0  0  0  0  0  0  0  0  0  # atno 8009 bound_to 7997
  155.2028  140.0395  157.2910 H   0  0  0  0  0  0  0  0  0  0  0  0  # atno 8010 bound_to 7997
  140.2876  143.3242  152.0379 H   0  0  0  0  0  0  0  0  0  0  0  0  # atno 10167 bound_to 10162
  157.6734  130.9853  150.1740 H   0  0  0  0  0  0  0  0  0  0  0  0  # atno 10718 bound_to 10713
  154.6292  135.5427  153.7662 H   0  0  0  0  0  0  0  0  0  0  0  0  # atno 10763 bound_to 10752
  153.0276  135.6432  154.1326 H   0  0  0  0  0  0  0  0  0  0  0  0  # atno 10764 bound_to 10752
  154.1256  135.2917  155.3178 H   0  0  0  0  0  0  0  0  0  0  0  0  # atno 10765 bound_to 10752
  140.8168  133.8099  155.9619 H   0  0  0  0  0  0  0  0  0  0  0  0  # atno 11005 bound_to 11000
  145.3219  141.0246  143.3496 LP  0  0  0  0  0  0  0  0  0  0  0  0  # atno 17320 bound_to 7965
  144.8861  139.4838  143.6700 LP  0  0  0  0  0  0  0  0  0  0  0  0  # atno 17321 bound_to 7965
  139.4946  144.6548  151.6596 LP  0  0  0  0  0  0  0  0  0  0  0  0  # atno 17342 bound_to 10162
  140.5760  144.0028  150.6242 LP  0  0  0  0  0  0  0  0  0  0  0  0  # atno 17343 bound_to 10162
  156.2488  130.3698  149.8256 LP  0  0  0  0  0  0  0  0  0  0  0  0  # atno 17370 bound_to 10713
  156.6035  130.8556  151.3437 LP  0  0  0  0  0  0  0  0  0  0  0  0  # atno 17371 bound_to 10713
  140.9141  134.2224  157.4968 LP  0  0  0  0  0  0  0  0  0  0  0  0  # atno 17394 bound_to 11000
  139.8710  134.9763  156.4916 LP  0  0  0  0  0  0  0  0  0  0  0  0  # atno 17395 bound_to 11000

$$$$
