AV-unprocessed.smi:1450|AV-procd|sdf|5898|dock2
  -GOLD-   22720 5583D 1   1.00000     0.00000
 Structure written by MMmdl.
 31 32  0  0  0  0  0  0  0  0  1 V2000
  151.3704  141.3303  157.2678 O   0  0  0  0  0  0  0  0  0  0  0  0
  150.6052  142.1824  156.8175 C   0  0  0  0  0  0  0  0  0  0  0  0
  149.8503  141.9934  155.7260 N   0  0  0  0  0  0  0  0  0  0  0  0
  149.8425  140.7833  154.9107 C   0  0  0  0  0  0  0  0  0  0  0  0
  148.4113  140.3161  154.5815 C   0  0  1  0  0  0  0  0  0  0  0  0
  147.7103  141.1628  153.5273 C   0  0  0  0  0  0  0  0  0  0  0  0
  146.8551  140.1607  152.7430 C   0  0  0  0  0  0  0  0  0  0  0  0
  147.0331  138.9086  153.3924 O   0  0  0  0  0  0  0  0  0  0  0  0
  148.3179  138.9115  153.9896 C   0  0  0  0  0  0  0  0  0  0  0  0
  150.3982  143.4016  157.3440 N   0  0  0  0  0  0  0  0  0  0  0  0
  151.0210  144.0004  158.4730 C   0  0  0  0  0  0  0  0  0  0  0  0
  151.9628  143.2331  159.1889 C   0  0  0  0  0  0  0  0  0  0  0  0
  152.5838  143.7901  160.3229 C   0  0  0  0  0  0  0  0  0  0  0  0
  152.2303  145.0987  160.7042 C   0  0  0  0  0  0  0  0  0  0  0  0
  151.3214  145.8425  160.0398 N   0  0  0  0  0  0  0  0  0  0  0  0
  150.7305  145.3025  158.9518 C   0  0  0  0  0  0  0  0  0  0  0  0
  149.2429  142.7440  155.4312 H   0  0  0  0  0  0  0  0  0  0  0  0
  150.4071  140.9500  153.9919 H   0  0  0  0  0  0  0  0  0  0  0  0
  150.3734  140.0054  155.4604 H   0  0  0  0  0  0  0  0  0  0  0  0
  147.8037  140.3404  155.4877 H   0  0  0  0  0  0  0  0  0  0  0  0
  147.1063  141.9463  153.9863 H   0  0  0  0  0  0  0  0  0  0  0  0
  148.4250  141.6437  152.8578 H   0  0  0  0  0  0  0  0  0  0  0  0
  145.8007  140.4375  152.7257 H   0  0  0  0  0  0  0  0  0  0  0  0
  147.2032  140.0854  151.7119 H   0  0  0  0  0  0  0  0  0  0  0  0
  149.0791  138.7496  153.2246 H   0  0  0  0  0  0  0  0  0  0  0  0
  148.4104  138.1283  154.7425 H   0  0  0  0  0  0  0  0  0  0  0  0
  149.6786  143.9565  156.9043 H   0  0  0  0  0  0  0  0  0  0  0  0
  152.2110  142.2301  158.8735 H   0  0  0  0  0  0  0  0  0  0  0  0
  153.3125  143.2277  160.8876 H   0  0  0  0  0  0  0  0  0  0  0  0
  152.6858  145.5579  161.5691 H   0  0  0  0  0  0  0  0  0  0  0  0
  149.9963  145.9368  158.4807 H   0  0  0  0  0  0  0  0  0  0  0  0
  1  2  2  0  0  0  0
  2  3  1  0  0  0  0
  2 10  1  0  0  0  0
  3  4  1  0  0  0  0
  3 17  1  0  0  0  0
  4  5  1  0  0  0  0
  4 18  1  0  0  0  0
  4 19  1  0  0  0  0
  5  9  1  0  0  0  0
  5  6  1  0  0  0  0
  5 20  1  0  0  0  0
  6  7  1  0  0  0  0
  6 21  1  0  0  0  0
  6 22  1  0  0  0  0
  7  8  1  0  0  0  0
  7 23  1  0  0  0  0
  7 24  1  0  0  0  0
  8  9  1  0  0  0  0
  9 25  1  0  0  0  0
  9 26  1  0  0  0  0
 10 11  1  0  0  0  0
 10 27  1  0  0  0  0
 11 16  1  0  0  0  0
 11 12  2  0  0  0  0
 12 13  1  0  0  0  0
 12 28  1  0  0  0  0
 13 14  2  0  0  0  0
 13 29  1  0  0  0  0
 14 15  1  0  0  0  0
 14 30  1  0  0  0  0
 15 16  2  0  0  0  0
 16 31  1  0  0  0  0
M  END
> <s_m_source_file>
AV-unprocessed.smi

> <i_m_source_file_index>
1450

> <i_lp_mmshare_version>
43012

> <i_f3d_flags>
0

> <s_epik_input>
W2NIXTFuW2NIXVtjSF1bY0hdYzFbTkhdQyg9TylbTkhdW0NIMl1bQ0BASF0yW0NIMl1bQ0gyXU9bQ0gyXTI=

> <s_epik_cmdline>
J2VwaWtfcHl0aG9uJywgJy1waCcsICc3LjAnLCAnLXRuJywgJzgnLCAnLW1hJywgJzIwMCcsICctbWV0YWxfYmluZGluZycsICctaW1hZScsICc8aW5maWxlLm1hZT4nLCAnLW9tYWUnLCAnPG91dGZpbGUubWFlPic=

> <r_epik_Ionization_Penalty>
0.00478342

> <r_epik_Ionization_Penalty_Charging>
0

> <r_epik_Ionization_Penalty_Neutral>
0.00478342

> <r_epik_State_Penalty>
0.0034384

> <r_epik_Charging_Adjusted_Penalty>
0.0034384

> <i_epik_Tot_Q>
0

> <i_epik_Tot_abs_Q>
0

> <r_epik_Metal_State_Penalty>
-0

> <b_epik_Metal_Only>
0

> <s_lp_Force_Field>
OPLS_2005

> <r_lp_Energy>
21.9504

> <b_lp_Chiralities_Consistent>
1

> <s_lp_Variant>
AV-unprocessed.smi:1450-2

> <Gold.Version>
5.8.1

> <Gold.Id.Protein>
6NUR|6NUR_protein|mol2

> <Gold.PLP.Fitness>
40.1474

> <Gold.PLP.PLP>
-31.8438

> <Gold.PLP.part.hbond>
-3.4029

> <Gold.PLP.part.metal>
0.0000

> <Gold.PLP.part.buried>
-2.8073

> <Gold.PLP.part.nonpolar>
-26.6582

> <Gold.PLP.part.repulsive>
0.6111

> <Gold.PLP.ligand.clash>
0.0000

> <Gold.PLP.ligand.torsion>
0.1696

> <Gold.PLP.Chemscore.Hbond>
1.8800

> <Gold.PLP.Chemscore.CHOScore>
1.0000

> <Gold.PLP.Chemscore.Metal>
0.0000

> <Gold.Chemscore.Hbonds>
donor molecule, donor type, donor heavy atom, donor atom, acceptor molecule, acceptor atom, score
      L1  H     3    17       P1  8028  0.88
      L1  H    10    27       P1  8028  1.00
      L1  C    16    31       P1  8029  1.00

> <Gold.PLP.Chemscore.Internal.Correction>
0.0027

> <Gold.Rescore>
     Score         DG    S(hbond)    S(metal)    S(lipo)     H(rot)  DE(clash)    DE(int)     intcor
     16.84     -18.88       1.77        0.00      91.20       1.24       0.45       1.59       ----

> <Gold.Chemscore.Fitness>
16.8375

> <Gold.Chemscore.DG>
-18.8776

> <Gold.Chemscore.ZeroCoef>
-5.4800

> <Gold.Chemscore.Hbond>
1.7663

> <Gold.Chemscore.Metal>
0.0000

> <Gold.Chemscore.Lipo>
91.1964

> <Gold.Chemscore.Internal_Hbond>
0.0000

> <Gold.Chemscore.DEClash>
0.4479

> <Gold.Chemscore.DEInternal>
1.5922

> <Gold.Chemscore.Rot>
1.2390

> <Gold.Chemscore.Internal.Correction>
   9.000000E+99

> <Gold.Chemscore.Hbonds>
donor molecule, donor type, donor heavy atom, donor atom, acceptor molecule, acceptor atom, score
      L1  H     3    17       P1  8028  0.82
      L1  H    10    27       P1  8028  0.90

> <Gold.Chemscore.Hbond.Weighted>
-5.8994

> <Gold.Chemscore.Metal.Weighted>
-0.0000

> <Gold.Chemscore.Lipo.Weighted>
-10.6700

> <Gold.Chemscore.Internal_Hbond.Weighted>
0.0000

> <Gold.Chemscore.DEClash.Weighted>
0.4479

> <Gold.Chemscore.DEInternal.Weighted>
1.5922

> <Gold.Chemscore.Rot.Weighted>
3.1718

> <Gold.Chemscore.Internal.Correction.Weighted>
   9.000000E+99

> <Gold.Protein.RotatedTorsions>
[ 6907 6896 6895 6894 ] final -115.81 input  -60.11 | X-H torsion
[ 7974 7965 7964 7962 ] final  136.05 input  175.53 | X-H torsion
[ 8008 7997 7996 7995 ] final -168.80 input   59.86 | X-H torsion
[ 10167 10162 10161 10158 ] final  -59.24 input  -65.29 | X-H torsion
[ 10718 10713 10712 10709 ] final -152.79 input   66.30 | X-H torsion
[ 10763 10752 10751 10750 ] final   56.10 input  -60.55 | X-H torsion
[ 11005 11000 10999 10996 ] final  178.30 input  -57.11 | X-H torsion

> <Gold.Protein.ActiveResidues>
 VAL166  LYS551  ARG553  GLY616  TRP617  ASP618  TYR619  PRO620  LYS621  CYS622 
 ASP623  PHE694  ASN695  SER759  ASP760  ASP761  ALA762  ILE779  LEU786  VAL792 
 PHE793  MET794  SER795  GLU796  ALA797  LYS798  CYS799  TRP800  GLU811  SER814 

> <Gold.Protein.RotatedAtoms>
  150.8006  133.8606  159.3230 H   0  0  0  0  0  0  0  0  0  0  0  0  # atno 6907 bound_to 6896
  151.6419  135.1010  160.0152 H   0  0  0  0  0  0  0  0  0  0  0  0  # atno 6908 bound_to 6896
  152.4093  133.6899  159.6419 H   0  0  0  0  0  0  0  0  0  0  0  0  # atno 6909 bound_to 6896
  144.9603  139.4718  143.5483 H   0  0  0  0  0  0  0  0  0  0  0  0  # atno 7974 bound_to 7965
  155.8963  140.1033  157.1382 H   0  0  0  0  0  0  0  0  0  0  0  0  # atno 8008 bound_to 7997
  154.4021  140.1301  156.4444 H   0  0  0  0  0  0  0  0  0  0  0  0  # atno 8009 bound_to 7997
  155.7475  140.3465  155.5136 H   0  0  0  0  0  0  0  0  0  0  0  0  # atno 8010 bound_to 7997
  140.6147  143.2398  151.5624 H   0  0  0  0  0  0  0  0  0  0  0  0  # atno 10167 bound_to 10162
  156.4772  130.8286  151.2514 H   0  0  0  0  0  0  0  0  0  0  0  0  # atno 10718 bound_to 10713
  152.9826  135.5688  154.5173 H   0  0  0  0  0  0  0  0  0  0  0  0  # atno 10763 bound_to 10752
  154.4667  135.2783  155.1675 H   0  0  0  0  0  0  0  0  0  0  0  0  # atno 10764 bound_to 10752
  154.3240  135.6263  153.5574 H   0  0  0  0  0  0  0  0  0  0  0  0  # atno 10765 bound_to 10752
  140.3935  134.6841  157.4521 H   0  0  0  0  0  0  0  0  0  0  0  0  # atno 11005 bound_to 11000
  146.3351  139.8748  142.8834 LP  0  0  0  0  0  0  0  0  0  0  0  0  # atno 17320 bound_to 7965
  145.2710  141.0108  143.3772 LP  0  0  0  0  0  0  0  0  0  0  0  0  # atno 17321 bound_to 7965
  139.5389  144.2702  152.1310 LP  0  0  0  0  0  0  0  0  0  0  0  0  # atno 17342 bound_to 10162
  140.1909  144.4753  150.6479 LP  0  0  0  0  0  0  0  0  0  0  0  0  # atno 17343 bound_to 10162
  157.7486  131.0057  150.3123 LP  0  0  0  0  0  0  0  0  0  0  0  0  # atno 17370 bound_to 10713
  156.3558  130.3838  149.7291 LP  0  0  0  0  0  0  0  0  0  0  0  0  # atno 17371 bound_to 10713
  140.0389  134.6297  155.9007 LP  0  0  0  0  0  0  0  0  0  0  0  0  # atno 17394 bound_to 11000
  141.1882  133.6562  156.5315 LP  0  0  0  0  0  0  0  0  0  0  0  0  # atno 17395 bound_to 11000

$$$$
