#       Name:                AV-unprocessed.smi:2154
#       Creating user name   scv26
#       Creation time:       Fri Mar 27 11:55:44 2020


#       File generated by GOLD software.
#

@<TRIPOS>MOLECULE
AV-unprocessed.smi:2154
    38    39     1
SMALL
NO_CHARGES


@<TRIPOS>ATOM
      1 ****        -4.6280  -0.9315   0.7494 C.3            1 S1                 0.0000
      2 ****        -3.7571  -0.0450   1.6170 C.3            1 S1                 0.0000
      3 ****        -2.8744   1.0114   0.9951 C.3            1 S1                 0.0000
      4 ****        -2.2485  -0.1888   1.6684 C.3            1 S1                 0.0000
      5 ****        -1.5136  -1.2459   0.8616 C.3            1 S1                 0.0000
      6 ****        -0.0617  -1.1289   0.8757 N.am           1 S1                 0.0000
      7 ****         0.6428  -0.2255   0.1782 C.2            1 S1                 0.0000
      8 ****         0.1213   0.6237  -0.5461 O.2            1 S1                 0.0000
      9 ****         2.1666  -0.2774   0.3542 C.3            1 S1                 0.0000
     10 ****         2.8994   0.1716  -0.8407 N.am           1 S1                 0.0000
     11 ****         3.3597   1.4999  -0.8652 C.2            1 S1                 0.0000
     12 ****         4.0362   1.9981  -1.9177 C.2            1 S1                 0.0000
     13 ****         4.2889   1.1206  -3.0539 C.2            1 S1                 0.0000
     14 ****         4.9092   1.5572  -4.0216 O.2            1 S1                 0.0000
     15 ****         3.8177  -0.1591  -2.9847 N.pl3          1 S1                -1.0000
     16 ****         3.1288  -0.6512  -1.9085 C.2            1 S1                 0.0000
     17 ****         2.7102  -1.8088  -1.8675 O.2            1 S1                 0.0000
     18 ****        -4.1901  -1.0713  -0.2388 H              1 S1                 0.0000
     19 ****        -5.6113  -0.4781   0.6247 H              1 S1                 0.0000
     20 ****        -4.7529  -1.9077   1.2176 H              1 S1                 0.0000
     21 ****        -4.2277   0.2217   2.5614 H              1 S1                 0.0000
     22 ****        -2.8293   1.0610  -0.0913 H              1 S1                 0.0000
     23 ****        -2.7967   1.9690   1.5060 H              1 S1                 0.0000
     24 ****        -1.8099  -0.0167   2.6497 H              1 S1                 0.0000
     25 ****        -1.7678  -2.2234   1.2718 H              1 S1                 0.0000
     26 ****        -1.8677  -1.2440  -0.1703 H              1 S1                 0.0000
     27 ****         0.4463  -1.7874   1.4481 H              1 S1                 0.0000
     28 ****         2.4287   0.3390   1.2150 H              1 S1                 0.0000
     29 ****         2.4742  -1.2898   0.6232 H              1 S1                 0.0000
     30 ****         3.1253   2.0842   0.0124 H              1 S1                 0.0000
     31 ****         4.3803   3.0219  -1.9218 H              1 S1                 0.0000
     32 ****        -0.8740   0.6620  -0.6351 LP             1 S1                 0.0000
     33 ****         0.6933   1.2748  -1.0451 LP             1 S1                 0.0000
     34 ****         5.2333   2.5033  -4.0224 LP             1 S1                 0.0000
     35 ****         5.0897   0.9663  -4.8079 LP             1 S1                 0.0000
     36 ****         3.9844  -0.7683  -3.7600 LP             1 S1                 0.0000
     37 ****         2.2123  -2.1322  -1.0629 LP             1 S1                 0.0000
     38 ****         2.8683  -2.4252  -2.6389 LP             1 S1                 0.0000
@<TRIPOS>BOND
    1    1    2 1     
    2    1   18 1     
    3    1   19 1     
    4    1   20 1     
    5    2    4 1     
    6    2    3 1     
    7    2   21 1     
    8    3    4 1     
    9    3   22 1     
   10    3   23 1     
   11    4    5 1     
   12    4   24 1     
   13    5    6 1     
   14    5   25 1     
   15    5   26 1     
   16    6    7 am    
   17    6   27 1     
   18    7    8 2     
   19    7    9 1     
   20    9   10 1     
   21    9   28 1     
   22    9   29 1     
   23   10   16 am    
   24   10   11 1     
   25   11   12 2     
   26   11   30 1     
   27   12   13 1     
   28   12   31 1     
   29   13   14 2     
   30   13   15 1     
   31   15   16 1     
   32   16   17 2     
   33    8   32 1     
   34    8   33 1     
   35   14   34 1     
   36   14   35 1     
   37   15   36 1     
   38   17   37 1     
   39   17   38 1     
@<TRIPOS>SUBSTRUCTURE
      1 S1             1
@<TRIPOS>SET
LONE_PAIRS      STATIC     ATOMS    <user>   **** ""
7 32 33 34 35 36 37 38
DONOR_HYDROGENS      STATIC     ATOMS    <user>   **** ""
1 27
ATOM$BLUE        STATIC     ATOMS    COLORGROUP SYSTEM
7 32 33 34 35 36 37 38
ATOM$RED        STATIC     ATOMS    COLORGROUP SYSTEM
1 27
