AV-unprocessed.smi:2872|AV-procd|sdf|11034|dock9
  -GOLD-   2272015503D 1   1.00000     0.00000
 Structure written by MMmdl.
 39 41  0  0  0  0  0  0  0  0  1 V2000
  149.1850  140.3880  154.0587 O   0  0  0  0  0  0  0  0  0  0  0  0
  149.0703  141.5441  154.4625 C   0  0  0  0  0  0  0  0  0  0  0  0
  149.8779  142.1169  155.3665 N   0  0  0  0  0  0  0  0  0  0  0  0
  151.0089  141.4618  156.0157 C   0  0  0  0  0  0  0  0  0  0  0  0
  151.3495  142.2011  157.2771 C   0  0  0  0  0  0  0  0  0  0  0  0
  151.2535  143.5282  157.3658 N   0  0  0  0  0  0  0  0  0  0  0  0
  151.6458  143.7762  158.6666 C   0  0  0  0  0  0  0  0  0  0  0  0
  151.7569  144.9928  159.3770 C   0  0  0  0  0  0  0  0  0  0  0  0
  152.1793  144.9975  160.7227 C   0  0  0  0  0  0  0  0  0  0  0  0
  152.4959  143.7888  161.3761 C   0  0  0  0  0  0  0  0  0  0  0  0
  152.3936  142.5657  160.6859 C   0  0  0  0  0  0  0  0  0  0  0  0
  151.9727  142.5666  159.3426 C   0  0  0  0  0  0  0  0  0  0  0  0
  151.7691  141.5646  158.3998 N   0  0  0  0  0  0  0  0  0  0  0  0
  151.9620  140.1386  158.6094 C   0  0  0  0  0  0  0  0  0  0  0  0
  153.3248  139.8449  159.2471 C   0  0  0  0  0  0  0  0  0  0  0  0
  153.2747  138.5622  159.8551 O   0  0  0  0  0  0  0  0  0  0  0  0
  153.9232  138.3866  161.0587 C   0  0  0  0  0  0  0  0  0  0  0  0
  153.8575  137.1033  161.6403 C   0  0  0  0  0  0  0  0  0  0  0  0
  154.4894  136.8352  162.8700 C   0  0  0  0  0  0  0  0  0  0  0  0
  155.1978  137.8538  163.5335 C   0  0  0  0  0  0  0  0  0  0  0  0
  155.2736  139.1383  162.9642 C   0  0  0  0  0  0  0  0  0  0  0  0
  154.6413  139.4063  161.7342 C   0  0  0  0  0  0  0  0  0  0  0  0
  148.2918  142.2482  154.1303 H   0  0  0  0  0  0  0  0  0  0  0  0
  149.6923  143.0738  155.6293 H   0  0  0  0  0  0  0  0  0  0  0  0
  150.7810  140.4193  156.2456 H   0  0  0  0  0  0  0  0  0  0  0  0
  151.8649  141.4539  155.3413 H   0  0  0  0  0  0  0  0  0  0  0  0
  151.5156  145.9238  158.8858 H   0  0  0  0  0  0  0  0  0  0  0  0
  152.2598  145.9330  161.2567 H   0  0  0  0  0  0  0  0  0  0  0  0
  152.8174  143.8011  162.4073 H   0  0  0  0  0  0  0  0  0  0  0  0
  152.6342  141.6381  161.1834 H   0  0  0  0  0  0  0  0  0  0  0  0
  151.1552  139.7485  159.2297 H   0  0  0  0  0  0  0  0  0  0  0  0
  151.8807  139.6312  157.6476 H   0  0  0  0  0  0  0  0  0  0  0  0
  154.1019  139.8699  158.4814 H   0  0  0  0  0  0  0  0  0  0  0  0
  153.5561  140.6067  159.9931 H   0  0  0  0  0  0  0  0  0  0  0  0
  153.3155  136.3154  161.1381 H   0  0  0  0  0  0  0  0  0  0  0  0
  154.4304  135.8480  163.3038 H   0  0  0  0  0  0  0  0  0  0  0  0
  155.6825  137.6501  164.4770 H   0  0  0  0  0  0  0  0  0  0  0  0
  155.8184  139.9208  163.4716 H   0  0  0  0  0  0  0  0  0  0  0  0
  154.7229  140.4037  161.3299 H   0  0  0  0  0  0  0  0  0  0  0  0
  1  2  2  0  0  0  0
  2  3  1  0  0  0  0
  2 23  1  0  0  0  0
  3  4  1  0  0  0  0
  3 24  1  0  0  0  0
  4  5  1  0  0  0  0
  4 25  1  0  0  0  0
  4 26  1  0  0  0  0
  5 13  1  0  0  0  0
  5  6  2  0  0  0  0
  6  7  1  0  0  0  0
  7 12  2  0  0  0  0
  7  8  1  0  0  0  0
  8  9  2  0  0  0  0
  8 27  1  0  0  0  0
  9 10  1  0  0  0  0
  9 28  1  0  0  0  0
 10 11  2  0  0  0  0
 10 29  1  0  0  0  0
 11 12  1  0  0  0  0
 11 30  1  0  0  0  0
 12 13  1  0  0  0  0
 13 14  1  0  0  0  0
 14 15  1  0  0  0  0
 14 31  1  0  0  0  0
 14 32  1  0  0  0  0
 15 16  1  0  0  0  0
 15 33  1  0  0  0  0
 15 34  1  0  0  0  0
 16 17  1  0  0  0  0
 17 22  1  0  0  0  0
 17 18  2  0  0  0  0
 18 19  1  0  0  0  0
 18 35  1  0  0  0  0
 19 20  2  0  0  0  0
 19 36  1  0  0  0  0
 20 21  1  0  0  0  0
 20 37  1  0  0  0  0
 21 22  2  0  0  0  0
 21 38  1  0  0  0  0
 22 39  1  0  0  0  0
M  END
> <s_m_source_file>
AV-unprocessed.smi

> <i_m_source_file_index>
2872

> <i_lp_mmshare_version>
43012

> <i_f3d_flags>
0

> <s_epik_input>
Tz1bQ0hdW05IXVtDSDJdYyhuMSluKGMoYzEyKVtjSF1bY0hdW2NIXVtjSF0yKVtDSDJdW0NIMl1PYzNbY0hdW2NIXVtjSF1bY0hdW2NIXTM=

> <s_epik_cmdline>
J2VwaWtfcHl0aG9uJywgJy1waCcsICc3LjAnLCAnLXRuJywgJzgnLCAnLW1hJywgJzIwMCcsICctbWV0YWxfYmluZGluZycsICctaW1hZScsICc8aW5maWxlLm1hZT4nLCAnLW9tYWUnLCAnPG91dGZpbGUubWFlPic=

> <r_lp_tautomer_probability>
1

> <r_epik_Ionization_Penalty>
0.0659793

> <r_epik_Ionization_Penalty_Charging>
0

> <r_epik_Ionization_Penalty_Neutral>
0.0659793

> <r_epik_State_Penalty>
0.0575748

> <r_epik_Charging_Adjusted_Penalty>
0.0575748

> <i_epik_Tot_Q>
0

> <i_epik_Tot_abs_Q>
0

> <r_epik_Metal_State_Penalty>
0.0517641

> <b_epik_Metal_Only>
0

> <s_lp_Force_Field>
OPLS_2005

> <r_lp_Energy>
12.8976

> <b_lp_Chiralities_Consistent>
1

> <s_lp_Variant>
AV-unprocessed.smi:2872-1

> <Gold.Version>
5.8.1

> <Gold.Id.Protein>
6NUR|6NUR_protein|mol2

> <Gold.PLP.Fitness>
50.0930

> <Gold.PLP.PLP>
-48.9592

> <Gold.PLP.part.hbond>
-1.0000

> <Gold.PLP.part.metal>
0.0000

> <Gold.PLP.part.buried>
-7.5157

> <Gold.PLP.part.nonpolar>
-40.2295

> <Gold.PLP.part.repulsive>
0.8487

> <Gold.PLP.ligand.clash>
0.0000

> <Gold.PLP.ligand.torsion>
0.9561

> <Gold.PLP.Chemscore.Hbond>
1.0000

> <Gold.PLP.Chemscore.CHOScore>
0.0000

> <Gold.PLP.Chemscore.Metal>
0.0000

> <Gold.Chemscore.Hbonds>
donor molecule, donor type, donor heavy atom, donor atom, acceptor molecule, acceptor atom, score
      L1  H     3    24       P1  8028  1.00

> <Gold.PLP.Chemscore.Internal.Correction>
0.0460

> <Gold.Rescore>
     Score         DG    S(hbond)    S(metal)    S(lipo)     H(rot)  DE(clash)    DE(int)     intcor
     15.21     -17.66       1.00        0.00     128.52       2.42       1.53       0.92       ----

> <Gold.Chemscore.Fitness>
15.2073

> <Gold.Chemscore.DG>
-17.6574

> <Gold.Chemscore.ZeroCoef>
-5.4800

> <Gold.Chemscore.Hbond>
0.9991

> <Gold.Chemscore.Metal>
0.0000

> <Gold.Chemscore.Lipo>
128.5217

> <Gold.Chemscore.Internal_Hbond>
0.0000

> <Gold.Chemscore.DEClash>
1.5293

> <Gold.Chemscore.DEInternal>
0.9209

> <Gold.Chemscore.Rot>
2.4205

> <Gold.Chemscore.Internal.Correction>
   9.000000E+99

> <Gold.Chemscore.Hbonds>
donor molecule, donor type, donor heavy atom, donor atom, acceptor molecule, acceptor atom, score
      L1  H     3    24       P1  8028  0.99

> <Gold.Chemscore.Hbond.Weighted>
-3.3369

> <Gold.Chemscore.Metal.Weighted>
-0.0000

> <Gold.Chemscore.Lipo.Weighted>
-15.0370

> <Gold.Chemscore.Internal_Hbond.Weighted>
0.0000

> <Gold.Chemscore.DEClash.Weighted>
1.5293

> <Gold.Chemscore.DEInternal.Weighted>
0.9209

> <Gold.Chemscore.Rot.Weighted>
6.1965

> <Gold.Chemscore.Internal.Correction.Weighted>
   9.000000E+99

> <Gold.Protein.RotatedTorsions>
[ 6907 6896 6895 6894 ] final  -22.70 input  -60.11 | X-H torsion
[ 7974 7965 7964 7962 ] final  -28.28 input  175.53 | X-H torsion
[ 8008 7997 7996 7995 ] final   30.70 input   59.86 | X-H torsion
[ 10167 10162 10161 10158 ] final  -39.82 input  -65.29 | X-H torsion
[ 10718 10713 10712 10709 ] final -108.16 input   66.30 | X-H torsion
[ 10763 10752 10751 10750 ] final  -76.46 input  -60.55 | X-H torsion
[ 11005 11000 10999 10996 ] final  -89.86 input  -57.11 | X-H torsion

> <Gold.Protein.ActiveResidues>
 VAL166  LYS551  ARG553  GLY616  TRP617  ASP618  TYR619  PRO620  LYS621  CYS622 
 ASP623  PHE694  ASN695  SER759  ASP760  ASP761  ALA762  ILE779  LEU786  VAL792 
 PHE793  MET794  SER795  GLU796  ALA797  LYS798  CYS799  TRP800  GLU811  SER814 

> <Gold.Protein.RotatedAtoms>
  151.2148  135.0495  159.8925 H   0  0  0  0  0  0  0  0  0  0  0  0  # atno 6907 bound_to 6896
  152.5421  134.0705  159.8202 H   0  0  0  0  0  0  0  0  0  0  0  0  # atno 6908 bound_to 6896
  151.0864  133.5302  159.2649 H   0  0  0  0  0  0  0  0  0  0  0  0  # atno 6909 bound_to 6896
  146.1299  140.5262  142.8698 H   0  0  0  0  0  0  0  0  0  0  0  0  # atno 7974 bound_to 7965
  155.0947  140.3223  155.4564 H   0  0  0  0  0  0  0  0  0  0  0  0  # atno 8008 bound_to 7997
  156.2733  140.2072  156.6020 H   0  0  0  0  0  0  0  0  0  0  0  0  # atno 8009 bound_to 7997
  154.6876  140.0520  157.0318 H   0  0  0  0  0  0  0  0  0  0  0  0  # atno 8010 bound_to 7997
  140.7053  143.3191  151.2837 H   0  0  0  0  0  0  0  0  0  0  0  0  # atno 10167 bound_to 10162
  156.0472  130.5699  150.7922 H   0  0  0  0  0  0  0  0  0  0  0  0  # atno 10718 bound_to 10713
  154.5001  135.5797  153.6525 H   0  0  0  0  0  0  0  0  0  0  0  0  # atno 10763 bound_to 10752
  152.9877  135.6134  154.3013 H   0  0  0  0  0  0  0  0  0  0  0  0  # atno 10764 bound_to 10752
  154.2920  135.2848  155.2630 H   0  0  0  0  0  0  0  0  0  0  0  0  # atno 10765 bound_to 10752
  141.1577  133.7656  156.9655 H   0  0  0  0  0  0  0  0  0  0  0  0  # atno 11005 bound_to 11000
  144.7680  140.5574  143.6690 LP  0  0  0  0  0  0  0  0  0  0  0  0  # atno 17320 bound_to 7965
  145.5283  139.1475  143.3514 LP  0  0  0  0  0  0  0  0  0  0  0  0  # atno 17321 bound_to 7965
  139.6639  144.0141  152.2710 LP  0  0  0  0  0  0  0  0  0  0  0  0  # atno 17342 bound_to 10162
  139.9717  144.6489  150.7983 LP  0  0  0  0  0  0  0  0  0  0  0  0  # atno 17343 bound_to 10162
  157.5360  131.0939  150.9892 LP  0  0  0  0  0  0  0  0  0  0  0  0  # atno 17370 bound_to 10713
  157.0187  130.5665  149.5329 LP  0  0  0  0  0  0  0  0  0  0  0  0  # atno 17371 bound_to 10713
  140.1164  134.9444  157.2140 LP  0  0  0  0  0  0  0  0  0  0  0  0  # atno 17394 bound_to 11000
  140.3128  134.3005  155.7263 LP  0  0  0  0  0  0  0  0  0  0  0  0  # atno 17395 bound_to 11000

$$$$
