AV-unprocessed.smi:2740|AV-procd|sdf|10556|dock7
  -GOLD-   2272015 03D 1   1.00000     0.00000
 Structure written by MMmdl.
 30 31  0  0  0  0  0  0  0  0  2 V2000
  148.3510  137.1582  155.0458 C   0  0  0  0  0  0  0  0  0  0  0  0
  149.4908  138.0949  155.2632 C   0  0  0  0  0  0  0  0  0  0  0  0
  150.1111  138.8863  154.3316 C   0  0  0  0  0  0  0  0  0  0  0  0
  151.1508  139.6579  154.8526 N   0  0  0  0  0  0  0  0  0  0  0  0
  151.3353  139.4832  156.1655 C   0  0  0  0  0  0  0  0  0  0  0  0
  152.2830  140.1290  156.8647 N   0  5  0  0  0  0  0  0  0  0  0  0
  152.0300  140.5334  158.1305 C   0  0  0  0  0  0  0  0  0  0  0  0
  151.0037  140.3103  158.7772 O   0  0  0  0  0  0  0  0  0  0  0  0
  153.0273  141.2392  158.6829 N   0  0  0  0  0  0  0  0  0  0  0  0
  153.0291  141.8008  160.0295 C   0  0  0  0  0  0  0  0  0  0  0  0
  152.8253  143.3248  160.0096 C   0  0  2  0  0  0  0  0  0  0  0  0
  151.9659  143.8466  161.1604 C   0  0  0  0  0  0  0  0  0  0  0  0
  151.3324  145.1116  160.5988 C   0  0  0  0  0  0  0  0  0  0  0  0
  151.6455  145.0552  159.1013 C   0  0  0  0  0  0  0  0  0  0  0  0
  152.0783  143.7230  158.8704 O   0  0  0  0  0  0  0  0  0  0  0  0
  150.2099  138.3011  156.8378 S   0  0  0  0  0  0  0  0  0  0  0  0
  147.4623  137.7017  154.7250 H   0  0  0  0  0  0  0  0  0  0  0  0
  148.1033  136.6183  155.9600 H   0  0  0  0  0  0  0  0  0  0  0  0
  148.5945  136.4248  154.2772 H   0  0  0  0  0  0  0  0  0  0  0  0
  149.8793  138.9633  153.2798 H   0  0  0  0  0  0  0  0  0  0  0  0
  153.8517  141.3957  158.1217 H   0  0  0  0  0  0  0  0  0  0  0  0
  152.2365  141.3223  160.6051 H   0  0  0  0  0  0  0  0  0  0  0  0
  153.9664  141.5520  160.5301 H   0  0  0  0  0  0  0  0  0  0  0  0
  153.7851  143.8451  160.0067 H   0  0  0  0  0  0  0  0  0  0  0  0
  151.1841  143.1268  161.4065 H   0  0  0  0  0  0  0  0  0  0  0  0
  152.5493  144.0292  162.0632 H   0  0  0  0  0  0  0  0  0  0  0  0
  150.2572  145.1143  160.7811 H   0  0  0  0  0  0  0  0  0  0  0  0
  151.7520  146.0113  161.0500 H   0  0  0  0  0  0  0  0  0  0  0  0
  150.7841  145.3057  158.4818 H   0  0  0  0  0  0  0  0  0  0  0  0
  152.4557  145.7423  158.8524 H   0  0  0  0  0  0  0  0  0  0  0  0
  1  2  1  0  0  0  0
  1 17  1  0  0  0  0
  1 18  1  0  0  0  0
  1 19  1  0  0  0  0
  2 16  1  0  0  0  0
  2  3  2  0  0  0  0
  3  4  1  0  0  0  0
  3 20  1  0  0  0  0
  4  5  2  0  0  0  0
  5  6  1  0  0  0  0
  5 16  1  0  0  0  0
  6  7  1  0  0  0  0
  7  8  2  0  0  0  0
  7  9  1  0  0  0  0
  9 10  1  0  0  0  0
  9 21  1  0  0  0  0
 10 11  1  0  0  0  0
 10 22  1  0  0  0  0
 10 23  1  0  0  0  0
 11 15  1  0  0  0  0
 11 12  1  0  0  0  0
 11 24  1  0  0  0  0
 12 13  1  0  0  0  0
 12 25  1  0  0  0  0
 12 26  1  0  0  0  0
 13 14  1  0  0  0  0
 13 27  1  0  0  0  0
 13 28  1  0  0  0  0
 14 15  1  0  0  0  0
 14 29  1  0  0  0  0
 14 30  1  0  0  0  0
M  CHG  1   6  -1
M  END
> <s_m_source_file>
AV-unprocessed.smi

> <i_m_source_file_index>
2740

> <i_lp_mmshare_version>
43012

> <i_f3d_flags>
0

> <s_epik_input>
W0NIM11jMVtjSF1uYyhzMSlbTkhdQyg9TylbTkhdW0NIMl1bQ0BASF0yW0NIMl1bQ0gyXVtDSDJdTzI=

> <s_epik_cmdline>
J2VwaWtfcHl0aG9uJywgJy1waCcsICc3LjAnLCAnLXRuJywgJzgnLCAnLW1hJywgJzIwMCcsICctbWV0YWxfYmluZGluZycsICctaW1hZScsICc8aW5maWxlLm1hZT4nLCAnLW9tYWUnLCAnPG91dGZpbGUubWFlPic=

> <r_lp_tautomer_probability>
0.999

> <r_epik_Ionization_Penalty>
8.54039

> <r_epik_Ionization_Penalty_Charging>
6.77868

> <r_epik_Ionization_Penalty_Neutral>
1.76171

> <r_epik_State_Penalty>
6.77885

> <r_epik_Charging_Adjusted_Penalty>
13.5575

> <i_epik_Tot_Q>
-1

> <i_epik_Tot_abs_Q>
1

> <r_epik_Metal_State_Penalty>
2.69888

> <b_epik_Metal_Only>
1

> <s_lp_Force_Field>
OPLS_2005

> <r_lp_Energy>
13.1736

> <b_lp_Chiralities_Consistent>
1

> <s_lp_Variant>
AV-unprocessed.smi:2740-3

> <Gold.Version>
5.8.1

> <Gold.Id.Protein>
6NUR|6NUR_protein|mol2

> <Gold.PLP.Fitness>
42.5814

> <Gold.PLP.PLP>
-32.3711

> <Gold.PLP.part.hbond>
-2.0000

> <Gold.PLP.part.metal>
0.0000

> <Gold.PLP.part.buried>
-5.2154

> <Gold.PLP.part.nonpolar>
-26.0524

> <Gold.PLP.part.repulsive>
0.1458

> <Gold.PLP.ligand.clash>
0.0000

> <Gold.PLP.ligand.torsion>
0.8306

> <Gold.PLP.Chemscore.Hbond>
2.9500

> <Gold.PLP.Chemscore.CHOScore>
1.0000

> <Gold.PLP.Chemscore.Metal>
0.0000

> <Gold.Chemscore.Hbonds>
donor molecule, donor type, donor heavy atom, donor atom, acceptor molecule, acceptor atom, score
      P1  H  7989  7998       L1     4  1.00
      P1  H  7997  8009       L1     6  1.72
      L1  C     3    20       P1  7957  1.00

> <Gold.PLP.Chemscore.Internal.Correction>
0.0215

> <Gold.Rescore>
     Score         DG    S(hbond)    S(metal)    S(lipo)     H(rot)  DE(clash)    DE(int)     intcor
     14.33     -15.45       1.23        0.00      77.55       1.25       0.08       1.04       ----

> <Gold.Chemscore.Fitness>
14.3272

> <Gold.Chemscore.DG>
-15.4513

> <Gold.Chemscore.ZeroCoef>
-5.4800

> <Gold.Chemscore.Hbond>
1.2281

> <Gold.Chemscore.Metal>
0.0000

> <Gold.Chemscore.Lipo>
77.5468

> <Gold.Chemscore.Internal_Hbond>
0.0000

> <Gold.Chemscore.DEClash>
0.0807

> <Gold.Chemscore.DEInternal>
1.0433

> <Gold.Chemscore.Rot>
1.2514

> <Gold.Chemscore.Internal.Correction>
   9.000000E+99

> <Gold.Chemscore.Hbonds>
donor molecule, donor type, donor heavy atom, donor atom, acceptor molecule, acceptor atom, score
      P1  H  7989  7998       L1     4  0.55
      P1  H  7997  8009       L1     6  0.58

> <Gold.Chemscore.Hbond.Weighted>
-4.1019

> <Gold.Chemscore.Metal.Weighted>
-0.0000

> <Gold.Chemscore.Lipo.Weighted>
-9.0730

> <Gold.Chemscore.Internal_Hbond.Weighted>
0.0000

> <Gold.Chemscore.DEClash.Weighted>
0.0807

> <Gold.Chemscore.DEInternal.Weighted>
1.0433

> <Gold.Chemscore.Rot.Weighted>
3.2036

> <Gold.Chemscore.Internal.Correction.Weighted>
   9.000000E+99

> <Gold.Protein.RotatedTorsions>
[ 6907 6896 6895 6894 ] final -169.49 input  -60.11 | X-H torsion
[ 7974 7965 7964 7962 ] final  -96.48 input  175.53 | X-H torsion
[ 8008 7997 7996 7995 ] final -174.53 input   59.86 | X-H torsion
[ 10167 10162 10161 10158 ] final  -12.94 input  -65.29 | X-H torsion
[ 10718 10713 10712 10709 ] final  -34.30 input   66.30 | X-H torsion
[ 10763 10752 10751 10750 ] final   59.98 input  -60.55 | X-H torsion
[ 11005 11000 10999 10996 ] final  -18.95 input  -57.11 | X-H torsion

> <Gold.Protein.ActiveResidues>
 VAL166  LYS551  ARG553  GLY616  TRP617  ASP618  TYR619  PRO620  LYS621  CYS622 
 ASP623  PHE694  ASN695  SER759  ASP760  ASP761  ALA762  ILE779  LEU786  VAL792 
 PHE793  MET794  SER795  GLU796  ALA797  LYS798  CYS799  TRP800  GLU811  SER814 

> <Gold.Protein.RotatedAtoms>
  151.4925  133.3522  159.2855 H   0  0  0  0  0  0  0  0  0  0  0  0  # atno 6907 bound_to 6896
  150.8825  134.8221  159.7246 H   0  0  0  0  0  0  0  0  0  0  0  0  # atno 6908 bound_to 6896
  152.4772  134.4824  159.9721 H   0  0  0  0  0  0  0  0  0  0  0  0  # atno 6909 bound_to 6896
  145.3464  140.9469  143.2579 H   0  0  0  0  0  0  0  0  0  0  0  0  # atno 7974 bound_to 7965
  155.9712  140.1163  157.0810 H   0  0  0  0  0  0  0  0  0  0  0  0  # atno 8008 bound_to 7997
  154.4157  140.1163  156.5377 H   0  0  0  0  0  0  0  0  0  0  0  0  # atno 8009 bound_to 7997
  155.6594  140.3473  155.4779 H   0  0  0  0  0  0  0  0  0  0  0  0  # atno 8010 bound_to 7997
  140.7172  143.5479  150.9334 H   0  0  0  0  0  0  0  0  0  0  0  0  # atno 10167 bound_to 10162
  156.3522  130.4310  149.7694 H   0  0  0  0  0  0  0  0  0  0  0  0  # atno 10718 bound_to 10713
  152.9909  135.5552  154.5801 H   0  0  0  0  0  0  0  0  0  0  0  0  # atno 10763 bound_to 10752
  154.5184  135.2806  155.1286 H   0  0  0  0  0  0  0  0  0  0  0  0  # atno 10764 bound_to 10752
  154.2649  135.6374  153.5341 H   0  0  0  0  0  0  0  0  0  0  0  0  # atno 10765 bound_to 10752
  140.8318  133.7991  155.9767 H   0  0  0  0  0  0  0  0  0  0  0  0  # atno 11005 bound_to 11000
  144.8751  139.4983  143.6749 LP  0  0  0  0  0  0  0  0  0  0  0  0  # atno 17320 bound_to 7965
  146.2986  139.7356  142.9108 LP  0  0  0  0  0  0  0  0  0  0  0  0  # atno 17321 bound_to 7965
  139.9203  143.6614  152.3098 LP  0  0  0  0  0  0  0  0  0  0  0  0  # atno 17342 bound_to 10162
  139.7028  144.7632  151.1243 LP  0  0  0  0  0  0  0  0  0  0  0  0  # atno 17343 bound_to 10162
  156.4890  130.8076  151.3087 LP  0  0  0  0  0  0  0  0  0  0  0  0  # atno 17370 bound_to 10713
  157.7463  130.9981  150.2841 LP  0  0  0  0  0  0  0  0  0  0  0  0  # atno 17371 bound_to 10713
  140.8990  134.2402  157.5052 LP  0  0  0  0  0  0  0  0  0  0  0  0  # atno 17394 bound_to 11000
  139.8705  134.9697  156.4676 LP  0  0  0  0  0  0  0  0  0  0  0  0  # atno 17395 bound_to 11000

$$$$
