AV-unprocessed.smi:831|AV-procd|sdf|3875|dock6
  -GOLD-   22720 1333D 1   1.00000     0.00000
 Structure written by MMmdl.
 50 51  0  0  0  0  0  0  0  0  1 V2000
  147.5946  132.9554  152.7101 C   0  0  0  0  0  0  0  0  0  0  0  0
  148.9551  132.7489  153.3945 C   0  0  0  0  0  0  0  0  0  0  0  0
  149.0662  131.3306  153.9727 C   0  0  0  0  0  0  0  0  0  0  0  0
  149.2042  133.8090  154.4791 C   0  0  0  0  0  0  0  0  0  0  0  0
  148.0788  134.6772  154.5499 O   0  0  0  0  0  0  0  0  0  0  0  0
  148.1241  135.6476  155.5913 C   0  0  1  0  0  0  0  0  0  0  0  0
  147.9285  134.8982  156.9177 C   0  0  0  0  0  0  0  0  0  0  0  0
  149.4828  136.3806  155.5666 C   0  0  0  0  0  0  0  0  0  0  0  0
  150.2116  136.3291  156.5557 O   0  0  0  0  0  0  0  0  0  0  0  0
  149.8691  137.0527  154.4691 N   0  0  0  0  0  0  0  0  0  0  0  0
  151.1106  137.7944  154.2776 C   0  0  0  0  0  0  0  0  0  0  0  0
  151.3169  138.9235  155.2762 C   0  0  0  0  0  0  0  0  0  0  0  0
  150.4520  140.0362  155.3549 C   0  0  0  0  0  0  0  0  0  0  0  0
  150.7115  141.0380  156.3095 C   0  0  0  0  0  0  0  0  0  0  0  0
  151.8284  140.9033  157.1680 C   0  0  0  0  0  0  0  0  0  0  0  0
  152.1096  141.8990  158.1285 N   0  0  0  0  0  0  0  0  0  0  0  0
  152.3157  141.4179  159.4925 C   0  0  0  0  0  0  0  0  0  0  0  0
  152.9046  142.5343  160.3722 C   0  0  0  0  0  0  0  0  0  0  0  0
  152.0706  143.6864  160.3124 O   0  0  0  0  0  0  0  0  0  0  0  0
  151.9780  144.2039  158.9894 C   0  0  0  0  0  0  0  0  0  0  0  0
  151.3525  143.1480  158.0626 C   0  0  0  0  0  0  0  0  0  0  0  0
  152.6477  139.8248  157.0999 N   0  0  0  0  0  0  0  0  0  0  0  0
  152.3956  138.8686  156.1816 C   0  0  0  0  0  0  0  0  0  0  0  0
  146.7744  132.8664  153.4232 H   0  0  0  0  0  0  0  0  0  0  0  0
  147.4337  132.2178  151.9236 H   0  0  0  0  0  0  0  0  0  0  0  0
  147.5283  133.9421  152.2506 H   0  0  0  0  0  0  0  0  0  0  0  0
  149.7326  132.8546  152.6369 H   0  0  0  0  0  0  0  0  0  0  0  0
  148.3140  131.1559  154.7427 H   0  0  0  0  0  0  0  0  0  0  0  0
  150.0462  131.1637  154.4208 H   0  0  0  0  0  0  0  0  0  0  0  0
  148.9291  130.5780  153.1957 H   0  0  0  0  0  0  0  0  0  0  0  0
  149.3951  133.3220  155.4362 H   0  0  0  0  0  0  0  0  0  0  0  0
  150.0906  134.3948  154.2313 H   0  0  0  0  0  0  0  0  0  0  0  0
  147.2834  136.3304  155.4752 H   0  0  0  0  0  0  0  0  0  0  0  0
  147.9579  135.5827  157.7662 H   0  0  0  0  0  0  0  0  0  0  0  0
  148.6972  134.1397  157.0706 H   0  0  0  0  0  0  0  0  0  0  0  0
  146.9623  134.3936  156.9364 H   0  0  0  0  0  0  0  0  0  0  0  0
  149.2341  137.0427  153.6841 H   0  0  0  0  0  0  0  0  0  0  0  0
  151.9584  137.1123  154.3552 H   0  0  0  0  0  0  0  0  0  0  0  0
  151.1218  138.2183  153.2722 H   0  0  0  0  0  0  0  0  0  0  0  0
  149.5966  140.1301  154.7027 H   0  0  0  0  0  0  0  0  0  0  0  0
  150.0461  141.8853  156.3816 H   0  0  0  0  0  0  0  0  0  0  0  0
  151.3576  141.0907  159.8983 H   0  0  0  0  0  0  0  0  0  0  0  0
  152.9820  140.5571  159.5205 H   0  0  0  0  0  0  0  0  0  0  0  0
  152.9733  142.1992  161.4073 H   0  0  0  0  0  0  0  0  0  0  0  0
  153.9168  142.7877  160.0526 H   0  0  0  0  0  0  0  0  0  0  0  0
  151.3623  145.1031  159.0020 H   0  0  0  0  0  0  0  0  0  0  0  0
  152.9661  144.4997  158.6325 H   0  0  0  0  0  0  0  0  0  0  0  0
  151.3384  143.5274  157.0401 H   0  0  0  0  0  0  0  0  0  0  0  0
  150.3187  142.9603  158.3561 H   0  0  0  0  0  0  0  0  0  0  0  0
  153.0805  138.0334  156.1688 H   0  0  0  0  0  0  0  0  0  0  0  0
  1  2  1  0  0  0  0
  1 24  1  0  0  0  0
  1 25  1  0  0  0  0
  1 26  1  0  0  0  0
  2  3  1  0  0  0  0
  2  4  1  0  0  0  0
  2 27  1  0  0  0  0
  3 28  1  0  0  0  0
  3 29  1  0  0  0  0
  3 30  1  0  0  0  0
  4  5  1  0  0  0  0
  4 31  1  0  0  0  0
  4 32  1  0  0  0  0
  5  6  1  0  0  0  0
  6  7  1  0  0  0  0
  6  8  1  0  0  0  0
  6 33  1  0  0  0  0
  7 34  1  0  0  0  0
  7 35  1  0  0  0  0
  7 36  1  0  0  0  0
  8  9  2  0  0  0  0
  8 10  1  0  0  0  0
 10 11  1  0  0  0  0
 10 37  1  0  0  0  0
 11 12  1  0  0  0  0
 11 38  1  0  0  0  0
 11 39  1  0  0  0  0
 12 23  1  0  0  0  0
 12 13  2  0  0  0  0
 13 14  1  0  0  0  0
 13 40  1  0  0  0  0
 14 15  2  0  0  0  0
 14 41  1  0  0  0  0
 15 16  1  0  0  0  0
 15 22  1  0  0  0  0
 16 21  1  0  0  0  0
 16 17  1  0  0  0  0
 17 18  1  0  0  0  0
 17 42  1  0  0  0  0
 17 43  1  0  0  0  0
 18 19  1  0  0  0  0
 18 44  1  0  0  0  0
 18 45  1  0  0  0  0
 19 20  1  0  0  0  0
 20 21  1  0  0  0  0
 20 46  1  0  0  0  0
 20 47  1  0  0  0  0
 21 48  1  0  0  0  0
 21 49  1  0  0  0  0
 22 23  2  0  0  0  0
 23 50  1  0  0  0  0
M  END
> <s_m_source_file>
AV-unprocessed.smi

> <i_m_source_file_index>
831

> <i_lp_mmshare_version>
43012

> <i_f3d_flags>
0

> <s_epik_input>
W0NIM11bQ0hdKFtDSDNdKVtDSDJdT1tDQEhdKFtDSDNdKUMoPU8pW05IXVtDSDJdYzFbY0hdW2NIXWMobltjSF0xKU4yW0NIMl1bQ0gyXU9bQ0gyXVtDSDJdMg==

> <s_epik_cmdline>
J2VwaWtfcHl0aG9uJywgJy1waCcsICc3LjAnLCAnLXRuJywgJzgnLCAnLW1hJywgJzIwMCcsICctbWV0YWxfYmluZGluZycsICctaW1hZScsICc8aW5maWxlLm1hZT4nLCAnLW9tYWUnLCAnPG91dGZpbGUubWFlPic=

> <r_lp_tautomer_probability>
1

> <r_epik_Ionization_Penalty>
0.00456501

> <r_epik_Ionization_Penalty_Charging>
0

> <r_epik_Ionization_Penalty_Neutral>
0.00456501

> <r_epik_State_Penalty>
0.00329791

> <r_epik_Charging_Adjusted_Penalty>
0.00329791

> <i_epik_Tot_Q>
0

> <i_epik_Tot_abs_Q>
0

> <r_epik_Metal_State_Penalty>
-0

> <b_epik_Metal_Only>
0

> <s_lp_Force_Field>
OPLS_2005

> <r_lp_Energy>
24.1479

> <b_lp_Chiralities_Consistent>
1

> <s_lp_Variant>
AV-unprocessed.smi:831-2

> <Gold.Version>
5.8.1

> <Gold.Id.Protein>
6NUR|6NUR_protein|mol2

> <Gold.PLP.Fitness>
46.6033

> <Gold.PLP.PLP>
-42.4595

> <Gold.PLP.part.hbond>
-2.0746

> <Gold.PLP.part.metal>
0.0000

> <Gold.PLP.part.buried>
-4.1421

> <Gold.PLP.part.nonpolar>
-36.6004

> <Gold.PLP.part.repulsive>
0.8165

> <Gold.PLP.ligand.clash>
0.0000

> <Gold.PLP.ligand.torsion>
0.9968

> <Gold.PLP.Chemscore.Hbond>
1.9200

> <Gold.PLP.Chemscore.CHOScore>
0.0000

> <Gold.PLP.Chemscore.Metal>
0.0000

> <Gold.Chemscore.Hbonds>
donor molecule, donor type, donor heavy atom, donor atom, acceptor molecule, acceptor atom, score
      L1  H    10    37       P1  7948  0.83
      P1  H  7997  8008       L1    22  0.90

> <Gold.PLP.Chemscore.Internal.Correction>
0.3773

> <Gold.Rescore>
     Score         DG    S(hbond)    S(metal)    S(lipo)     H(rot)  DE(clash)    DE(int)     intcor
     15.99     -17.15       1.28        0.00     105.01       1.92       0.06       1.10       ----

> <Gold.Chemscore.Fitness>
15.9921

> <Gold.Chemscore.DG>
-17.1536

> <Gold.Chemscore.ZeroCoef>
-5.4800

> <Gold.Chemscore.Hbond>
1.2849

> <Gold.Chemscore.Metal>
0.0000

> <Gold.Chemscore.Lipo>
105.0147

> <Gold.Chemscore.Internal_Hbond>
0.0000

> <Gold.Chemscore.DEClash>
0.0588

> <Gold.Chemscore.DEInternal>
1.1027

> <Gold.Chemscore.Rot>
1.9159

> <Gold.Chemscore.Internal.Correction>
   9.000000E+99

> <Gold.Chemscore.Hbonds>
donor molecule, donor type, donor heavy atom, donor atom, acceptor molecule, acceptor atom, score
      L1  H    10    37       P1  7948  0.80
      P1  H  7997  8008       L1    22  0.30

> <Gold.Chemscore.Hbond.Weighted>
-4.2916

> <Gold.Chemscore.Metal.Weighted>
-0.0000

> <Gold.Chemscore.Lipo.Weighted>
-12.2867

> <Gold.Chemscore.Internal_Hbond.Weighted>
0.0000

> <Gold.Chemscore.DEClash.Weighted>
0.0588

> <Gold.Chemscore.DEInternal.Weighted>
1.1027

> <Gold.Chemscore.Rot.Weighted>
4.9047

> <Gold.Chemscore.Internal.Correction.Weighted>
   9.000000E+99

> <Gold.Protein.RotatedTorsions>
[ 6907 6896 6895 6894 ] final -107.46 input  -60.11 | X-H torsion
[ 7974 7965 7964 7962 ] final   45.48 input  175.53 | X-H torsion
[ 8008 7997 7996 7995 ] final  -81.22 input   59.86 | X-H torsion
[ 10167 10162 10161 10158 ] final   11.59 input  -65.29 | X-H torsion
[ 10718 10713 10712 10709 ] final  153.71 input   66.30 | X-H torsion
[ 10763 10752 10751 10750 ] final  -46.59 input  -60.55 | X-H torsion
[ 11005 11000 10999 10996 ] final  112.36 input  -57.11 | X-H torsion

> <Gold.Protein.ActiveResidues>
 VAL166  LYS551  ARG553  GLY616  TRP617  ASP618  TYR619  PRO620  LYS621  CYS622 
 ASP623  PHE694  ASN695  SER759  ASP760  ASP761  ALA762  ILE779  LEU786  VAL792 
 PHE793  MET794  SER795  GLU796  ALA797  LYS798  CYS799  TRP800  GLU811  SER814 

> <Gold.Protein.RotatedAtoms>
  150.7445  133.9823  159.3579 H   0  0  0  0  0  0  0  0  0  0  0  0  # atno 6907 bound_to 6896
  151.7765  135.0771  160.0377 H   0  0  0  0  0  0  0  0  0  0  0  0  # atno 6908 bound_to 6896
  152.3303  133.5914  159.5841 H   0  0  0  0  0  0  0  0  0  0  0  0  # atno 6909 bound_to 6896
  146.0476  139.4959  142.9739 H   0  0  0  0  0  0  0  0  0  0  0  0  # atno 7974 bound_to 7965
  154.5961  140.0651  156.9305 H   0  0  0  0  0  0  0  0  0  0  0  0  # atno 8008 bound_to 7997
  155.2211  140.3330  155.4297 H   0  0  0  0  0  0  0  0  0  0  0  0  # atno 8009 bound_to 7997
  156.2288  140.1831  156.7279 H   0  0  0  0  0  0  0  0  0  0  0  0  # atno 8010 bound_to 7997
  140.6122  143.8383  150.7078 H   0  0  0  0  0  0  0  0  0  0  0  0  # atno 10167 bound_to 10162
  157.2411  131.0759  151.1791 H   0  0  0  0  0  0  0  0  0  0  0  0  # atno 10718 bound_to 10713
  154.0475  135.6635  153.4796 H   0  0  0  0  0  0  0  0  0  0  0  0  # atno 10763 bound_to 10752
  153.0477  135.5104  154.7783 H   0  0  0  0  0  0  0  0  0  0  0  0  # atno 10764 bound_to 10752
  154.6778  135.3040  154.9620 H   0  0  0  0  0  0  0  0  0  0  0  0  # atno 10765 bound_to 10752
  139.8925  134.9528  156.6573 H   0  0  0  0  0  0  0  0  0  0  0  0  # atno 11005 bound_to 11000
  145.6779  141.0199  143.1622 LP  0  0  0  0  0  0  0  0  0  0  0  0  # atno 17320 bound_to 7965
  144.7106  139.8387  143.7416 LP  0  0  0  0  0  0  0  0  0  0  0  0  # atno 17321 bound_to 7965
  140.1954  143.4002  152.1832 LP  0  0  0  0  0  0  0  0  0  0  0  0  # atno 17342 bound_to 10162
  139.5370  144.7220  151.4859 LP  0  0  0  0  0  0  0  0  0  0  0  0  # atno 17343 bound_to 10162
  157.3377  130.7017  149.6363 LP  0  0  0  0  0  0  0  0  0  0  0  0  # atno 17370 bound_to 10713
  155.9670  130.4289  150.4808 LP  0  0  0  0  0  0  0  0  0  0  0  0  # atno 17371 bound_to 10713
  140.7474  133.8926  155.8322 LP  0  0  0  0  0  0  0  0  0  0  0  0  # atno 17394 bound_to 11000
  141.0029  134.1126  157.4300 LP  0  0  0  0  0  0  0  0  0  0  0  0  # atno 17395 bound_to 11000

$$$$
