AV-unprocessed.smi:244|AV-procd|sdf|1873|dock6
  -GOLD-   2262020513D 1   1.00000     0.00000
 Structure written by MMmdl.
 56 60  0  0  0  0  0  0  0  0  1 V2000
  150.9617  144.5262  160.8582 C   0  0  0  0  0  0  0  0  0  0  0  0
  151.5339  143.2335  160.5109 N   0  0  0  0  0  0  0  0  0  0  0  0
  152.7187  142.9885  161.3322 C   0  0  0  0  0  0  0  0  0  0  0  0
  153.2695  141.5840  161.0420 C   0  0  0  0  0  0  0  0  0  0  0  0
  153.6380  141.4492  159.5530 C   0  0  1  0  0  0  0  0  0  0  0  0
  154.1367  140.1523  159.2168 O   0  0  0  0  0  0  0  0  0  0  0  0
  153.1541  139.1198  159.2141 C   0  0  0  0  0  0  0  0  0  0  0  0
  152.0164  139.4843  158.2508 C   0  0  0  0  0  0  0  0  0  0  0  0
  151.4492  140.7770  158.6118 N   0  0  0  0  0  0  0  0  0  0  0  0
  150.3202  141.0488  157.9223 C   0  0  0  0  0  0  0  0  0  0  0  0
  149.2980  141.6111  158.6121 N   0  0  0  0  0  0  0  0  0  0  0  0
  148.1597  141.9198  157.9839 C   0  0  0  0  0  0  0  0  0  0  0  0
  147.8416  141.7477  156.6990 N   0  0  0  0  0  0  0  0  0  0  0  0
  148.8675  141.1749  156.0058 C   0  0  0  0  0  0  0  0  0  0  0  0
  150.1334  140.7969  156.5342 C   0  0  0  0  0  0  0  0  0  0  0  0
  150.9224  140.2485  155.5302 N   0  0  0  0  0  0  0  0  0  0  0  0
  150.1626  140.2932  154.4697 C   0  0  0  0  0  0  0  0  0  0  0  0
  148.9102  140.8298  154.6666 N   0  0  0  0  0  0  0  0  0  0  0  0
  147.8671  140.9962  153.6665 C   0  0  0  0  0  0  0  0  0  0  0  0
  146.8286  139.8474  153.6482 C   0  0  0  0  0  0  0  0  0  0  0  0
  146.1254  139.9219  152.4195 O   0  0  0  0  0  0  0  0  0  0  0  0
  147.4831  138.4520  153.7549 C   0  0  0  0  0  0  0  0  0  0  0  0
  146.4429  137.3350  153.9511 C   0  0  0  0  0  0  0  0  0  0  0  0
  145.6253  137.6183  155.0800 O   0  0  0  0  0  0  0  0  0  0  0  0
  144.8703  138.8136  154.9261 C   0  0  0  0  0  0  0  0  0  0  0  0
  145.8163  140.0208  154.7980 C   0  0  0  0  0  0  0  0  0  0  0  0
  152.4502  141.8479  158.6487 C   0  0  1  0  0  0  0  0  0  0  0  0
  151.8781  143.2219  159.0871 C   0  0  0  0  0  0  0  0  0  0  0  0
  150.6736  144.5462  161.9097 H   0  0  0  0  0  0  0  0  0  0  0  0
  150.0661  144.7193  160.2664 H   0  0  0  0  0  0  0  0  0  0  0  0
  151.6708  145.3360  160.6815 H   0  0  0  0  0  0  0  0  0  0  0  0
  153.4793  143.7464  161.1376 H   0  0  0  0  0  0  0  0  0  0  0  0
  152.4537  143.0620  162.3876 H   0  0  0  0  0  0  0  0  0  0  0  0
  154.1469  141.3933  161.6600 H   0  0  0  0  0  0  0  0  0  0  0  0
  152.5192  140.8485  161.3317 H   0  0  0  0  0  0  0  0  0  0  0  0
  154.4544  142.1459  159.3587 H   0  0  0  0  0  0  0  0  0  0  0  0
  153.6270  138.1906  158.8961 H   0  0  0  0  0  0  0  0  0  0  0  0
  152.7723  138.9427  160.2190 H   0  0  0  0  0  0  0  0  0  0  0  0
  152.3964  139.5189  157.2289 H   0  0  0  0  0  0  0  0  0  0  0  0
  151.2437  138.7147  158.2812 H   0  0  0  0  0  0  0  0  0  0  0  0
  147.3943  142.3693  158.5992 H   0  0  0  0  0  0  0  0  0  0  0  0
  150.4941  139.9283  153.5082 H   0  0  0  0  0  0  0  0  0  0  0  0
  147.3682  141.9477  153.8547 H   0  0  0  0  0  0  0  0  0  0  0  0
  148.3436  141.0934  152.6898 H   0  0  0  0  0  0  0  0  0  0  0  0
  145.2529  140.2414  152.5920 H   0  0  0  0  0  0  0  0  0  0  0  0
  148.0888  138.2368  152.8738 H   0  0  0  0  0  0  0  0  0  0  0  0
  148.1653  138.4406  154.6060 H   0  0  0  0  0  0  0  0  0  0  0  0
  145.8242  137.2128  153.0608 H   0  0  0  0  0  0  0  0  0  0  0  0
  146.9479  136.3829  154.1157 H   0  0  0  0  0  0  0  0  0  0  0  0
  144.2125  138.7333  154.0591 H   0  0  0  0  0  0  0  0  0  0  0  0
  144.2280  138.9364  155.7983 H   0  0  0  0  0  0  0  0  0  0  0  0
  146.3560  140.1350  155.7391 H   0  0  0  0  0  0  0  0  0  0  0  0
  145.2389  140.9367  154.6653 H   0  0  0  0  0  0  0  0  0  0  0  0
  152.8347  141.9573  157.6339 H   0  0  0  0  0  0  0  0  0  0  0  0
  151.0064  143.4904  158.4895 H   0  0  0  0  0  0  0  0  0  0  0  0
  152.6232  143.9961  158.8974 H   0  0  0  0  0  0  0  0  0  0  0  0
  1  2  1  0  0  0  0
  1 29  1  0  0  0  0
  1 30  1  0  0  0  0
  1 31  1  0  0  0  0
  2 28  1  0  0  0  0
  2  3  1  0  0  0  0
  3  4  1  0  0  0  0
  3 32  1  0  0  0  0
  3 33  1  0  0  0  0
  4  5  1  0  0  0  0
  4 34  1  0  0  0  0
  4 35  1  0  0  0  0
  5 27  1  0  0  0  0
  5  6  1  0  0  0  0
  5 36  1  0  0  0  0
  6  7  1  0  0  0  0
  7  8  1  0  0  0  0
  7 37  1  0  0  0  0
  7 38  1  0  0  0  0
  8  9  1  0  0  0  0
  8 39  1  0  0  0  0
  8 40  1  0  0  0  0
  9 10  1  0  0  0  0
  9 27  1  0  0  0  0
 10 15  1  0  0  0  0
 10 11  2  0  0  0  0
 11 12  1  0  0  0  0
 12 13  2  0  0  0  0
 12 41  1  0  0  0  0
 13 14  1  0  0  0  0
 14 18  1  0  0  0  0
 14 15  2  0  0  0  0
 15 16  1  0  0  0  0
 16 17  2  0  0  0  0
 17 18  1  0  0  0  0
 17 42  1  0  0  0  0
 18 19  1  0  0  0  0
 19 20  1  0  0  0  0
 19 43  1  0  0  0  0
 19 44  1  0  0  0  0
 20 26  1  0  0  0  0
 20 21  1  0  0  0  0
 20 22  1  0  0  0  0
 21 45  1  0  0  0  0
 22 23  1  0  0  0  0
 22 46  1  0  0  0  0
 22 47  1  0  0  0  0
 23 24  1  0  0  0  0
 23 48  1  0  0  0  0
 23 49  1  0  0  0  0
 24 25  1  0  0  0  0
 25 26  1  0  0  0  0
 25 50  1  0  0  0  0
 25 51  1  0  0  0  0
 26 52  1  0  0  0  0
 26 53  1  0  0  0  0
 27 28  1  0  0  0  0
 27 54  1  0  0  0  0
 28 55  1  0  0  0  0
 28 56  1  0  0  0  0
M  END
> <s_m_source_file>
AV-unprocessed.smi

> <i_m_source_file_index>
244

> <i_lp_mmshare_version>
43012

> <i_f3d_flags>
0

> <s_epik_input>
W0NIMl0xW0NIMl1OKFtDSDNdKVtDSDJdW0NAQEhdKFtDQEhdMTIpTihbQ0gyXVtDSDJdTzIpYyhuW2NIXW4zKWMoYzM0KW5bY0hdbjRbQ0gyXUM1KFtPSF0pW0NIMl1bQ0gyXU9bQ0gyXVtDSDJdNQ==

> <s_epik_cmdline>
J2VwaWtfcHl0aG9uJywgJy1waCcsICc3LjAnLCAnLXRuJywgJzgnLCAnLW1hJywgJzIwMCcsICctbWV0YWxfYmluZGluZycsICctaW1hZScsICc8aW5maWxlLm1hZT4nLCAnLW9tYWUnLCAnPG91dGZpbGUubWFlPic=

> <r_lp_tautomer_probability>
1

> <r_epik_Ionization_Penalty>
2.27765

> <r_epik_Ionization_Penalty_Charging>
0

> <r_epik_Ionization_Penalty_Neutral>
2.27765

> <r_epik_State_Penalty>
2.4114

> <r_epik_Charging_Adjusted_Penalty>
2.4114

> <i_epik_Tot_Q>
0

> <i_epik_Tot_abs_Q>
0

> <r_epik_Metal_State_Penalty>
2.39769

> <b_epik_Metal_Only>
0

> <s_lp_Force_Field>
OPLS_2005

> <r_lp_Energy>
50.0311

> <b_lp_Chiralities_Consistent>
1

> <s_lp_Variant>
AV-unprocessed.smi:244-10

> <Gold.Version>
5.8.1

> <Gold.Id.Protein>
6NUR|6NUR_protein|mol2

> <Gold.PLP.Fitness>
46.3612

> <Gold.PLP.PLP>
-39.7820

> <Gold.PLP.part.hbond>
-3.2591

> <Gold.PLP.part.metal>
0.0000

> <Gold.PLP.part.buried>
-1.6873

> <Gold.PLP.part.nonpolar>
-34.4932

> <Gold.PLP.part.repulsive>
0.3070

> <Gold.PLP.ligand.clash>
0.0000

> <Gold.PLP.ligand.torsion>
1.1762

> <Gold.PLP.Chemscore.Hbond>
1.9516

> <Gold.PLP.Chemscore.CHOScore>
0.9800

> <Gold.PLP.Chemscore.Metal>
0.0000

> <Gold.Chemscore.Hbonds>
donor molecule, donor type, donor heavy atom, donor atom, acceptor molecule, acceptor atom, score
      L1  H    21    45       P1 10175  1.00
      P1  H  7997  8008       L1     6  0.81
      L1  C    17    42       P1  7957  1.00

> <Gold.PLP.Chemscore.Internal.Correction>
0.1370

> <Gold.Rescore>
     Score         DG    S(hbond)    S(metal)    S(lipo)     H(rot)  DE(clash)    DE(int)     intcor
     14.59     -17.05       1.39        0.00     104.34       2.06       1.41       1.05       ----

> <Gold.Chemscore.Fitness>
14.5897

> <Gold.Chemscore.DG>
-17.0515

> <Gold.Chemscore.ZeroCoef>
-5.4800

> <Gold.Chemscore.Hbond>
1.3892

> <Gold.Chemscore.Metal>
0.0000

> <Gold.Chemscore.Lipo>
104.3425

> <Gold.Chemscore.Internal_Hbond>
0.0000

> <Gold.Chemscore.DEClash>
1.4102

> <Gold.Chemscore.DEInternal>
1.0516

> <Gold.Chemscore.Rot>
2.0611

> <Gold.Chemscore.Internal.Correction>
   9.000000E+99

> <Gold.Chemscore.Hbonds>
donor molecule, donor type, donor heavy atom, donor atom, acceptor molecule, acceptor atom, score
      L1  H    21    45       P1 10175  0.86
      P1  H  7997  8008       L1     6  0.30

> <Gold.Chemscore.Hbond.Weighted>
-4.6400

> <Gold.Chemscore.Metal.Weighted>
-0.0000

> <Gold.Chemscore.Lipo.Weighted>
-12.2081

> <Gold.Chemscore.Internal_Hbond.Weighted>
0.0000

> <Gold.Chemscore.DEClash.Weighted>
1.4102

> <Gold.Chemscore.DEInternal.Weighted>
1.0516

> <Gold.Chemscore.Rot.Weighted>
5.2765

> <Gold.Chemscore.Internal.Correction.Weighted>
   9.000000E+99

> <Gold.Protein.RotatedTorsions>
[ 6907 6896 6895 6894 ] final -164.45 input  -60.11 | X-H torsion
[ 7974 7965 7964 7962 ] final   83.10 input  175.53 | X-H torsion
[ 8008 7997 7996 7995 ] final -112.65 input   59.86 | X-H torsion
[ 10167 10162 10161 10158 ] final -153.13 input  -65.29 | X-H torsion
[ 10718 10713 10712 10709 ] final  148.93 input   66.30 | X-H torsion
[ 10763 10752 10751 10750 ] final  -46.14 input  -60.55 | X-H torsion
[ 11005 11000 10999 10996 ] final   53.46 input  -57.11 | X-H torsion

> <Gold.Protein.ActiveResidues>
 VAL166  LYS551  ARG553  GLY616  TRP617  ASP618  TYR619  PRO620  LYS621  CYS622 
 ASP623  PHE694  ASN695  SER759  ASP760  ASP761  ALA762  ILE779  LEU786  VAL792 
 PHE793  MET794  SER795  GLU796  ALA797  LYS798  CYS799  TRP800  GLU811  SER814 

> <Gold.Protein.RotatedAtoms>
  151.4121  133.3724  159.2744 H   0  0  0  0  0  0  0  0  0  0  0  0  # atno 6907 bound_to 6896
  150.9355  134.8769  159.7590 H   0  0  0  0  0  0  0  0  0  0  0  0  # atno 6908 bound_to 6896
  152.5048  134.4068  159.9487 H   0  0  0  0  0  0  0  0  0  0  0  0  # atno 6909 bound_to 6896
  145.6163  139.2377  143.2163 H   0  0  0  0  0  0  0  0  0  0  0  0  # atno 7974 bound_to 7965
  155.0085  140.0394  157.2389 H   0  0  0  0  0  0  0  0  0  0  0  0  # atno 8008 bound_to 7997
  154.7481  140.2762  155.6292 H   0  0  0  0  0  0  0  0  0  0  0  0  # atno 8009 bound_to 7997
  156.2879  140.2652  156.2227 H   0  0  0  0  0  0  0  0  0  0  0  0  # atno 8010 bound_to 7997
  139.7123  143.9089  152.2472 H   0  0  0  0  0  0  0  0  0  0  0  0  # atno 10167 bound_to 10162
  157.3024  131.0873  151.1380 H   0  0  0  0  0  0  0  0  0  0  0  0  # atno 10718 bound_to 10713
  154.0401  135.6645  153.4789 H   0  0  0  0  0  0  0  0  0  0  0  0  # atno 10763 bound_to 10752
  153.0505  135.5087  154.7850 H   0  0  0  0  0  0  0  0  0  0  0  0  # atno 10764 bound_to 10752
  154.6823  135.3047  154.9561 H   0  0  0  0  0  0  0  0  0  0  0  0  # atno 10765 bound_to 10752
  140.0766  134.5397  155.8990 H   0  0  0  0  0  0  0  0  0  0  0  0  # atno 11005 bound_to 11000
  146.1465  140.6985  142.9342 LP  0  0  0  0  0  0  0  0  0  0  0  0  # atno 17320 bound_to 7965
  144.7249  140.4493  143.6980 LP  0  0  0  0  0  0  0  0  0  0  0  0  # atno 17321 bound_to 7965
  139.8962  144.6938  150.8716 LP  0  0  0  0  0  0  0  0  0  0  0  0  # atno 17342 bound_to 10162
  140.7736  143.3549  151.1942 LP  0  0  0  0  0  0  0  0  0  0  0  0  # atno 17343 bound_to 10162
  157.2733  130.6715  149.6030 LP  0  0  0  0  0  0  0  0  0  0  0  0  # atno 17370 bound_to 10713
  155.9672  130.4472  150.5571 LP  0  0  0  0  0  0  0  0  0  0  0  0  # atno 17371 bound_to 10713
  141.2031  133.6630  156.6046 LP  0  0  0  0  0  0  0  0  0  0  0  0  # atno 17394 bound_to 11000
  140.3549  134.7737  157.4493 LP  0  0  0  0  0  0  0  0  0  0  0  0  # atno 17395 bound_to 11000

$$$$
