#       Name:                AV-unprocessed.smi:1019
#       Creating user name   scv26
#       Creation time:       Fri Mar 27 02:40:46 2020


#       File generated by GOLD software.
#

@<TRIPOS>MOLECULE
AV-unprocessed.smi:1019
    47    49     1
SMALL
NO_CHARGES


@<TRIPOS>ATOM
      1 ****        -2.8436  -1.2294   0.2221 C.3            1 S1                 0.0000
      2 ****        -1.9675  -0.2685  -0.4881 N.4            1 S1                 1.0000
      3 ****        -2.4035   1.1330  -0.2661 C.3            1 S1                 0.0000
      4 ****        -1.8645   2.0757  -1.3285 C.ar           1 S1                 0.0000
      5 ****        -2.4163   2.0612  -2.6271 C.ar           1 S1                 0.0000
      6 ****        -1.9199   2.9315  -3.6171 C.ar           1 S1                 0.0000
      7 ****        -0.8718   3.8211  -3.3120 C.ar           1 S1                 0.0000
      8 ****        -0.3203   3.8409  -2.0164 C.ar           1 S1                 0.0000
      9 ****        -0.8162   2.9712  -1.0257 C.ar           1 S1                 0.0000
     10 ****        -0.5245  -0.4852  -0.2015 C.3            1 S1                 0.0000
     11 ****         0.0633  -1.6888  -0.9716 C.3            1 S1                 0.0000
     12 ****        -0.0418  -1.4337  -2.3578 O.3            1 S1                 0.0000
     13 ****         1.5489  -1.9521  -0.6546 C.3            1 S1                 0.0000
     14 ****         1.7781  -2.2183   0.7536 N.pl3          1 S1                 0.0000
     15 ****         1.6184  -3.3939   1.3912 C.2            1 S1                 0.0000
     16 ****         1.8718  -3.4185   2.6962 N.2            1 S1                 0.0000
     17 ****         2.2465  -2.1072   2.9336 C.ar           1 S1                 0.0000
     18 ****         2.6400  -1.4676   4.1308 C.ar           1 S1                 0.0000
     19 ****         2.9766  -0.0980   4.1317 C.ar           1 S1                 0.0000
     20 ****         2.9254   0.6520   2.9387 C.ar           1 S1                 0.0000
     21 ****         2.5372   0.0367   1.7333 C.ar           1 S1                 0.0000
     22 ****         2.2017  -1.3301   1.7368 C.ar           1 S1                 0.0000
     23 ****        -2.7724  -1.0971   1.3025 H              1 S1                 0.0000
     24 ****        -2.5824  -2.2604  -0.0126 H              1 S1                 0.0000
     25 ****        -3.8851  -1.0888  -0.0686 H              1 S1                 0.0000
     26 ****        -3.4923   1.1935  -0.3007 H              1 S1                 0.0000
     27 ****        -2.1066   1.4634   0.7308 H              1 S1                 0.0000
     28 ****        -3.2204   1.3812  -2.8684 H              1 S1                 0.0000
     29 ****        -2.3437   2.9174  -4.6105 H              1 S1                 0.0000
     30 ****        -0.4916   4.4885  -4.0717 H              1 S1                 0.0000
     31 ****         0.4830   4.5242  -1.7824 H              1 S1                 0.0000
     32 ****        -0.3867   2.9925  -0.0347 H              1 S1                 0.0000
     33 ****         0.0556   0.3981  -0.4678 H              1 S1                 0.0000
     34 ****        -0.4031  -0.6080   0.8751 H              1 S1                 0.0000
     35 ****        -0.5005  -2.5948  -0.7511 H              1 S1                 0.0000
     36 ****         0.3128  -2.1727  -2.8294 H              1 S1                 0.0000
     37 ****         1.9124  -2.8073  -1.2263 H              1 S1                 0.0000
     38 ****         2.1611  -1.0988  -0.9499 H              1 S1                 0.0000
     39 ****         1.2914  -4.2808   0.8683 H              1 S1                 0.0000
     40 ****         2.6823  -2.0313   5.0510 H              1 S1                 0.0000
     41 ****         3.2760   0.3794   5.0532 H              1 S1                 0.0000
     42 ****         3.1852   1.7005   2.9495 H              1 S1                 0.0000
     43 ****         2.4967   0.6096   0.8189 H              1 S1                 0.0000
     44 ****        -2.0894  -0.4406  -1.4762 H              1 S1                 0.0000
     45 ****         0.4738  -0.6085  -2.5883 LP             1 S1                 0.0000
     46 ****        -1.0024  -1.3063  -2.6047 LP             1 S1                 0.0000
     47 ****         1.8084  -4.1831   3.3375 LP             1 S1                 0.0000
@<TRIPOS>BOND
    1    1    2 1     
    2    1   23 1     
    3    1   24 1     
    4    1   25 1     
    5    2    3 1     
    6    2   10 1     
    7    2   44 1     
    8    3    4 1     
    9    3   26 1     
   10    3   27 1     
   11    4    9 ar    
   12    4    5 ar    
   13    5    6 ar    
   14    5   28 1     
   15    6    7 ar    
   16    6   29 1     
   17    7    8 ar    
   18    7   30 1     
   19    8    9 ar    
   20    8   31 1     
   21    9   32 1     
   22   10   11 1     
   23   10   33 1     
   24   10   34 1     
   25   11   12 1     
   26   11   13 1     
   27   11   35 1     
   28   12   36 1     
   29   13   14 1     
   30   13   37 1     
   31   13   38 1     
   32   14   22 1     
   33   14   15 1     
   34   15   16 2     
   35   15   39 1     
   36   16   17 1     
   37   17   22 ar    
   38   17   18 ar    
   39   18   19 ar    
   40   18   40 1     
   41   19   20 ar    
   42   19   41 1     
   43   20   21 ar    
   44   20   42 1     
   45   21   22 ar    
   46   21   43 1     
   47   12   45 1     
   48   12   46 1     
   49   16   47 1     
@<TRIPOS>SUBSTRUCTURE
      1 S1             1
@<TRIPOS>SET
LONE_PAIRS      STATIC     ATOMS    <user>   **** ""
3 45 46 47
DONOR_HYDROGENS      STATIC     ATOMS    <user>   **** ""
2 44 36
ATOM$BLUE        STATIC     ATOMS    COLORGROUP SYSTEM
3 45 46 47
ATOM$RED        STATIC     ATOMS    COLORGROUP SYSTEM
2 44 36
