AV-unprocessed.smi:3304|AV-procd|sdf|12698|dock10
  -GOLD-   2272019 33D 1   1.00000     0.00000
 Structure written by MMmdl.
 46 47  0  0  0  0  0  0  0  0  2 V2000
  145.6085  143.9693  153.2113 C   0  0  0  0  0  0  0  0  0  0  0  0
  145.8387  143.1794  154.4593 C   0  0  0  0  0  0  0  0  0  0  0  0
  146.8425  142.3116  154.7973 C   0  0  0  0  0  0  0  0  0  0  0  0
  148.0395  141.8855  153.9924 C   0  0  0  0  0  0  0  0  0  0  0  0
  149.0283  141.0735  154.8397 C   0  0  0  0  0  0  0  0  0  0  0  0
  149.9263  141.9606  155.6032 N   0  3  0  0  0  0  0  0  0  0  0  0
  150.1919  141.5041  156.9821 C   0  0  0  0  0  0  0  0  0  0  0  0
  151.4214  142.2070  157.5867 C   0  0  2  0  0  0  0  0  0  0  0  0
  151.6330  141.7800  159.0528 C   0  0  0  0  0  0  0  0  0  0  0  0
  152.8570  142.4714  159.6790 C   0  0  0  0  0  0  0  0  0  0  0  0
  152.7820  144.0076  159.5789 C   0  0  2  0  0  0  0  0  0  0  0  0
  151.7608  144.6149  160.5569 C   0  0  0  0  0  0  0  0  0  0  0  0
  152.5348  144.4406  158.1200 C   0  0  0  0  0  0  0  0  0  0  0  0
  151.3125  143.7443  157.4966 C   0  0  0  0  0  0  0  0  0  0  0  0
  146.4941  141.8895  156.1115 C   0  0  0  0  0  0  0  0  0  0  0  0
  145.3766  142.4411  156.5486 N   0  0  0  0  0  0  0  0  0  0  0  0
  144.9730  143.2349  155.5354 N   0  0  0  0  0  0  0  0  0  0  0  0
  143.7539  144.0071  155.6785 C   0  0  0  0  0  0  0  0  0  0  0  0
  146.3923  143.7867  152.4765 H   0  0  0  0  0  0  0  0  0  0  0  0
  145.5949  145.0380  153.4264 H   0  0  0  0  0  0  0  0  0  0  0  0
  144.6545  143.7035  152.7553 H   0  0  0  0  0  0  0  0  0  0  0  0
  147.7288  141.2934  153.1308 H   0  0  0  0  0  0  0  0  0  0  0  0
  148.5503  142.7574  153.5819 H   0  0  0  0  0  0  0  0  0  0  0  0
  148.4849  140.4311  155.5341 H   0  0  0  0  0  0  0  0  0  0  0  0
  149.6257  140.4238  154.1985 H   0  0  0  0  0  0  0  0  0  0  0  0
  150.8068  142.0283  155.1129 H   0  0  0  0  0  0  0  0  0  0  0  0
  149.3125  141.6781  157.6040 H   0  0  0  0  0  0  0  0  0  0  0  0
  150.3563  140.4260  156.9584 H   0  0  0  0  0  0  0  0  0  0  0  0
  152.3017  141.8924  157.0232 H   0  0  0  0  0  0  0  0  0  0  0  0
  150.7411  142.0058  159.6383 H   0  0  0  0  0  0  0  0  0  0  0  0
  151.7661  140.6989  159.1091 H   0  0  0  0  0  0  0  0  0  0  0  0
  152.9671  142.1658  160.7201 H   0  0  0  0  0  0  0  0  0  0  0  0
  153.7567  142.1257  159.1679 H   0  0  0  0  0  0  0  0  0  0  0  0
  153.7564  144.3998  159.8733 H   0  0  0  0  0  0  0  0  0  0  0  0
  150.7438  144.2844  160.3480 H   0  0  0  0  0  0  0  0  0  0  0  0
  151.7703  145.7039  160.5044 H   0  0  0  0  0  0  0  0  0  0  0  0
  151.9928  144.3363  161.5851 H   0  0  0  0  0  0  0  0  0  0  0  0
  152.4169  145.5233  158.0631 H   0  0  0  0  0  0  0  0  0  0  0  0
  153.4175  144.2029  157.5245 H   0  0  0  0  0  0  0  0  0  0  0  0
  151.2212  144.0557  156.4556 H   0  0  0  0  0  0  0  0  0  0  0  0
  150.4026  144.0821  157.9938 H   0  0  0  0  0  0  0  0  0  0  0  0
  147.0185  141.2001  156.7568 H   0  0  0  0  0  0  0  0  0  0  0  0
  143.9739  145.0672  155.5502 H   0  0  0  0  0  0  0  0  0  0  0  0
  143.3143  143.8563  156.6657 H   0  0  0  0  0  0  0  0  0  0  0  0
  143.0335  143.6976  154.9209 H   0  0  0  0  0  0  0  0  0  0  0  0
  149.5085  142.8793  155.6455 H   0  0  0  0  0  0  0  0  0  0  0  0
  1  2  1  0  0  0  0
  1 19  1  0  0  0  0
  1 20  1  0  0  0  0
  1 21  1  0  0  0  0
  2 17  1  0  0  0  0
  2  3  2  0  0  0  0
  3  4  1  0  0  0  0
  3 15  1  0  0  0  0
  4  5  1  0  0  0  0
  4 22  1  0  0  0  0
  4 23  1  0  0  0  0
  5  6  1  0  0  0  0
  5 24  1  0  0  0  0
  5 25  1  0  0  0  0
  6  7  1  0  0  0  0
  6 26  1  0  0  0  0
  6 46  1  0  0  0  0
  7  8  1  0  0  0  0
  7 27  1  0  0  0  0
  7 28  1  0  0  0  0
  8 14  1  0  0  0  0
  8  9  1  0  0  0  0
  8 29  1  0  0  0  0
  9 10  1  0  0  0  0
  9 30  1  0  0  0  0
  9 31  1  0  0  0  0
 10 11  1  0  0  0  0
 10 32  1  0  0  0  0
 10 33  1  0  0  0  0
 11 12  1  0  0  0  0
 11 13  1  0  0  0  0
 11 34  1  0  0  0  0
 12 35  1  0  0  0  0
 12 36  1  0  0  0  0
 12 37  1  0  0  0  0
 13 14  1  0  0  0  0
 13 38  1  0  0  0  0
 13 39  1  0  0  0  0
 14 40  1  0  0  0  0
 14 41  1  0  0  0  0
 15 16  2  0  0  0  0
 15 42  1  0  0  0  0
 16 17  1  0  0  0  0
 17 18  1  0  0  0  0
 18 43  1  0  0  0  0
 18 44  1  0  0  0  0
 18 45  1  0  0  0  0
M  CHG  1   6   1
M  END
> <s_m_source_file>
AV-unprocessed.smi

> <i_m_source_file_index>
3304

> <i_lp_mmshare_version>
43012

> <i_f3d_flags>
0

> <s_epik_input>
W0NIM11uMW5bY0hdYyhjMVtDSDNdKVtDSDJdW0NIMl1bTkhdW0NIMl1bQ0BASF0yW0NIMl1bQ0gyXVtDQEBIXShbQ0gzXSlbQ0gyXVtDSDJdMg==

> <s_epik_cmdline>
J2VwaWtfcHl0aG9uJywgJy1waCcsICc3LjAnLCAnLXRuJywgJzgnLCAnLW1hJywgJzIwMCcsICctbWV0YWxfYmluZGluZycsICctaW1hZScsICc8aW5maWxlLm1hZT4nLCAnLW9tYWUnLCAnPG91dGZpbGUubWFlPic=

> <r_lp_tautomer_probability>
1

> <r_epik_Ionization_Penalty>
0.000505313

> <r_epik_Ionization_Penalty_Charging>
0.000421171

> <r_epik_Ionization_Penalty_Neutral>
8.41424e-05

> <r_epik_State_Penalty>
-0

> <r_epik_Charging_Adjusted_Penalty>
0.000421171

> <i_epik_Tot_Q>
1

> <i_epik_Tot_abs_Q>
1

> <r_epik_Metal_State_Penalty>
-0

> <b_epik_Metal_Only>
0

> <s_lp_Force_Field>
OPLS_2005

> <r_lp_Energy>
12.247

> <b_lp_Chiralities_Consistent>
1

> <s_lp_Variant>
AV-unprocessed.smi:3304-2

> <Gold.Version>
5.8.1

> <Gold.Id.Protein>
6NUR|6NUR_protein|mol2

> <Gold.PLP.Fitness>
50.1447

> <Gold.PLP.PLP>
-45.2695

> <Gold.PLP.part.hbond>
-1.0000

> <Gold.PLP.part.metal>
0.0000

> <Gold.PLP.part.buried>
-3.8144

> <Gold.PLP.part.nonpolar>
-40.3197

> <Gold.PLP.part.repulsive>
0.2372

> <Gold.PLP.ligand.clash>
0.0000

> <Gold.PLP.ligand.torsion>
0.5721

> <Gold.PLP.Chemscore.Hbond>
2.0000

> <Gold.PLP.Chemscore.CHOScore>
0.0000

> <Gold.PLP.Chemscore.Metal>
0.0000

> <Gold.Chemscore.Hbonds>
donor molecule, donor type, donor heavy atom, donor atom, acceptor molecule, acceptor atom, score
      L1  H     6    46       P1  8028  2.00

> <Gold.PLP.Chemscore.Internal.Correction>
0.0194

> <Gold.Rescore>
     Score         DG    S(hbond)    S(metal)    S(lipo)     H(rot)  DE(clash)    DE(int)     intcor
     19.26     -19.85       0.99        0.00     125.82       1.43       0.04       0.55       ----

> <Gold.Chemscore.Fitness>
19.2624

> <Gold.Chemscore.DG>
-19.8514

> <Gold.Chemscore.ZeroCoef>
-5.4800

> <Gold.Chemscore.Hbond>
0.9937

> <Gold.Chemscore.Metal>
0.0000

> <Gold.Chemscore.Lipo>
125.8210

> <Gold.Chemscore.Internal_Hbond>
0.0000

> <Gold.Chemscore.DEClash>
0.0373

> <Gold.Chemscore.DEInternal>
0.5517

> <Gold.Chemscore.Rot>
1.4331

> <Gold.Chemscore.Internal.Correction>
   9.000000E+99

> <Gold.Chemscore.Hbonds>
donor molecule, donor type, donor heavy atom, donor atom, acceptor molecule, acceptor atom, score
      L1  H     6    46       P1  8028  0.99

> <Gold.Chemscore.Hbond.Weighted>
-3.3191

> <Gold.Chemscore.Metal.Weighted>
-0.0000

> <Gold.Chemscore.Lipo.Weighted>
-14.7211

> <Gold.Chemscore.Internal_Hbond.Weighted>
0.0000

> <Gold.Chemscore.DEClash.Weighted>
0.0373

> <Gold.Chemscore.DEInternal.Weighted>
0.5517

> <Gold.Chemscore.Rot.Weighted>
3.6688

> <Gold.Chemscore.Internal.Correction.Weighted>
   9.000000E+99

> <Gold.Protein.RotatedTorsions>
[ 6907 6896 6895 6894 ] final    5.54 input  -60.11 | X-H torsion
[ 7974 7965 7964 7962 ] final  -10.14 input  175.53 | X-H torsion
[ 8008 7997 7996 7995 ] final   51.80 input   59.86 | X-H torsion
[ 10167 10162 10161 10158 ] final   14.61 input  -65.29 | X-H torsion
[ 10718 10713 10712 10709 ] final  134.45 input   66.30 | X-H torsion
[ 10763 10752 10751 10750 ] final   26.92 input  -60.55 | X-H torsion
[ 11005 11000 10999 10996 ] final -141.53 input  -57.11 | X-H torsion

> <Gold.Protein.ActiveResidues>
 VAL166  LYS551  ARG553  GLY616  TRP617  ASP618  TYR619  PRO620  LYS621  CYS622 
 ASP623  PHE694  ASN695  SER759  ASP760  ASP761  ALA762  ILE779  LEU786  VAL792 
 PHE793  MET794  SER795  GLU796  ALA797  LYS798  CYS799  TRP800  GLU811  SER814 

> <Gold.Protein.RotatedAtoms>
  151.6591  135.0991  160.0175 H   0  0  0  0  0  0  0  0  0  0  0  0  # atno 6907 bound_to 6896
  152.3957  133.6739  159.6283 H   0  0  0  0  0  0  0  0  0  0  0  0  # atno 6908 bound_to 6896
  150.7865  133.8795  159.3323 H   0  0  0  0  0  0  0  0  0  0  0  0  # atno 6909 bound_to 6896
  146.2230  140.2720  142.8357 H   0  0  0  0  0  0  0  0  0  0  0  0  # atno 7974 bound_to 7965
  155.4413  140.3454  155.4290 H   0  0  0  0  0  0  0  0  0  0  0  0  # atno 8008 bound_to 7997
  156.1277  140.1505  156.9142 H   0  0  0  0  0  0  0  0  0  0  0  0  # atno 8009 bound_to 7997
  154.4870  140.0852  156.7490 H   0  0  0  0  0  0  0  0  0  0  0  0  # atno 8010 bound_to 7997
  140.5924  143.8769  150.6886 H   0  0  0  0  0  0  0  0  0  0  0  0  # atno 10167 bound_to 10162
  157.4671  131.1077  150.9849 H   0  0  0  0  0  0  0  0  0  0  0  0  # atno 10718 bound_to 10713
  153.0590  135.6549  154.0508 H   0  0  0  0  0  0  0  0  0  0  0  0  # atno 10763 bound_to 10752
  154.0179  135.2922  155.3386 H   0  0  0  0  0  0  0  0  0  0  0  0  # atno 10764 bound_to 10752
  154.6919  135.5279  153.8473 H   0  0  0  0  0  0  0  0  0  0  0  0  # atno 10765 bound_to 10752
  140.8315  134.2511  157.4854 H   0  0  0  0  0  0  0  0  0  0  0  0  # atno 11005 bound_to 11000
  144.9261  140.7922  143.5718 LP  0  0  0  0  0  0  0  0  0  0  0  0  # atno 17320 bound_to 7965
  145.2660  139.1973  143.4866 LP  0  0  0  0  0  0  0  0  0  0  0  0  # atno 17321 bound_to 7965
  140.2295  143.3746  152.1577 LP  0  0  0  0  0  0  0  0  0  0  0  0  # atno 17342 bound_to 10162
  139.5236  144.7073  151.5314 LP  0  0  0  0  0  0  0  0  0  0  0  0  # atno 17343 bound_to 10162
  157.0626  130.5831  149.5388 LP  0  0  0  0  0  0  0  0  0  0  0  0  # atno 17370 bound_to 10713
  156.0055  130.5141  150.7816 LP  0  0  0  0  0  0  0  0  0  0  0  0  # atno 17371 bound_to 10713
  139.8705  134.9588  156.4313 LP  0  0  0  0  0  0  0  0  0  0  0  0  # atno 17394 bound_to 11000
  140.8993  133.7791  155.9661 LP  0  0  0  0  0  0  0  0  0  0  0  0  # atno 17395 bound_to 11000

$$$$
