#       Name:                AV-unprocessed.smi:2052
#       Creating user name   scv26
#       Creation time:       Fri Mar 27 10:59:34 2020


#       File generated by GOLD software.
#

@<TRIPOS>MOLECULE
AV-unprocessed.smi:2052
    47    48     1
SMALL
NO_CHARGES


@<TRIPOS>ATOM
      1 ****        -2.1003  -3.7567  -4.4342 C.3            1 S1                 0.0000
      2 ****        -2.9107  -4.2932  -2.9030 S.3            1 S1                 0.0000
      3 ****        -3.1106  -2.7042  -2.0430 C.3            1 S1                 0.0000
      4 ****        -4.1432  -2.8372  -0.9121 C.3            1 S1                 0.0000
      5 ****        -1.7749  -2.1673  -1.5140 C.2            1 S1                 0.0000
      6 ****        -1.2731  -2.6398  -0.4936 O.2            1 S1                 0.0000
      7 ****        -1.2054  -1.1784  -2.2206 N.am           1 S1                 0.0000
      8 ****         0.0542  -0.5274  -1.8768 C.3            1 S1                 0.0000
      9 ****        -0.0593   0.4850  -0.7462 C.ar           1 S1                 0.0000
     10 ****        -1.2091   1.2863  -0.5858 C.ar           1 S1                 0.0000
     11 ****        -1.2437   2.1986   0.4841 C.ar           1 S1                 0.0000
     12 ****        -0.2282   2.3521   1.3591 N.ar           1 S1                 0.0000
     13 ****         0.8894   1.5988   1.2076 C.ar           1 S1                 0.0000
     14 ****         1.9452   1.7763   2.1291 N.3            1 S1                 0.0000
     15 ****         3.2662   2.0033   1.5475 C.3            1 S1                 0.0000
     16 ****         4.3571   1.8716   2.6245 C.3            1 S1                 0.0000
     17 ****         4.0738   2.7486   3.7096 O.3            1 S1                 0.0000
     18 ****         2.8332   2.4333   4.3325 C.3            1 S1                 0.0000
     19 ****         1.6889   2.5895   3.3169 C.3            1 S1                 0.0000
     20 ****         1.0060   0.6503   0.1629 C.ar           1 S1                 0.0000
     21 ****        -1.9552  -4.6089  -5.0981 H              1 S1                 0.0000
     22 ****        -1.1252  -3.3185  -4.2227 H              1 S1                 0.0000
     23 ****        -2.7119  -3.0169  -4.9508 H              1 S1                 0.0000
     24 ****        -3.5100  -1.9928  -2.7675 H              1 S1                 0.0000
     25 ****        -4.2673  -1.8961  -0.3749 H              1 S1                 0.0000
     26 ****        -3.8515  -3.5993  -0.1884 H              1 S1                 0.0000
     27 ****        -5.1192  -3.1171  -1.3092 H              1 S1                 0.0000
     28 ****        -1.6812  -0.8479  -3.0473 H              1 S1                 0.0000
     29 ****         0.8021  -1.2825  -1.6291 H              1 S1                 0.0000
     30 ****         0.4215  -0.0091  -2.7626 H              1 S1                 0.0000
     31 ****        -2.0493   1.2067  -1.2596 H              1 S1                 0.0000
     32 ****        -2.1099   2.8241   0.6411 H              1 S1                 0.0000
     33 ****         3.4811   1.3033   0.7415 H              1 S1                 0.0000
     34 ****         3.2904   3.0035   1.1134 H              1 S1                 0.0000
     35 ****         4.4275   0.8431   2.9825 H              1 S1                 0.0000
     36 ****         5.3300   2.1291   2.2056 H              1 S1                 0.0000
     37 ****         2.8619   1.4187   4.7335 H              1 S1                 0.0000
     38 ****         2.6789   3.1049   5.1770 H              1 S1                 0.0000
     39 ****         1.5905   3.6357   3.0240 H              1 S1                 0.0000
     40 ****         0.7496   2.2915   3.7844 H              1 S1                 0.0000
     41 ****         1.8897   0.0380   0.0626 H              1 S1                 0.0000
     42 ****        -1.7367  -3.3784  -0.0042 LP             1 S1                 0.0000
     43 ****        -0.4019  -2.2849  -0.1543 LP             1 S1                 0.0000
     44 ****        -0.2985   3.0112   2.1079 LP             1 S1                 0.0000
     45 ****         1.9747   0.8503   2.5053 LP             1 S1                 0.0000
     46 ****         4.0345   3.6869   3.3660 LP             1 S1                 0.0000
     47 ****         4.8052   2.6722   4.3873 LP             1 S1                 0.0000
@<TRIPOS>BOND
    1    1    2 1     
    2    1   21 1     
    3    1   22 1     
    4    1   23 1     
    5    2    3 1     
    6    3    4 1     
    7    3    5 1     
    8    3   24 1     
    9    4   25 1     
   10    4   26 1     
   11    4   27 1     
   12    5    6 2     
   13    5    7 am    
   14    7    8 1     
   15    7   28 1     
   16    8    9 1     
   17    8   29 1     
   18    8   30 1     
   19    9   20 ar    
   20    9   10 ar    
   21   10   11 ar    
   22   10   31 1     
   23   11   12 ar    
   24   11   32 1     
   25   12   13 ar    
   26   13   14 1     
   27   13   20 ar    
   28   14   19 1     
   29   14   15 1     
   30   15   16 1     
   31   15   33 1     
   32   15   34 1     
   33   16   17 1     
   34   16   35 1     
   35   16   36 1     
   36   17   18 1     
   37   18   19 1     
   38   18   37 1     
   39   18   38 1     
   40   19   39 1     
   41   19   40 1     
   42   20   41 1     
   43    6   42 1     
   44    6   43 1     
   45   12   44 1     
   46   14   45 1     
   47   17   46 1     
   48   17   47 1     
@<TRIPOS>SUBSTRUCTURE
      1 S1             1
@<TRIPOS>SET
LONE_PAIRS      STATIC     ATOMS    <user>   **** ""
6 42 43 44 45 46 47
DONOR_HYDROGENS      STATIC     ATOMS    <user>   **** ""
1 28
ATOM$BLUE        STATIC     ATOMS    COLORGROUP SYSTEM
6 42 43 44 45 46 47
ATOM$RED        STATIC     ATOMS    COLORGROUP SYSTEM
1 28
