AV-unprocessed.smi:1111|AV-procd|sdf|4795|dock4
  -GOLD-   22720 3343D 1   1.00000     0.00000
 Structure written by MMmdl.
 33 34  0  0  0  0  0  0  0  0  2 V2000
  152.7731  138.5350  155.1345 C   0  0  0  0  0  0  0  0  0  0  0  0
  151.7896  138.9861  156.2354 C   0  0  2  0  0  0  0  0  0  0  0  0
  151.0642  140.1939  155.8175 N   0  0  0  0  0  0  0  0  0  0  0  0
  150.1273  140.3143  154.8602 C   0  0  0  0  0  0  0  0  0  0  0  0
  149.7458  139.3867  154.1479 O   0  0  0  0  0  0  0  0  0  0  0  0
  149.5238  141.7066  154.6755 C   0  0  0  0  0  0  0  0  0  0  0  0
  148.0749  141.6361  154.4664 N   0  0  0  0  0  0  0  0  0  0  0  0
  147.0982  142.2775  155.1849 C   0  0  0  0  0  0  0  0  0  0  0  0
  145.8995  141.9117  154.6283 C   0  0  0  0  0  0  0  0  0  0  0  0
  146.1946  141.0648  153.5934 N   0  3  0  0  0  0  0  0  0  0  0  0
  147.5176  140.8974  153.4972 C   0  0  0  0  0  0  0  0  0  0  0  0
  152.5687  139.3429  157.5241 C   0  0  0  0  0  0  0  0  0  0  0  0
  151.6021  139.4118  158.7135 C   0  0  0  0  0  0  0  0  0  0  0  0
  150.2839  138.1946  158.3531 S   0  0  0  0  0  0  0  0  0  0  0  0
  150.4903  136.9858  159.1646 O   0  0  0  0  0  0  0  0  0  0  0  0
  148.9876  138.8895  158.3422 O   0  0  0  0  0  0  0  0  0  0  0  0
  150.8082  137.8579  156.6287 C   0  0  0  0  0  0  0  0  0  0  0  0
  153.3901  137.7021  155.4732 H   0  0  0  0  0  0  0  0  0  0  0  0
  153.4460  139.3443  154.8492 H   0  0  0  0  0  0  0  0  0  0  0  0
  152.2565  138.2000  154.2353 H   0  0  0  0  0  0  0  0  0  0  0  0
  151.2904  141.0314  156.3342 H   0  0  0  0  0  0  0  0  0  0  0  0
  149.7174  142.3237  155.5545 H   0  0  0  0  0  0  0  0  0  0  0  0
  149.9744  142.2097  153.8184 H   0  0  0  0  0  0  0  0  0  0  0  0
  147.3219  142.9286  156.0175 H   0  0  0  0  0  0  0  0  0  0  0  0
  144.8858  142.1837  154.8843 H   0  0  0  0  0  0  0  0  0  0  0  0
  148.0348  140.2881  152.7770 H   0  0  0  0  0  0  0  0  0  0  0  0
  153.2954  138.5553  157.7289 H   0  0  0  0  0  0  0  0  0  0  0  0
  153.1390  140.2671  157.4201 H   0  0  0  0  0  0  0  0  0  0  0  0
  152.0814  139.1782  159.6643 H   0  0  0  0  0  0  0  0  0  0  0  0
  151.1414  140.3972  158.7883 H   0  0  0  0  0  0  0  0  0  0  0  0
  149.9349  137.7651  155.9836 H   0  0  0  0  0  0  0  0  0  0  0  0
  151.3172  136.8935  156.6323 H   0  0  0  0  0  0  0  0  0  0  0  0
  145.5123  140.6269  152.9868 H   0  0  0  0  0  0  0  0  0  0  0  0
  1  2  1  0  0  0  0
  1 18  1  0  0  0  0
  1 19  1  0  0  0  0
  1 20  1  0  0  0  0
  2 17  1  0  0  0  0
  2  3  1  0  0  0  0
  2 12  1  0  0  0  0
  3  4  1  0  0  0  0
  3 21  1  0  0  0  0
  4  5  2  0  0  0  0
  4  6  1  0  0  0  0
  6  7  1  0  0  0  0
  6 22  1  0  0  0  0
  6 23  1  0  0  0  0
  7 11  1  0  0  0  0
  7  8  1  0  0  0  0
  8  9  2  0  0  0  0
  8 24  1  0  0  0  0
  9 10  1  0  0  0  0
  9 25  1  0  0  0  0
 10 11  2  0  0  0  0
 10 33  1  0  0  0  0
 11 26  1  0  0  0  0
 12 13  1  0  0  0  0
 12 27  1  0  0  0  0
 12 28  1  0  0  0  0
 13 14  1  0  0  0  0
 13 29  1  0  0  0  0
 13 30  1  0  0  0  0
 14 15  2  0  0  0  0
 14 16  2  0  0  0  0
 14 17  1  0  0  0  0
 17 31  1  0  0  0  0
 17 32  1  0  0  0  0
M  CHG  1  10   1
M  END
> <s_m_source_file>
AV-unprocessed.smi

> <i_m_source_file_index>
1111

> <i_lp_mmshare_version>
43012

> <i_f3d_flags>
0

> <s_epik_input>
Tz1TKD1PKShbQ0gyXTEpW0NIMl1bQ0gyXVtDQEBdMShbQ0gzXSlbTkhdQyg9TylbQ0gyXW4yW2NIXVtjSF1uW2NIXTI=

> <s_epik_cmdline>
J2VwaWtfcHl0aG9uJywgJy1waCcsICc3LjAnLCAnLXRuJywgJzgnLCAnLW1hJywgJzIwMCcsICctbWV0YWxfYmluZGluZycsICctaW1hZScsICc8aW5maWxlLm1hZT4nLCAnLW9tYWUnLCAnPG91dGZpbGUubWFlPic=

> <r_lp_tautomer_probability>
1

> <r_epik_Ionization_Penalty>
0.638881

> <r_epik_Ionization_Penalty_Charging>
0

> <r_epik_Ionization_Penalty_Neutral>
0.638881

> <r_epik_State_Penalty>
0.656385

> <r_epik_Charging_Adjusted_Penalty>
0.656385

> <i_epik_Tot_Q>
1

> <i_epik_Tot_abs_Q>
1

> <r_epik_Metal_State_Penalty>
0.832701

> <b_epik_Metal_Only>
0

> <s_lp_Force_Field>
OPLS_2005

> <r_lp_Energy>
7.98032

> <b_lp_Chiralities_Consistent>
1

> <s_lp_Variant>
AV-unprocessed.smi:1111-4

> <Gold.Version>
5.8.1

> <Gold.Id.Protein>
6NUR|6NUR_protein|mol2

> <Gold.PLP.Fitness>
38.7067

> <Gold.PLP.PLP>
-25.9002

> <Gold.PLP.part.hbond>
-2.0223

> <Gold.PLP.part.metal>
0.0000

> <Gold.PLP.part.buried>
0.9946

> <Gold.PLP.part.nonpolar>
-22.7283

> <Gold.PLP.part.repulsive>
0.9701

> <Gold.PLP.ligand.clash>
0.0000

> <Gold.PLP.ligand.torsion>
0.3760

> <Gold.PLP.Chemscore.Hbond>
2.9840

> <Gold.PLP.Chemscore.CHOScore>
1.5302

> <Gold.PLP.Chemscore.Metal>
0.0000

> <Gold.Chemscore.Hbonds>
donor molecule, donor type, donor heavy atom, donor atom, acceptor molecule, acceptor atom, score
      L1  H    10    33       P1 10175  1.89
      P1  H  6896  6908       L1    15  0.78
      L1  C     8    24       P1  8028  0.55
      L1  C    11    26       P1  7957  1.00

> <Gold.PLP.Chemscore.Internal.Correction>
0.0158

> <Gold.Rescore>
     Score         DG    S(hbond)    S(metal)    S(lipo)     H(rot)  DE(clash)    DE(int)     intcor
     10.63     -12.42       1.97        0.00      42.14       1.78       0.10       1.69       ----

> <Gold.Chemscore.Fitness>
10.6267

> <Gold.Chemscore.DG>
-12.4217

> <Gold.Chemscore.ZeroCoef>
-5.4800

> <Gold.Chemscore.Hbond>
1.9657

> <Gold.Chemscore.Metal>
0.0000

> <Gold.Chemscore.Lipo>
42.1358

> <Gold.Chemscore.Internal_Hbond>
0.0000

> <Gold.Chemscore.DEClash>
0.1034

> <Gold.Chemscore.DEInternal>
1.6916

> <Gold.Chemscore.Rot>
1.7787

> <Gold.Chemscore.Internal.Correction>
   9.000000E+99

> <Gold.Chemscore.Hbonds>
donor molecule, donor type, donor heavy atom, donor atom, acceptor molecule, acceptor atom, score
      L1  H    10    33       P1 10175  0.68
      P1  H  6896  6908       L1    15  0.77

> <Gold.Chemscore.Hbond.Weighted>
-6.5654

> <Gold.Chemscore.Metal.Weighted>
-0.0000

> <Gold.Chemscore.Lipo.Weighted>
-4.9299

> <Gold.Chemscore.Internal_Hbond.Weighted>
0.0000

> <Gold.Chemscore.DEClash.Weighted>
0.1034

> <Gold.Chemscore.DEInternal.Weighted>
1.6916

> <Gold.Chemscore.Rot.Weighted>
4.5536

> <Gold.Chemscore.Internal.Correction.Weighted>
   9.000000E+99

> <Gold.Protein.RotatedTorsions>
[ 6907 6896 6895 6894 ] final -152.61 input  -60.11 | X-H torsion
[ 7974 7965 7964 7962 ] final  -25.76 input  175.53 | X-H torsion
[ 8008 7997 7996 7995 ] final   64.83 input   59.86 | X-H torsion
[ 10167 10162 10161 10158 ] final -106.60 input  -65.29 | X-H torsion
[ 10718 10713 10712 10709 ] final    6.52 input   66.30 | X-H torsion
[ 10763 10752 10751 10750 ] final  -95.63 input  -60.55 | X-H torsion
[ 11005 11000 10999 10996 ] final  110.12 input  -57.11 | X-H torsion

> <Gold.Protein.ActiveResidues>
 VAL166  LYS551  ARG553  GLY616  TRP617  ASP618  TYR619  PRO620  LYS621  CYS622 
 ASP623  PHE694  ASN695  SER759  ASP760  ASP761  ALA762  ILE779  LEU786  VAL792 
 PHE793  MET794  SER795  GLU796  ALA797  LYS798  CYS799  TRP800  GLU811  SER814 

> <Gold.Protein.RotatedAtoms>
  151.2303  133.4454  159.2603 H   0  0  0  0  0  0  0  0  0  0  0  0  # atno 6907 bound_to 6896
  151.0801  134.9853  159.8362 H   0  0  0  0  0  0  0  0  0  0  0  0  # atno 6908 bound_to 6896
  152.5423  134.2243  159.8853 H   0  0  0  0  0  0  0  0  0  0  0  0  # atno 6909 bound_to 6896
  146.1470  140.4929  142.8627 H   0  0  0  0  0  0  0  0  0  0  0  0  # atno 7974 bound_to 7965
  155.6523  140.3497  155.4752 H   0  0  0  0  0  0  0  0  0  0  0  0  # atno 8008 bound_to 7997
  155.9838  140.1180  157.0725 H   0  0  0  0  0  0  0  0  0  0  0  0  # atno 8009 bound_to 7997
  154.4199  140.1133  156.5457 H   0  0  0  0  0  0  0  0  0  0  0  0  # atno 8010 bound_to 7997
  140.1861  143.3929  152.1244 H   0  0  0  0  0  0  0  0  0  0  0  0  # atno 10167 bound_to 10162
  156.9235  130.5799  149.5648 H   0  0  0  0  0  0  0  0  0  0  0  0  # atno 10718 bound_to 10713
  154.7166  135.5113  153.8747 H   0  0  0  0  0  0  0  0  0  0  0  0  # atno 10763 bound_to 10752
  153.0826  135.6636  154.0023 H   0  0  0  0  0  0  0  0  0  0  0  0  # atno 10764 bound_to 10752
  153.9855  135.3025  155.3396 H   0  0  0  0  0  0  0  0  0  0  0  0  # atno 10765 bound_to 10752
  139.8875  134.9476  156.6230 H   0  0  0  0  0  0  0  0  0  0  0  0  # atno 11005 bound_to 11000
  144.7858  140.5933  143.6575 LP  0  0  0  0  0  0  0  0  0  0  0  0  # atno 17320 bound_to 7965
  145.4914  139.1488  143.3707 LP  0  0  0  0  0  0  0  0  0  0  0  0  # atno 17321 bound_to 7965
  139.5276  144.7121  151.5174 LP  0  0  0  0  0  0  0  0  0  0  0  0  # atno 17342 bound_to 10162
  140.6487  143.8740  150.6764 LP  0  0  0  0  0  0  0  0  0  0  0  0  # atno 17343 bound_to 10162
  156.0480  130.5554  150.8925 LP  0  0  0  0  0  0  0  0  0  0  0  0  # atno 17370 bound_to 10713
  157.5893  131.0945  150.9145 LP  0  0  0  0  0  0  0  0  0  0  0  0  # atno 17371 bound_to 10713
  140.7724  133.8727  155.8503 LP  0  0  0  0  0  0  0  0  0  0  0  0  # atno 17394 bound_to 11000
  140.9830  134.1380  157.4477 LP  0  0  0  0  0  0  0  0  0  0  0  0  # atno 17395 bound_to 11000

$$$$
