AV-unprocessed.smi:1793|AV-procd|sdf|7229|dock1
  -GOLD-   22720 8473D 1   1.00000     0.00000
 Structure written by MMmdl.
 47 49  0  0  0  0  0  0  0  0  2 V2000
  150.7256  136.8386  156.6896 C   0  0  0  0  0  0  0  0  0  0  0  0
  151.0807  137.0399  155.2092 C   0  0  1  0  0  0  0  0  0  0  0  0
  150.3389  136.0685  154.4070 N   0  0  0  0  0  0  0  0  0  0  0  0
  150.2856  134.7464  154.6228 C   0  0  0  0  0  0  0  0  0  0  0  0
  150.8693  134.1764  155.5440 O   0  0  0  0  0  0  0  0  0  0  0  0
  149.5037  134.1401  153.7143 N   0  0  0  0  0  0  0  0  0  0  0  0
  149.1338  132.7668  153.6595 C   0  0  0  0  0  0  0  0  0  0  0  0
  149.9346  131.7698  154.2739 C   0  0  0  0  0  0  0  0  0  0  0  0
  149.5881  130.4117  154.1462 C   0  0  0  0  0  0  0  0  0  0  0  0
  148.4543  130.0677  153.3912 C   0  0  0  0  0  0  0  0  0  0  0  0
  147.7198  131.0377  152.8090 N   0  3  0  0  0  0  0  0  0  0  0  0
  147.9916  132.3633  152.9073 C   0  0  0  0  0  0  0  0  0  0  0  0
  147.1214  133.2623  152.2480 N   0  0  0  0  0  0  0  0  0  0  0  0
  146.1838  132.7789  151.2410 C   0  0  0  0  0  0  0  0  0  0  0  0
  145.2087  133.9320  151.0197 C   0  0  0  0  0  0  0  0  0  0  0  0
  145.1059  134.5471  152.4119 C   0  0  0  0  0  0  0  0  0  0  0  0
  146.5078  134.3532  152.9991 C   0  0  0  0  0  0  0  0  0  0  0  0
  150.7663  138.4710  154.7313 C   0  0  2  0  0  0  0  0  0  0  0  0
  151.2426  139.5818  155.6677 C   0  0  0  0  0  0  0  0  0  0  0  0
  150.3427  140.7512  155.3057 C   0  0  0  0  0  0  0  0  0  0  0  0
  149.1483  140.0976  154.6037 C   0  0  0  0  0  0  0  0  0  0  0  0
  149.3656  138.6960  154.7037 O   0  0  0  0  0  0  0  0  0  0  0  0
  151.2847  137.5262  157.3249 H   0  0  0  0  0  0  0  0  0  0  0  0
  150.9637  135.8256  157.0162 H   0  0  0  0  0  0  0  0  0  0  0  0
  149.6636  137.0073  156.8712 H   0  0  0  0  0  0  0  0  0  0  0  0
  152.1542  136.8744  155.1028 H   0  0  0  0  0  0  0  0  0  0  0  0
  149.8238  136.4398  153.6223 H   0  0  0  0  0  0  0  0  0  0  0  0
  149.0219  134.7477  153.0679 H   0  0  0  0  0  0  0  0  0  0  0  0
  150.8274  132.0247  154.8249 H   0  0  0  0  0  0  0  0  0  0  0  0
  150.1921  129.6455  154.6102 H   0  0  0  0  0  0  0  0  0  0  0  0
  148.1166  129.0540  153.2314 H   0  0  0  0  0  0  0  0  0  0  0  0
  146.6953  132.4991  150.3197 H   0  0  0  0  0  0  0  0  0  0  0  0
  145.6421  131.9082  151.6129 H   0  0  0  0  0  0  0  0  0  0  0  0
  145.6360  134.6551  150.3236 H   0  0  0  0  0  0  0  0  0  0  0  0
  144.2466  133.6058  150.6233 H   0  0  0  0  0  0  0  0  0  0  0  0
  144.7947  135.5918  152.3949 H   0  0  0  0  0  0  0  0  0  0  0  0
  144.3796  133.9903  153.0053 H   0  0  0  0  0  0  0  0  0  0  0  0
  146.4636  134.1453  154.0688 H   0  0  0  0  0  0  0  0  0  0  0  0
  147.1006  135.2559  152.8509 H   0  0  0  0  0  0  0  0  0  0  0  0
  151.1691  138.6361  153.7300 H   0  0  0  0  0  0  0  0  0  0  0  0
  151.0706  139.2961  156.7065 H   0  0  0  0  0  0  0  0  0  0  0  0
  152.3024  139.8105  155.5519 H   0  0  0  0  0  0  0  0  0  0  0  0
  150.0428  141.3116  156.1918 H   0  0  0  0  0  0  0  0  0  0  0  0
  150.8490  141.4395  154.6280 H   0  0  0  0  0  0  0  0  0  0  0  0
  148.1965  140.3725  155.0585 H   0  0  0  0  0  0  0  0  0  0  0  0
  149.1176  140.3840  153.5517 H   0  0  0  0  0  0  0  0  0  0  0  0
  146.9035  130.7555  152.2660 H   0  0  0  0  0  0  0  0  0  0  0  0
  1  2  1  0  0  0  0
  1 23  1  0  0  0  0
  1 24  1  0  0  0  0
  1 25  1  0  0  0  0
  2  3  1  0  0  0  0
  2 18  1  0  0  0  0
  2 26  1  0  0  0  0
  3  4  1  0  0  0  0
  3 27  1  0  0  0  0
  4  5  2  0  0  0  0
  4  6  1  0  0  0  0
  6  7  1  0  0  0  0
  6 28  1  0  0  0  0
  7 12  1  0  0  0  0
  7  8  2  0  0  0  0
  8  9  1  0  0  0  0
  8 29  1  0  0  0  0
  9 10  2  0  0  0  0
  9 30  1  0  0  0  0
 10 11  1  0  0  0  0
 10 31  1  0  0  0  0
 11 12  2  0  0  0  0
 11 47  1  0  0  0  0
 12 13  1  0  0  0  0
 13 17  1  0  0  0  0
 13 14  1  0  0  0  0
 14 15  1  0  0  0  0
 14 32  1  0  0  0  0
 14 33  1  0  0  0  0
 15 16  1  0  0  0  0
 15 34  1  0  0  0  0
 15 35  1  0  0  0  0
 16 17  1  0  0  0  0
 16 36  1  0  0  0  0
 16 37  1  0  0  0  0
 17 38  1  0  0  0  0
 17 39  1  0  0  0  0
 18 22  1  0  0  0  0
 18 19  1  0  0  0  0
 18 40  1  0  0  0  0
 19 20  1  0  0  0  0
 19 41  1  0  0  0  0
 19 42  1  0  0  0  0
 20 21  1  0  0  0  0
 20 43  1  0  0  0  0
 20 44  1  0  0  0  0
 21 22  1  0  0  0  0
 21 45  1  0  0  0  0
 21 46  1  0  0  0  0
M  CHG  1  11   1
M  END
> <s_m_source_file>
AV-unprocessed.smi

> <i_m_source_file_index>
1793

> <i_lp_mmshare_version>
43012

> <i_f3d_flags>
0

> <s_epik_input>
TzFbQ0gyXVtDSDJdW0NIMl1bQ0BIXTFbQ0BIXShbQ0gzXSlbTkhdQyg9TylbTkhdYzJbY0hdW2NIXVtjSF1uYzJOM1tDSDJdW0NIMl1bQ0gyXVtDSDJdMw==

> <s_epik_cmdline>
J2VwaWtfcHl0aG9uJywgJy1waCcsICc3LjAnLCAnLXRuJywgJzgnLCAnLW1hJywgJzIwMCcsICctbWV0YWxfYmluZGluZycsICctaW1hZScsICc8aW5maWxlLm1hZT4nLCAnLW9tYWUnLCAnPG91dGZpbGUubWFlPic=

> <r_lp_tautomer_probability>
0.999994

> <r_epik_Ionization_Penalty>
1.11092

> <r_epik_Ionization_Penalty_Charging>
1.1109

> <r_epik_Ionization_Penalty_Neutral>
1.9363e-05

> <r_epik_State_Penalty>
1.16888

> <r_epik_Charging_Adjusted_Penalty>
2.27978

> <i_epik_Tot_Q>
1

> <i_epik_Tot_abs_Q>
1

> <r_epik_Metal_State_Penalty>
1.25472

> <b_epik_Metal_Only>
0

> <s_lp_Force_Field>
OPLS_2005

> <r_lp_Energy>
51.9838

> <b_lp_Chiralities_Consistent>
1

> <s_lp_Variant>
AV-unprocessed.smi:1793-6

> <Gold.Version>
5.8.1

> <Gold.Id.Protein>
6NUR|6NUR_protein|mol2

> <Gold.PLP.Fitness>
40.9108

> <Gold.PLP.PLP>
-36.5156

> <Gold.PLP.part.hbond>
-3.8449

> <Gold.PLP.part.metal>
0.0000

> <Gold.PLP.part.buried>
-1.8079

> <Gold.PLP.part.nonpolar>
-30.8015

> <Gold.PLP.part.repulsive>
0.4548

> <Gold.PLP.ligand.clash>
0.0000

> <Gold.PLP.ligand.torsion>
0.5025

> <Gold.PLP.Chemscore.Hbond>
1.6500

> <Gold.PLP.Chemscore.CHOScore>
0.0000

> <Gold.PLP.Chemscore.Metal>
0.0000

> <Gold.Chemscore.Hbonds>
donor molecule, donor type, donor heavy atom, donor atom, acceptor molecule, acceptor atom, score
      L1  H     3    27       P1  7948  1.00
      L1  H     6    28       P1  7948  0.65

> <Gold.PLP.Chemscore.Internal.Correction>
0.4502

> <Gold.Rescore>
     Score         DG    S(hbond)    S(metal)    S(lipo)     H(rot)  DE(clash)    DE(int)     intcor
     12.10     -14.96       1.27        0.00      74.85       1.38       0.09       2.77       ----

> <Gold.Chemscore.Fitness>
12.1038

> <Gold.Chemscore.DG>
-14.9586

> <Gold.Chemscore.ZeroCoef>
-5.4800

> <Gold.Chemscore.Hbond>
1.2739

> <Gold.Chemscore.Metal>
0.0000

> <Gold.Chemscore.Lipo>
74.8453

> <Gold.Chemscore.Internal_Hbond>
0.0000

> <Gold.Chemscore.DEClash>
0.0869

> <Gold.Chemscore.DEInternal>
2.7680

> <Gold.Chemscore.Rot>
1.3802

> <Gold.Chemscore.Internal.Correction>
   9.000000E+99

> <Gold.Chemscore.Hbonds>
donor molecule, donor type, donor heavy atom, donor atom, acceptor molecule, acceptor atom, score
      L1  H     3    27       P1  7948  0.28
      L1  H     6    28       P1  7948  0.05

> <Gold.Chemscore.Hbond.Weighted>
-4.2549

> <Gold.Chemscore.Metal.Weighted>
-0.0000

> <Gold.Chemscore.Lipo.Weighted>
-8.7569

> <Gold.Chemscore.Internal_Hbond.Weighted>
0.0000

> <Gold.Chemscore.DEClash.Weighted>
0.0869

> <Gold.Chemscore.DEInternal.Weighted>
2.7680

> <Gold.Chemscore.Rot.Weighted>
3.5332

> <Gold.Chemscore.Internal.Correction.Weighted>
   9.000000E+99

> <Gold.Protein.RotatedTorsions>
[ 6907 6896 6895 6894 ] final  -54.21 input  -60.11 | X-H torsion
[ 7974 7965 7964 7962 ] final   75.77 input  175.53 | X-H torsion
[ 8008 7997 7996 7995 ] final  122.20 input   59.86 | X-H torsion
[ 10167 10162 10161 10158 ] final  127.90 input  -65.29 | X-H torsion
[ 10718 10713 10712 10709 ] final   81.46 input   66.30 | X-H torsion
[ 10763 10752 10751 10750 ] final  118.92 input  -60.55 | X-H torsion
[ 11005 11000 10999 10996 ] final  154.11 input  -57.11 | X-H torsion

> <Gold.Protein.ActiveResidues>
 VAL166  LYS551  ARG553  GLY616  TRP617  ASP618  TYR619  PRO620  LYS621  CYS622 
 ASP623  PHE694  ASN695  SER759  ASP760  ASP761  ALA762  ILE779  LEU786  VAL792 
 PHE793  MET794  SER795  GLU796  ALA797  LYS798  CYS799  TRP800  GLU811  SER814 

> <Gold.Protein.RotatedAtoms>
  150.8358  134.7631  159.6891 H   0  0  0  0  0  0  0  0  0  0  0  0  # atno 6907 bound_to 6896
  152.4455  134.5500  159.9874 H   0  0  0  0  0  0  0  0  0  0  0  0  # atno 6908 bound_to 6896
  151.5651  133.3360  159.3014 H   0  0  0  0  0  0  0  0  0  0  0  0  # atno 6909 bound_to 6896
  145.7113  139.2616  143.1649 H   0  0  0  0  0  0  0  0  0  0  0  0  # atno 7974 bound_to 7965
  156.2718  140.2791  156.1430 H   0  0  0  0  0  0  0  0  0  0  0  0  # atno 8008 bound_to 7997
  155.0933  140.0389  157.2693 H   0  0  0  0  0  0  0  0  0  0  0  0  # atno 8009 bound_to 7997
  154.6872  140.2621  155.6854 H   0  0  0  0  0  0  0  0  0  0  0  0  # atno 8010 bound_to 7997
  139.5555  144.6845  151.4197 H   0  0  0  0  0  0  0  0  0  0  0  0  # atno 10167 bound_to 10162
  157.6833  131.0005  150.2230 H   0  0  0  0  0  0  0  0  0  0  0  0  # atno 10718 bound_to 10713
  153.5751  135.3494  155.2853 H   0  0  0  0  0  0  0  0  0  0  0  0  # atno 10763 bound_to 10752
  154.8676  135.4168  154.2682 H   0  0  0  0  0  0  0  0  0  0  0  0  # atno 10764 bound_to 10752
  153.3456  135.7052  153.6901 H   0  0  0  0  0  0  0  0  0  0  0  0  # atno 10765 bound_to 10752
  140.1459  134.8707  157.2392 H   0  0  0  0  0  0  0  0  0  0  0  0  # atno 11005 bound_to 11000
  146.0710  140.7869  142.9688 LP  0  0  0  0  0  0  0  0  0  0  0  0  # atno 17320 bound_to 7965
  144.6941  140.3341  143.7211 LP  0  0  0  0  0  0  0  0  0  0  0  0  # atno 17321 bound_to 7965
  140.6826  143.8046  150.7142 LP  0  0  0  0  0  0  0  0  0  0  0  0  # atno 17342 bound_to 10162
  140.1504  143.4362  152.2135 LP  0  0  0  0  0  0  0  0  0  0  0  0  # atno 17343 bound_to 10162
  156.2878  130.3741  149.7871 LP  0  0  0  0  0  0  0  0  0  0  0  0  # atno 17370 bound_to 10713
  156.5540  130.8354  151.3308 LP  0  0  0  0  0  0  0  0  0  0  0  0  # atno 17371 bound_to 10713
  140.2664  134.3511  155.7388 LP  0  0  0  0  0  0  0  0  0  0  0  0  # atno 17394 bound_to 11000
  141.2192  133.7398  156.9157 LP  0  0  0  0  0  0  0  0  0  0  0  0  # atno 17395 bound_to 11000

$$$$
