AV-unprocessed.smi:1278|AV-procd|sdf|5352|dock5
  -GOLD-   22720 4483D 1   1.00000     0.00000
 Structure written by MMmdl.
 38 39  0  0  0  0  0  0  0  0  3 V2000
  145.9016  135.6145  151.0213 C   0  0  0  0  0  0  0  0  0  0  0  0
  145.4457  134.7157  152.1843 C   0  0  1  0  0  0  0  0  0  0  0  0
  145.7560  133.2263  151.9450 C   0  0  0  0  0  0  0  0  0  0  0  0
  147.2533  132.9341  152.1173 C   0  0  0  0  0  0  0  0  0  0  0  0
  147.7633  133.4426  153.4750 C   0  0  0  0  0  0  0  0  0  0  0  0
  147.4783  134.8905  153.6472 N   0  3  2  0  0  0  0  0  0  0  0  0
  148.0938  135.4410  154.8801 C   0  0  0  0  0  0  0  0  0  0  0  0
  147.5366  134.7817  156.1562 C   0  0  0  0  0  0  0  0  0  0  0  0
  147.6059  135.6892  157.2953 N   0  0  0  0  0  0  0  0  0  0  0  0
  148.2973  135.4750  158.4239 C   0  0  0  0  0  0  0  0  0  0  0  0
  148.9525  134.4382  158.5551 O   0  0  0  0  0  0  0  0  0  0  0  0
  148.1808  136.4712  159.3299 N   0  5  0  0  0  0  0  0  0  0  0  0
  147.8600  136.1866  160.6026 C   0  0  0  0  0  0  0  0  0  0  0  0
  147.7472  137.1217  161.5528 N   0  0  0  0  0  0  0  0  0  0  0  0
  147.4025  136.6043  162.8029 C   0  0  0  0  0  0  0  0  0  0  0  0
  147.2406  135.2443  162.8025 C   0  0  0  0  0  0  0  0  0  0  0  0
  147.5157  134.5689  161.2220 S   0  0  0  0  0  0  0  0  0  0  0  0
  146.0220  135.1782  153.5386 C   0  0  0  0  0  0  0  0  0  0  0  0
  146.9846  135.6057  150.8995 H   0  0  0  0  0  0  0  0  0  0  0  0
  145.5981  136.6489  151.1853 H   0  0  0  0  0  0  0  0  0  0  0  0
  145.4588  135.2903  150.0792 H   0  0  0  0  0  0  0  0  0  0  0  0
  144.3609  134.8155  152.2404 H   0  0  0  0  0  0  0  0  0  0  0  0
  145.1924  132.6232  152.6582 H   0  0  0  0  0  0  0  0  0  0  0  0
  145.4209  132.9186  150.9537 H   0  0  0  0  0  0  0  0  0  0  0  0
  147.4332  131.8620  152.0324 H   0  0  0  0  0  0  0  0  0  0  0  0
  147.8201  133.4028  151.3123 H   0  0  0  0  0  0  0  0  0  0  0  0
  147.3017  132.8800  154.2881 H   0  0  0  0  0  0  0  0  0  0  0  0
  148.8378  133.2663  153.5376 H   0  0  0  0  0  0  0  0  0  0  0  0
  149.1793  135.3406  154.8319 H   0  0  0  0  0  0  0  0  0  0  0  0
  147.8877  136.5111  154.9299 H   0  0  0  0  0  0  0  0  0  0  0  0
  146.5072  134.4542  156.0020 H   0  0  0  0  0  0  0  0  0  0  0  0
  148.1086  133.8927  156.4185 H   0  0  0  0  0  0  0  0  0  0  0  0
  147.0890  136.5540  157.2267 H   0  0  0  0  0  0  0  0  0  0  0  0
  147.2929  137.2782  163.6394 H   0  0  0  0  0  0  0  0  0  0  0  0
  146.9759  134.6025  163.6290 H   0  0  0  0  0  0  0  0  0  0  0  0
  145.8291  136.2430  153.6645 H   0  0  0  0  0  0  0  0  0  0  0  0
  145.4994  134.6724  154.3523 H   0  0  0  0  0  0  0  0  0  0  0  0
  147.9307  135.3581  152.8747 H   0  0  0  0  0  0  0  0  0  0  0  0
  1  2  1  0  0  0  0
  1 19  1  0  0  0  0
  1 20  1  0  0  0  0
  1 21  1  0  0  0  0
  2 18  1  0  0  0  0
  2  3  1  0  0  0  0
  2 22  1  0  0  0  0
  3  4  1  0  0  0  0
  3 23  1  0  0  0  0
  3 24  1  0  0  0  0
  4  5  1  0  0  0  0
  4 25  1  0  0  0  0
  4 26  1  0  0  0  0
  5  6  1  0  0  0  0
  5 27  1  0  0  0  0
  5 28  1  0  0  0  0
  6  7  1  0  0  0  0
  6 18  1  0  0  0  0
  6 38  1  0  0  0  0
  7  8  1  0  0  0  0
  7 29  1  0  0  0  0
  7 30  1  0  0  0  0
  8  9  1  0  0  0  0
  8 31  1  0  0  0  0
  8 32  1  0  0  0  0
  9 10  1  0  0  0  0
  9 33  1  0  0  0  0
 10 11  2  0  0  0  0
 10 12  1  0  0  0  0
 12 13  1  0  0  0  0
 13 17  1  0  0  0  0
 13 14  2  0  0  0  0
 14 15  1  0  0  0  0
 15 16  2  0  0  0  0
 15 34  1  0  0  0  0
 16 17  1  0  0  0  0
 16 35  1  0  0  0  0
 18 36  1  0  0  0  0
 18 37  1  0  0  0  0
M  CHG  1   6   1
M  CHG  1  12  -1
M  END
> <s_m_source_file>
AV-unprocessed.smi

> <i_m_source_file_index>
1278

> <i_lp_mmshare_version>
43012

> <i_f3d_flags>
0

> <s_epik_input>
W0NIM11bQ0BASF0xW0NIMl1bQ0gyXVtDSDJdTihbQ0gyXTEpW0NIMl1bQ0gyXVtOSF1DKD1PKVtOSF1jMm5bY0hdW2NIXXMy

> <s_epik_cmdline>
J2VwaWtfcHl0aG9uJywgJy1waCcsICc3LjAnLCAnLXRuJywgJzgnLCAnLW1hJywgJzIwMCcsICctbWV0YWxfYmluZGluZycsICctaW1hZScsICc8aW5maWxlLm1hZT4nLCAnLW9tYWUnLCAnPG91dGZpbGUubWFlPic=

> <r_lp_tautomer_probability>
0.999

> <r_epik_Ionization_Penalty>
6.22019

> <r_epik_Ionization_Penalty_Charging>
5.38911

> <r_epik_Ionization_Penalty_Neutral>
0.831074

> <r_epik_State_Penalty>
5.38904

> <r_epik_Charging_Adjusted_Penalty>
10.7782

> <i_epik_Tot_Q>
0

> <i_epik_Tot_abs_Q>
2

> <r_epik_Metal_State_Penalty>
1.41502

> <b_epik_Metal_Only>
1

> <s_lp_Force_Field>
OPLS_2005

> <r_lp_Energy>
8.87374

> <b_lp_Chiralities_Consistent>
1

> <s_lp_Variant>
AV-unprocessed.smi:1278-6

> <Gold.Version>
5.8.1

> <Gold.Id.Protein>
6NUR|6NUR_protein|mol2

> <Gold.PLP.Fitness>
43.7032

> <Gold.PLP.PLP>
-30.4978

> <Gold.PLP.part.hbond>
-4.0000

> <Gold.PLP.part.metal>
0.0000

> <Gold.PLP.part.buried>
-2.7921

> <Gold.PLP.part.nonpolar>
-23.2320

> <Gold.PLP.part.repulsive>
0.0000

> <Gold.PLP.ligand.clash>
0.0000

> <Gold.PLP.ligand.torsion>
0.6172

> <Gold.PLP.Chemscore.Hbond>
4.7840

> <Gold.PLP.Chemscore.CHOScore>
0.0000

> <Gold.PLP.Chemscore.Metal>
0.0000

> <Gold.Chemscore.Hbonds>
donor molecule, donor type, donor heavy atom, donor atom, acceptor molecule, acceptor atom, score
      L1  H     6    38       P1  7948  2.00
      P1  H  6896  6909       L1    11  1.00
      P1  H  6931  6943       L1    14  1.00
      P1  H  6934  6947       L1    14  0.67

> <Gold.PLP.Chemscore.Internal.Correction>
0.0878

> <Gold.Rescore>
     Score         DG    S(hbond)    S(metal)    S(lipo)     H(rot)  DE(clash)    DE(int)     intcor
     17.94     -19.27       3.28        0.00      58.46       1.57       0.05       1.28       ----

> <Gold.Chemscore.Fitness>
17.9410

> <Gold.Chemscore.DG>
-19.2727

> <Gold.Chemscore.ZeroCoef>
-5.4800

> <Gold.Chemscore.Hbond>
3.2833

> <Gold.Chemscore.Metal>
0.0000

> <Gold.Chemscore.Lipo>
58.4578

> <Gold.Chemscore.Internal_Hbond>
0.0000

> <Gold.Chemscore.DEClash>
0.0530

> <Gold.Chemscore.DEInternal>
1.2788

> <Gold.Chemscore.Rot>
1.5676

> <Gold.Chemscore.Internal.Correction>
   9.000000E+99

> <Gold.Chemscore.Hbonds>
donor molecule, donor type, donor heavy atom, donor atom, acceptor molecule, acceptor atom, score
      L1  H     6    38       P1  7948  1.00
      P1  H  6896  6909       L1    11  0.99
      P1  H  6931  6943       L1    14  0.43
      P1  H  6934  6947       L1    14  0.62

> <Gold.Chemscore.Hbond.Weighted>
-10.9662

> <Gold.Chemscore.Metal.Weighted>
-0.0000

> <Gold.Chemscore.Lipo.Weighted>
-6.8396

> <Gold.Chemscore.Internal_Hbond.Weighted>
0.0000

> <Gold.Chemscore.DEClash.Weighted>
0.0530

> <Gold.Chemscore.DEInternal.Weighted>
1.2788

> <Gold.Chemscore.Rot.Weighted>
4.0130

> <Gold.Chemscore.Internal.Correction.Weighted>
   9.000000E+99

> <Gold.Protein.RotatedTorsions>
[ 6907 6896 6895 6894 ] final   14.88 input  -60.11 | X-H torsion
[ 7974 7965 7964 7962 ] final -165.02 input  175.53 | X-H torsion
[ 8008 7997 7996 7995 ] final  -44.16 input   59.86 | X-H torsion
[ 10167 10162 10161 10158 ] final  -69.19 input  -65.29 | X-H torsion
[ 10718 10713 10712 10709 ] final   98.84 input   66.30 | X-H torsion
[ 10763 10752 10751 10750 ] final -158.14 input  -60.55 | X-H torsion
[ 11005 11000 10999 10996 ] final  -29.22 input  -57.11 | X-H torsion

> <Gold.Protein.ActiveResidues>
 VAL166  LYS551  ARG553  GLY616  TRP617  ASP618  TYR619  PRO620  LYS621  CYS622 
 ASP623  PHE694  ASN695  SER759  ASP760  ASP761  ALA762  ILE779  LEU786  VAL792 
 PHE793  MET794  SER795  GLU796  ALA797  LYS798  CYS799  TRP800  GLU811  SER814 

> <Gold.Protein.RotatedAtoms>
  151.8092  135.0686  160.0410 H   0  0  0  0  0  0  0  0  0  0  0  0  # atno 6907 bound_to 6896
  152.3033  133.5673  159.5641 H   0  0  0  0  0  0  0  0  0  0  0  0  # atno 6908 bound_to 6896
  150.7284  134.0176  159.3732 H   0  0  0  0  0  0  0  0  0  0  0  0  # atno 6909 bound_to 6896
  144.7281  140.2875  143.6226 H   0  0  0  0  0  0  0  0  0  0  0  0  # atno 7974 bound_to 7965
  154.3997  140.1429  156.3637 H   0  0  0  0  0  0  0  0  0  0  0  0  # atno 8008 bound_to 7997
  155.8157  140.3471  155.5463 H   0  0  0  0  0  0  0  0  0  0  0  0  # atno 8009 bound_to 7997
  155.8340  140.0916  157.1765 H   0  0  0  0  0  0  0  0  0  0  0  0  # atno 8010 bound_to 7997
  140.5449  143.2313  151.7020 H   0  0  0  0  0  0  0  0  0  0  0  0  # atno 10167 bound_to 10162
  157.6888  131.0652  150.4857 H   0  0  0  0  0  0  0  0  0  0  0  0  # atno 10718 bound_to 10713
  154.7580  135.3110  154.8433 H   0  0  0  0  0  0  0  0  0  0  0  0  # atno 10763 bound_to 10752
  153.9201  135.6796  153.4752 H   0  0  0  0  0  0  0  0  0  0  0  0  # atno 10764 bound_to 10752
  153.1179  135.4836  154.9076 H   0  0  0  0  0  0  0  0  0  0  0  0  # atno 10765 bound_to 10752
  140.9277  133.7358  156.0891 H   0  0  0  0  0  0  0  0  0  0  0  0  # atno 11005 bound_to 11000
  145.7888  139.1919  143.2115 LP  0  0  0  0  0  0  0  0  0  0  0  0  # atno 17320 bound_to 7965
  146.0773  140.7803  142.9659 LP  0  0  0  0  0  0  0  0  0  0  0  0  # atno 17321 bound_to 7965
  139.5003  144.3910  152.0280 LP  0  0  0  0  0  0  0  0  0  0  0  0  # atno 17342 bound_to 10162
  140.3022  144.3634  150.6057 LP  0  0  0  0  0  0  0  0  0  0  0  0  # atno 17343 bound_to 10162
  156.5187  130.4156  149.6262 LP  0  0  0  0  0  0  0  0  0  0  0  0  # atno 17370 bound_to 10713
  156.3174  130.7262  151.2167 LP  0  0  0  0  0  0  0  0  0  0  0  0  # atno 17371 bound_to 10713
  140.7904  134.3624  157.5466 LP  0  0  0  0  0  0  0  0  0  0  0  0  # atno 17394 bound_to 11000
  139.8789  134.9136  156.3089 LP  0  0  0  0  0  0  0  0  0  0  0  0  # atno 17395 bound_to 11000

$$$$
