AV-unprocessed.smi:249|AV-procd|sdf|1906|dock3
  -GOLD-   2262020593D 1   1.00000     0.00000
 Structure written by MMmdl.
 64 67  0  0  0  0  0  0  0  0  2 V2000
  145.9752  132.2317  152.8953 C   0  0  0  0  0  0  0  0  0  0  0  0
  146.5975  133.4682  152.2259 C   0  0  0  0  0  0  0  0  0  0  0  0
  147.6590  134.1182  153.0483 N   0  3  2  0  0  0  0  0  0  0  0  0
  148.7225  133.1509  153.4447 C   0  0  0  0  0  0  0  0  0  0  0  0
  149.8899  133.8388  154.1649 C   0  0  0  0  0  0  0  0  0  0  0  0
  149.3965  134.5835  155.4169 C   0  0  1  0  0  0  0  0  0  0  0  0
  150.4822  135.2097  156.1876 N   0  0  0  0  0  0  0  0  0  0  0  0
  151.5711  134.3465  156.6308 C   0  0  0  0  0  0  0  0  0  0  0  0
  150.8866  136.4388  155.7853 C   0  0  0  0  0  0  0  0  0  0  0  0
  151.3752  136.6144  154.5290 N   0  0  0  0  0  0  0  0  0  0  0  0
  151.7060  137.8382  154.1056 C   0  0  0  0  0  0  0  0  0  0  0  0
  151.6149  138.9997  154.7572 N   0  0  0  0  0  0  0  0  0  0  0  0
  151.1443  138.8209  156.0246 C   0  0  0  0  0  0  0  0  0  0  0  0
  150.7818  137.5822  156.6212 C   0  0  0  0  0  0  0  0  0  0  0  0
  150.3649  137.7860  157.9308 N   0  0  0  0  0  0  0  0  0  0  0  0
  150.4477  139.0785  158.0911 C   0  0  0  0  0  0  0  0  0  0  0  0
  150.8663  139.7796  156.9822 N   0  0  0  0  0  0  0  0  0  0  0  0
  150.9967  141.2193  156.8638 C   0  0  0  0  0  0  0  0  0  0  0  0
  150.3783  142.0222  158.0437 C   0  0  2  0  0  0  0  0  0  0  0  0
  148.8672  142.2276  157.7751 C   0  0  0  0  0  0  0  0  0  0  0  0
  148.1428  141.0287  157.9607 O   0  0  0  0  0  0  0  0  0  0  0  0
  151.1055  143.3753  158.3226 C   0  0  1  0  0  0  0  0  0  0  0  0
  150.3497  144.3462  159.2190 C   0  0  0  0  0  0  0  0  0  0  0  0
  151.4493  145.2916  159.6774 C   0  0  0  0  0  0  0  0  0  0  0  0
  152.5609  144.4409  159.9028 O   0  0  0  0  0  0  0  0  0  0  0  0
  152.4404  143.2781  159.0886 C   0  0  0  0  0  0  0  0  0  0  0  0
  148.2872  135.5647  154.9911 C   0  0  0  0  0  0  0  0  0  0  0  0
  147.1356  134.8691  154.2359 C   0  0  1  0  0  0  0  0  0  0  0  0
  146.0835  135.9373  153.8690 C   0  0  0  0  0  0  0  0  0  0  0  0
  145.3284  131.7055  152.1927 H   0  0  0  0  0  0  0  0  0  0  0  0
  145.3585  132.4886  153.7556 H   0  0  0  0  0  0  0  0  0  0  0  0
  146.7431  131.5300  153.2218 H   0  0  0  0  0  0  0  0  0  0  0  0
  147.0104  133.1141  151.2845 H   0  0  0  0  0  0  0  0  0  0  0  0
  145.8245  134.1954  151.9728 H   0  0  0  0  0  0  0  0  0  0  0  0
  148.2923  132.3773  154.0830 H   0  0  0  0  0  0  0  0  0  0  0  0
  149.1305  132.6455  152.5714 H   0  0  0  0  0  0  0  0  0  0  0  0
  150.6344  133.0899  154.4349 H   0  0  0  0  0  0  0  0  0  0  0  0
  150.3773  134.5281  153.4749 H   0  0  0  0  0  0  0  0  0  0  0  0
  148.9404  133.8493  156.0826 H   0  0  0  0  0  0  0  0  0  0  0  0
  152.2029  134.8650  157.3532 H   0  0  0  0  0  0  0  0  0  0  0  0
  152.1963  134.0296  155.7954 H   0  0  0  0  0  0  0  0  0  0  0  0
  151.1745  133.4545  157.1163 H   0  0  0  0  0  0  0  0  0  0  0  0
  152.0824  137.8978  153.0949 H   0  0  0  0  0  0  0  0  0  0  0  0
  150.1725  139.5614  159.0176 H   0  0  0  0  0  0  0  0  0  0  0  0
  152.0561  141.4605  156.7679 H   0  0  0  0  0  0  0  0  0  0  0  0
  150.5325  141.5052  155.9195 H   0  0  0  0  0  0  0  0  0  0  0  0
  150.4586  141.4180  158.9486 H   0  0  0  0  0  0  0  0  0  0  0  0
  148.4338  142.9553  158.4598 H   0  0  0  0  0  0  0  0  0  0  0  0
  148.6990  142.5983  156.7635 H   0  0  0  0  0  0  0  0  0  0  0  0
  147.2812  141.2444  158.2838 H   0  0  0  0  0  0  0  0  0  0  0  0
  151.2871  143.8813  157.3729 H   0  0  0  0  0  0  0  0  0  0  0  0
  149.5460  144.8725  158.7029 H   0  0  0  0  0  0  0  0  0  0  0  0
  149.9255  143.8255  160.0792 H   0  0  0  0  0  0  0  0  0  0  0  0
  151.6967  146.0033  158.8884 H   0  0  0  0  0  0  0  0  0  0  0  0
  151.1807  145.8504  160.5741 H   0  0  0  0  0  0  0  0  0  0  0  0
  152.4640  142.4076  159.7448 H   0  0  0  0  0  0  0  0  0  0  0  0
  153.2956  143.2178  158.4171 H   0  0  0  0  0  0  0  0  0  0  0  0
  147.8913  136.0631  155.8764 H   0  0  0  0  0  0  0  0  0  0  0  0
  148.6965  136.3454  154.3482 H   0  0  0  0  0  0  0  0  0  0  0  0
  146.6678  134.1501  154.9107 H   0  0  0  0  0  0  0  0  0  0  0  0
  145.8496  136.5638  154.7304 H   0  0  0  0  0  0  0  0  0  0  0  0
  145.1370  135.5007  153.5526 H   0  0  0  0  0  0  0  0  0  0  0  0
  146.4417  136.5951  153.0761 H   0  0  0  0  0  0  0  0  0  0  0  0
  148.0987  134.8052  152.4526 H   0  0  0  0  0  0  0  0  0  0  0  0
  1  2  1  0  0  0  0
  1 30  1  0  0  0  0
  1 31  1  0  0  0  0
  1 32  1  0  0  0  0
  2  3  1  0  0  0  0
  2 33  1  0  0  0  0
  2 34  1  0  0  0  0
  3 28  1  0  0  0  0
  3  4  1  0  0  0  0
  3 64  1  0  0  0  0
  4  5  1  0  0  0  0
  4 35  1  0  0  0  0
  4 36  1  0  0  0  0
  5  6  1  0  0  0  0
  5 37  1  0  0  0  0
  5 38  1  0  0  0  0
  6  7  1  0  0  0  0
  6 27  1  0  0  0  0
  6 39  1  0  0  0  0
  7  8  1  0  0  0  0
  7  9  1  0  0  0  0
  8 40  1  0  0  0  0
  8 41  1  0  0  0  0
  8 42  1  0  0  0  0
  9 14  1  0  0  0  0
  9 10  2  0  0  0  0
 10 11  1  0  0  0  0
 11 12  2  0  0  0  0
 11 43  1  0  0  0  0
 12 13  1  0  0  0  0
 13 17  1  0  0  0  0
 13 14  2  0  0  0  0
 14 15  1  0  0  0  0
 15 16  2  0  0  0  0
 16 17  1  0  0  0  0
 16 44  1  0  0  0  0
 17 18  1  0  0  0  0
 18 19  1  0  0  0  0
 18 45  1  0  0  0  0
 18 46  1  0  0  0  0
 19 20  1  0  0  0  0
 19 22  1  0  0  0  0
 19 47  1  0  0  0  0
 20 21  1  0  0  0  0
 20 48  1  0  0  0  0
 20 49  1  0  0  0  0
 21 50  1  0  0  0  0
 22 26  1  0  0  0  0
 22 23  1  0  0  0  0
 22 51  1  0  0  0  0
 23 24  1  0  0  0  0
 23 52  1  0  0  0  0
 23 53  1  0  0  0  0
 24 25  1  0  0  0  0
 24 54  1  0  0  0  0
 24 55  1  0  0  0  0
 25 26  1  0  0  0  0
 26 56  1  0  0  0  0
 26 57  1  0  0  0  0
 27 28  1  0  0  0  0
 27 58  1  0  0  0  0
 27 59  1  0  0  0  0
 28 29  1  0  0  0  0
 28 60  1  0  0  0  0
 29 61  1  0  0  0  0
 29 62  1  0  0  0  0
 29 63  1  0  0  0  0
M  CHG  1   3   1
M  END
> <s_m_source_file>
AV-unprocessed.smi

> <i_m_source_file_index>
249

> <i_lp_mmshare_version>
43012

> <i_f3d_flags>
0

> <s_epik_input>
W0NIM11bQ0gyXU4xW0NIMl1bQ0gyXVtDQEhdKFtDSDJdW0NASF0xW0NIM10pTihbQ0gzXSljKG5bY0hdbjIpYyhjMjMpbltjSF1uM1tDSDJdW0NASF0oW0NIMl1bT0hdKVtDQEBIXTRbQ0gyXVtDSDJdT1tDSDJdNA==

> <s_epik_cmdline>
J2VwaWtfcHl0aG9uJywgJy1waCcsICc3LjAnLCAnLXRuJywgJzgnLCAnLW1hJywgJzIwMCcsICctbWV0YWxfYmluZGluZycsICctaW1hZScsICc8aW5maWxlLm1hZT4nLCAnLW9tYWUnLCAnPG91dGZpbGUubWFlPic=

> <r_lp_tautomer_probability>
1

> <r_epik_Ionization_Penalty>
0.00294688

> <r_epik_Ionization_Penalty_Charging>
0.00169971

> <r_epik_Ionization_Penalty_Neutral>
0.00124717

> <r_epik_State_Penalty>
-0

> <r_epik_Charging_Adjusted_Penalty>
0.00169971

> <i_epik_Tot_Q>
1

> <i_epik_Tot_abs_Q>
1

> <r_epik_Metal_State_Penalty>
-0

> <b_epik_Metal_Only>
0

> <s_lp_Force_Field>
OPLS_2005

> <r_lp_Energy>
53.7377

> <b_lp_Chiralities_Consistent>
1

> <s_lp_Variant>
AV-unprocessed.smi:249-9

> <Gold.Version>
5.8.1

> <Gold.Id.Protein>
6NUR|6NUR_protein|mol2

> <Gold.PLP.Fitness>
52.7139

> <Gold.PLP.PLP>
-41.3953

> <Gold.PLP.part.hbond>
-3.2986

> <Gold.PLP.part.metal>
0.0000

> <Gold.PLP.part.buried>
-5.8326

> <Gold.PLP.part.nonpolar>
-30.8999

> <Gold.PLP.part.repulsive>
1.0039

> <Gold.PLP.ligand.clash>
0.0000

> <Gold.PLP.ligand.torsion>
1.4484

> <Gold.PLP.Chemscore.Hbond>
3.7963

> <Gold.PLP.Chemscore.CHOScore>
0.5473

> <Gold.PLP.Chemscore.Metal>
0.0000

> <Gold.Chemscore.Hbonds>
donor molecule, donor type, donor heavy atom, donor atom, acceptor molecule, acceptor atom, score
      L1  H     3    64       P1  7948  2.00
      P1  H  7989  7998       L1    12  0.47
      P1  H 10752 10764       L1    10  1.00
      L1  C    11    43       P1  7949  0.49

> <Gold.PLP.Chemscore.Internal.Correction>
1.1847

> <Gold.Rescore>
     Score         DG    S(hbond)    S(metal)    S(lipo)     H(rot)  DE(clash)    DE(int)     intcor
     14.45     -16.04       2.07        0.00      94.56       2.90       0.08       1.52       ----

> <Gold.Chemscore.Fitness>
14.4452

> <Gold.Chemscore.DG>
-16.0433

> <Gold.Chemscore.ZeroCoef>
-5.4800

> <Gold.Chemscore.Hbond>
2.0734

> <Gold.Chemscore.Metal>
0.0000

> <Gold.Chemscore.Lipo>
94.5637

> <Gold.Chemscore.Internal_Hbond>
0.0000

> <Gold.Chemscore.DEClash>
0.0812

> <Gold.Chemscore.DEInternal>
1.5169

> <Gold.Chemscore.Rot>
2.9006

> <Gold.Chemscore.Internal.Correction>
   9.000000E+99

> <Gold.Chemscore.Hbonds>
donor molecule, donor type, donor heavy atom, donor atom, acceptor molecule, acceptor atom, score
      L1  H     3    64       P1  7948  0.60
      P1  H  7989  7998       L1    12  0.43
      P1  H 10752 10764       L1    10  0.28

> <Gold.Chemscore.Hbond.Weighted>
-6.9250

> <Gold.Chemscore.Metal.Weighted>
-0.0000

> <Gold.Chemscore.Lipo.Weighted>
-11.0640

> <Gold.Chemscore.Internal_Hbond.Weighted>
0.0000

> <Gold.Chemscore.DEClash.Weighted>
0.0812

> <Gold.Chemscore.DEInternal.Weighted>
1.5169

> <Gold.Chemscore.Rot.Weighted>
7.4256

> <Gold.Chemscore.Internal.Correction.Weighted>
   9.000000E+99

> <Gold.Protein.RotatedTorsions>
[ 6907 6896 6895 6894 ] final  169.23 input  -60.11 | X-H torsion
[ 7974 7965 7964 7962 ] final  142.57 input  175.53 | X-H torsion
[ 8008 7997 7996 7995 ] final  -71.15 input   59.86 | X-H torsion
[ 10167 10162 10161 10158 ] final  -96.93 input  -65.29 | X-H torsion
[ 10718 10713 10712 10709 ] final -149.97 input   66.30 | X-H torsion
[ 10763 10752 10751 10750 ] final  -80.15 input  -60.55 | X-H torsion
[ 11005 11000 10999 10996 ] final   42.32 input  -57.11 | X-H torsion

> <Gold.Protein.ActiveResidues>
 VAL166  LYS551  ARG553  GLY616  TRP617  ASP618  TYR619  PRO620  LYS621  CYS622 
 ASP623  PHE694  ASN695  SER759  ASP760  ASP761  ALA762  ILE779  LEU786  VAL792 
 PHE793  MET794  SER795  GLU796  ALA797  LYS798  CYS799  TRP800  GLU811  SER814 

> <Gold.Protein.RotatedAtoms>
  151.8352  133.3415  159.3625 H   0  0  0  0  0  0  0  0  0  0  0  0  # atno 6907 bound_to 6896
  150.7252  134.5444  159.5772 H   0  0  0  0  0  0  0  0  0  0  0  0  # atno 6908 bound_to 6896
  152.2906  134.7727  160.0429 H   0  0  0  0  0  0  0  0  0  0  0  0  # atno 6909 bound_to 6896
  144.8996  139.5442  143.5760 H   0  0  0  0  0  0  0  0  0  0  0  0  # atno 7974 bound_to 7965
  154.5066  140.0821  156.7906 H   0  0  0  0  0  0  0  0  0  0  0  0  # atno 8008 bound_to 7997
  155.3881  140.3431  155.4232 H   0  0  0  0  0  0  0  0  0  0  0  0  # atno 8009 bound_to 7997
  156.1522  140.1562  156.8738 H   0  0  0  0  0  0  0  0  0  0  0  0  # atno 8010 bound_to 7997
  140.2887  143.3235  152.0368 H   0  0  0  0  0  0  0  0  0  0  0  0  # atno 10167 bound_to 10162
  156.4400  130.8117  151.2347 H   0  0  0  0  0  0  0  0  0  0  0  0  # atno 10718 bound_to 10713
  154.5476  135.5671  153.6894 H   0  0  0  0  0  0  0  0  0  0  0  0  # atno 10763 bound_to 10752
  152.9980  135.6243  154.2418 H   0  0  0  0  0  0  0  0  0  0  0  0  # atno 10764 bound_to 10752
  154.2351  135.2864  155.2855 H   0  0  0  0  0  0  0  0  0  0  0  0  # atno 10765 bound_to 10752
  140.1750  134.4174  155.8234 H   0  0  0  0  0  0  0  0  0  0  0  0  # atno 11005 bound_to 11000
  146.3101  139.7715  142.9026 LP  0  0  0  0  0  0  0  0  0  0  0  0  # atno 17320 bound_to 7965
  145.3640  141.0331  143.3269 LP  0  0  0  0  0  0  0  0  0  0  0  0  # atno 17321 bound_to 7965
  139.4943  144.6540  151.6612 LP  0  0  0  0  0  0  0  0  0  0  0  0  # atno 17342 bound_to 10162
  140.5751  144.0043  150.6237 LP  0  0  0  0  0  0  0  0  0  0  0  0  # atno 17343 bound_to 10162
  157.7506  131.0171  150.3572 LP  0  0  0  0  0  0  0  0  0  0  0  0  # atno 17370 bound_to 10713
  156.3927  130.3901  149.7017 LP  0  0  0  0  0  0  0  0  0  0  0  0  # atno 17371 bound_to 10713
  141.2220  133.6974  156.7831 LP  0  0  0  0  0  0  0  0  0  0  0  0  # atno 17394 bound_to 11000
  140.2333  134.8669  157.3499 LP  0  0  0  0  0  0  0  0  0  0  0  0  # atno 17395 bound_to 11000

$$$$
