AV-unprocessed.smi:1554|AV-procd|sdf|6247|dock3
  -GOLD-   22720 6433D 1   1.00000     0.00000
 Structure written by MMmdl.
 48 50  0  0  0  0  0  0  0  0  2 V2000
  153.7311  143.0209  163.7450 C   0  0  0  0  0  0  0  0  0  0  0  0
  153.1606  142.7685  162.3604 C   0  0  0  0  0  0  0  0  0  0  0  0
  152.2565  143.7038  161.8087 C   0  0  0  0  0  0  0  0  0  0  0  0
  151.7065  143.5082  160.5228 C   0  0  0  0  0  0  0  0  0  0  0  0
  150.8184  144.2840  159.7977 N   0  0  0  0  0  0  0  0  0  0  0  0
  150.6945  143.5756  158.6794 C   0  0  0  0  0  0  0  0  0  0  0  0
  151.3998  142.4315  158.5926 N   0  0  0  0  0  0  0  0  0  0  0  0
  151.4249  141.5064  157.4738 C   0  0  0  0  0  0  0  0  0  0  0  0
  150.0226  141.2563  156.8859 C   0  0  1  0  0  0  0  0  0  0  0  0
  149.7793  142.1783  155.8402 O   0  0  0  0  0  0  0  0  0  0  0  0
  149.8791  139.8259  156.3305 C   0  0  0  0  0  0  0  0  0  0  0  0
  150.2179  139.7449  154.8837 N   0  3  2  0  0  0  0  0  0  0  0  0
  149.7137  138.5293  154.1943 C   0  0  0  0  0  0  0  0  0  0  0  0
  150.5986  137.3023  154.4896 C   0  0  0  0  0  0  0  0  0  0  0  0
  151.9523  137.5911  154.1622 O   0  0  0  0  0  0  0  0  0  0  0  0
  152.4769  138.6780  154.9169 C   0  0  1  0  0  0  0  0  0  0  0  0
  153.9573  138.8401  154.5545 C   0  0  0  0  0  0  0  0  0  0  0  0
  151.6591  139.9458  154.5960 C   0  0  0  0  0  0  0  0  0  0  0  0
  152.0887  142.3415  159.7979 C   0  0  0  0  0  0  0  0  0  0  0  0
  152.9870  141.4032  160.3366 C   0  0  0  0  0  0  0  0  0  0  0  0
  153.5269  141.6142  161.6226 C   0  0  0  0  0  0  0  0  0  0  0  0
  154.4957  140.5950  162.1954 C   0  0  0  0  0  0  0  0  0  0  0  0
  153.3159  143.9266  164.1882 H   0  0  0  0  0  0  0  0  0  0  0  0
  154.8138  143.1386  163.6947 H   0  0  0  0  0  0  0  0  0  0  0  0
  153.5036  142.1887  164.4117 H   0  0  0  0  0  0  0  0  0  0  0  0
  151.9780  144.5833  162.3703 H   0  0  0  0  0  0  0  0  0  0  0  0
  150.0561  143.9085  157.8739 H   0  0  0  0  0  0  0  0  0  0  0  0
  152.0994  141.8966  156.7107 H   0  0  0  0  0  0  0  0  0  0  0  0
  151.8593  140.5679  157.8207 H   0  0  0  0  0  0  0  0  0  0  0  0
  149.2844  141.4326  157.6678 H   0  0  0  0  0  0  0  0  0  0  0  0
  149.5863  143.0230  156.2180 H   0  0  0  0  0  0  0  0  0  0  0  0
  150.5351  139.1674  156.9020 H   0  0  0  0  0  0  0  0  0  0  0  0
  148.8675  139.4553  156.4959 H   0  0  0  0  0  0  0  0  0  0  0  0
  148.6766  138.3249  154.4580 H   0  0  0  0  0  0  0  0  0  0  0  0
  149.7214  138.7230  153.1209 H   0  0  0  0  0  0  0  0  0  0  0  0
  150.5224  136.9953  155.5333 H   0  0  0  0  0  0  0  0  0  0  0  0
  150.2686  136.4539  153.8901 H   0  0  0  0  0  0  0  0  0  0  0  0
  152.4077  138.4458  155.9811 H   0  0  0  0  0  0  0  0  0  0  0  0
  154.4106  139.6591  155.1136 H   0  0  0  0  0  0  0  0  0  0  0  0
  154.0840  139.0495  153.4919 H   0  0  0  0  0  0  0  0  0  0  0  0
  154.5166  137.9328  154.7840 H   0  0  0  0  0  0  0  0  0  0  0  0
  151.7632  140.1881  153.5374 H   0  0  0  0  0  0  0  0  0  0  0  0
  152.0420  140.8075  155.1442 H   0  0  0  0  0  0  0  0  0  0  0  0
  153.2597  140.5290  159.7647 H   0  0  0  0  0  0  0  0  0  0  0  0
  154.6785  139.7814  161.4929 H   0  0  0  0  0  0  0  0  0  0  0  0
  154.0953  140.1614  163.1121 H   0  0  0  0  0  0  0  0  0  0  0  0
  155.4538  141.0630  162.4221 H   0  0  0  0  0  0  0  0  0  0  0  0
  149.7423  140.5322  154.4649 H   0  0  0  0  0  0  0  0  0  0  0  0
  1  2  1  0  0  0  0
  1 23  1  0  0  0  0
  1 24  1  0  0  0  0
  1 25  1  0  0  0  0
  2 21  1  0  0  0  0
  2  3  2  0  0  0  0
  3  4  1  0  0  0  0
  3 26  1  0  0  0  0
  4 19  2  0  0  0  0
  4  5  1  0  0  0  0
  5  6  2  0  0  0  0
  6  7  1  0  0  0  0
  6 27  1  0  0  0  0
  7  8  1  0  0  0  0
  7 19  1  0  0  0  0
  8  9  1  0  0  0  0
  8 28  1  0  0  0  0
  8 29  1  0  0  0  0
  9 10  1  0  0  0  0
  9 11  1  0  0  0  0
  9 30  1  0  0  0  0
 10 31  1  0  0  0  0
 11 12  1  0  0  0  0
 11 32  1  0  0  0  0
 11 33  1  0  0  0  0
 12 18  1  0  0  0  0
 12 13  1  0  0  0  0
 12 48  1  0  0  0  0
 13 14  1  0  0  0  0
 13 34  1  0  0  0  0
 13 35  1  0  0  0  0
 14 15  1  0  0  0  0
 14 36  1  0  0  0  0
 14 37  1  0  0  0  0
 15 16  1  0  0  0  0
 16 17  1  0  0  0  0
 16 18  1  0  0  0  0
 16 38  1  0  0  0  0
 17 39  1  0  0  0  0
 17 40  1  0  0  0  0
 17 41  1  0  0  0  0
 18 42  1  0  0  0  0
 18 43  1  0  0  0  0
 19 20  1  0  0  0  0
 20 21  2  0  0  0  0
 20 44  1  0  0  0  0
 21 22  1  0  0  0  0
 22 45  1  0  0  0  0
 22 46  1  0  0  0  0
 22 47  1  0  0  0  0
M  CHG  1  12   1
M  END
> <s_m_source_file>
AV-unprocessed.smi

> <i_m_source_file_index>
1554

> <i_lp_mmshare_version>
43012

> <i_f3d_flags>
0

> <s_epik_input>
W0NIM11jKFtjSF0xKWMoW0NIM10pW2NIXWMoYzEyKW4oW2NIXW4yKVtDSDJdW0NASF0oW09IXSlbQ0gyXU4zW0NIMl1bQ0gyXU9bQ0BASF0oW0NIM10pW0NIMl0z

> <s_epik_cmdline>
J2VwaWtfcHl0aG9uJywgJy1waCcsICc3LjAnLCAnLXRuJywgJzgnLCAnLW1hJywgJzIwMCcsICctbWV0YWxfYmluZGluZycsICctaW1hZScsICc8aW5maWxlLm1hZT4nLCAnLW9tYWUnLCAnPG91dGZpbGUubWFlPic=

> <r_epik_Ionization_Penalty>
0.695251

> <r_epik_Ionization_Penalty_Charging>
0.608065

> <r_epik_Ionization_Penalty_Neutral>
0.0871863

> <r_epik_State_Penalty>
0.731955

> <r_epik_Charging_Adjusted_Penalty>
1.34002

> <i_epik_Tot_Q>
1

> <i_epik_Tot_abs_Q>
1

> <r_epik_Metal_State_Penalty>
0.652186

> <b_epik_Metal_Only>
0

> <s_lp_Force_Field>
OPLS_2005

> <r_lp_Energy>
22.6642

> <b_lp_Chiralities_Consistent>
1

> <s_lp_Variant>
AV-unprocessed.smi:1554-8

> <Gold.Version>
5.8.1

> <Gold.Id.Protein>
6NUR|6NUR_protein|mol2

> <Gold.PLP.Fitness>
52.8269

> <Gold.PLP.PLP>
-46.4505

> <Gold.PLP.part.hbond>
-2.0000

> <Gold.PLP.part.metal>
0.0000

> <Gold.PLP.part.buried>
-1.2489

> <Gold.PLP.part.nonpolar>
-44.0161

> <Gold.PLP.part.repulsive>
0.3665

> <Gold.PLP.ligand.clash>
0.0000

> <Gold.PLP.ligand.torsion>
1.1515

> <Gold.PLP.Chemscore.Hbond>
1.8720

> <Gold.PLP.Chemscore.CHOScore>
1.0000

> <Gold.PLP.Chemscore.Metal>
0.0000

> <Gold.Chemscore.Hbonds>
donor molecule, donor type, donor heavy atom, donor atom, acceptor molecule, acceptor atom, score
      L1  H    10    31       P1  8028  0.77
      P1  H 10752 10765       L1    15  0.60
      L1  C     6    27       P1  8028  0.81

> <Gold.PLP.Chemscore.Internal.Correction>
0.0634

> <Gold.Rescore>
     Score         DG    S(hbond)    S(metal)    S(lipo)     H(rot)  DE(clash)    DE(int)     intcor
     19.44     -22.28       1.75        0.00     138.75       2.05       1.63       1.22       ----

> <Gold.Chemscore.Fitness>
19.4362

> <Gold.Chemscore.DG>
-22.2844

> <Gold.Chemscore.ZeroCoef>
-5.4800

> <Gold.Chemscore.Hbond>
1.7456

> <Gold.Chemscore.Metal>
0.0000

> <Gold.Chemscore.Lipo>
138.7505

> <Gold.Chemscore.Internal_Hbond>
0.0000

> <Gold.Chemscore.DEClash>
1.6316

> <Gold.Chemscore.DEInternal>
1.2166

> <Gold.Chemscore.Rot>
2.0546

> <Gold.Chemscore.Internal.Correction>
   9.000000E+99

> <Gold.Chemscore.Hbonds>
donor molecule, donor type, donor heavy atom, donor atom, acceptor molecule, acceptor atom, score
      L1  H    10    31       P1  8028  0.77
      P1  H 10752 10765       L1    15  0.25

> <Gold.Chemscore.Hbond.Weighted>
-5.8303

> <Gold.Chemscore.Metal.Weighted>
-0.0000

> <Gold.Chemscore.Lipo.Weighted>
-16.2338

> <Gold.Chemscore.Internal_Hbond.Weighted>
0.0000

> <Gold.Chemscore.DEClash.Weighted>
1.6316

> <Gold.Chemscore.DEInternal.Weighted>
1.2166

> <Gold.Chemscore.Rot.Weighted>
5.2597

> <Gold.Chemscore.Internal.Correction.Weighted>
   9.000000E+99

> <Gold.Protein.RotatedTorsions>
[ 6907 6896 6895 6894 ] final  126.12 input  -60.11 | X-H torsion
[ 7974 7965 7964 7962 ] final   35.89 input  175.53 | X-H torsion
[ 8008 7997 7996 7995 ] final   76.94 input   59.86 | X-H torsion
[ 10167 10162 10161 10158 ] final  -44.74 input  -65.29 | X-H torsion
[ 10718 10713 10712 10709 ] final   64.86 input   66.30 | X-H torsion
[ 10763 10752 10751 10750 ] final  162.80 input  -60.55 | X-H torsion
[ 11005 11000 10999 10996 ] final  -74.40 input  -57.11 | X-H torsion

> <Gold.Protein.ActiveResidues>
 VAL166  LYS551  ARG553  GLY616  TRP617  ASP618  TYR619  PRO620  LYS621  CYS622 
 ASP623  PHE694  ASN695  SER759  ASP760  ASP761  ALA762  ILE779  LEU786  VAL792 
 PHE793  MET794  SER795  GLU796  ALA797  LYS798  CYS799  TRP800  GLU811  SER814 

> <Gold.Protein.RotatedAtoms>
  152.3932  133.6709  159.6254 H   0  0  0  0  0  0  0  0  0  0  0  0  # atno 6907 bound_to 6896
  150.7836  133.8919  159.3324 H   0  0  0  0  0  0  0  0  0  0  0  0  # atno 6908 bound_to 6896
  151.6701  135.0979  160.0247 H   0  0  0  0  0  0  0  0  0  0  0  0  # atno 6909 bound_to 6896
  146.1250  139.6086  142.9264 H   0  0  0  0  0  0  0  0  0  0  0  0  # atno 7974 bound_to 7965
  155.8345  140.3465  155.5593 H   0  0  0  0  0  0  0  0  0  0  0  0  # atno 8008 bound_to 7997
  155.8207  140.0912  157.1870 H   0  0  0  0  0  0  0  0  0  0  0  0  # atno 8009 bound_to 7997
  154.4004  140.1430  156.3483 H   0  0  0  0  0  0  0  0  0  0  0  0  # atno 8010 bound_to 7997
  140.6885  143.2914  151.3539 H   0  0  0  0  0  0  0  0  0  0  0  0  # atno 10167 bound_to 10162
  157.6068  130.9183  149.9901 H   0  0  0  0  0  0  0  0  0  0  0  0  # atno 10718 bound_to 10713
  154.2839  135.2762  155.2685 H   0  0  0  0  0  0  0  0  0  0  0  0  # atno 10763 bound_to 10752
  154.5193  135.5760  153.6671 H   0  0  0  0  0  0  0  0  0  0  0  0  # atno 10764 bound_to 10752
  152.9924  135.6200  154.3000 H   0  0  0  0  0  0  0  0  0  0  0  0  # atno 10765 bound_to 10752
  141.1634  133.6910  156.7358 H   0  0  0  0  0  0  0  0  0  0  0  0  # atno 11005 bound_to 11000
  145.5384  141.0422  143.2344 LP  0  0  0  0  0  0  0  0  0  0  0  0  # atno 17320 bound_to 7965
  144.7634  139.6903  143.7225 LP  0  0  0  0  0  0  0  0  0  0  0  0  # atno 17321 bound_to 7965
  139.6265  144.0804  152.2439 LP  0  0  0  0  0  0  0  0  0  0  0  0  # atno 17342 bound_to 10162
  140.0265  144.6113  150.7523 LP  0  0  0  0  0  0  0  0  0  0  0  0  # atno 17343 bound_to 10162
  156.1157  130.3648  149.9973 LP  0  0  0  0  0  0  0  0  0  0  0  0  # atno 17370 bound_to 10713
  156.8063  130.9308  151.3645 LP  0  0  0  0  0  0  0  0  0  0  0  0  # atno 17371 bound_to 10713
  140.2711  134.8391  157.3848 LP  0  0  0  0  0  0  0  0  0  0  0  0  # atno 17394 bound_to 11000
  140.1521  134.4837  155.7954 LP  0  0  0  0  0  0  0  0  0  0  0  0  # atno 17395 bound_to 11000

$$$$
