#       Name:                AV-unprocessed.smi:1200
#       Creating user name   scv26
#       Creation time:       Fri Mar 27 04:04:31 2020


#       File generated by GOLD software.
#

@<TRIPOS>MOLECULE
AV-unprocessed.smi:1200
    48    49     1
SMALL
NO_CHARGES


@<TRIPOS>ATOM
      1 ****        -6.2860   3.5236  -0.8259 C.3            1 S1                 0.0000
      2 ****        -5.6821   2.2000  -0.7981 N.am           1 S1                 0.0000
      3 ****        -4.4021   1.9492  -1.1063 C.2            1 S1                 0.0000
      4 ****        -3.6079   2.8242  -1.4536 O.2            1 S1                 0.0000
      5 ****        -3.9608   0.4841  -1.0257 C.3            1 S1                 0.0000
      6 ****        -2.4850   0.3252  -0.9637 N.4            1 S1                 1.0000
      7 ****        -2.0327  -0.9919  -1.4795 C.3            1 S1                 0.0000
      8 ****        -0.4976  -1.0647  -1.5440 C.3            1 S1                 0.0000
      9 ****         0.1303  -0.7796  -0.1703 C.3            1 S1                 0.0000
     10 ****         1.5864  -0.7679  -0.2811 N.am           1 S1                 0.0000
     11 ****         2.4387  -1.0595   0.7124 C.2            1 S1                 0.0000
     12 ****         2.0731  -1.3739   1.8444 O.2            1 S1                 0.0000
     13 ****         3.7143  -0.9690   0.2975 N.am           1 S1                 0.0000
     14 ****         4.9143  -1.2268   1.0168 C.ar           1 S1                 0.0000
     15 ****         5.0009  -1.3601   2.4246 C.ar           1 S1                 0.0000
     16 ****         6.2584  -1.6094   3.0080 C.ar           1 S1                 0.0000
     17 ****         7.3833  -1.7097   2.1672 C.ar           1 S1                 0.0000
     18 ****         7.3184  -1.5735   0.8263 N.ar           1 S1                 0.0000
     19 ****         6.1097  -1.3354   0.2741 C.ar           1 S1                 0.0000
     20 ****        -0.3868   0.5682   0.3643 C.3            1 S1                 0.0000
     21 ****        -1.9238   0.6053   0.3852 C.3            1 S1                 0.0000
     22 ****        -7.3459   3.4541  -0.5806 H              1 S1                 0.0000
     23 ****        -6.1938   3.9742  -1.8151 H              1 S1                 0.0000
     24 ****        -5.8102   4.1818  -0.0976 H              1 S1                 0.0000
     25 ****        -6.2761   1.4285  -0.5298 H              1 S1                 0.0000
     26 ****        -4.4274  -0.0106  -0.1721 H              1 S1                 0.0000
     27 ****        -4.3466  -0.0056  -1.9208 H              1 S1                 0.0000
     28 ****        -2.4231  -1.7871  -0.8423 H              1 S1                 0.0000
     29 ****        -2.4393  -1.1564  -2.4781 H              1 S1                 0.0000
     30 ****        -0.1906  -2.0495  -1.8989 H              1 S1                 0.0000
     31 ****        -0.1322  -0.3438  -2.2773 H              1 S1                 0.0000
     32 ****        -0.1739  -1.5749   0.5135 H              1 S1                 0.0000
     33 ****         1.9739  -0.5223  -1.1806 H              1 S1                 0.0000
     34 ****         3.8439  -0.7352  -0.6761 H              1 S1                 0.0000
     35 ****         4.1426  -1.2691   3.0708 H              1 S1                 0.0000
     36 ****         6.3587  -1.7189   4.0778 H              1 S1                 0.0000
     37 ****         8.3614  -1.9002   2.5833 H              1 S1                 0.0000
     38 ****         6.0971  -1.2315  -0.8012 H              1 S1                 0.0000
     39 ****        -0.0031   0.7474   1.3693 H              1 S1                 0.0000
     40 ****        -0.0142   1.3831  -0.2583 H              1 S1                 0.0000
     41 ****        -2.2525   1.5848   0.7335 H              1 S1                 0.0000
     42 ****        -2.3057  -0.1261   1.0994 H              1 S1                 0.0000
     43 ****        -2.1051   1.0208  -1.5904 H              1 S1                 0.0000
     44 ****        -3.9085   3.7758  -1.5165 LP             1 S1                 0.0000
     45 ****        -2.6625   2.5829  -1.6728 LP             1 S1                 0.0000
     46 ****         1.0977  -1.4216   2.0596 LP             1 S1                 0.0000
     47 ****         2.7513  -1.5818   2.5492 LP             1 S1                 0.0000
     48 ****         8.1392  -1.6466   0.2598 LP             1 S1                 0.0000
@<TRIPOS>BOND
    1    1    2 1     
    2    1   22 1     
    3    1   23 1     
    4    1   24 1     
    5    2    3 am    
    6    2   25 1     
    7    3    4 2     
    8    3    5 1     
    9    5    6 1     
   10    5   26 1     
   11    5   27 1     
   12    6   21 1     
   13    6    7 1     
   14    6   43 1     
   15    7    8 1     
   16    7   28 1     
   17    7   29 1     
   18    8    9 1     
   19    8   30 1     
   20    8   31 1     
   21    9   10 1     
   22    9   20 1     
   23    9   32 1     
   24   10   11 am    
   25   10   33 1     
   26   11   12 2     
   27   11   13 am    
   28   13   14 1     
   29   13   34 1     
   30   14   19 ar    
   31   14   15 ar    
   32   15   16 ar    
   33   15   35 1     
   34   16   17 ar    
   35   16   36 1     
   36   17   18 ar    
   37   17   37 1     
   38   18   19 ar    
   39   19   38 1     
   40   20   21 1     
   41   20   39 1     
   42   20   40 1     
   43   21   41 1     
   44   21   42 1     
   45    4   44 1     
   46    4   45 1     
   47   12   46 1     
   48   12   47 1     
   49   18   48 1     
@<TRIPOS>SUBSTRUCTURE
      1 S1             1
@<TRIPOS>SET
LONE_PAIRS      STATIC     ATOMS    <user>   **** ""
5 44 45 46 47 48
DONOR_HYDROGENS      STATIC     ATOMS    <user>   **** ""
4 25 43 33 34
ATOM$BLUE        STATIC     ATOMS    COLORGROUP SYSTEM
5 44 45 46 47 48
ATOM$RED        STATIC     ATOMS    COLORGROUP SYSTEM
4 25 43 33 34
