AV-unprocessed.smi:1319|AV-procd|sdf|5459|dock1
  -GOLD-   22720 5 23D 1   1.00000     0.00000
 Structure written by MMmdl.
 28 29  0  0  0  0  0  0  0  0  1 V2000
  153.2615  137.3744  156.9912 N   0  0  0  0  0  0  0  0  0  0  0  0
  152.4434  138.2082  156.2679 C   0  0  0  0  0  0  0  0  0  0  0  0
  151.8827  137.6828  155.1711 N   0  0  0  0  0  0  0  0  0  0  0  0
  151.1022  138.5570  154.5232 C   0  0  0  0  0  0  0  0  0  0  0  0
  150.4882  138.0962  153.3839 N   0  0  0  0  0  0  0  0  0  0  0  0
  150.8501  139.8277  154.8568 N   0  0  0  0  0  0  0  0  0  0  0  0
  151.4881  140.1889  155.9758 C   0  0  0  0  0  0  0  0  0  0  0  0
  151.2176  141.8566  156.5157 S   0  0  0  0  0  0  0  0  0  0  0  0
  151.3080  141.6001  158.3089 C   0  0  0  0  0  0  0  0  0  0  0  0
  152.1930  142.6497  158.9947 C   0  0  1  0  0  0  0  0  0  0  0  0
  152.2411  144.0069  158.2840 C   0  0  0  0  0  0  0  0  0  0  0  0
  152.3677  145.0198  159.4146 C   0  0  0  0  0  0  0  0  0  0  0  0
  152.3086  144.1725  160.6855 C   0  0  0  0  0  0  0  0  0  0  0  0
  151.6697  142.9750  160.2729 O   0  0  0  0  0  0  0  0  0  0  0  0
  152.2993  139.4508  156.7416 N   0  0  0  0  0  0  0  0  0  0  0  0
  153.7163  137.7057  157.8294 H   0  0  0  0  0  0  0  0  0  0  0  0
  153.3848  136.4121  156.7119 H   0  0  0  0  0  0  0  0  0  0  0  0
  150.6340  137.1464  153.0739 H   0  0  0  0  0  0  0  0  0  0  0  0
  149.8608  138.6928  152.8645 H   0  0  0  0  0  0  0  0  0  0  0  0
  150.3003  141.6194  158.7256 H   0  0  0  0  0  0  0  0  0  0  0  0
  151.7073  140.6022  158.4922 H   0  0  0  0  0  0  0  0  0  0  0  0
  153.2049  142.2614  159.1279 H   0  0  0  0  0  0  0  0  0  0  0  0
  153.0688  144.0640  157.5764 H   0  0  0  0  0  0  0  0  0  0  0  0
  151.3189  144.1900  157.7311 H   0  0  0  0  0  0  0  0  0  0  0  0
  153.2920  145.5954  159.3586 H   0  0  0  0  0  0  0  0  0  0  0  0
  151.5330  145.7212  159.3818 H   0  0  0  0  0  0  0  0  0  0  0  0
  153.3133  143.9412  161.0430 H   0  0  0  0  0  0  0  0  0  0  0  0
  151.7638  144.6618  161.4931 H   0  0  0  0  0  0  0  0  0  0  0  0
  1  2  1  0  0  0  0
  1 16  1  0  0  0  0
  1 17  1  0  0  0  0
  2 15  1  0  0  0  0
  2  3  2  0  0  0  0
  3  4  1  0  0  0  0
  4  5  1  0  0  0  0
  4  6  2  0  0  0  0
  5 18  1  0  0  0  0
  5 19  1  0  0  0  0
  6  7  1  0  0  0  0
  7  8  1  0  0  0  0
  7 15  2  0  0  0  0
  8  9  1  0  0  0  0
  9 10  1  0  0  0  0
  9 20  1  0  0  0  0
  9 21  1  0  0  0  0
 10 14  1  0  0  0  0
 10 11  1  0  0  0  0
 10 22  1  0  0  0  0
 11 12  1  0  0  0  0
 11 23  1  0  0  0  0
 11 24  1  0  0  0  0
 12 13  1  0  0  0  0
 12 25  1  0  0  0  0
 12 26  1  0  0  0  0
 13 14  1  0  0  0  0
 13 27  1  0  0  0  0
 13 28  1  0  0  0  0
M  END
> <s_m_source_file>
AV-unprocessed.smi

> <i_m_source_file_index>
1319

> <i_lp_mmshare_version>
43012

> <i_f3d_flags>
0

> <s_epik_input>
W05IMl1jMW5jKFtOSDJdKW5jKG4xKVNbQ0gyXVtDQEBIXTJbQ0gyXVtDSDJdW0NIMl1PMg==

> <s_epik_cmdline>
J2VwaWtfcHl0aG9uJywgJy1waCcsICc3LjAnLCAnLXRuJywgJzgnLCAnLW1hJywgJzIwMCcsICctbWV0YWxfYmluZGluZycsICctaW1hZScsICc8aW5maWxlLm1hZT4nLCAnLW9tYWUnLCAnPG91dGZpbGUubWFlPic=

> <r_lp_tautomer_probability>
1

> <r_epik_Ionization_Penalty>
0.000877611

> <r_epik_Ionization_Penalty_Charging>
0

> <r_epik_Ionization_Penalty_Neutral>
0.000877611

> <r_epik_State_Penalty>
-0

> <r_epik_Charging_Adjusted_Penalty>
0

> <i_epik_Tot_Q>
0

> <i_epik_Tot_abs_Q>
0

> <r_epik_Metal_State_Penalty>
-0

> <b_epik_Metal_Only>
0

> <s_lp_Force_Field>
OPLS_2005

> <r_lp_Energy>
7.48637

> <b_lp_Chiralities_Consistent>
1

> <s_lp_Variant>
AV-unprocessed.smi:1319-2

> <Gold.Version>
5.8.1

> <Gold.Id.Protein>
6NUR|6NUR_protein|mol2

> <Gold.PLP.Fitness>
41.2973

> <Gold.PLP.PLP>
-32.1226

> <Gold.PLP.part.hbond>
-6.1252

> <Gold.PLP.part.metal>
0.0000

> <Gold.PLP.part.buried>
-1.4646

> <Gold.PLP.part.nonpolar>
-23.1410

> <Gold.PLP.part.repulsive>
0.4610

> <Gold.PLP.ligand.clash>
0.0000

> <Gold.PLP.ligand.torsion>
1.1322

> <Gold.PLP.Chemscore.Hbond>
3.8092

> <Gold.PLP.Chemscore.CHOScore>
0.0000

> <Gold.PLP.Chemscore.Metal>
0.0000

> <Gold.Chemscore.Hbonds>
donor molecule, donor type, donor heavy atom, donor atom, acceptor molecule, acceptor atom, score
      L1  H     5    18       P1  7949  0.48
      L1  H     5    19       P1  7957  0.59
      P1  H  7989  7998       L1     6  1.00
      P1  H  7997  8008       L1    15  0.61
      P1  H 10752 10765       L1     3  0.04

> <Gold.PLP.Chemscore.Internal.Correction>
0.0115

> <Gold.Rescore>
     Score         DG    S(hbond)    S(metal)    S(lipo)     H(rot)  DE(clash)    DE(int)     intcor
     12.21     -14.99       2.15        0.00      62.78       1.96       1.61       1.16       ----

> <Gold.Chemscore.Fitness>
12.2140

> <Gold.Chemscore.DG>
-14.9855

> <Gold.Chemscore.ZeroCoef>
-5.4800

> <Gold.Chemscore.Hbond>
2.1505

> <Gold.Chemscore.Metal>
0.0000

> <Gold.Chemscore.Lipo>
62.7800

> <Gold.Chemscore.Internal_Hbond>
0.0000

> <Gold.Chemscore.DEClash>
1.6139

> <Gold.Chemscore.DEInternal>
1.1575

> <Gold.Chemscore.Rot>
1.9619

> <Gold.Chemscore.Internal.Correction>
   9.000000E+99

> <Gold.Chemscore.Hbonds>
donor molecule, donor type, donor heavy atom, donor atom, acceptor molecule, acceptor atom, score
      L1  H     5    18       P1  7949  0.03
      L1  H     5    19       P1  7957  0.41
      P1  H  7989  7998       L1     6  0.25
      P1  H  7997  8008       L1    15  0.09
      P1  H 10752 10765       L1     3  0.07

> <Gold.Chemscore.Hbond.Weighted>
-7.1826

> <Gold.Chemscore.Metal.Weighted>
-0.0000

> <Gold.Chemscore.Lipo.Weighted>
-7.3453

> <Gold.Chemscore.Internal_Hbond.Weighted>
0.0000

> <Gold.Chemscore.DEClash.Weighted>
1.6139

> <Gold.Chemscore.DEInternal.Weighted>
1.1575

> <Gold.Chemscore.Rot.Weighted>
5.0224

> <Gold.Chemscore.Internal.Correction.Weighted>
   9.000000E+99

> <Gold.Protein.RotatedTorsions>
[ 6907 6896 6895 6894 ] final  -24.39 input  -60.11 | X-H torsion
[ 7974 7965 7964 7962 ] final   97.56 input  175.53 | X-H torsion
[ 8008 7997 7996 7995 ] final  -55.25 input   59.86 | X-H torsion
[ 10167 10162 10161 10158 ] final  -78.34 input  -65.29 | X-H torsion
[ 10718 10713 10712 10709 ] final -149.07 input   66.30 | X-H torsion
[ 10763 10752 10751 10750 ] final  168.92 input  -60.55 | X-H torsion
[ 11005 11000 10999 10996 ] final   94.21 input  -57.11 | X-H torsion

> <Gold.Protein.ActiveResidues>
 VAL166  LYS551  ARG553  GLY616  TRP617  ASP618  TYR619  PRO620  LYS621  CYS622 
 ASP623  PHE694  ASN695  SER759  ASP760  ASP761  ALA762  ILE779  LEU786  VAL792 
 PHE793  MET794  SER795  GLU796  ALA797  LYS798  CYS799  TRP800  GLU811  SER814 

> <Gold.Protein.RotatedAtoms>
  151.1902  135.0399  159.8828 H   0  0  0  0  0  0  0  0  0  0  0  0  # atno 6907 bound_to 6896
  152.5440  134.0965  159.8309 H   0  0  0  0  0  0  0  0  0  0  0  0  # atno 6908 bound_to 6896
  151.1093  133.5138  159.2638 H   0  0  0  0  0  0  0  0  0  0  0  0  # atno 6909 bound_to 6896
  145.4239  139.2318  143.3181 H   0  0  0  0  0  0  0  0  0  0  0  0  # atno 7974 bound_to 7965
  154.4189  140.1157  156.5447 H   0  0  0  0  0  0  0  0  0  0  0  0  # atno 8008 bound_to 7997
  155.6472  140.3496  155.4716 H   0  0  0  0  0  0  0  0  0  0  0  0  # atno 8009 bound_to 7997
  155.9822  140.1162  157.0705 H   0  0  0  0  0  0  0  0  0  0  0  0  # atno 8010 bound_to 7997
  140.4691  143.2432  151.8233 H   0  0  0  0  0  0  0  0  0  0  0  0  # atno 10167 bound_to 10162
  156.4284  130.8063  151.2289 H   0  0  0  0  0  0  0  0  0  0  0  0  # atno 10718 bound_to 10713
  154.3756  135.2753  155.2241 H   0  0  0  0  0  0  0  0  0  0  0  0  # atno 10763 bound_to 10752
  154.4370  135.5963  153.6108 H   0  0  0  0  0  0  0  0  0  0  0  0  # atno 10764 bound_to 10752
  152.9836  135.6009  154.3992 H   0  0  0  0  0  0  0  0  0  0  0  0  # atno 10765 bound_to 10752
  139.8801  134.8832  156.3830 H   0  0  0  0  0  0  0  0  0  0  0  0  # atno 11005 bound_to 11000
  146.2642  140.4967  142.8841 LP  0  0  0  0  0  0  0  0  0  0  0  0  # atno 17320 bound_to 7965
  144.8227  140.6577  143.6342 LP  0  0  0  0  0  0  0  0  0  0  0  0  # atno 17321 bound_to 7965
  139.4816  144.4914  151.9180 LP  0  0  0  0  0  0  0  0  0  0  0  0  # atno 17342 bound_to 10162
  140.3999  144.2506  150.5893 LP  0  0  0  0  0  0  0  0  0  0  0  0  # atno 17343 bound_to 10162
  157.7508  131.0206  150.3715 LP  0  0  0  0  0  0  0  0  0  0  0  0  # atno 17370 bound_to 10713
  156.4047  130.3922  149.6934 LP  0  0  0  0  0  0  0  0  0  0  0  0  # atno 17371 bound_to 10713
  140.9385  133.7530  156.0116 LP  0  0  0  0  0  0  0  0  0  0  0  0  # atno 17394 bound_to 11000
  140.8247  134.3248  157.5370 LP  0  0  0  0  0  0  0  0  0  0  0  0  # atno 17395 bound_to 11000

$$$$
