#       Name:                AV-unprocessed.smi:3287
#       Creating user name   scv26
#       Creation time:       Fri Mar 27 18:52:39 2020


#       File generated by GOLD software.
#

@<TRIPOS>MOLECULE
AV-unprocessed.smi:3287
    46    47     1
SMALL
NO_CHARGES


@<TRIPOS>ATOM
      1 ****        -3.4648   2.1530  -1.9651 C.3            1 S1                 0.0000
      2 ****        -2.6729   2.6793  -0.7510 C.3            1 S1                 0.0000
      3 ****        -1.1600   2.7468  -1.0442 C.3            1 S1                 0.0000
      4 ****        -0.5044   1.3553  -1.0781 C.3            1 S1                 0.0000
      5 ****        -0.7629   0.5778   0.2287 C.3            1 S1                 0.0000
      6 ****        -0.1897  -0.7848   0.1742 N.4            1 S1                 1.0000
      7 ****         1.2786  -0.8591   0.3351 C.3            1 S1                 0.0000
      8 ****         1.7680  -2.3172   0.3657 C.3            1 S1                 0.0000
      9 ****         1.1842  -2.9708   1.4765 O.3            1 S1                 0.0000
     10 ****         3.2867  -2.3838   0.4056 C.ar           1 S1                 0.0000
     11 ****         4.0211  -2.6802  -0.7618 C.ar           1 S1                 0.0000
     12 ****         5.4277  -2.7230  -0.6807 C.ar           1 S1                 0.0000
     13 ****         6.1120  -2.4915   0.4598 N.ar           1 S1                 0.0000
     14 ****         5.4051  -2.2058   1.5739 C.ar           1 S1                 0.0000
     15 ****         3.9978  -2.1383   1.6005 C.ar           1 S1                 0.0000
     16 ****        -2.2730   0.4963   0.5195 C.3            1 S1                 0.0000
     17 ****        -2.9237   1.8937   0.5614 C.3            1 S1                 0.0000
     18 ****        -4.4086   1.8210   0.9539 C.3            1 S1                 0.0000
     19 ****        -3.2431   1.1085  -2.1819 H              1 S1                 0.0000
     20 ****        -3.2300   2.7295  -2.8603 H              1 S1                 0.0000
     21 ****        -4.5399   2.2379  -1.8087 H              1 S1                 0.0000
     22 ****        -3.0099   3.7040  -0.5878 H              1 S1                 0.0000
     23 ****        -0.9811   3.2666  -1.9861 H              1 S1                 0.0000
     24 ****        -0.6736   3.3474  -0.2743 H              1 S1                 0.0000
     25 ****        -0.8831   0.7892  -1.9299 H              1 S1                 0.0000
     26 ****         0.5658   1.4766  -1.2448 H              1 S1                 0.0000
     27 ****        -0.2934   1.1112   1.0569 H              1 S1                 0.0000
     28 ****        -0.5941  -1.3172   0.9318 H              1 S1                 0.0000
     29 ****         1.7541  -0.3362  -0.4948 H              1 S1                 0.0000
     30 ****         1.5742  -0.3433   1.2501 H              1 S1                 0.0000
     31 ****         1.4233  -2.8317  -0.5327 H              1 S1                 0.0000
     32 ****         1.4567  -3.8762   1.4688 H              1 S1                 0.0000
     33 ****         3.5241  -2.8707  -1.7016 H              1 S1                 0.0000
     34 ****         6.0186  -2.9476  -1.5562 H              1 S1                 0.0000
     35 ****         5.9775  -2.0244   2.4715 H              1 S1                 0.0000
     36 ****         3.4814  -1.9016   2.5193 H              1 S1                 0.0000
     37 ****        -2.7656  -0.1220  -0.2318 H              1 S1                 0.0000
     38 ****        -2.4309  -0.0061   1.4749 H              1 S1                 0.0000
     39 ****        -2.4275   2.4499   1.3587 H              1 S1                 0.0000
     40 ****        -4.9816   1.2057   0.2602 H              1 S1                 0.0000
     41 ****        -4.8592   2.8137   0.9744 H              1 S1                 0.0000
     42 ****        -4.5273   1.3875   1.9473 H              1 S1                 0.0000
     43 ****        -0.4546  -1.2196  -0.6979 H              1 S1                 0.0000
     44 ****         0.1875  -2.9179   1.4136 LP             1 S1                 0.0000
     45 ****         1.4884  -2.5341   2.3231 LP             1 S1                 0.0000
     46 ****         7.1110  -2.5304   0.4788 LP             1 S1                 0.0000
@<TRIPOS>BOND
    1    1    2 1     
    2    1   19 1     
    3    1   20 1     
    4    1   21 1     
    5    2   17 1     
    6    2    3 1     
    7    2   22 1     
    8    3    4 1     
    9    3   23 1     
   10    3   24 1     
   11    4    5 1     
   12    4   25 1     
   13    4   26 1     
   14    5    6 1     
   15    5   16 1     
   16    5   27 1     
   17    6    7 1     
   18    6   28 1     
   19    6   43 1     
   20    7    8 1     
   21    7   29 1     
   22    7   30 1     
   23    8    9 1     
   24    8   10 1     
   25    8   31 1     
   26    9   32 1     
   27   10   15 ar    
   28   10   11 ar    
   29   11   12 ar    
   30   11   33 1     
   31   12   13 ar    
   32   12   34 1     
   33   13   14 ar    
   34   14   15 ar    
   35   14   35 1     
   36   15   36 1     
   37   16   17 1     
   38   16   37 1     
   39   16   38 1     
   40   17   18 1     
   41   17   39 1     
   42   18   40 1     
   43   18   41 1     
   44   18   42 1     
   45    9   44 1     
   46    9   45 1     
   47   13   46 1     
@<TRIPOS>SUBSTRUCTURE
      1 S1             1
@<TRIPOS>SET
LONE_PAIRS      STATIC     ATOMS    <user>   **** ""
3 44 45 46
DONOR_HYDROGENS      STATIC     ATOMS    <user>   **** ""
3 28 43 32
ATOM$BLUE        STATIC     ATOMS    COLORGROUP SYSTEM
3 44 45 46
ATOM$RED        STATIC     ATOMS    COLORGROUP SYSTEM
3 28 43 32
