AV-unprocessed.smi:1802|AV-procd|sdf|7274|dock2
  -GOLD-   22720 8533D 1   1.00000     0.00000
 Structure written by MMmdl.
 41 42  0  0  0  0  0  0  0  0  2 V2000
  145.0966  132.5077  149.8540 C   0  0  0  0  0  0  0  0  0  0  0  0
  145.7728  133.4847  150.8261 C   0  0  1  0  0  0  0  0  0  0  0  0
  144.7347  134.2833  151.6323 C   0  0  0  0  0  0  0  0  0  0  0  0
  145.4370  135.2297  152.6138 C   0  0  0  0  0  0  0  0  0  0  0  0
  146.4124  134.4594  153.5179 C   0  0  0  0  0  0  0  0  0  0  0  0
  147.4061  133.7060  152.7104 N   0  3  1  0  0  0  0  0  0  0  0  0
  148.4493  133.0677  153.5524 C   0  0  0  0  0  0  0  0  0  0  0  0
  149.2085  134.0892  154.4160 C   0  0  0  0  0  0  0  0  0  0  0  0
  149.7318  133.4716  155.7235 C   0  0  0  0  0  0  0  0  0  0  0  0
  148.7607  133.5941  156.8051 N   0  0  0  0  0  0  0  0  0  0  0  0
  148.8549  134.4633  157.8220 C   0  0  0  0  0  0  0  0  0  0  0  0
  149.7959  135.2462  157.9559 O   0  0  0  0  0  0  0  0  0  0  0  0
  147.8024  134.3614  158.6528 N   0  0  0  0  0  0  0  0  0  0  0  0
  147.5380  135.1081  159.8318 C   0  0  0  0  0  0  0  0  0  0  0  0
  147.8490  136.4060  159.9758 N   0  0  0  0  0  0  0  0  0  0  0  0
  147.4821  136.8930  161.2238 N   0  0  0  0  0  0  0  0  0  0  0  0
  146.9102  135.9449  161.9712 C   0  0  0  0  0  0  0  0  0  0  0  0
  146.7650  134.3633  161.2236 S   0  0  0  0  0  0  0  0  0  0  0  0
  146.7430  132.7556  151.7776 C   0  0  0  0  0  0  0  0  0  0  0  0
  144.4976  131.7678  150.3861 H   0  0  0  0  0  0  0  0  0  0  0  0
  145.8358  131.9720  149.2578 H   0  0  0  0  0  0  0  0  0  0  0  0
  144.4382  133.0348  149.1630 H   0  0  0  0  0  0  0  0  0  0  0  0
  146.3533  134.1904  150.2299 H   0  0  0  0  0  0  0  0  0  0  0  0
  144.0923  134.8548  150.9617 H   0  0  0  0  0  0  0  0  0  0  0  0
  144.0838  133.6021  152.1823 H   0  0  0  0  0  0  0  0  0  0  0  0
  145.9787  135.9978  152.0602 H   0  0  0  0  0  0  0  0  0  0  0  0
  144.6970  135.7510  153.2218 H   0  0  0  0  0  0  0  0  0  0  0  0
  146.9250  135.1670  154.1709 H   0  0  0  0  0  0  0  0  0  0  0  0
  145.8656  133.7693  154.1627 H   0  0  0  0  0  0  0  0  0  0  0  0
  147.9757  132.3509  154.2248 H   0  0  0  0  0  0  0  0  0  0  0  0
  149.1370  132.4947  152.9285 H   0  0  0  0  0  0  0  0  0  0  0  0
  150.0490  134.5081  153.8629 H   0  0  0  0  0  0  0  0  0  0  0  0
  148.5437  134.9232  154.6454 H   0  0  0  0  0  0  0  0  0  0  0  0
  149.9896  132.4214  155.5755 H   0  0  0  0  0  0  0  0  0  0  0  0
  150.6488  133.9744  156.0314 H   0  0  0  0  0  0  0  0  0  0  0  0
  147.9559  132.9853  156.7687 H   0  0  0  0  0  0  0  0  0  0  0  0
  147.1041  133.6739  158.4110 H   0  0  0  0  0  0  0  0  0  0  0  0
  146.5717  136.1790  162.9697 H   0  0  0  0  0  0  0  0  0  0  0  0
  146.2089  131.9965  152.3523 H   0  0  0  0  0  0  0  0  0  0  0  0
  147.4918  132.2306  151.1854 H   0  0  0  0  0  0  0  0  0  0  0  0
  147.8813  134.3934  152.1428 H   0  0  0  0  0  0  0  0  0  0  0  0
  1  2  1  0  0  0  0
  1 20  1  0  0  0  0
  1 21  1  0  0  0  0
  1 22  1  0  0  0  0
  2 19  1  0  0  0  0
  2  3  1  0  0  0  0
  2 23  1  0  0  0  0
  3  4  1  0  0  0  0
  3 24  1  0  0  0  0
  3 25  1  0  0  0  0
  4  5  1  0  0  0  0
  4 26  1  0  0  0  0
  4 27  1  0  0  0  0
  5  6  1  0  0  0  0
  5 28  1  0  0  0  0
  5 29  1  0  0  0  0
  6  7  1  0  0  0  0
  6 19  1  0  0  0  0
  6 41  1  0  0  0  0
  7  8  1  0  0  0  0
  7 30  1  0  0  0  0
  7 31  1  0  0  0  0
  8  9  1  0  0  0  0
  8 32  1  0  0  0  0
  8 33  1  0  0  0  0
  9 10  1  0  0  0  0
  9 34  1  0  0  0  0
  9 35  1  0  0  0  0
 10 11  1  0  0  0  0
 10 36  1  0  0  0  0
 11 12  2  0  0  0  0
 11 13  1  0  0  0  0
 13 14  1  0  0  0  0
 13 37  1  0  0  0  0
 14 18  1  0  0  0  0
 14 15  2  0  0  0  0
 15 16  1  0  0  0  0
 16 17  2  0  0  0  0
 17 18  1  0  0  0  0
 17 38  1  0  0  0  0
 19 39  1  0  0  0  0
 19 40  1  0  0  0  0
M  CHG  1   6   1
M  END
> <s_m_source_file>
AV-unprocessed.smi

> <i_m_source_file_index>
1802

> <i_lp_mmshare_version>
43012

> <i_f3d_flags>
0

> <s_epik_input>
W0NIM11bQ0BASF0xW0NIMl1bQ0gyXVtDSDJdTihbQ0gyXTEpW0NIMl1bQ0gyXVtDSDJdW05IXUMoPU8pW05IXWMybm5bY0hdczI=

> <s_epik_cmdline>
J2VwaWtfcHl0aG9uJywgJy1waCcsICc3LjAnLCAnLXRuJywgJzgnLCAnLW1hJywgJzIwMCcsICctbWV0YWxfYmluZGluZycsICctaW1hZScsICc8aW5maWxlLm1hZT4nLCAnLW9tYWUnLCAnPG91dGZpbGUubWFlPic=

> <r_lp_tautomer_probability>
1

> <r_epik_Ionization_Penalty>
0.00272894

> <r_epik_Ionization_Penalty_Charging>
0.000288442

> <r_epik_Ionization_Penalty_Neutral>
0.0024405

> <r_epik_State_Penalty>
-0

> <r_epik_Charging_Adjusted_Penalty>
0.000288442

> <i_epik_Tot_Q>
1

> <i_epik_Tot_abs_Q>
1

> <r_epik_Metal_State_Penalty>
0.350525

> <b_epik_Metal_Only>
0

> <s_lp_Force_Field>
OPLS_2005

> <r_lp_Energy>
15.2014

> <b_lp_Chiralities_Consistent>
1

> <s_lp_Variant>
AV-unprocessed.smi:1802-4

> <Gold.Version>
5.8.1

> <Gold.Id.Protein>
6NUR|6NUR_protein|mol2

> <Gold.PLP.Fitness>
42.3381

> <Gold.PLP.PLP>
-29.4920

> <Gold.PLP.part.hbond>
-4.0000

> <Gold.PLP.part.metal>
0.0000

> <Gold.PLP.part.buried>
-4.4842

> <Gold.PLP.part.nonpolar>
-22.3098

> <Gold.PLP.part.repulsive>
0.1103

> <Gold.PLP.ligand.clash>
0.0000

> <Gold.PLP.ligand.torsion>
0.7224

> <Gold.PLP.Chemscore.Hbond>
4.7360

> <Gold.PLP.Chemscore.CHOScore>
0.0000

> <Gold.PLP.Chemscore.Metal>
0.0000

> <Gold.Chemscore.Hbonds>
donor molecule, donor type, donor heavy atom, donor atom, acceptor molecule, acceptor atom, score
      L1  H     6    41       P1  7948  1.69
      P1  H  6896  6907       L1    12  0.85
      P1  H  6931  6943       L1    16  0.65
      P1  H  6934  6947       L1    16  0.64

> <Gold.PLP.Chemscore.Internal.Correction>
0.0829

> <Gold.Rescore>
     Score         DG    S(hbond)    S(metal)    S(lipo)     H(rot)  DE(clash)    DE(int)     intcor
     14.91     -16.69       2.84        0.00      57.98       1.98       0.00       1.78       ----

> <Gold.Chemscore.Fitness>
14.9106

> <Gold.Chemscore.DG>
-16.6922

> <Gold.Chemscore.ZeroCoef>
-5.4800

> <Gold.Chemscore.Hbond>
2.8429

> <Gold.Chemscore.Metal>
0.0000

> <Gold.Chemscore.Lipo>
57.9815

> <Gold.Chemscore.Internal_Hbond>
0.0000

> <Gold.Chemscore.DEClash>
0.0024

> <Gold.Chemscore.DEInternal>
1.7792

> <Gold.Chemscore.Rot>
1.9793

> <Gold.Chemscore.Internal.Correction>
   9.000000E+99

> <Gold.Chemscore.Hbonds>
donor molecule, donor type, donor heavy atom, donor atom, acceptor molecule, acceptor atom, score
      L1  H     6    41       P1  7948  0.21
      P1  H  6896  6907       L1    12  0.46
      P1  H  6931  6943       L1    16  0.40
      P1  H  6934  6947       L1    16  0.30

> <Gold.Chemscore.Hbond.Weighted>
-9.4953

> <Gold.Chemscore.Metal.Weighted>
-0.0000

> <Gold.Chemscore.Lipo.Weighted>
-6.7838

> <Gold.Chemscore.Internal_Hbond.Weighted>
0.0000

> <Gold.Chemscore.DEClash.Weighted>
0.0024

> <Gold.Chemscore.DEInternal.Weighted>
1.7792

> <Gold.Chemscore.Rot.Weighted>
5.0670

> <Gold.Chemscore.Internal.Correction.Weighted>
   9.000000E+99

> <Gold.Protein.RotatedTorsions>
[ 6907 6896 6895 6894 ] final  -61.21 input  -60.11 | X-H torsion
[ 7974 7965 7964 7962 ] final   55.27 input  175.53 | X-H torsion
[ 8008 7997 7996 7995 ] final   28.99 input   59.86 | X-H torsion
[ 10167 10162 10161 10158 ] final -137.27 input  -65.29 | X-H torsion
[ 10718 10713 10712 10709 ] final  130.49 input   66.30 | X-H torsion
[ 10763 10752 10751 10750 ] final   16.37 input  -60.55 | X-H torsion
[ 11005 11000 10999 10996 ] final  113.52 input  -57.11 | X-H torsion

> <Gold.Protein.ActiveResidues>
 VAL166  LYS551  ARG553  GLY616  TRP617  ASP618  TYR619  PRO620  LYS621  CYS622 
 ASP623  PHE694  ASN695  SER759  ASP760  ASP761  ALA762  ILE779  LEU786  VAL792 
 PHE793  MET794  SER795  GLU796  ALA797  LYS798  CYS799  TRP800  GLU811  SER814 

> <Gold.Protein.RotatedAtoms>
  150.7801  134.6735  159.6404 H   0  0  0  0  0  0  0  0  0  0  0  0  # atno 6907 bound_to 6896
  152.3882  134.6480  160.0126 H   0  0  0  0  0  0  0  0  0  0  0  0  # atno 6908 bound_to 6896
  151.6788  133.3276  159.3250 H   0  0  0  0  0  0  0  0  0  0  0  0  # atno 6909 bound_to 6896
  145.9521  139.3982  143.0299 H   0  0  0  0  0  0  0  0  0  0  0  0  # atno 7974 bound_to 7965
  155.0674  140.3196  155.4641 H   0  0  0  0  0  0  0  0  0  0  0  0  # atno 8008 bound_to 7997
  156.2799  140.2118  156.5746 H   0  0  0  0  0  0  0  0  0  0  0  0  # atno 8009 bound_to 7997
  154.7083  140.0500  157.0512 H   0  0  0  0  0  0  0  0  0  0  0  0  # atno 8010 bound_to 7997
  139.8595  143.7096  152.2651 H   0  0  0  0  0  0  0  0  0  0  0  0  # atno 10167 bound_to 10162
  157.5057  131.1095  150.9365 H   0  0  0  0  0  0  0  0  0  0  0  0  # atno 10718 bound_to 10713
  153.1437  135.6765  153.8987 H   0  0  0  0  0  0  0  0  0  0  0  0  # atno 10763 bound_to 10752
  153.8436  135.3102  155.3429 H   0  0  0  0  0  0  0  0  0  0  0  0  # atno 10764 bound_to 10752
  154.7808  135.4889  153.9925 H   0  0  0  0  0  0  0  0  0  0  0  0  # atno 10765 bound_to 10752
  139.8955  134.9551  156.6751 H   0  0  0  0  0  0  0  0  0  0  0  0  # atno 11005 bound_to 11000
  145.8156  140.9704  143.0926 LP  0  0  0  0  0  0  0  0  0  0  0  0  # atno 17320 bound_to 7965
  144.6798  139.9976  143.7484 LP  0  0  0  0  0  0  0  0  0  0  0  0  # atno 17321 bound_to 7965
  139.7388  144.7565  151.0686 LP  0  0  0  0  0  0  0  0  0  0  0  0  # atno 17342 bound_to 10162
  140.7777  143.4998  150.9786 LP  0  0  0  0  0  0  0  0  0  0  0  0  # atno 17343 bound_to 10162
  157.0022  130.5604  149.5312 LP  0  0  0  0  0  0  0  0  0  0  0  0  # atno 17370 bound_to 10713
  156.0256  130.5350  150.8398 LP  0  0  0  0  0  0  0  0  0  0  0  0  # atno 17371 bound_to 10713
  140.7343  133.9032  155.8233 LP  0  0  0  0  0  0  0  0  0  0  0  0  # atno 17394 bound_to 11000
  141.0128  134.0996  157.4203 LP  0  0  0  0  0  0  0  0  0  0  0  0  # atno 17395 bound_to 11000

$$$$
