AV-unprocessed.smi:1952|AV-procd|sdf|7884|dock10
  -GOLD-   2272010 33D 1   1.00000     0.00000
 Structure written by MMmdl.
 39 40  0  0  0  0  0  0  0  0  1 V2000
  138.1193  136.8663  154.0925 C   0  0  0  0  0  0  0  0  0  0  0  0
  139.6049  136.9431  154.0035 C   0  0  0  0  0  0  0  0  0  0  0  0
  140.4656  137.9475  153.6599 C   0  0  0  0  0  0  0  0  0  0  0  0
  141.7402  137.3344  153.7886 C   0  0  0  0  0  0  0  0  0  0  0  0
  142.9270  138.0599  153.5127 N   0  0  0  0  0  0  0  0  0  0  0  0
  144.1784  137.5790  153.4199 C   0  0  0  0  0  0  0  0  0  0  0  0
  144.4953  136.3982  153.5671 O   0  0  0  0  0  0  0  0  0  0  0  0
  145.0547  138.5584  153.1492 N   0  0  0  0  0  0  0  0  0  0  0  0
  146.5020  138.3987  153.0148 C   0  0  1  0  0  0  0  0  0  0  0  0
  146.8131  137.8037  151.6351 C   0  0  0  0  0  0  0  0  0  0  0  0
  147.2094  139.7579  153.2064 C   0  0  0  0  0  0  0  0  0  0  0  0
  148.2658  139.7855  154.2191 N   0  0  0  0  0  0  0  0  0  0  0  0
  149.3271  138.8160  153.9541 C   0  0  0  0  0  0  0  0  0  0  0  0
  150.4320  138.8716  155.0230 C   0  0  0  0  0  0  0  0  0  0  0  0
  150.9577  140.1929  155.0999 O   0  0  0  0  0  0  0  0  0  0  0  0
  149.9602  141.1638  155.3996 C   0  0  0  0  0  0  0  0  0  0  0  0
  148.8566  141.1144  154.3290 C   0  0  0  0  0  0  0  0  0  0  0  0
  141.6645  136.0704  154.1760 N   0  0  0  0  0  0  0  0  0  0  0  0
  140.2956  135.8131  154.3153 O   0  0  0  0  0  0  0  0  0  0  0  0
  137.6669  137.8415  153.9114 H   0  0  0  0  0  0  0  0  0  0  0  0
  137.8079  136.5279  155.0809 H   0  0  0  0  0  0  0  0  0  0  0  0
  137.7240  136.1680  153.3546 H   0  0  0  0  0  0  0  0  0  0  0  0
  140.2196  138.9567  153.3646 H   0  0  0  0  0  0  0  0  0  0  0  0
  142.8112  139.0527  153.3748 H   0  0  0  0  0  0  0  0  0  0  0  0
  144.6957  139.4962  153.0477 H   0  0  0  0  0  0  0  0  0  0  0  0
  146.8723  137.6851  153.7514 H   0  0  0  0  0  0  0  0  0  0  0  0
  147.8847  137.6460  151.5102 H   0  0  0  0  0  0  0  0  0  0  0  0
  146.4781  138.4612  150.8320 H   0  0  0  0  0  0  0  0  0  0  0  0
  146.3221  136.8388  151.5032 H   0  0  0  0  0  0  0  0  0  0  0  0
  147.6181  140.0904  152.2509 H   0  0  0  0  0  0  0  0  0  0  0  0
  146.4478  140.4927  153.4722 H   0  0  0  0  0  0  0  0  0  0  0  0
  148.9236  137.8048  153.9261 H   0  0  0  0  0  0  0  0  0  0  0  0
  149.7648  139.0044  152.9727 H   0  0  0  0  0  0  0  0  0  0  0  0
  150.0418  138.5698  155.9965 H   0  0  0  0  0  0  0  0  0  0  0  0
  151.2373  138.1809  154.7724 H   0  0  0  0  0  0  0  0  0  0  0  0
  149.5453  140.9754  156.3911 H   0  0  0  0  0  0  0  0  0  0  0  0
  150.4196  142.1520  155.4262 H   0  0  0  0  0  0  0  0  0  0  0  0
  149.2737  141.4150  153.3665 H   0  0  0  0  0  0  0  0  0  0  0  0
  148.0846  141.8439  154.5762 H   0  0  0  0  0  0  0  0  0  0  0  0
  1  2  1  0  0  0  0
  1 20  1  0  0  0  0
  1 21  1  0  0  0  0
  1 22  1  0  0  0  0
  2 19  1  0  0  0  0
  2  3  2  0  0  0  0
  3  4  1  0  0  0  0
  3 23  1  0  0  0  0
  4  5  1  0  0  0  0
  4 18  2  0  0  0  0
  5  6  1  0  0  0  0
  5 24  1  0  0  0  0
  6  7  2  0  0  0  0
  6  8  1  0  0  0  0
  8  9  1  0  0  0  0
  8 25  1  0  0  0  0
  9 10  1  0  0  0  0
  9 11  1  0  0  0  0
  9 26  1  0  0  0  0
 10 27  1  0  0  0  0
 10 28  1  0  0  0  0
 10 29  1  0  0  0  0
 11 12  1  0  0  0  0
 11 30  1  0  0  0  0
 11 31  1  0  0  0  0
 12 17  1  0  0  0  0
 12 13  1  0  0  0  0
 13 14  1  0  0  0  0
 13 32  1  0  0  0  0
 13 33  1  0  0  0  0
 14 15  1  0  0  0  0
 14 34  1  0  0  0  0
 14 35  1  0  0  0  0
 15 16  1  0  0  0  0
 16 17  1  0  0  0  0
 16 36  1  0  0  0  0
 16 37  1  0  0  0  0
 17 38  1  0  0  0  0
 17 39  1  0  0  0  0
 18 19  1  0  0  0  0
M  END
> <s_m_source_file>
AV-unprocessed.smi

> <i_m_source_file_index>
1952

> <i_lp_mmshare_version>
43012

> <i_f3d_flags>
0

> <s_epik_input>
W0NIM11jMVtjSF1jKG5vMSlbTkhdQyg9TylbTkhdW0NASF0oW0NIM10pW0NIMl1OMltDSDJdW0NIMl1PW0NIMl1bQ0gyXTI=

> <s_epik_cmdline>
J2VwaWtfcHl0aG9uJywgJy1waCcsICc3LjAnLCAnLXRuJywgJzgnLCAnLW1hJywgJzIwMCcsICctbWV0YWxfYmluZGluZycsICctaW1hZScsICc8aW5maWxlLm1hZT4nLCAnLW9tYWUnLCAnPG91dGZpbGUubWFlPic=

> <r_epik_Ionization_Penalty>
0.214075

> <r_epik_Ionization_Penalty_Charging>
0

> <r_epik_Ionization_Penalty_Neutral>
0.214075

> <r_epik_State_Penalty>
0.204211

> <r_epik_Charging_Adjusted_Penalty>
0.204211

> <i_epik_Tot_Q>
0

> <i_epik_Tot_abs_Q>
0

> <r_epik_Metal_State_Penalty>
0.218782

> <b_epik_Metal_Only>
0

> <s_lp_Force_Field>
OPLS_2005

> <r_lp_Energy>
23.1471

> <b_lp_Chiralities_Consistent>
1

> <s_lp_Variant>
AV-unprocessed.smi:1952-2

> <Gold.Version>
5.8.1

> <Gold.Id.Protein>
6NUR|6NUR_protein|mol2

> <Gold.PLP.Fitness>
38.1745

> <Gold.PLP.PLP>
-28.8444

> <Gold.PLP.part.hbond>
-3.7216

> <Gold.PLP.part.metal>
0.0000

> <Gold.PLP.part.buried>
1.2169

> <Gold.PLP.part.nonpolar>
-26.6302

> <Gold.PLP.part.repulsive>
0.3967

> <Gold.PLP.ligand.clash>
0.0000

> <Gold.PLP.ligand.torsion>
1.0143

> <Gold.PLP.Chemscore.Hbond>
3.7833

> <Gold.PLP.Chemscore.CHOScore>
0.0000

> <Gold.PLP.Chemscore.Metal>
0.0000

> <Gold.Chemscore.Hbonds>
donor molecule, donor type, donor heavy atom, donor atom, acceptor molecule, acceptor atom, score
      L1  H     5    24       P1 10175  0.80
      L1  H     8    25       P1 10175  0.97
      P1  H  7989  7998       L1    15  1.00
      P1  H 11000 11005       L1    19  1.00

> <Gold.PLP.Chemscore.Internal.Correction>
0.0088

> <Gold.Rescore>
     Score         DG    S(hbond)    S(metal)    S(lipo)     H(rot)  DE(clash)    DE(int)     intcor
     16.05     -20.27       3.07        0.00      72.86       1.56       1.91       2.31       ----

> <Gold.Chemscore.Fitness>
16.0526

> <Gold.Chemscore.DG>
-20.2668

> <Gold.Chemscore.ZeroCoef>
-5.4800

> <Gold.Chemscore.Hbond>
3.0704

> <Gold.Chemscore.Metal>
0.0000

> <Gold.Chemscore.Lipo>
72.8572

> <Gold.Chemscore.Internal_Hbond>
0.0000

> <Gold.Chemscore.DEClash>
1.9067

> <Gold.Chemscore.DEInternal>
2.3075

> <Gold.Chemscore.Rot>
1.5597

> <Gold.Chemscore.Internal.Correction>
   9.000000E+99

> <Gold.Chemscore.Hbonds>
donor molecule, donor type, donor heavy atom, donor atom, acceptor molecule, acceptor atom, score
      L1  H     5    24       P1 10175  0.80
      L1  H     8    25       P1 10175  0.86
      P1  H  7989  7998       L1    15  0.27
      P1  H 11000 11005       L1    19  0.63

> <Gold.Chemscore.Hbond.Weighted>
-10.2553

> <Gold.Chemscore.Metal.Weighted>
-0.0000

> <Gold.Chemscore.Lipo.Weighted>
-8.5243

> <Gold.Chemscore.Internal_Hbond.Weighted>
0.0000

> <Gold.Chemscore.DEClash.Weighted>
1.9067

> <Gold.Chemscore.DEInternal.Weighted>
2.3075

> <Gold.Chemscore.Rot.Weighted>
3.9928

> <Gold.Chemscore.Internal.Correction.Weighted>
   9.000000E+99

> <Gold.Protein.RotatedTorsions>
[ 6907 6896 6895 6894 ] final   79.50 input  -60.11 | X-H torsion
[ 7974 7965 7964 7962 ] final  -11.98 input  175.53 | X-H torsion
[ 8008 7997 7996 7995 ] final   10.92 input   59.86 | X-H torsion
[ 10167 10162 10161 10158 ] final  -89.33 input  -65.29 | X-H torsion
[ 10718 10713 10712 10709 ] final  -69.83 input   66.30 | X-H torsion
[ 10763 10752 10751 10750 ] final  -97.80 input  -60.55 | X-H torsion
[ 11005 11000 10999 10996 ] final   56.19 input  -57.11 | X-H torsion

> <Gold.Protein.ActiveResidues>
 VAL166  LYS551  ARG553  GLY616  TRP617  ASP618  TYR619  PRO620  LYS621  CYS622 
 ASP623  PHE694  ASN695  SER759  ASP760  ASP761  ALA762  ILE779  LEU786  VAL792 
 PHE793  MET794  SER795  GLU796  ALA797  LYS798  CYS799  TRP800  GLU811  SER814 

> <Gold.Protein.RotatedAtoms>
  152.5201  134.3502  159.9247 H   0  0  0  0  0  0  0  0  0  0  0  0  # atno 6907 bound_to 6896
  151.3452  133.3940  159.2682 H   0  0  0  0  0  0  0  0  0  0  0  0  # atno 6908 bound_to 6896
  150.9771  134.9151  159.7880 H   0  0  0  0  0  0  0  0  0  0  0  0  # atno 6909 bound_to 6896
  146.2168  140.2991  142.8374 H   0  0  0  0  0  0  0  0  0  0  0  0  # atno 7974 bound_to 7965
  154.7999  140.2850  155.5929 H   0  0  0  0  0  0  0  0  0  0  0  0  # atno 8008 bound_to 7997
  156.2976  140.2588  156.2794 H   0  0  0  0  0  0  0  0  0  0  0  0  # atno 8009 bound_to 7997
  154.9570  140.0378  157.2161 H   0  0  0  0  0  0  0  0  0  0  0  0  # atno 8010 bound_to 7997
  140.3659  143.2818  151.9559 H   0  0  0  0  0  0  0  0  0  0  0  0  # atno 10167 bound_to 10162
  156.0436  130.4320  150.2206 H   0  0  0  0  0  0  0  0  0  0  0  0  # atno 10718 bound_to 10713
  154.7359  135.5033  153.9041 H   0  0  0  0  0  0  0  0  0  0  0  0  # atno 10763 bound_to 10752
  153.0995  135.6681  153.9708 H   0  0  0  0  0  0  0  0  0  0  0  0  # atno 10764 bound_to 10752
  153.9498  135.3059  155.3418 H   0  0  0  0  0  0  0  0  0  0  0  0  # atno 10765 bound_to 10752
  140.0548  134.5685  155.9220 H   0  0  0  0  0  0  0  0  0  0  0  0  # atno 11005 bound_to 11000
  144.9071  140.7712  143.5831 LP  0  0  0  0  0  0  0  0  0  0  0  0  # atno 17320 bound_to 7965
  145.2919  139.1880  143.4735 LP  0  0  0  0  0  0  0  0  0  0  0  0  # atno 17321 bound_to 7965
  139.4809  144.5951  151.7704 LP  0  0  0  0  0  0  0  0  0  0  0  0  # atno 17342 bound_to 10162
  140.5081  144.1066  150.5988 LP  0  0  0  0  0  0  0  0  0  0  0  0  # atno 17343 bound_to 10162
  157.0298  131.0004  151.3315 LP  0  0  0  0  0  0  0  0  0  0  0  0  # atno 17370 bound_to 10713
  157.5285  130.8043  149.7889 LP  0  0  0  0  0  0  0  0  0  0  0  0  # atno 17371 bound_to 10713
  141.1947  133.6584  156.5607 LP  0  0  0  0  0  0  0  0  0  0  0  0  # atno 17394 bound_to 11000
  140.3861  134.7481  157.4692 LP  0  0  0  0  0  0  0  0  0  0  0  0  # atno 17395 bound_to 11000

$$$$
