AV-unprocessed.smi:1306|AV-procd|sdf|5434|dock1
  -GOLD-   22720 4593D 1   1.00000     0.00000
 Structure written by MMmdl.
 39 40  0  0  0  0  0  0  0  0  1 V2000
  151.0483  139.7552  154.6207 O   0  0  0  0  0  0  0  0  0  0  0  0
  150.0272  140.3192  155.0170 C   0  0  0  0  0  0  0  0  0  0  0  0
  148.6697  140.0559  154.3490 C   0  0  0  0  0  0  0  0  0  0  0  0
  147.6469  141.0512  154.7025 N   0  0  0  0  0  0  0  0  0  0  0  0
  147.2648  142.0185  153.7837 C   0  0  0  0  0  0  0  0  0  0  0  0
  146.3251  142.9593  154.0385 C   0  0  0  0  0  0  0  0  0  0  0  0
  145.6509  142.9985  155.3317 C   0  0  0  0  0  0  0  0  0  0  0  0
  144.7891  143.8117  155.6578 O   0  0  0  0  0  0  0  0  0  0  0  0
  146.0604  142.0077  156.2281 N   0  0  0  0  0  0  0  0  0  0  0  0
  147.0267  141.0336  155.9711 C   0  0  0  0  0  0  0  0  0  0  0  0
  147.3100  140.2010  156.8317 O   0  0  0  0  0  0  0  0  0  0  0  0
  150.0218  141.1980  156.0304 N   0  0  0  0  0  0  0  0  0  0  0  0
  151.1887  141.5804  156.8185 C   0  0  0  0  0  0  0  0  0  0  0  0
  150.9688  141.3513  158.3227 C   0  0  0  0  0  0  0  0  0  0  0  0
  152.5307  141.3575  159.2492 S   0  0  0  0  0  0  0  0  0  0  0  0
  152.7663  143.1430  159.4804 C   0  0  0  0  0  0  0  0  0  0  0  0
  151.9188  143.7002  160.6264 C   0  0  0  0  0  0  0  0  0  0  0  0
  151.7195  145.1886  160.3088 C   0  0  0  0  0  0  0  0  0  0  0  0
  152.1119  145.3772  158.8355 C   0  0  0  0  0  0  0  0  0  0  0  0
  152.3266  143.9706  158.2724 C   0  0  0  0  0  0  0  0  0  0  0  0
  145.6191  141.9942  157.1361 H   0  0  0  0  0  0  0  0  0  0  0  0
  148.7963  140.0172  153.2650 H   0  0  0  0  0  0  0  0  0  0  0  0
  148.3387  139.0565  154.6352 H   0  0  0  0  0  0  0  0  0  0  0  0
  147.7351  142.0253  152.8105 H   0  0  0  0  0  0  0  0  0  0  0  0
  146.0702  143.6862  153.2810 H   0  0  0  0  0  0  0  0  0  0  0  0
  149.1406  141.6173  156.2897 H   0  0  0  0  0  0  0  0  0  0  0  0
  152.0627  141.0227  156.4784 H   0  0  0  0  0  0  0  0  0  0  0  0
  151.4036  142.6324  156.6296 H   0  0  0  0  0  0  0  0  0  0  0  0
  150.3047  142.1124  158.7335 H   0  0  0  0  0  0  0  0  0  0  0  0
  150.4791  140.3896  158.4757 H   0  0  0  0  0  0  0  0  0  0  0  0
  153.8189  143.3385  159.6909 H   0  0  0  0  0  0  0  0  0  0  0  0
  150.9464  143.2054  160.6439 H   0  0  0  0  0  0  0  0  0  0  0  0
  152.3837  143.5407  161.5997 H   0  0  0  0  0  0  0  0  0  0  0  0
  150.6845  145.4835  160.4852 H   0  0  0  0  0  0  0  0  0  0  0  0
  152.3475  145.8100  160.9479 H   0  0  0  0  0  0  0  0  0  0  0  0
  151.3590  145.9306  158.2733 H   0  0  0  0  0  0  0  0  0  0  0  0
  153.0439  145.9410  158.7768 H   0  0  0  0  0  0  0  0  0  0  0  0
  153.0557  143.9563  157.4619 H   0  0  0  0  0  0  0  0  0  0  0  0
  151.3839  143.5869  157.8797 H   0  0  0  0  0  0  0  0  0  0  0  0
  1  2  2  0  0  0  0
  2  3  1  0  0  0  0
  2 12  1  0  0  0  0
  3  4  1  0  0  0  0
  3 22  1  0  0  0  0
  3 23  1  0  0  0  0
  4 10  1  0  0  0  0
  4  5  1  0  0  0  0
  5  6  2  0  0  0  0
  5 24  1  0  0  0  0
  6  7  1  0  0  0  0
  6 25  1  0  0  0  0
  7  8  2  0  0  0  0
  7  9  1  0  0  0  0
  9 21  1  0  0  0  0
  9 10  1  0  0  0  0
 10 11  2  0  0  0  0
 12 13  1  0  0  0  0
 12 26  1  0  0  0  0
 13 14  1  0  0  0  0
 13 27  1  0  0  0  0
 13 28  1  0  0  0  0
 14 15  1  0  0  0  0
 14 29  1  0  0  0  0
 14 30  1  0  0  0  0
 15 16  1  0  0  0  0
 16 20  1  0  0  0  0
 16 17  1  0  0  0  0
 16 31  1  0  0  0  0
 17 18  1  0  0  0  0
 17 32  1  0  0  0  0
 17 33  1  0  0  0  0
 18 19  1  0  0  0  0
 18 34  1  0  0  0  0
 18 35  1  0  0  0  0
 19 20  1  0  0  0  0
 19 36  1  0  0  0  0
 19 37  1  0  0  0  0
 20 38  1  0  0  0  0
 20 39  1  0  0  0  0
M  END
> <s_m_source_file>
AV-unprocessed.smi

> <i_m_source_file_index>
1306

> <i_lp_mmshare_version>
43012

> <i_f3d_flags>
0

> <s_epik_input>
Tz1jMVtuSF1jKD1PKVtjSF1bY0hdbjFbQ0gyXUMoPU8pW05IXVtDSDJdW0NIMl1TW0NIXTJbQ0gyXVtDSDJdW0NIMl1bQ0gyXTI=

> <s_epik_cmdline>
J2VwaWtfcHl0aG9uJywgJy1waCcsICc3LjAnLCAnLXRuJywgJzgnLCAnLW1hJywgJzIwMCcsICctbWV0YWxfYmluZGluZycsICctaW1hZScsICc8aW5maWxlLm1hZT4nLCAnLW9tYWUnLCAnPG91dGZpbGUubWFlPic=

> <r_lp_tautomer_probability>
0.999537

> <r_epik_Ionization_Penalty>
0.00337646

> <r_epik_Ionization_Penalty_Charging>
0.00337644

> <r_epik_Ionization_Penalty_Neutral>
2.37506e-08

> <r_epik_State_Penalty>
0.00238979

> <r_epik_Charging_Adjusted_Penalty>
0.00576623

> <i_epik_Tot_Q>
0

> <i_epik_Tot_abs_Q>
0

> <r_epik_Metal_State_Penalty>
0.366399

> <b_epik_Metal_Only>
0

> <s_lp_Force_Field>
OPLS_2005

> <r_lp_Energy>
19.0409

> <b_lp_Chiralities_Consistent>
1

> <s_lp_Variant>
AV-unprocessed.smi:1306-1

> <Gold.Version>
5.8.1

> <Gold.Id.Protein>
6NUR|6NUR_protein|mol2

> <Gold.PLP.Fitness>
46.9915

> <Gold.PLP.PLP>
-45.3344

> <Gold.PLP.part.hbond>
-1.0000

> <Gold.PLP.part.metal>
0.0000

> <Gold.PLP.part.buried>
-7.2959

> <Gold.PLP.part.nonpolar>
-37.3735

> <Gold.PLP.part.repulsive>
0.3090

> <Gold.PLP.ligand.clash>
0.0000

> <Gold.PLP.ligand.torsion>
0.7702

> <Gold.PLP.Chemscore.Hbond>
1.0000

> <Gold.PLP.Chemscore.CHOScore>
0.0000

> <Gold.PLP.Chemscore.Metal>
0.0000

> <Gold.Chemscore.Hbonds>
donor molecule, donor type, donor heavy atom, donor atom, acceptor molecule, acceptor atom, score
      P1  H  7989  7998       L1     1  1.00

> <Gold.PLP.Chemscore.Internal.Correction>
0.1976

> <Gold.Rescore>
     Score         DG    S(hbond)    S(metal)    S(lipo)     H(rot)  DE(clash)    DE(int)     intcor
     13.76     -14.80       0.96        0.00     105.93       2.45       0.15       0.90       ----

> <Gold.Chemscore.Fitness>
13.7557

> <Gold.Chemscore.DG>
-14.8001

> <Gold.Chemscore.ZeroCoef>
-5.4800

> <Gold.Chemscore.Hbond>
0.9553

> <Gold.Chemscore.Metal>
0.0000

> <Gold.Chemscore.Lipo>
105.9270

> <Gold.Chemscore.Internal_Hbond>
0.0000

> <Gold.Chemscore.DEClash>
0.1460

> <Gold.Chemscore.DEInternal>
0.8984

> <Gold.Chemscore.Rot>
2.4469

> <Gold.Chemscore.Internal.Correction>
   9.000000E+99

> <Gold.Chemscore.Hbonds>
donor molecule, donor type, donor heavy atom, donor atom, acceptor molecule, acceptor atom, score
      P1  H  7989  7998       L1     1  0.35

> <Gold.Chemscore.Hbond.Weighted>
-3.1906

> <Gold.Chemscore.Metal.Weighted>
-0.0000

> <Gold.Chemscore.Lipo.Weighted>
-12.3935

> <Gold.Chemscore.Internal_Hbond.Weighted>
0.0000

> <Gold.Chemscore.DEClash.Weighted>
0.1460

> <Gold.Chemscore.DEInternal.Weighted>
0.8984

> <Gold.Chemscore.Rot.Weighted>
6.2640

> <Gold.Chemscore.Internal.Correction.Weighted>
   9.000000E+99

> <Gold.Protein.RotatedTorsions>
[ 6907 6896 6895 6894 ] final -161.10 input  -60.11 | X-H torsion
[ 7974 7965 7964 7962 ] final  -81.74 input  175.53 | X-H torsion
[ 8008 7997 7996 7995 ] final  -33.14 input   59.86 | X-H torsion
[ 10167 10162 10161 10158 ] final  -16.66 input  -65.29 | X-H torsion
[ 10718 10713 10712 10709 ] final  121.96 input   66.30 | X-H torsion
[ 10763 10752 10751 10750 ] final  -46.02 input  -60.55 | X-H torsion
[ 11005 11000 10999 10996 ] final -174.83 input  -57.11 | X-H torsion

> <Gold.Protein.ActiveResidues>
 VAL166  LYS551  ARG553  GLY616  TRP617  ASP618  TYR619  PRO620  LYS621  CYS622 
 ASP623  PHE694  ASN695  SER759  ASP760  ASP761  ALA762  ILE779  LEU786  VAL792 
 PHE793  MET794  SER795  GLU796  ALA797  LYS798  CYS799  TRP800  GLU811  SER814 

> <Gold.Protein.RotatedAtoms>
  151.3595  133.3895  159.2687 H   0  0  0  0  0  0  0  0  0  0  0  0  # atno 6907 bound_to 6896
  150.9737  134.9106  159.7814 H   0  0  0  0  0  0  0  0  0  0  0  0  # atno 6908 bound_to 6896
  152.5193  134.3557  159.9319 H   0  0  0  0  0  0  0  0  0  0  0  0  # atno 6909 bound_to 6896
  145.5426  140.9507  143.1543 H   0  0  0  0  0  0  0  0  0  0  0  0  # atno 7974 bound_to 7965
  154.4158  140.1718  156.1841 H   0  0  0  0  0  0  0  0  0  0  0  0  # atno 8008 bound_to 7997
  155.9658  140.3390  155.6507 H   0  0  0  0  0  0  0  0  0  0  0  0  # atno 8009 bound_to 7997
  155.6689  140.0709  157.2518 H   0  0  0  0  0  0  0  0  0  0  0  0  # atno 8010 bound_to 7997
  140.7237  143.5093  150.9769 H   0  0  0  0  0  0  0  0  0  0  0  0  # atno 10167 bound_to 10162
  157.5778  131.1077  150.8245 H   0  0  0  0  0  0  0  0  0  0  0  0  # atno 10718 bound_to 10713
  154.0381  135.6648  153.4787 H   0  0  0  0  0  0  0  0  0  0  0  0  # atno 10763 bound_to 10752
  153.0513  135.5083  154.7869 H   0  0  0  0  0  0  0  0  0  0  0  0  # atno 10764 bound_to 10752
  154.6836  135.3049  154.9545 H   0  0  0  0  0  0  0  0  0  0  0  0  # atno 10765 bound_to 10752
  140.4701  134.6173  157.4878 H   0  0  0  0  0  0  0  0  0  0  0  0  # atno 11005 bound_to 11000
  144.7569  139.7052  143.7250 LP  0  0  0  0  0  0  0  0  0  0  0  0  # atno 17320 bound_to 7965
  146.1971  139.5243  142.9767 LP  0  0  0  0  0  0  0  0  0  0  0  0  # atno 17321 bound_to 7965
  139.8806  143.7076  152.3157 LP  0  0  0  0  0  0  0  0  0  0  0  0  # atno 17342 bound_to 10162
  139.7357  144.7572  151.0731 LP  0  0  0  0  0  0  0  0  0  0  0  0  # atno 17343 bound_to 10162
  156.8699  130.5142  149.5297 LP  0  0  0  0  0  0  0  0  0  0  0  0  # atno 17370 bound_to 10713
  156.0823  130.5831  150.9586 LP  0  0  0  0  0  0  0  0  0  0  0  0  # atno 17371 bound_to 10713
  139.9890  134.7015  155.9722 LP  0  0  0  0  0  0  0  0  0  0  0  0  # atno 17394 bound_to 11000
  141.1581  133.6541  156.4227 LP  0  0  0  0  0  0  0  0  0  0  0  0  # atno 17395 bound_to 11000

$$$$
