AV-unprocessed.smi:1824|AV-procd|sdf|7411|dock4
  -GOLD-   22720 9 83D 1   1.00000     0.00000
 Structure written by MMmdl.
 45 47  0  0  0  0  0  0  0  0  2 V2000
  147.1290  138.7454  152.8400 C   0  0  0  0  0  0  0  0  0  0  0  0
  147.2105  139.8727  153.8747 C   0  0  1  0  0  0  0  0  0  0  0  0
  148.6401  140.0583  154.4159 C   0  0  0  0  0  0  0  0  0  0  0  0
  148.7371  141.1932  155.3304 N   0  0  0  0  0  0  0  0  0  0  0  0
  150.0891  141.3799  155.8602 C   0  0  0  0  0  0  0  0  0  0  0  0
  150.1676  141.9642  157.2846 C   0  0  2  0  0  0  0  0  0  0  0  0
  148.9550  142.6406  157.5529 O   0  0  0  0  0  0  0  0  0  0  0  0
  151.3488  142.9437  157.4279 C   0  0  0  0  0  0  0  0  0  0  0  0
  151.3653  143.6340  158.7261 N   0  0  0  0  0  0  0  0  0  0  0  0
  150.7218  144.7684  159.1142 C   0  0  0  0  0  0  0  0  0  0  0  0
  151.0565  145.0075  160.4125 N   0  3  0  0  0  0  0  0  0  0  0  0
  151.9286  144.0126  160.8606 C   0  0  0  0  0  0  0  0  0  0  0  0
  152.5410  143.8260  162.0958 C   0  0  0  0  0  0  0  0  0  0  0  0
  153.3849  142.7030  162.2235 C   0  0  0  0  0  0  0  0  0  0  0  0
  154.0077  142.4751  163.4041 F   0  0  0  0  0  0  0  0  0  0  0  0
  153.5930  141.8152  161.1468 C   0  0  0  0  0  0  0  0  0  0  0  0
  154.4127  140.7500  161.3112 F   0  0  0  0  0  0  0  0  0  0  0  0
  152.9650  142.0143  159.8997 C   0  0  0  0  0  0  0  0  0  0  0  0
  152.1321  143.1265  159.7820 C   0  0  0  0  0  0  0  0  0  0  0  0
  148.2814  142.3947  154.6391 C   0  0  0  0  0  0  0  0  0  0  0  0
  146.8590  142.2501  154.0627 C   0  0  2  0  0  0  0  0  0  0  0  0
  145.7589  142.2798  155.1379 C   0  0  0  0  0  0  0  0  0  0  0  0
  146.7758  141.0788  153.2496 O   0  0  0  0  0  0  0  0  0  0  0  0
  147.4361  137.7928  153.2726 H   0  0  0  0  0  0  0  0  0  0  0  0
  147.7731  138.9481  151.9839 H   0  0  0  0  0  0  0  0  0  0  0  0
  146.1100  138.6290  152.4701 H   0  0  0  0  0  0  0  0  0  0  0  0
  146.5386  139.6303  154.6986 H   0  0  0  0  0  0  0  0  0  0  0  0
  148.9374  139.1386  154.9173 H   0  0  0  0  0  0  0  0  0  0  0  0
  149.3306  140.1969  153.5823 H   0  0  0  0  0  0  0  0  0  0  0  0
  150.6154  140.4243  155.8337 H   0  0  0  0  0  0  0  0  0  0  0  0
  150.6483  142.0410  155.1960 H   0  0  0  0  0  0  0  0  0  0  0  0
  150.2895  141.1741  158.0244 H   0  0  0  0  0  0  0  0  0  0  0  0
  148.9289  143.4224  157.0216 H   0  0  0  0  0  0  0  0  0  0  0  0
  152.2909  142.4004  157.3439 H   0  0  0  0  0  0  0  0  0  0  0  0
  151.3523  143.6826  156.6265 H   0  0  0  0  0  0  0  0  0  0  0  0
  150.0650  145.3702  158.5024 H   0  0  0  0  0  0  0  0  0  0  0  0
  152.3857  144.5033  162.9225 H   0  0  0  0  0  0  0  0  0  0  0  0
  153.1383  141.3318  159.0811 H   0  0  0  0  0  0  0  0  0  0  0  0
  148.3132  143.2502  155.3152 H   0  0  0  0  0  0  0  0  0  0  0  0
  148.9686  142.6244  153.8231 H   0  0  0  0  0  0  0  0  0  0  0  0
  146.6782  143.0965  153.3995 H   0  0  0  0  0  0  0  0  0  0  0  0
  145.7634  143.2310  155.6705 H   0  0  0  0  0  0  0  0  0  0  0  0
  145.8879  141.4915  155.8794 H   0  0  0  0  0  0  0  0  0  0  0  0
  144.7731  142.1578  154.6886 H   0  0  0  0  0  0  0  0  0  0  0  0
  150.7144  145.7941  160.9498 H   0  0  0  0  0  0  0  0  0  0  0  0
  1  2  1  0  0  0  0
  1 24  1  0  0  0  0
  1 25  1  0  0  0  0
  1 26  1  0  0  0  0
  2 23  1  0  0  0  0
  2  3  1  0  0  0  0
  2 27  1  0  0  0  0
  3  4  1  0  0  0  0
  3 28  1  0  0  0  0
  3 29  1  0  0  0  0
  4  5  1  0  0  0  0
  4 20  1  0  0  0  0
  5  6  1  0  0  0  0
  5 30  1  0  0  0  0
  5 31  1  0  0  0  0
  6  7  1  0  0  0  0
  6  8  1  0  0  0  0
  6 32  1  0  0  0  0
  7 33  1  0  0  0  0
  8  9  1  0  0  0  0
  8 34  1  0  0  0  0
  8 35  1  0  0  0  0
  9 19  1  0  0  0  0
  9 10  1  0  0  0  0
 10 11  2  0  0  0  0
 10 36  1  0  0  0  0
 11 12  1  0  0  0  0
 11 45  1  0  0  0  0
 12 19  2  0  0  0  0
 12 13  1  0  0  0  0
 13 14  2  0  0  0  0
 13 37  1  0  0  0  0
 14 15  1  0  0  0  0
 14 16  1  0  0  0  0
 16 17  1  0  0  0  0
 16 18  2  0  0  0  0
 18 19  1  0  0  0  0
 18 38  1  0  0  0  0
 20 21  1  0  0  0  0
 20 39  1  0  0  0  0
 20 40  1  0  0  0  0
 21 22  1  0  0  0  0
 21 23  1  0  0  0  0
 21 41  1  0  0  0  0
 22 42  1  0  0  0  0
 22 43  1  0  0  0  0
 22 44  1  0  0  0  0
M  CHG  1  11   1
M  END
> <s_m_source_file>
AV-unprocessed.smi

> <i_m_source_file_index>
1824

> <i_lp_mmshare_version>
43012

> <i_f3d_flags>
0

> <s_epik_input>
W0NIM11bQ0BASF0xW0NIMl1OKFtDSDJdW0NASF0oTzEpW0NIM10pW0NIMl1bQ0BIXShbT0hdKVtDSDJdbihbY0hdbjIpYyhjMjMpW2NIXWMoRiljKEYpW2NIXTM=

> <s_epik_cmdline>
J2VwaWtfcHl0aG9uJywgJy1waCcsICc3LjAnLCAnLXRuJywgJzgnLCAnLW1hJywgJzIwMCcsICctbWV0YWxfYmluZGluZycsICctaW1hZScsICc8aW5maWxlLm1hZT4nLCAnLW9tYWUnLCAnPG91dGZpbGUubWFlPic=

> <r_epik_Ionization_Penalty>
2.58709

> <r_epik_Ionization_Penalty_Charging>
2.37273

> <r_epik_Ionization_Penalty_Neutral>
0.214359

> <r_epik_State_Penalty>
2.71799

> <r_epik_Charging_Adjusted_Penalty>
5.09071

> <i_epik_Tot_Q>
1

> <i_epik_Tot_abs_Q>
1

> <r_epik_Metal_State_Penalty>
6.80217

> <b_epik_Metal_Only>
0

> <s_lp_Force_Field>
OPLS_2005

> <r_lp_Energy>
35.2196

> <b_lp_Chiralities_Consistent>
1

> <s_lp_Variant>
AV-unprocessed.smi:1824-19

> <Gold.Version>
5.8.1

> <Gold.Id.Protein>
6NUR|6NUR_protein|mol2

> <Gold.PLP.Fitness>
57.8457

> <Gold.PLP.PLP>
-54.3202

> <Gold.PLP.part.hbond>
-1.1457

> <Gold.PLP.part.metal>
0.0000

> <Gold.PLP.part.buried>
-1.0143

> <Gold.PLP.part.nonpolar>
-51.0375

> <Gold.PLP.part.repulsive>
0.4719

> <Gold.PLP.ligand.clash>
0.0000

> <Gold.PLP.ligand.torsion>
1.2851

> <Gold.PLP.Chemscore.Hbond>
1.0000

> <Gold.PLP.Chemscore.CHOScore>
1.0000

> <Gold.PLP.Chemscore.Metal>
0.0000

> <Gold.Chemscore.Hbonds>
donor molecule, donor type, donor heavy atom, donor atom, acceptor molecule, acceptor atom, score
      L1  H     7    33       P1  8028  1.00
      L1  C    10    36       P1  8029  0.97

> <Gold.PLP.Chemscore.Internal.Correction>
0.0957

> <Gold.Rescore>
     Score         DG    S(hbond)    S(metal)    S(lipo)     H(rot)  DE(clash)    DE(int)     intcor
     13.79     -17.05       0.74        0.00     128.47       2.32       1.29       1.98       ----

> <Gold.Chemscore.Fitness>
13.7879

> <Gold.Chemscore.DG>
-17.0546

> <Gold.Chemscore.ZeroCoef>
-5.4800

> <Gold.Chemscore.Hbond>
0.7441

> <Gold.Chemscore.Metal>
0.0000

> <Gold.Chemscore.Lipo>
128.4686

> <Gold.Chemscore.Internal_Hbond>
0.0000

> <Gold.Chemscore.DEClash>
1.2877

> <Gold.Chemscore.DEInternal>
1.9790

> <Gold.Chemscore.Rot>
2.3210

> <Gold.Chemscore.Internal.Correction>
   9.000000E+99

> <Gold.Chemscore.Hbonds>
donor molecule, donor type, donor heavy atom, donor atom, acceptor molecule, acceptor atom, score
      L1  H     7    33       P1  8028  0.60

> <Gold.Chemscore.Hbond.Weighted>
-2.4854

> <Gold.Chemscore.Metal.Weighted>
-0.0000

> <Gold.Chemscore.Lipo.Weighted>
-15.0308

> <Gold.Chemscore.Internal_Hbond.Weighted>
0.0000

> <Gold.Chemscore.DEClash.Weighted>
1.2877

> <Gold.Chemscore.DEInternal.Weighted>
1.9790

> <Gold.Chemscore.Rot.Weighted>
5.9416

> <Gold.Chemscore.Internal.Correction.Weighted>
   9.000000E+99

> <Gold.Protein.RotatedTorsions>
[ 6907 6896 6895 6894 ] final    2.23 input  -60.11 | X-H torsion
[ 7974 7965 7964 7962 ] final  -75.00 input  175.53 | X-H torsion
[ 8008 7997 7996 7995 ] final   46.39 input   59.86 | X-H torsion
[ 10167 10162 10161 10158 ] final  -39.44 input  -65.29 | X-H torsion
[ 10718 10713 10712 10709 ] final  177.50 input   66.30 | X-H torsion
[ 10763 10752 10751 10750 ] final  166.20 input  -60.55 | X-H torsion
[ 11005 11000 10999 10996 ] final -108.68 input  -57.11 | X-H torsion

> <Gold.Protein.ActiveResidues>
 VAL166  LYS551  ARG553  GLY616  TRP617  ASP618  TYR619  PRO620  LYS621  CYS622 
 ASP623  PHE694  ASN695  SER759  ASP760  ASP761  ALA762  ILE779  LEU786  VAL792 
 PHE793  MET794  SER795  GLU796  ALA797  LYS798  CYS799  TRP800  GLU811  SER814 

> <Gold.Protein.RotatedAtoms>
  151.6055  135.1044  160.0069 H   0  0  0  0  0  0  0  0  0  0  0  0  # atno 6907 bound_to 6896
  152.4235  133.7152  159.6512 H   0  0  0  0  0  0  0  0  0  0  0  0  # atno 6908 bound_to 6896
  150.8124  133.8326  159.3198 H   0  0  0  0  0  0  0  0  0  0  0  0  # atno 6909 bound_to 6896
  145.6318  140.9335  143.1083 H   0  0  0  0  0  0  0  0  0  0  0  0  # atno 7974 bound_to 7965
  155.3517  140.3414  155.4239 H   0  0  0  0  0  0  0  0  0  0  0  0  # atno 8008 bound_to 7997
  156.1760  140.1648  156.8397 H   0  0  0  0  0  0  0  0  0  0  0  0  # atno 8009 bound_to 7997
  154.5282  140.0751  156.8280 H   0  0  0  0  0  0  0  0  0  0  0  0  # atno 8010 bound_to 7997
  140.7064  143.3214  151.2783 H   0  0  0  0  0  0  0  0  0  0  0  0  # atno 10167 bound_to 10162
  156.9045  130.9889  151.3030 H   0  0  0  0  0  0  0  0  0  0  0  0  # atno 10718 bound_to 10713
  154.3354  135.2754  155.2450 H   0  0  0  0  0  0  0  0  0  0  0  0  # atno 10763 bound_to 10752
  154.4744  135.5875  153.6348 H   0  0  0  0  0  0  0  0  0  0  0  0  # atno 10764 bound_to 10752
  152.9862  135.6096  154.3551 H   0  0  0  0  0  0  0  0  0  0  0  0  # atno 10765 bound_to 10752
  141.0888  133.9091  157.2123 H   0  0  0  0  0  0  0  0  0  0  0  0  # atno 11005 bound_to 11000
  144.7191  139.8093  143.7388 LP  0  0  0  0  0  0  0  0  0  0  0  0  # atno 17320 bound_to 7965
  146.1350  139.4394  143.0144 LP  0  0  0  0  0  0  0  0  0  0  0  0  # atno 17321 bound_to 7965
  139.6669  144.0089  152.2728 LP  0  0  0  0  0  0  0  0  0  0  0  0  # atno 17342 bound_to 10162
  139.9675  144.6516  150.8021 LP  0  0  0  0  0  0  0  0  0  0  0  0  # atno 17343 bound_to 10162
  157.6006  130.8509  149.8796 LP  0  0  0  0  0  0  0  0  0  0  0  0  # atno 17370 bound_to 10713
  156.0566  130.3707  150.1078 LP  0  0  0  0  0  0  0  0  0  0  0  0  # atno 17371 bound_to 10713
  139.9711  135.0128  156.9513 LP  0  0  0  0  0  0  0  0  0  0  0  0  # atno 17394 bound_to 11000
  140.5300  134.0823  155.7313 LP  0  0  0  0  0  0  0  0  0  0  0  0  # atno 17395 bound_to 11000

$$$$
