AV-unprocessed.smi:1586|AV-procd|sdf|6374|dock2
  -GOLD-   22720 7 03D 1   1.00000     0.00000
 Structure written by MMmdl.
 47 48  0  0  0  0  0  0  0  0  2 V2000
  151.4545  140.3900  156.0890 C   0  0  0  0  0  0  0  0  0  0  0  0
  150.8612  141.7736  156.3901 C   0  0  0  0  0  0  0  0  0  0  0  0
  149.4268  141.8713  156.0225 N   0  3  0  0  0  0  0  0  0  0  0  0
  148.5748  140.9688  156.8338 C   0  0  0  0  0  0  0  0  0  0  0  0
  147.0887  141.1445  156.4575 C   0  0  0  0  0  0  0  0  0  0  0  0
  146.8461  140.8538  155.0377 N   0  0  0  0  0  0  0  0  0  0  0  0
  147.0017  139.4353  154.6465 C   0  0  1  0  0  0  0  0  0  0  0  0
  146.2713  138.4944  155.6295 C   0  0  0  0  0  0  0  0  0  0  0  0
  146.4995  139.1699  153.2061 C   0  0  0  0  0  0  0  0  0  0  0  0
  146.8049  137.8128  152.7668 N   0  0  0  0  0  0  0  0  0  0  0  0
  145.8985  136.9387  152.3119 C   0  0  0  0  0  0  0  0  0  0  0  0
  144.6971  137.1930  152.2277 O   0  0  0  0  0  0  0  0  0  0  0  0
  146.4760  135.7734  151.9746 N   0  0  0  0  0  0  0  0  0  0  0  0
  145.8690  134.6136  151.4285 C   0  0  0  0  0  0  0  0  0  0  0  0
  144.7381  134.5813  150.5617 C   0  0  0  0  0  0  0  0  0  0  0  0
  144.5697  133.2456  150.3284 C   0  0  0  0  0  0  0  0  0  0  0  0
  143.5875  132.4735  149.5161 C   0  0  0  0  0  0  0  0  0  0  0  0
  145.5152  132.5257  150.9901 O   0  0  0  0  0  0  0  0  0  0  0  0
  146.3441  133.4100  151.6902 N   0  0  0  0  0  0  0  0  0  0  0  0
  147.6590  141.8074  154.2696 C   0  0  0  0  0  0  0  0  0  0  0  0
  149.1658  141.6648  154.5752 C   0  0  0  0  0  0  0  0  0  0  0  0
  152.5275  140.3846  156.2820 H   0  0  0  0  0  0  0  0  0  0  0  0
  151.3073  140.1161  155.0437 H   0  0  0  0  0  0  0  0  0  0  0  0
  151.0119  139.6106  156.7087 H   0  0  0  0  0  0  0  0  0  0  0  0
  150.9980  142.0304  157.4417 H   0  0  0  0  0  0  0  0  0  0  0  0
  151.4255  142.5104  155.8164 H   0  0  0  0  0  0  0  0  0  0  0  0
  148.8953  139.9335  156.7100 H   0  0  0  0  0  0  0  0  0  0  0  0
  148.7029  141.2093  157.8897 H   0  0  0  0  0  0  0  0  0  0  0  0
  146.4545  140.5352  157.0993 H   0  0  0  0  0  0  0  0  0  0  0  0
  146.7868  142.1736  156.6577 H   0  0  0  0  0  0  0  0  0  0  0  0
  148.0573  139.1682  154.6709 H   0  0  0  0  0  0  0  0  0  0  0  0
  146.2683  137.4694  155.2578 H   0  0  0  0  0  0  0  0  0  0  0  0
  145.2321  138.7912  155.7770 H   0  0  0  0  0  0  0  0  0  0  0  0
  146.7572  138.4617  156.6042 H   0  0  0  0  0  0  0  0  0  0  0  0
  145.4298  139.3559  153.1111 H   0  0  0  0  0  0  0  0  0  0  0  0
  146.9746  139.8784  152.5252 H   0  0  0  0  0  0  0  0  0  0  0  0
  147.7720  137.5262  152.8101 H   0  0  0  0  0  0  0  0  0  0  0  0
  147.4719  135.7069  152.1245 H   0  0  0  0  0  0  0  0  0  0  0  0
  144.1414  135.3894  150.1668 H   0  0  0  0  0  0  0  0  0  0  0  0
  142.7543  133.1051  149.2075 H   0  0  0  0  0  0  0  0  0  0  0  0
  143.1836  131.6375  150.0876 H   0  0  0  0  0  0  0  0  0  0  0  0
  144.0593  132.0739  148.6184 H   0  0  0  0  0  0  0  0  0  0  0  0
  147.4742  141.7130  153.2010 H   0  0  0  0  0  0  0  0  0  0  0  0
  147.3366  142.8185  154.5232 H   0  0  0  0  0  0  0  0  0  0  0  0
  149.7082  142.4099  153.9946 H   0  0  0  0  0  0  0  0  0  0  0  0
  149.5418  140.6919  154.2569 H   0  0  0  0  0  0  0  0  0  0  0  0
  149.1306  142.8112  156.2442 H   0  0  0  0  0  0  0  0  0  0  0  0
  1  2  1  0  0  0  0
  1 22  1  0  0  0  0
  1 23  1  0  0  0  0
  1 24  1  0  0  0  0
  2  3  1  0  0  0  0
  2 25  1  0  0  0  0
  2 26  1  0  0  0  0
  3 21  1  0  0  0  0
  3  4  1  0  0  0  0
  3 47  1  0  0  0  0
  4  5  1  0  0  0  0
  4 27  1  0  0  0  0
  4 28  1  0  0  0  0
  5  6  1  0  0  0  0
  5 29  1  0  0  0  0
  5 30  1  0  0  0  0
  6  7  1  0  0  0  0
  6 20  1  0  0  0  0
  7  8  1  0  0  0  0
  7  9  1  0  0  0  0
  7 31  1  0  0  0  0
  8 32  1  0  0  0  0
  8 33  1  0  0  0  0
  8 34  1  0  0  0  0
  9 10  1  0  0  0  0
  9 35  1  0  0  0  0
  9 36  1  0  0  0  0
 10 11  1  0  0  0  0
 10 37  1  0  0  0  0
 11 12  2  0  0  0  0
 11 13  1  0  0  0  0
 13 14  1  0  0  0  0
 13 38  1  0  0  0  0
 14 19  2  0  0  0  0
 14 15  1  0  0  0  0
 15 16  2  0  0  0  0
 15 39  1  0  0  0  0
 16 17  1  0  0  0  0
 16 18  1  0  0  0  0
 17 40  1  0  0  0  0
 17 41  1  0  0  0  0
 17 42  1  0  0  0  0
 18 19  1  0  0  0  0
 20 21  1  0  0  0  0
 20 43  1  0  0  0  0
 20 44  1  0  0  0  0
 21 45  1  0  0  0  0
 21 46  1  0  0  0  0
M  CHG  1   3   1
M  END
> <s_m_source_file>
AV-unprocessed.smi

> <i_m_source_file_index>
1586

> <i_lp_mmshare_version>
43012

> <i_f3d_flags>
0

> <s_epik_input>
W0NIM11bQ0gyXU4xW0NIMl1bQ0gyXU4oW0NIMl1bQ0gyXTEpW0NASF0oW0NIM10pW0NIMl1bTkhdQyg9TylbTkhdYzJbY0hdYyhbQ0gzXSlvbjI=

> <s_epik_cmdline>
J2VwaWtfcHl0aG9uJywgJy1waCcsICc3LjAnLCAnLXRuJywgJzgnLCAnLW1hJywgJzIwMCcsICctbWV0YWxfYmluZGluZycsICctaW1hZScsICc8aW5maWxlLm1hZT4nLCAnLW9tYWUnLCAnPG91dGZpbGUubWFlPic=

> <r_epik_Ionization_Penalty>
0.0459786

> <r_epik_Ionization_Penalty_Charging>
0.0453654

> <r_epik_Ionization_Penalty_Neutral>
0.000613264

> <r_epik_State_Penalty>
0.163057

> <r_epik_Charging_Adjusted_Penalty>
0.208422

> <i_epik_Tot_Q>
1

> <i_epik_Tot_abs_Q>
1

> <r_epik_Metal_State_Penalty>
0.17399

> <b_epik_Metal_Only>
0

> <s_lp_Force_Field>
OPLS_2005

> <r_lp_Energy>
25.6668

> <b_lp_Chiralities_Consistent>
1

> <s_lp_Variant>
AV-unprocessed.smi:1586-2

> <Gold.Version>
5.8.1

> <Gold.Id.Protein>
6NUR|6NUR_protein|mol2

> <Gold.PLP.Fitness>
41.9610

> <Gold.PLP.PLP>
-31.1916

> <Gold.PLP.part.hbond>
-2.8191

> <Gold.PLP.part.metal>
0.0000

> <Gold.PLP.part.buried>
-2.8652

> <Gold.PLP.part.nonpolar>
-25.8976

> <Gold.PLP.part.repulsive>
1.7516

> <Gold.PLP.ligand.clash>
0.0000

> <Gold.PLP.ligand.torsion>
0.3218

> <Gold.PLP.Chemscore.Hbond>
3.7680

> <Gold.PLP.Chemscore.CHOScore>
0.0000

> <Gold.PLP.Chemscore.Metal>
0.0000

> <Gold.Chemscore.Hbonds>
donor molecule, donor type, donor heavy atom, donor atom, acceptor molecule, acceptor atom, score
      L1  H     3    47       P1  8028  1.95
      L1  H    10    37       P1  7948  0.74
      L1  H    13    38       P1  7948  1.00

> <Gold.PLP.Chemscore.Internal.Correction>
0.1090

> <Gold.Rescore>
     Score         DG    S(hbond)    S(metal)    S(lipo)     H(rot)  DE(clash)    DE(int)     intcor
     16.65     -17.89       2.69        0.00      67.76       1.76       0.14       1.10       ----

> <Gold.Chemscore.Fitness>
16.6472

> <Gold.Chemscore.DG>
-17.8894

> <Gold.Chemscore.ZeroCoef>
-5.4800

> <Gold.Chemscore.Hbond>
2.6937

> <Gold.Chemscore.Metal>
0.0000

> <Gold.Chemscore.Lipo>
67.7563

> <Gold.Chemscore.Internal_Hbond>
0.0000

> <Gold.Chemscore.DEClash>
0.1403

> <Gold.Chemscore.DEInternal>
1.1018

> <Gold.Chemscore.Rot>
1.7637

> <Gold.Chemscore.Internal.Correction>
   9.000000E+99

> <Gold.Chemscore.Hbonds>
donor molecule, donor type, donor heavy atom, donor atom, acceptor molecule, acceptor atom, score
      L1  H     3    47       P1  8028  0.89
      L1  H    10    37       P1  7948  0.72
      L1  H    13    38       P1  7948  0.91

> <Gold.Chemscore.Hbond.Weighted>
-8.9969

> <Gold.Chemscore.Metal.Weighted>
-0.0000

> <Gold.Chemscore.Lipo.Weighted>
-7.9275

> <Gold.Chemscore.Internal_Hbond.Weighted>
0.0000

> <Gold.Chemscore.DEClash.Weighted>
0.1403

> <Gold.Chemscore.DEInternal.Weighted>
1.1018

> <Gold.Chemscore.Rot.Weighted>
4.5150

> <Gold.Chemscore.Internal.Correction.Weighted>
   9.000000E+99

> <Gold.Protein.RotatedTorsions>
[ 6907 6896 6895 6894 ] final  -78.02 input  -60.11 | X-H torsion
[ 7974 7965 7964 7962 ] final -124.42 input  175.53 | X-H torsion
[ 8008 7997 7996 7995 ] final -161.73 input   59.86 | X-H torsion
[ 10167 10162 10161 10158 ] final -122.08 input  -65.29 | X-H torsion
[ 10718 10713 10712 10709 ] final  -62.18 input   66.30 | X-H torsion
[ 10763 10752 10751 10750 ] final  -47.89 input  -60.55 | X-H torsion
[ 11005 11000 10999 10996 ] final   51.23 input  -57.11 | X-H torsion

> <Gold.Protein.ActiveResidues>
 VAL166  LYS551  ARG553  GLY616  TRP617  ASP618  TYR619  PRO620  LYS621  CYS622 
 ASP623  PHE694  ASN695  SER759  ASP760  ASP761  ALA762  ILE779  LEU786  VAL792 
 PHE793  MET794  SER795  GLU796  ALA797  LYS798  CYS799  TRP800  GLU811  SER814 

> <Gold.Protein.RotatedAtoms>
  150.6983  134.4335  159.5258 H   0  0  0  0  0  0  0  0  0  0  0  0  # atno 6907 bound_to 6896
  152.2057  134.8544  160.0512 H   0  0  0  0  0  0  0  0  0  0  0  0  # atno 6908 bound_to 6896
  151.9448  133.3613  159.4015 H   0  0  0  0  0  0  0  0  0  0  0  0  # atno 6909 bound_to 6896
  145.0082  140.7882  143.4454 H   0  0  0  0  0  0  0  0  0  0  0  0  # atno 7974 bound_to 7965
  155.7965  140.0885  157.1980 H   0  0  0  0  0  0  0  0  0  0  0  0  # atno 8008 bound_to 7997
  154.3983  140.1480  156.3283 H   0  0  0  0  0  0  0  0  0  0  0  0  # atno 8009 bound_to 7997
  155.8506  140.3435  155.5693 H   0  0  0  0  0  0  0  0  0  0  0  0  # atno 8010 bound_to 7997
  140.0181  143.5373  152.2233 H   0  0  0  0  0  0  0  0  0  0  0  0  # atno 10167 bound_to 10162
  156.0872  130.4206  150.1099 H   0  0  0  0  0  0  0  0  0  0  0  0  # atno 10718 bound_to 10713
  154.0688  135.6607  153.4821 H   0  0  0  0  0  0  0  0  0  0  0  0  # atno 10763 bound_to 10752
  153.0399  135.5152  154.7587 H   0  0  0  0  0  0  0  0  0  0  0  0  # atno 10764 bound_to 10752
  154.6647  135.3020  154.9789 H   0  0  0  0  0  0  0  0  0  0  0  0  # atno 10765 bound_to 10752
  140.0950  134.5158  155.8816 H   0  0  0  0  0  0  0  0  0  0  0  0  # atno 11005 bound_to 11000
  145.2059  139.2229  143.5168 LP  0  0  0  0  0  0  0  0  0  0  0  0  # atno 17320 bound_to 7965
  146.3465  140.1886  142.8589 LP  0  0  0  0  0  0  0  0  0  0  0  0  # atno 17321 bound_to 7965
  139.6159  144.7619  151.2848 LP  0  0  0  0  0  0  0  0  0  0  0  0  # atno 17342 bound_to 10162
  140.7354  143.6738  150.8059 LP  0  0  0  0  0  0  0  0  0  0  0  0  # atno 17343 bound_to 10162
  156.9117  130.9654  151.3562 LP  0  0  0  0  0  0  0  0  0  0  0  0  # atno 17370 bound_to 10713
  157.6010  130.8512  149.8802 LP  0  0  0  0  0  0  0  0  0  0  0  0  # atno 17371 bound_to 10713
  141.2089  133.6678  156.6404 LP  0  0  0  0  0  0  0  0  0  0  0  0  # atno 17394 bound_to 11000
  140.3299  134.7938  157.4318 LP  0  0  0  0  0  0  0  0  0  0  0  0  # atno 17395 bound_to 11000

$$$$
