#       Name:                AV-unprocessed.smi:1414
#       Creating user name   scv26
#       Creation time:       Fri Mar 27 05:40:12 2020


#       File generated by GOLD software.
#

@<TRIPOS>MOLECULE
AV-unprocessed.smi:1414
    50    51     1
SMALL
NO_CHARGES


@<TRIPOS>ATOM
      1 ****        -3.5104   1.6002   2.6935 C.3            1 S1                 0.0000
      2 ****        -3.0697   0.9309   1.3870 C.3            1 S1                 0.0000
      3 ****        -3.6500  -0.4841   1.2442 C.3            1 S1                 0.0000
      4 ****        -3.3348  -1.0550  -0.0730 N.pl3          1 S1                 0.0000
      5 ****        -2.4342  -2.5331  -0.2148 S.o2           1 S1                 0.0000
      6 ****        -2.8312  -3.3882   0.9143 O.2            1 S1                 0.0000
      7 ****        -2.5889  -3.0228  -1.5936 O.2            1 S1                 0.0000
      8 ****        -0.6809  -2.0132   0.0582 C.3            1 S1                 0.0000
      9 ****         0.0930  -1.8607  -1.2629 C.3            1 S1                 0.0000
     10 ****         1.5244  -1.6833  -1.0428 N.am           1 S1                 0.0000
     11 ****         2.1201  -0.5598  -0.6199 C.2            1 S1                 0.0000
     12 ****         1.5115   0.4744  -0.3502 O.2            1 S1                 0.0000
     13 ****         3.4536  -0.7120  -0.5552 N.am           1 S1                 0.0000
     14 ****         4.4233   0.2314  -0.1222 C.ar           1 S1                 0.0000
     15 ****         5.7491   0.0808  -0.5779 C.ar           1 S1                 0.0000
     16 ****         6.7306   0.9921  -0.1440 C.ar           1 S1                 0.0000
     17 ****         6.3474   2.0175   0.7422 C.ar           1 S1                 0.0000
     18 ****         5.0868   2.1663   1.2009 N.ar           1 S1                 0.0000
     19 ****         4.1496   1.2906   0.7784 C.ar           1 S1                 0.0000
     20 ****        -3.5663  -0.1777  -1.2342 C.3            1 S1                 0.0000
     21 ****        -3.1259   1.2809  -0.9832 C.3            1 S1                 0.0000
     22 ****        -1.6321   1.5324  -1.2378 C.3            1 S1                 0.0000
     23 ****        -3.5259   1.7367   0.3071 O.3            1 S1                 0.0000
     24 ****        -3.1807   1.0255   3.5593 H              1 S1                 0.0000
     25 ****        -4.5958   1.6909   2.7456 H              1 S1                 0.0000
     26 ****        -3.0880   2.6016   2.7792 H              1 S1                 0.0000
     27 ****        -1.9810   0.8841   1.3899 H              1 S1                 0.0000
     28 ****        -3.2669  -1.1270   2.0365 H              1 S1                 0.0000
     29 ****        -4.7345  -0.4583   1.3551 H              1 S1                 0.0000
     30 ****        -0.6690  -1.1010   0.6537 H              1 S1                 0.0000
     31 ****        -0.2128  -2.7924   0.6599 H              1 S1                 0.0000
     32 ****        -0.0225  -2.7614  -1.8655 H              1 S1                 0.0000
     33 ****        -0.3069  -1.0379  -1.8557 H              1 S1                 0.0000
     34 ****         2.1112  -2.4805  -1.2417 H              1 S1                 0.0000
     35 ****         3.8214  -1.5850  -0.9039 H              1 S1                 0.0000
     36 ****         6.0125  -0.7186  -1.2552 H              1 S1                 0.0000
     37 ****         7.7532   0.9071  -0.4809 H              1 S1                 0.0000
     38 ****         7.0742   2.7334   1.0966 H              1 S1                 0.0000
     39 ****         3.1676   1.4420   1.1989 H              1 S1                 0.0000
     40 ****        -3.0760  -0.5761  -2.1223 H              1 S1                 0.0000
     41 ****        -4.6360  -0.1924  -1.4441 H              1 S1                 0.0000
     42 ****        -3.6627   1.9062  -1.6972 H              1 S1                 0.0000
     43 ****        -1.3654   1.2933  -2.2674 H              1 S1                 0.0000
     44 ****        -1.0052   0.9258  -0.5908 H              1 S1                 0.0000
     45 ****        -1.3771   2.5779  -1.0649 H              1 S1                 0.0000
     46 ****         0.5163   0.5074  -0.4424 LP             1 S1                 0.0000
     47 ****         2.0119   1.2822  -0.0387 LP             1 S1                 0.0000
     48 ****         4.8536   2.9034   1.8351 LP             1 S1                 0.0000
     49 ****        -3.1689   2.6619   0.4357 LP             1 S1                 0.0000
     50 ****        -4.5253   1.7582   0.3344 LP             1 S1                 0.0000
@<TRIPOS>BOND
    1    1    2 1     
    2    1   24 1     
    3    1   25 1     
    4    1   26 1     
    5    2   23 1     
    6    2    3 1     
    7    2   27 1     
    8    3    4 1     
    9    3   28 1     
   10    3   29 1     
   11    4    5 1     
   12    4   20 1     
   13    5    6 2     
   14    5    7 2     
   15    5    8 1     
   16    8    9 1     
   17    8   30 1     
   18    8   31 1     
   19    9   10 1     
   20    9   32 1     
   21    9   33 1     
   22   10   11 am    
   23   10   34 1     
   24   11   12 2     
   25   11   13 am    
   26   13   14 1     
   27   13   35 1     
   28   14   19 ar    
   29   14   15 ar    
   30   15   16 ar    
   31   15   36 1     
   32   16   17 ar    
   33   16   37 1     
   34   17   18 ar    
   35   17   38 1     
   36   18   19 ar    
   37   19   39 1     
   38   20   21 1     
   39   20   40 1     
   40   20   41 1     
   41   21   22 1     
   42   21   23 1     
   43   21   42 1     
   44   22   43 1     
   45   22   44 1     
   46   22   45 1     
   47   12   46 1     
   48   12   47 1     
   49   18   48 1     
   50   23   49 1     
   51   23   50 1     
@<TRIPOS>SUBSTRUCTURE
      1 S1             1
@<TRIPOS>SET
LONE_PAIRS      STATIC     ATOMS    <user>   **** ""
7 6 7 46 47 48 49 50
DONOR_HYDROGENS      STATIC     ATOMS    <user>   **** ""
2 34 35
ATOM$BLUE        STATIC     ATOMS    COLORGROUP SYSTEM
7 6 7 46 47 48 49 50
ATOM$RED        STATIC     ATOMS    COLORGROUP SYSTEM
2 34 35
