AV-unprocessed.smi:145|AV-procd|sdf|1197|dock8
  -GOLD-   2262018353D 1   1.00000     0.00000
 Structure written by MMmdl.
 40 42  0  0  0  0  0  0  0  0  1 V2000
  153.2911  138.6971  157.0310 O   0  0  0  0  0  0  0  0  0  0  0  0
  152.3936  139.2974  156.4384 C   0  0  0  0  0  0  0  0  0  0  0  0
  151.9149  138.8219  155.0573 C   0  0  0  0  0  0  0  0  0  0  0  0
  150.5295  138.3013  155.0538 N   0  0  0  0  0  0  0  0  0  0  0  0
  149.4576  139.2222  154.9484 C   0  0  0  0  0  0  0  0  0  0  0  0
  149.6617  140.4351  154.8802 O   0  0  0  0  0  0  0  0  0  0  0  0
  148.1234  138.6342  154.9149 C   0  0  0  0  0  0  0  0  0  0  0  0
  147.0470  139.4304  154.8006 F   0  0  0  0  0  0  0  0  0  0  0  0
  147.9515  137.2986  154.9924 C   0  0  0  0  0  0  0  0  0  0  0  0
  149.0034  136.4127  155.1170 N   0  0  0  0  0  0  0  0  0  0  0  0
  148.7189  134.9288  155.1462 C   0  0  2  0  0  0  0  0  0  0  0  0
  149.4632  134.1357  154.0552 C   0  0  0  0  0  0  0  0  0  0  0  0
  148.3326  133.4701  153.2878 C   0  0  0  0  0  0  0  0  0  0  0  0
  147.1827  133.4923  154.2891 C   0  0  0  0  0  0  0  0  0  0  0  0
  147.3517  134.7343  154.9539 O   0  0  0  0  0  0  0  0  0  0  0  0
  150.3306  136.9010  155.1179 C   0  0  0  0  0  0  0  0  0  0  0  0
  151.2910  136.1306  155.1652 O   0  0  0  0  0  0  0  0  0  0  0  0
  151.7817  140.4021  156.9023 N   0  0  0  0  0  0  0  0  0  0  0  0
  151.9904  141.0824  158.1327 C   0  0  0  0  0  0  0  0  0  0  0  0
  151.4594  142.3642  158.4175 C   0  0  0  0  0  0  0  0  0  0  0  0
  151.7267  142.9834  159.6542 C   0  0  0  0  0  0  0  0  0  0  0  0
  152.5310  142.3357  160.6104 C   0  0  0  0  0  0  0  0  0  0  0  0
  153.0754  141.0692  160.3268 C   0  0  0  0  0  0  0  0  0  0  0  0
  154.2809  140.1083  161.7394 I   0  0  0  0  0  0  0  0  0  0  0  0
  152.8098  140.4489  159.0905 C   0  0  0  0  0  0  0  0  0  0  0  0
  152.0197  139.6467  154.3505 H   0  0  0  0  0  0  0  0  0  0  0  0
  152.6160  138.0709  154.6897 H   0  0  0  0  0  0  0  0  0  0  0  0
  146.9426  136.9140  154.9569 H   0  0  0  0  0  0  0  0  0  0  0  0
  148.9915  134.5894  156.1464 H   0  0  0  0  0  0  0  0  0  0  0  0
  150.0888  134.7705  153.4272 H   0  0  0  0  0  0  0  0  0  0  0  0
  150.0998  133.3941  154.5388 H   0  0  0  0  0  0  0  0  0  0  0  0
  148.0731  134.0638  152.4110 H   0  0  0  0  0  0  0  0  0  0  0  0
  148.5819  132.4637  152.9508 H   0  0  0  0  0  0  0  0  0  0  0  0
  146.2053  133.4215  153.8115 H   0  0  0  0  0  0  0  0  0  0  0  0
  147.2765  132.6769  155.0084 H   0  0  0  0  0  0  0  0  0  0  0  0
  151.1327  140.8446  156.2680 H   0  0  0  0  0  0  0  0  0  0  0  0
  150.8569  142.8975  157.6984 H   0  0  0  0  0  0  0  0  0  0  0  0
  151.3175  143.9601  159.8664 H   0  0  0  0  0  0  0  0  0  0  0  0
  152.7345  142.8137  161.5573 H   0  0  0  0  0  0  0  0  0  0  0  0
  153.2347  139.4777  158.8820 H   0  0  0  0  0  0  0  0  0  0  0  0
  1  2  2  0  0  0  0
  2  3  1  0  0  0  0
  2 18  1  0  0  0  0
  3  4  1  0  0  0  0
  3 26  1  0  0  0  0
  3 27  1  0  0  0  0
  4 16  1  0  0  0  0
  4  5  1  0  0  0  0
  5  6  2  0  0  0  0
  5  7  1  0  0  0  0
  7  8  1  0  0  0  0
  7  9  2  0  0  0  0
  9 10  1  0  0  0  0
  9 28  1  0  0  0  0
 10 11  1  0  0  0  0
 10 16  1  0  0  0  0
 11 15  1  0  0  0  0
 11 12  1  0  0  0  0
 11 29  1  0  0  0  0
 12 13  1  0  0  0  0
 12 30  1  0  0  0  0
 12 31  1  0  0  0  0
 13 14  1  0  0  0  0
 13 32  1  0  0  0  0
 13 33  1  0  0  0  0
 14 15  1  0  0  0  0
 14 34  1  0  0  0  0
 14 35  1  0  0  0  0
 16 17  2  0  0  0  0
 18 19  1  0  0  0  0
 18 36  1  0  0  0  0
 19 25  1  0  0  0  0
 19 20  2  0  0  0  0
 20 21  1  0  0  0  0
 20 37  1  0  0  0  0
 21 22  2  0  0  0  0
 21 38  1  0  0  0  0
 22 23  1  0  0  0  0
 22 39  1  0  0  0  0
 23 24  1  0  0  0  0
 23 25  2  0  0  0  0
 25 40  1  0  0  0  0
M  END
> <s_m_source_file>
AV-unprocessed.smi

> <i_m_source_file_index>
145

> <i_lp_mmshare_version>
43012

> <i_f3d_flags>
0

> <s_epik_input>
SWMoW2NIXTEpW2NIXVtjSF1bY0hdYzFbTkhdQyg9TylbQ0gyXW4yYyg9TyljKEYpW2NIXW4oYzI9TylbQ0BASF0zW0NIMl1bQ0gyXVtDSDJdTzM=

> <s_epik_cmdline>
J2VwaWtfcHl0aG9uJywgJy1waCcsICc3LjAnLCAnLXRuJywgJzgnLCAnLW1hJywgJzIwMCcsICctbWV0YWxfYmluZGluZycsICctaW1hZScsICc8aW5maWxlLm1hZT4nLCAnLW9tYWUnLCAnPG91dGZpbGUubWFlPic=

> <r_lp_tautomer_probability>
1

> <r_epik_Ionization_Penalty>
9.72367e-07

> <r_epik_Ionization_Penalty_Charging>
3.88729e-08

> <r_epik_Ionization_Penalty_Neutral>
9.33494e-07

> <r_epik_State_Penalty>
-0

> <r_epik_Charging_Adjusted_Penalty>
3.88729e-08

> <i_epik_Tot_Q>
0

> <i_epik_Tot_abs_Q>
0

> <r_epik_Metal_State_Penalty>
-0

> <b_epik_Metal_Only>
0

> <s_epik_Chemistry_Notes>
This compound contains an acetal/aminal-like group ( X-CH(R)-Y where X, Y are N, S, or O) that may be acid/base labile, releasing an aldehyde.

> <s_lp_Force_Field>
OPLS_2005

> <r_lp_Energy>
28.2642

> <b_lp_Chiralities_Consistent>
1

> <s_lp_Variant>
AV-unprocessed.smi:145-1

> <Gold.Version>
5.8.1

> <Gold.Id.Protein>
6NUR|6NUR_protein|mol2

> <Gold.PLP.Fitness>
49.6215

> <Gold.PLP.PLP>
-42.4251

> <Gold.PLP.part.hbond>
-3.0000

> <Gold.PLP.part.metal>
0.0000

> <Gold.PLP.part.buried>
-3.1555

> <Gold.PLP.part.nonpolar>
-36.6120

> <Gold.PLP.part.repulsive>
0.9398

> <Gold.PLP.ligand.clash>
0.1360

> <Gold.PLP.ligand.torsion>
0.4747

> <Gold.PLP.Chemscore.Hbond>
2.7520

> <Gold.PLP.Chemscore.CHOScore>
0.0000

> <Gold.PLP.Chemscore.Metal>
0.0000

> <Gold.Chemscore.Hbonds>
donor molecule, donor type, donor heavy atom, donor atom, acceptor molecule, acceptor atom, score
      P1  H  7997  8009       L1     1  0.55
      P1  H 10752 10763       L1    17  1.00

> <Gold.PLP.Chemscore.Internal.Correction>
0.0258

> <Gold.Rescore>
     Score         DG    S(hbond)    S(metal)    S(lipo)     H(rot)  DE(clash)    DE(int)     intcor
     16.58     -20.24       2.41        0.00      93.82       1.66       0.94       2.72       ----

> <Gold.Chemscore.Fitness>
16.5833

> <Gold.Chemscore.DG>
-20.2445

> <Gold.Chemscore.ZeroCoef>
-5.4800

> <Gold.Chemscore.Hbond>
2.4079

> <Gold.Chemscore.Metal>
0.0000

> <Gold.Chemscore.Lipo>
93.8201

> <Gold.Chemscore.Internal_Hbond>
0.0000

> <Gold.Chemscore.DEClash>
0.9445

> <Gold.Chemscore.DEInternal>
2.7167

> <Gold.Chemscore.Rot>
1.6621

> <Gold.Chemscore.Internal.Correction>
   9.000000E+99

> <Gold.Chemscore.Hbonds>
donor molecule, donor type, donor heavy atom, donor atom, acceptor molecule, acceptor atom, score
      P1  H  7989  7998       L1     6  0.04
      P1  H  7997  8009       L1     1  0.03
      P1  H 10752 10763       L1    17  1.00

> <Gold.Chemscore.Hbond.Weighted>
-8.0425

> <Gold.Chemscore.Metal.Weighted>
-0.0000

> <Gold.Chemscore.Lipo.Weighted>
-10.9770

> <Gold.Chemscore.Internal_Hbond.Weighted>
0.0000

> <Gold.Chemscore.DEClash.Weighted>
0.9445

> <Gold.Chemscore.DEInternal.Weighted>
2.7167

> <Gold.Chemscore.Rot.Weighted>
4.2550

> <Gold.Chemscore.Internal.Correction.Weighted>
   9.000000E+99

> <Gold.Protein.RotatedTorsions>
[ 6907 6896 6895 6894 ] final -139.99 input  -60.11 | X-H torsion
[ 7974 7965 7964 7962 ] final  -28.76 input  175.53 | X-H torsion
[ 8008 7997 7996 7995 ] final  173.68 input   59.86 | X-H torsion
[ 10167 10162 10161 10158 ] final   55.13 input  -65.29 | X-H torsion
[ 10718 10713 10712 10709 ] final  165.27 input   66.30 | X-H torsion
[ 10763 10752 10751 10750 ] final   68.18 input  -60.55 | X-H torsion
[ 11005 11000 10999 10996 ] final    4.82 input  -57.11 | X-H torsion

> <Gold.Protein.ActiveResidues>
 VAL166  LYS551  ARG553  GLY616  TRP617  ASP618  TYR619  PRO620  LYS621  CYS622 
 ASP623  PHE694  ASN695  SER759  ASP760  ASP761  ALA762  ILE779  LEU786  VAL792 
 PHE793  MET794  SER795  GLU796  ALA797  LYS798  CYS799  TRP800  GLU811  SER814 

> <Gold.Protein.RotatedAtoms>
  151.0549  133.5592  159.2638 H   0  0  0  0  0  0  0  0  0  0  0  0  # atno 6907 bound_to 6896
  151.2589  135.0646  159.9100 H   0  0  0  0  0  0  0  0  0  0  0  0  # atno 6908 bound_to 6896
  152.5388  134.0298  159.8073 H   0  0  0  0  0  0  0  0  0  0  0  0  # atno 6909 bound_to 6896
  146.1265  140.5324  142.8712 H   0  0  0  0  0  0  0  0  0  0  0  0  # atno 7974 bound_to 7965
  156.1051  140.1454  156.9415 H   0  0  0  0  0  0  0  0  0  0  0  0  # atno 8008 bound_to 7997
  154.4728  140.0904  156.7233 H   0  0  0  0  0  0  0  0  0  0  0  0  # atno 8009 bound_to 7997
  155.4693  140.3441  155.4325 H   0  0  0  0  0  0  0  0  0  0  0  0  # atno 8010 bound_to 7997
  140.2227  144.3771  150.6444 H   0  0  0  0  0  0  0  0  0  0  0  0  # atno 10167 bound_to 10162
  157.0826  131.0396  151.2569 H   0  0  0  0  0  0  0  0  0  0  0  0  # atno 10718 bound_to 10713
  153.0223  135.5256  154.7095 H   0  0  0  0  0  0  0  0  0  0  0  0  # atno 10763 bound_to 10752
  154.6181  135.2886  155.0359 H   0  0  0  0  0  0  0  0  0  0  0  0  # atno 10764 bound_to 10752
  154.1355  135.6586  153.4983 H   0  0  0  0  0  0  0  0  0  0  0  0  # atno 10765 bound_to 10752
  140.5777  134.0042  155.8034 H   0  0  0  0  0  0  0  0  0  0  0  0  # atno 11005 bound_to 11000
  144.7648  140.5505  143.6711 LP  0  0  0  0  0  0  0  0  0  0  0  0  # atno 17320 bound_to 7965
  145.5353  139.1475  143.3477 LP  0  0  0  0  0  0  0  0  0  0  0  0  # atno 17321 bound_to 7965
  140.6243  143.2179  151.6629 LP  0  0  0  0  0  0  0  0  0  0  0  0  # atno 17342 bound_to 10162
  139.5138  144.3431  152.0722 LP  0  0  0  0  0  0  0  0  0  0  0  0  # atno 17343 bound_to 10162
  157.4788  130.7752  149.7393 LP  0  0  0  0  0  0  0  0  0  0  0  0  # atno 17370 bound_to 10713
  155.9919  130.3934  150.2963 LP  0  0  0  0  0  0  0  0  0  0  0  0  # atno 17371 bound_to 10713
  141.1016  133.9759  157.3069 LP  0  0  0  0  0  0  0  0  0  0  0  0  # atno 17394 bound_to 11000
  139.9332  135.0198  156.8469 LP  0  0  0  0  0  0  0  0  0  0  0  0  # atno 17395 bound_to 11000

$$$$
