AV-unprocessed.smi:11|AV-procd|sdf|59|dock10
  -GOLD-   2262015173D 1   1.00000     0.00000
 Structure written by MMmdl.
 33 35  0  0  0  0  0  0  0  0  1 V2000
  145.9284  137.9787  155.1345 C   0  0  0  0  0  0  0  0  0  0  0  0
  145.9426  139.4945  154.8732 C   0  0  0  0  0  0  0  0  0  0  0  0
  146.8378  139.9538  153.6952 C   0  0  1  0  0  0  0  0  0  0  0  0
  146.4047  139.3030  152.5163 O   0  0  0  0  0  0  0  0  0  0  0  0
  146.7751  141.4741  153.4983 C   0  0  0  0  0  0  0  0  0  0  0  0
  147.8521  141.9928  154.4478 C   0  0  0  0  0  0  0  0  0  0  0  0
  148.8856  140.9658  154.4398 N   0  0  0  0  0  0  0  0  0  0  0  0
  149.8959  140.9600  155.4254 C   0  0  0  0  0  0  0  0  0  0  0  0
  149.8557  141.9119  156.3929 N   0  0  0  0  0  0  0  0  0  0  0  0
  150.8272  141.8953  157.3402 C   0  0  0  0  0  0  0  0  0  0  0  0
  151.8684  141.0347  157.4512 N   0  0  0  0  0  0  0  0  0  0  0  0
  151.9398  140.0776  156.4794 C   0  0  0  0  0  0  0  0  0  0  0  0
  152.8586  139.1278  156.3387 N   0  0  0  0  0  0  0  0  0  0  0  0
  152.5261  138.4435  155.2315 C   0  0  0  0  0  0  0  0  0  0  0  0
  151.3316  138.9445  154.5861 C   0  0  0  0  0  0  0  0  0  0  0  0
  150.9651  140.0206  155.4531 C   0  0  0  0  0  0  0  0  0  0  0  0
  148.3403  139.7111  153.9356 C   0  0  0  0  0  0  0  0  0  0  0  0
  145.2548  137.7411  155.9578 H   0  0  0  0  0  0  0  0  0  0  0  0
  146.9140  137.6007  155.4037 H   0  0  0  0  0  0  0  0  0  0  0  0
  145.5827  137.4249  154.2616 H   0  0  0  0  0  0  0  0  0  0  0  0
  144.9174  139.8178  154.6885 H   0  0  0  0  0  0  0  0  0  0  0  0
  146.2524  140.0004  155.7886 H   0  0  0  0  0  0  0  0  0  0  0  0
  145.4940  139.5129  152.3757 H   0  0  0  0  0  0  0  0  0  0  0  0
  147.0489  141.7365  152.4749 H   0  0  0  0  0  0  0  0  0  0  0  0
  145.7916  141.9018  153.6967 H   0  0  0  0  0  0  0  0  0  0  0  0
  148.2450  142.9572  154.1250 H   0  0  0  0  0  0  0  0  0  0  0  0
  147.4412  142.1082  155.4516 H   0  0  0  0  0  0  0  0  0  0  0  0
  150.7627  142.6624  158.0976 H   0  0  0  0  0  0  0  0  0  0  0  0
  153.1244  137.6087  154.8875 H   0  0  0  0  0  0  0  0  0  0  0  0
  150.8541  138.5878  153.6828 H   0  0  0  0  0  0  0  0  0  0  0  0
  148.5193  138.8818  154.6187 H   0  0  0  0  0  0  0  0  0  0  0  0
  148.8450  139.4843  152.9958 H   0  0  0  0  0  0  0  0  0  0  0  0
  152.5233  141.1411  158.2127 H   0  0  0  0  0  0  0  0  0  0  0  0
  1  2  1  0  0  0  0
  1 18  1  0  0  0  0
  1 19  1  0  0  0  0
  1 20  1  0  0  0  0
  2  3  1  0  0  0  0
  2 21  1  0  0  0  0
  2 22  1  0  0  0  0
  3 17  1  0  0  0  0
  3  4  1  0  0  0  0
  3  5  1  0  0  0  0
  4 23  1  0  0  0  0
  5  6  1  0  0  0  0
  5 24  1  0  0  0  0
  5 25  1  0  0  0  0
  6  7  1  0  0  0  0
  6 26  1  0  0  0  0
  6 27  1  0  0  0  0
  7  8  1  0  0  0  0
  7 17  1  0  0  0  0
  8 16  2  0  0  0  0
  8  9  1  0  0  0  0
  9 10  2  0  0  0  0
 10 11  1  0  0  0  0
 10 28  1  0  0  0  0
 11 12  1  0  0  0  0
 11 33  1  0  0  0  0
 12 16  1  0  0  0  0
 12 13  2  0  0  0  0
 13 14  1  0  0  0  0
 14 15  2  0  0  0  0
 14 29  1  0  0  0  0
 15 16  1  0  0  0  0
 15 30  1  0  0  0  0
 17 31  1  0  0  0  0
 17 32  1  0  0  0  0
M  END
> <s_m_source_file>
AV-unprocessed.smi

> <i_m_source_file_index>
11

> <i_lp_mmshare_version>
43012

> <i_f3d_flags>
0

> <s_epik_input>
W0NIM11bQ0gyXVtDQEBdMShbT0hdKVtDSDJdW0NIMl1OKFtDSDJdMSljKG5bY0hdbjIpYyhjMjMpW2NIXVtjSF1bbkhdMw==

> <s_epik_cmdline>
J2VwaWtfcHl0aG9uJywgJy1waCcsICc3LjAnLCAnLXRuJywgJzgnLCAnLW1hJywgJzIwMCcsICctbWV0YWxfYmluZGluZycsICctaW1hZScsICc8aW5maWxlLm1hZT4nLCAnLW9tYWUnLCAnPG91dGZpbGUubWFlPic=

> <r_lp_tautomer_probability>
1.75997e-05

> <r_epik_Ionization_Penalty>
5.31594

> <r_epik_Ionization_Penalty_Charging>
0

> <r_epik_Ionization_Penalty_Neutral>
5.31594

> <r_epik_State_Penalty>
7.79803

> <r_epik_Charging_Adjusted_Penalty>
7.79803

> <i_epik_Tot_Q>
0

> <i_epik_Tot_abs_Q>
0

> <r_epik_Metal_State_Penalty>
4.83511

> <b_epik_Metal_Only>
1

> <s_lp_Force_Field>
OPLS_2005

> <r_lp_Energy>
41.5281

> <b_lp_Chiralities_Consistent>
1

> <s_lp_Variant>
AV-unprocessed.smi:11-5

> <Gold.Version>
5.8.1

> <Gold.Id.Protein>
6NUR|6NUR_protein|mol2

> <Gold.PLP.Fitness>
36.0527

> <Gold.PLP.PLP>
-30.3663

> <Gold.PLP.part.hbond>
-2.0000

> <Gold.PLP.part.metal>
0.0000

> <Gold.PLP.part.buried>
-2.0628

> <Gold.PLP.part.nonpolar>
-26.9246

> <Gold.PLP.part.repulsive>
0.6630

> <Gold.PLP.ligand.clash>
0.0000

> <Gold.PLP.ligand.torsion>
0.2980

> <Gold.PLP.Chemscore.Hbond>
1.9913

> <Gold.PLP.Chemscore.CHOScore>
0.0000

> <Gold.PLP.Chemscore.Metal>
0.0000

> <Gold.Chemscore.Hbonds>
donor molecule, donor type, donor heavy atom, donor atom, acceptor molecule, acceptor atom, score
      L1  H     4    23       P1 10175  0.96
      P1  H  7997  8010       L1    13  1.00

> <Gold.PLP.Chemscore.Internal.Correction>
0.3087

> <Gold.Rescore>
     Score         DG    S(hbond)    S(metal)    S(lipo)     H(rot)  DE(clash)    DE(int)     intcor
     12.27     -12.69       1.44        0.00      51.86       1.43       0.11       0.32       ----

> <Gold.Chemscore.Fitness>
12.2661

> <Gold.Chemscore.DG>
-12.6901

> <Gold.Chemscore.ZeroCoef>
-5.4800

> <Gold.Chemscore.Hbond>
1.4370

> <Gold.Chemscore.Metal>
0.0000

> <Gold.Chemscore.Lipo>
51.8566

> <Gold.Chemscore.Internal_Hbond>
0.0000

> <Gold.Chemscore.DEClash>
0.1055

> <Gold.Chemscore.DEInternal>
0.3185

> <Gold.Chemscore.Rot>
1.4283

> <Gold.Chemscore.Internal.Correction>
   9.000000E+99

> <Gold.Chemscore.Hbonds>
donor molecule, donor type, donor heavy atom, donor atom, acceptor molecule, acceptor atom, score
      L1  H     4    23       P1 10175  0.91
      P1  H  7997  8010       L1    13  0.27

> <Gold.Chemscore.Hbond.Weighted>
-4.7995

> <Gold.Chemscore.Metal.Weighted>
-0.0000

> <Gold.Chemscore.Lipo.Weighted>
-6.0672

> <Gold.Chemscore.Internal_Hbond.Weighted>
0.0000

> <Gold.Chemscore.DEClash.Weighted>
0.1055

> <Gold.Chemscore.DEInternal.Weighted>
0.3185

> <Gold.Chemscore.Rot.Weighted>
3.6566

> <Gold.Chemscore.Internal.Correction.Weighted>
   9.000000E+99

> <Gold.Protein.RotatedTorsions>
[ 6907 6896 6895 6894 ] final  -34.87 input  -60.11 | X-H torsion
[ 7974 7965 7964 7962 ] final  167.75 input  175.53 | X-H torsion
[ 8008 7997 7996 7995 ] final   87.26 input   59.86 | X-H torsion
[ 10167 10162 10161 10158 ] final   11.93 input  -65.29 | X-H torsion
[ 10718 10713 10712 10709 ] final -136.64 input   66.30 | X-H torsion
[ 10763 10752 10751 10750 ] final  -53.82 input  -60.55 | X-H torsion
[ 11005 11000 10999 10996 ] final    9.61 input  -57.11 | X-H torsion

> <Gold.Protein.ActiveResidues>
 VAL166  LYS551  ARG553  GLY616  TRP617  ASP618  TYR619  PRO620  LYS621  CYS622 
 ASP623  PHE694  ASN695  SER759  ASP760  ASP761  ALA762  ILE779  LEU786  VAL792 
 PHE793  MET794  SER795  GLU796  ALA797  LYS798  CYS799  TRP800  GLU811  SER814 

> <Gold.Protein.RotatedAtoms>
  151.0470  134.9647  159.8191 H   0  0  0  0  0  0  0  0  0  0  0  0  # atno 6907 bound_to 6896
  152.5374  134.2585  159.8936 H   0  0  0  0  0  0  0  0  0  0  0  0  # atno 6908 bound_to 6896
  151.2599  133.4264  159.2649 H   0  0  0  0  0  0  0  0  0  0  0  0  # atno 6909 bound_to 6896
  144.7413  139.8806  143.6396 H   0  0  0  0  0  0  0  0  0  0  0  0  # atno 7974 bound_to 7965
  155.9732  140.3384  155.6594 H   0  0  0  0  0  0  0  0  0  0  0  0  # atno 8008 bound_to 7997
  155.6647  140.0720  157.2560 H   0  0  0  0  0  0  0  0  0  0  0  0  # atno 8009 bound_to 7997
  154.4172  140.1702  156.1802 H   0  0  0  0  0  0  0  0  0  0  0  0  # atno 8010 bound_to 7997
  140.6101  143.8426  150.7056 H   0  0  0  0  0  0  0  0  0  0  0  0  # atno 10167 bound_to 10162
  156.2793  130.7311  151.1303 H   0  0  0  0  0  0  0  0  0  0  0  0  # atno 10718 bound_to 10713
  154.1649  135.6468  153.4995 H   0  0  0  0  0  0  0  0  0  0  0  0  # atno 10763 bound_to 10752
  153.0100  135.5369  154.6673 H   0  0  0  0  0  0  0  0  0  0  0  0  # atno 10764 bound_to 10752
  154.5996  135.2942  155.0521 H   0  0  0  0  0  0  0  0  0  0  0  0  # atno 10765 bound_to 10752
  140.5238  134.0533  155.7852 H   0  0  0  0  0  0  0  0  0  0  0  0  # atno 11005 bound_to 11000
  146.1214  139.4232  143.0226 LP  0  0  0  0  0  0  0  0  0  0  0  0  # atno 17320 bound_to 7965
  145.7299  141.0046  143.1357 LP  0  0  0  0  0  0  0  0  0  0  0  0  # atno 17321 bound_to 7965
  140.1993  143.3973  152.1804 LP  0  0  0  0  0  0  0  0  0  0  0  0  # atno 17342 bound_to 10162
  139.5354  144.7204  151.4910 LP  0  0  0  0  0  0  0  0  0  0  0  0  # atno 17343 bound_to 10162
  157.7309  131.0612  150.5703 LP  0  0  0  0  0  0  0  0  0  0  0  0  # atno 17370 bound_to 10713
  156.5807  130.4303  149.5979 LP  0  0  0  0  0  0  0  0  0  0  0  0  # atno 17371 bound_to 10713
  141.1320  133.9287  157.2516 LP  0  0  0  0  0  0  0  0  0  0  0  0  # atno 17394 bound_to 11000
  139.9591  135.0158  156.9212 LP  0  0  0  0  0  0  0  0  0  0  0  0  # atno 17395 bound_to 11000

$$$$
