AV-unprocessed.smi:3338|AV-procd|sdf|12871|dock5
  -GOLD-   2272019273D 1   1.00000     0.00000
 Structure written by MMmdl.
 44 45  0  0  0  0  0  0  0  0  2 V2000
  146.8531  133.6461  152.1848 C   0  0  0  0  0  0  0  0  0  0  0  0
  145.4424  133.9710  152.7069 C   0  0  2  0  0  0  0  0  0  0  0  0
  144.4132  134.1502  151.5756 C   0  0  0  0  0  0  0  0  0  0  0  0
  144.6109  135.4886  150.8501 C   0  0  0  0  0  0  0  0  0  0  0  0
  144.6171  136.6603  151.8444 C   0  0  0  0  0  0  0  0  0  0  0  0
  145.6493  136.4653  152.8950 N   0  3  1  0  0  0  0  0  0  0  0  0
  145.7855  137.6501  153.7788 C   0  0  0  0  0  0  0  0  0  0  0  0
  146.2186  138.9093  153.0032 C   0  0  0  0  0  0  0  0  0  0  0  0
  147.6484  139.1591  153.1395 N   0  0  0  0  0  0  0  0  0  0  0  0
  148.2683  139.4709  154.2890 C   0  0  0  0  0  0  0  0  0  0  0  0
  147.6765  139.5496  155.3664 O   0  0  0  0  0  0  0  0  0  0  0  0
  149.7824  139.7257  154.1996 C   0  0  2  0  0  0  0  0  0  0  0  0
  150.5807  138.4696  153.7968 C   0  0  0  0  0  0  0  0  0  0  0  0
  150.2779  140.3071  155.4420 N   0  0  0  0  0  0  0  0  0  0  0  0
  149.9636  141.5341  155.9902 C   0  0  0  0  0  0  0  0  0  0  0  0
  150.6404  141.6418  157.1712 C   0  0  0  0  0  0  0  0  0  0  0  0
  151.3489  140.4121  157.2679 C   0  0  0  0  0  0  0  0  0  0  0  0
  151.1262  139.6140  156.2369 N   0  0  0  0  0  0  0  0  0  0  0  0
  145.4353  135.1969  153.6434 C   0  0  0  0  0  0  0  0  0  0  0  0
  147.2711  134.4649  151.5993 H   0  0  0  0  0  0  0  0  0  0  0  0
  146.8411  132.7583  151.5518 H   0  0  0  0  0  0  0  0  0  0  0  0
  147.5385  133.4498  153.0098 H   0  0  0  0  0  0  0  0  0  0  0  0
  145.1285  133.1082  153.2961 H   0  0  0  0  0  0  0  0  0  0  0  0
  144.4717  133.3226  150.8677 H   0  0  0  0  0  0  0  0  0  0  0  0
  143.4077  134.1198  151.9974 H   0  0  0  0  0  0  0  0  0  0  0  0
  145.5469  135.4752  150.2908 H   0  0  0  0  0  0  0  0  0  0  0  0
  143.8190  135.6312  150.1142 H   0  0  0  0  0  0  0  0  0  0  0  0
  144.8123  137.5849  151.2996 H   0  0  0  0  0  0  0  0  0  0  0  0
  143.6360  136.7672  152.3099 H   0  0  0  0  0  0  0  0  0  0  0  0
  144.8228  137.8525  154.2499 H   0  0  0  0  0  0  0  0  0  0  0  0
  146.4830  137.4323  154.5892 H   0  0  0  0  0  0  0  0  0  0  0  0
  146.0094  138.8035  151.9395 H   0  0  0  0  0  0  0  0  0  0  0  0
  145.6567  139.7806  153.3444 H   0  0  0  0  0  0  0  0  0  0  0  0
  148.2044  139.1172  152.2975 H   0  0  0  0  0  0  0  0  0  0  0  0
  149.9339  140.4682  153.4142 H   0  0  0  0  0  0  0  0  0  0  0  0
  150.2478  138.0839  152.8325 H   0  0  0  0  0  0  0  0  0  0  0  0
  150.4778  137.6670  154.5282 H   0  0  0  0  0  0  0  0  0  0  0  0
  151.6431  138.6975  153.7068 H   0  0  0  0  0  0  0  0  0  0  0  0
  149.2911  142.2222  155.4996 H   0  0  0  0  0  0  0  0  0  0  0  0
  150.6298  142.4716  157.8621 H   0  0  0  0  0  0  0  0  0  0  0  0
  152.0110  140.0764  158.0524 H   0  0  0  0  0  0  0  0  0  0  0  0
  144.4799  135.2527  154.1679 H   0  0  0  0  0  0  0  0  0  0  0  0
  146.1992  135.0680  154.4095 H   0  0  0  0  0  0  0  0  0  0  0  0
  146.5285  136.3744  152.4061 H   0  0  0  0  0  0  0  0  0  0  0  0
  1  2  1  0  0  0  0
  1 20  1  0  0  0  0
  1 21  1  0  0  0  0
  1 22  1  0  0  0  0
  2 19  1  0  0  0  0
  2  3  1  0  0  0  0
  2 23  1  0  0  0  0
  3  4  1  0  0  0  0
  3 24  1  0  0  0  0
  3 25  1  0  0  0  0
  4  5  1  0  0  0  0
  4 26  1  0  0  0  0
  4 27  1  0  0  0  0
  5  6  1  0  0  0  0
  5 28  1  0  0  0  0
  5 29  1  0  0  0  0
  6  7  1  0  0  0  0
  6 19  1  0  0  0  0
  6 44  1  0  0  0  0
  7  8  1  0  0  0  0
  7 30  1  0  0  0  0
  7 31  1  0  0  0  0
  8  9  1  0  0  0  0
  8 32  1  0  0  0  0
  8 33  1  0  0  0  0
  9 10  1  0  0  0  0
  9 34  1  0  0  0  0
 10 11  2  0  0  0  0
 10 12  1  0  0  0  0
 12 13  1  0  0  0  0
 12 14  1  0  0  0  0
 12 35  1  0  0  0  0
 13 36  1  0  0  0  0
 13 37  1  0  0  0  0
 13 38  1  0  0  0  0
 14 18  1  0  0  0  0
 14 15  1  0  0  0  0
 15 16  2  0  0  0  0
 15 39  1  0  0  0  0
 16 17  1  0  0  0  0
 16 40  1  0  0  0  0
 17 18  2  0  0  0  0
 17 41  1  0  0  0  0
 19 42  1  0  0  0  0
 19 43  1  0  0  0  0
M  CHG  1   6   1
M  END
> <s_m_source_file>
AV-unprocessed.smi

> <i_m_source_file_index>
3338

> <i_lp_mmshare_version>
43012

> <i_f3d_flags>
0

> <s_epik_input>
W0NIM11bQ0BASF0xW0NIMl1bQ0gyXVtDSDJdTihbQ0gyXTEpW0NIMl1bQ0gyXVtOSF1DKD1PKVtDQEhdKFtDSDNdKW4yW2NIXVtjSF1bY0hdbjI=

> <s_epik_cmdline>
J2VwaWtfcHl0aG9uJywgJy1waCcsICc3LjAnLCAnLXRuJywgJzgnLCAnLW1hJywgJzIwMCcsICctbWV0YWxfYmluZGluZycsICctaW1hZScsICc8aW5maWxlLm1hZT4nLCAnLW9tYWUnLCAnPG91dGZpbGUubWFlPic=

> <r_lp_tautomer_probability>
1

> <r_epik_Ionization_Penalty>
0.00225707

> <r_epik_Ionization_Penalty_Charging>
0.00223709

> <r_epik_Ionization_Penalty_Neutral>
1.99775e-05

> <r_epik_State_Penalty>
0.00153978

> <r_epik_Charging_Adjusted_Penalty>
0.00377687

> <i_epik_Tot_Q>
1

> <i_epik_Tot_abs_Q>
1

> <r_epik_Metal_State_Penalty>
-0

> <b_epik_Metal_Only>
0

> <s_lp_Force_Field>
OPLS_2005

> <r_lp_Energy>
22.4515

> <b_lp_Chiralities_Consistent>
1

> <s_lp_Variant>
AV-unprocessed.smi:3338-3

> <Gold.Version>
5.8.1

> <Gold.Id.Protein>
6NUR|6NUR_protein|mol2

> <Gold.PLP.Fitness>
43.9148

> <Gold.PLP.PLP>
-34.1145

> <Gold.PLP.part.hbond>
-2.8797

> <Gold.PLP.part.metal>
0.0000

> <Gold.PLP.part.buried>
-3.1495

> <Gold.PLP.part.nonpolar>
-28.4454

> <Gold.PLP.part.repulsive>
0.1056

> <Gold.PLP.ligand.clash>
0.0000

> <Gold.PLP.ligand.torsion>
0.6267

> <Gold.PLP.Chemscore.Hbond>
2.6560

> <Gold.PLP.Chemscore.CHOScore>
0.9784

> <Gold.PLP.Chemscore.Metal>
0.0000

> <Gold.Chemscore.Hbonds>
donor molecule, donor type, donor heavy atom, donor atom, acceptor molecule, acceptor atom, score
      L1  H     9    34       P1  7957  0.94
      L1  C    15    39       P1  8028  1.00

> <Gold.PLP.Chemscore.Internal.Correction>
0.1506

> <Gold.Rescore>
     Score         DG    S(hbond)    S(metal)    S(lipo)     H(rot)  DE(clash)    DE(int)     intcor
     13.89     -15.59       1.87        0.00      71.51       1.76       0.15       1.55       ----

> <Gold.Chemscore.Fitness>
13.8883

> <Gold.Chemscore.DG>
-15.5933

> <Gold.Chemscore.ZeroCoef>
-5.4800

> <Gold.Chemscore.Hbond>
1.8697

> <Gold.Chemscore.Metal>
0.0000

> <Gold.Chemscore.Lipo>
71.5072

> <Gold.Chemscore.Internal_Hbond>
0.0000

> <Gold.Chemscore.DEClash>
0.1547

> <Gold.Chemscore.DEInternal>
1.5502

> <Gold.Chemscore.Rot>
1.7570

> <Gold.Chemscore.Internal.Correction>
   9.000000E+99

> <Gold.Chemscore.Hbonds>
donor molecule, donor type, donor heavy atom, donor atom, acceptor molecule, acceptor atom, score
      L1  H     6    44       P1  7948  0.03
      L1  H     9    34       P1  7957  0.87

> <Gold.Chemscore.Hbond.Weighted>
-6.2448

> <Gold.Chemscore.Metal.Weighted>
-0.0000

> <Gold.Chemscore.Lipo.Weighted>
-8.3663

> <Gold.Chemscore.Internal_Hbond.Weighted>
0.0000

> <Gold.Chemscore.DEClash.Weighted>
0.1547

> <Gold.Chemscore.DEInternal.Weighted>
1.5502

> <Gold.Chemscore.Rot.Weighted>
4.4979

> <Gold.Chemscore.Internal.Correction.Weighted>
   9.000000E+99

> <Gold.Protein.RotatedTorsions>
[ 6907 6896 6895 6894 ] final   87.38 input  -60.11 | X-H torsion
[ 7974 7965 7964 7962 ] final -169.56 input  175.53 | X-H torsion
[ 8008 7997 7996 7995 ] final   -3.62 input   59.86 | X-H torsion
[ 10167 10162 10161 10158 ] final  176.74 input  -65.29 | X-H torsion
[ 10718 10713 10712 10709 ] final  110.67 input   66.30 | X-H torsion
[ 10763 10752 10751 10750 ] final   38.40 input  -60.55 | X-H torsion
[ 11005 11000 10999 10996 ] final  166.84 input  -57.11 | X-H torsion

> <Gold.Protein.ActiveResidues>
 VAL166  LYS551  ARG553  GLY616  TRP617  ASP618  TYR619  PRO620  LYS621  CYS622 
 ASP623  PHE694  ASN695  SER759  ASP760  ASP761  ALA762  ILE779  LEU786  VAL792 
 PHE793  MET794  SER795  GLU796  ALA797  LYS798  CYS799  TRP800  GLU811  SER814 

> <Gold.Protein.RotatedAtoms>
  152.5410  134.2285  159.8815 H   0  0  0  0  0  0  0  0  0  0  0  0  # atno 6907 bound_to 6896
  151.2258  133.4470  159.2609 H   0  0  0  0  0  0  0  0  0  0  0  0  # atno 6908 bound_to 6896
  151.0762  134.9843  159.8389 H   0  0  0  0  0  0  0  0  0  0  0  0  # atno 6909 bound_to 6896
  144.7183  140.2203  143.6317 H   0  0  0  0  0  0  0  0  0  0  0  0  # atno 7974 bound_to 7965
  154.6230  140.2504  155.7526 H   0  0  0  0  0  0  0  0  0  0  0  0  # atno 8008 bound_to 7997
  156.2437  140.2923  156.0466 H   0  0  0  0  0  0  0  0  0  0  0  0  # atno 8009 bound_to 7997
  155.1867  140.0390  157.2883 H   0  0  0  0  0  0  0  0  0  0  0  0  # atno 8010 bound_to 7997
  139.5226  144.2880  152.0489 H   0  0  0  0  0  0  0  0  0  0  0  0  # atno 10167 bound_to 10162
  157.6483  131.0937  150.6636 H   0  0  0  0  0  0  0  0  0  0  0  0  # atno 10718 bound_to 10713
  153.0002  135.6250  154.2299 H   0  0  0  0  0  0  0  0  0  0  0  0  # atno 10763 bound_to 10752
  154.2041  135.2803  155.2982 H   0  0  0  0  0  0  0  0  0  0  0  0  # atno 10764 bound_to 10752
  154.5660  135.5691  153.7109 H   0  0  0  0  0  0  0  0  0  0  0  0  # atno 10765 bound_to 10752
  140.2705  134.7830  157.3671 H   0  0  0  0  0  0  0  0  0  0  0  0  # atno 11005 bound_to 11000
  145.8507  139.2174  143.1773 LP  0  0  0  0  0  0  0  0  0  0  0  0  # atno 17320 bound_to 7965
  146.0263  140.8301  142.9898 LP  0  0  0  0  0  0  0  0  0  0  0  0  # atno 17321 bound_to 7965
  140.2332  144.4346  150.6291 LP  0  0  0  0  0  0  0  0  0  0  0  0  # atno 17342 bound_to 10162
  140.6341  143.2192  151.6433 LP  0  0  0  0  0  0  0  0  0  0  0  0  # atno 17343 bound_to 10162
  156.6950  130.4606  149.5589 LP  0  0  0  0  0  0  0  0  0  0  0  0  # atno 17370 bound_to 10713
  156.1835  130.6514  151.0979 LP  0  0  0  0  0  0  0  0  0  0  0  0  # atno 17371 bound_to 10713
  140.1377  134.5012  155.8055 LP  0  0  0  0  0  0  0  0  0  0  0  0  # atno 17394 bound_to 11000
  141.2178  133.6813  156.7154 LP  0  0  0  0  0  0  0  0  0  0  0  0  # atno 17395 bound_to 11000

$$$$
