AV-unprocessed.smi:1079|AV-procd|sdf|4704|dock9
  -GOLD-   22720 3233D 1   1.00000     0.00000
 Structure written by MMmdl.
 44 45  0  0  0  0  0  0  0  0  1 V2000
  138.0787  137.9724  153.9629 C   0  0  0  0  0  0  0  0  0  0  0  0
  138.6247  137.3497  155.1117 O   0  0  0  0  0  0  0  0  0  0  0  0
  140.0264  137.1569  155.0136 C   0  0  0  0  0  0  0  0  0  0  0  0
  140.3409  136.3087  153.7700 C   0  0  0  0  0  0  0  0  0  0  0  0
  141.7042  136.4723  153.3019 N   0  0  0  0  0  0  0  0  0  0  0  0
  142.5923  135.4106  153.1017 C   0  0  0  0  0  0  0  0  0  0  0  0
  142.1457  134.1253  153.3718 N   0  0  0  0  0  0  0  0  0  0  0  0
  143.8767  135.6184  152.6839 C   0  0  0  0  0  0  0  0  0  0  0  0
  144.7586  134.5465  152.4482 N   0  0  0  0  0  0  0  0  0  0  0  0
  145.1696  133.7510  153.6157 C   0  0  0  0  0  0  0  0  0  0  0  0
  146.6678  133.7997  153.8629 C   0  0  0  0  0  0  0  0  0  0  0  0
  147.2732  134.9995  154.2928 C   0  0  0  0  0  0  0  0  0  0  0  0
  148.6594  135.0466  154.5358 C   0  0  0  0  0  0  0  0  0  0  0  0
  149.4465  133.8941  154.3486 C   0  0  0  0  0  0  0  0  0  0  0  0
  148.8465  132.6946  153.9192 C   0  0  0  0  0  0  0  0  0  0  0  0
  147.4599  132.6472  153.6766 C   0  0  0  0  0  0  0  0  0  0  0  0
  145.2408  134.2691  151.2087 C   0  0  0  0  0  0  0  0  0  0  0  0
  146.1179  133.0284  151.0025 C   0  0  0  0  0  0  0  0  0  0  0  0
  144.9798  134.9607  150.2242 O   0  0  0  0  0  0  0  0  0  0  0  0
  144.3603  136.9776  152.4030 C   0  0  0  0  0  0  0  0  0  0  0  0
  145.4818  137.2704  151.9902 O   0  0  0  0  0  0  0  0  0  0  0  0
  143.4338  137.9894  152.6386 N   0  0  0  0  0  0  0  0  0  0  0  0
  142.1313  137.8048  153.0875 C   0  0  0  0  0  0  0  0  0  0  0  0
  141.4139  138.7877  153.2774 O   0  0  0  0  0  0  0  0  0  0  0  0
  143.7343  138.9387  152.4715 H   0  0  0  0  0  0  0  0  0  0  0  0
  137.0029  138.0937  154.0892 H   0  0  0  0  0  0  0  0  0  0  0  0
  138.2476  137.3700  153.0693 H   0  0  0  0  0  0  0  0  0  0  0  0
  138.5127  138.9608  153.8070 H   0  0  0  0  0  0  0  0  0  0  0  0
  140.5212  138.1253  154.9277 H   0  0  0  0  0  0  0  0  0  0  0  0
  140.4099  136.6769  155.9153 H   0  0  0  0  0  0  0  0  0  0  0  0
  140.1800  135.2477  153.9569 H   0  0  0  0  0  0  0  0  0  0  0  0
  139.6760  136.5507  152.9387 H   0  0  0  0  0  0  0  0  0  0  0  0
  141.2076  133.9518  153.7040 H   0  0  0  0  0  0  0  0  0  0  0  0
  142.6683  133.3139  153.0740 H   0  0  0  0  0  0  0  0  0  0  0  0
  144.6384  134.0697  154.5142 H   0  0  0  0  0  0  0  0  0  0  0  0
  144.8852  132.7070  153.4770 H   0  0  0  0  0  0  0  0  0  0  0  0
  146.6738  135.8856  154.4423 H   0  0  0  0  0  0  0  0  0  0  0  0
  149.1186  135.9662  154.8669 H   0  0  0  0  0  0  0  0  0  0  0  0
  150.5097  133.9304  154.5353 H   0  0  0  0  0  0  0  0  0  0  0  0
  149.4496  131.8100  153.7767 H   0  0  0  0  0  0  0  0  0  0  0  0
  147.0060  131.7227  153.3508 H   0  0  0  0  0  0  0  0  0  0  0  0
  145.6602  132.1429  151.4446 H   0  0  0  0  0  0  0  0  0  0  0  0
  147.1037  133.1730  151.4442 H   0  0  0  0  0  0  0  0  0  0  0  0
  146.2563  132.8319  149.9387 H   0  0  0  0  0  0  0  0  0  0  0  0
  1  2  1  0  0  0  0
  1 26  1  0  0  0  0
  1 27  1  0  0  0  0
  1 28  1  0  0  0  0
  2  3  1  0  0  0  0
  3  4  1  0  0  0  0
  3 29  1  0  0  0  0
  3 30  1  0  0  0  0
  4  5  1  0  0  0  0
  4 31  1  0  0  0  0
  4 32  1  0  0  0  0
  5 23  1  0  0  0  0
  5  6  1  0  0  0  0
  6  7  1  0  0  0  0
  6  8  2  0  0  0  0
  7 33  1  0  0  0  0
  7 34  1  0  0  0  0
  8  9  1  0  0  0  0
  8 20  1  0  0  0  0
  9 10  1  0  0  0  0
  9 17  1  0  0  0  0
 10 11  1  0  0  0  0
 10 35  1  0  0  0  0
 10 36  1  0  0  0  0
 11 16  1  0  0  0  0
 11 12  2  0  0  0  0
 12 13  1  0  0  0  0
 12 37  1  0  0  0  0
 13 14  2  0  0  0  0
 13 38  1  0  0  0  0
 14 15  1  0  0  0  0
 14 39  1  0  0  0  0
 15 16  2  0  0  0  0
 15 40  1  0  0  0  0
 16 41  1  0  0  0  0
 17 18  1  0  0  0  0
 17 19  2  0  0  0  0
 18 42  1  0  0  0  0
 18 43  1  0  0  0  0
 18 44  1  0  0  0  0
 20 21  2  0  0  0  0
 20 22  1  0  0  0  0
 22 25  1  0  0  0  0
 22 23  1  0  0  0  0
 23 24  2  0  0  0  0
M  END
> <s_m_source_file>
AV-unprocessed.smi

> <i_m_source_file_index>
1079

> <i_lp_mmshare_version>
43012

> <i_f3d_flags>
0

> <s_epik_input>
W0NIM11PW0NIMl1bQ0gyXW4xYyhbTkgyXSljKGMoPU8pW25IXWMxPU8pTihDKD1PKVtDSDNdKVtDSDJdYzJbY0hdW2NIXVtjSF1bY0hdW2NIXTI=

> <s_epik_cmdline>
J2VwaWtfcHl0aG9uJywgJy1waCcsICc3LjAnLCAnLXRuJywgJzgnLCAnLW1hJywgJzIwMCcsICctbWV0YWxfYmluZGluZycsICctaW1hZScsICc8aW5maWxlLm1hZT4nLCAnLW9tYWUnLCAnPG91dGZpbGUubWFlPic=

> <r_lp_tautomer_probability>
1

> <r_epik_Ionization_Penalty>
1.40243e-05

> <r_epik_Ionization_Penalty_Charging>
7.95939e-06

> <r_epik_Ionization_Penalty_Neutral>
6.06489e-06

> <r_epik_State_Penalty>
-0

> <r_epik_Charging_Adjusted_Penalty>
7.95939e-06

> <i_epik_Tot_Q>
0

> <i_epik_Tot_abs_Q>
0

> <r_epik_Metal_State_Penalty>
0.00752988

> <b_epik_Metal_Only>
0

> <s_epik_Chemistry_Notes>
This compound has an imine and may undergo hydrolysis.

> <s_lp_Force_Field>
OPLS_2005

> <r_lp_Energy>
29.3793

> <b_lp_Chiralities_Consistent>
1

> <s_lp_Variant>
AV-unprocessed.smi:1079-1

> <Gold.Version>
5.8.1

> <Gold.Id.Protein>
6NUR|6NUR_protein|mol2

> <Gold.PLP.Fitness>
36.2212

> <Gold.PLP.PLP>
-33.2255

> <Gold.PLP.part.hbond>
-2.9307

> <Gold.PLP.part.metal>
0.0000

> <Gold.PLP.part.buried>
-7.7188

> <Gold.PLP.part.nonpolar>
-25.5239

> <Gold.PLP.part.repulsive>
2.5773

> <Gold.PLP.ligand.clash>
0.0000

> <Gold.PLP.ligand.torsion>
1.4553

> <Gold.PLP.Chemscore.Hbond>
1.1724

> <Gold.PLP.Chemscore.CHOScore>
0.0000

> <Gold.PLP.Chemscore.Metal>
0.0000

> <Gold.Chemscore.Hbonds>
donor molecule, donor type, donor heavy atom, donor atom, acceptor molecule, acceptor atom, score
      L1  H     7    34       P1 10957  0.06
      L1  H    22    25       P1 10175  0.91

> <Gold.PLP.Chemscore.Internal.Correction>
2.3892

> <Gold.Rescore>
     Score         DG    S(hbond)    S(metal)    S(lipo)     H(rot)  DE(clash)    DE(int)     intcor
      7.69     -10.71       1.25        0.00      53.22       2.02       0.03       3.00       ----

> <Gold.Chemscore.Fitness>
7.6854

> <Gold.Chemscore.DG>
-10.7116

> <Gold.Chemscore.ZeroCoef>
-5.4800

> <Gold.Chemscore.Hbond>
1.2480

> <Gold.Chemscore.Metal>
0.0000

> <Gold.Chemscore.Lipo>
53.2219

> <Gold.Chemscore.Internal_Hbond>
0.0000

> <Gold.Chemscore.DEClash>
0.0310

> <Gold.Chemscore.DEInternal>
2.9952

> <Gold.Chemscore.Rot>
2.0170

> <Gold.Chemscore.Internal.Correction>
   9.000000E+99

> <Gold.Chemscore.Hbonds>
donor molecule, donor type, donor heavy atom, donor atom, acceptor molecule, acceptor atom, score
      L1  H     7    34       P1 10957  0.05
      L1  H    22    25       P1 10175  0.88

> <Gold.Chemscore.Hbond.Weighted>
-4.1682

> <Gold.Chemscore.Metal.Weighted>
-0.0000

> <Gold.Chemscore.Lipo.Weighted>
-6.2270

> <Gold.Chemscore.Internal_Hbond.Weighted>
0.0000

> <Gold.Chemscore.DEClash.Weighted>
0.0310

> <Gold.Chemscore.DEInternal.Weighted>
2.9952

> <Gold.Chemscore.Rot.Weighted>
5.1636

> <Gold.Chemscore.Internal.Correction.Weighted>
   9.000000E+99

> <Gold.Protein.RotatedTorsions>
[ 6907 6896 6895 6894 ] final -118.95 input  -60.11 | X-H torsion
[ 7974 7965 7964 7962 ] final  -86.72 input  175.53 | X-H torsion
[ 8008 7997 7996 7995 ] final -170.40 input   59.86 | X-H torsion
[ 10167 10162 10161 10158 ] final   10.87 input  -65.29 | X-H torsion
[ 10718 10713 10712 10709 ] final  143.78 input   66.30 | X-H torsion
[ 10763 10752 10751 10750 ] final -154.61 input  -60.55 | X-H torsion
[ 11005 11000 10999 10996 ] final    1.76 input  -57.11 | X-H torsion

> <Gold.Protein.ActiveResidues>
 VAL166  LYS551  ARG553  GLY616  TRP617  ASP618  TYR619  PRO620  LYS621  CYS622 
 ASP623  PHE694  ASN695  SER759  ASP760  ASP761  ALA762  ILE779  LEU786  VAL792 
 PHE793  MET794  SER795  GLU796  ALA797  LYS798  CYS799  TRP800  GLU811  SER814 

> <Gold.Protein.RotatedAtoms>
  150.8263  133.8166  159.3116 H   0  0  0  0  0  0  0  0  0  0  0  0  # atno 6907 bound_to 6896
  151.5909  135.1052  160.0048 H   0  0  0  0  0  0  0  0  0  0  0  0  # atno 6908 bound_to 6896
  152.4348  133.7300  159.6638 H   0  0  0  0  0  0  0  0  0  0  0  0  # atno 6909 bound_to 6896
  145.4761  140.9558  143.1890 H   0  0  0  0  0  0  0  0  0  0  0  0  # atno 7974 bound_to 7965
  155.9178  140.1069  157.1230 H   0  0  0  0  0  0  0  0  0  0  0  0  # atno 8008 bound_to 7997
  154.4049  140.1262  156.4705 H   0  0  0  0  0  0  0  0  0  0  0  0  # atno 8009 bound_to 7997
  155.7233  140.3469  155.5028 H   0  0  0  0  0  0  0  0  0  0  0  0  # atno 8010 bound_to 7997
  140.6167  143.8292  150.7127 H   0  0  0  0  0  0  0  0  0  0  0  0  # atno 10167 bound_to 10162
  157.3650  131.0970  151.0881 H   0  0  0  0  0  0  0  0  0  0  0  0  # atno 10718 bound_to 10713
  154.7846  135.3186  154.7914 H   0  0  0  0  0  0  0  0  0  0  0  0  # atno 10763 bound_to 10752
  153.8617  135.6852  153.4786 H   0  0  0  0  0  0  0  0  0  0  0  0  # atno 10764 bound_to 10752
  153.1494  135.4706  154.9552 H   0  0  0  0  0  0  0  0  0  0  0  0  # atno 10765 bound_to 10752
  140.6119  133.9741  155.8181 H   0  0  0  0  0  0  0  0  0  0  0  0  # atno 11005 bound_to 11000
  144.7916  139.6316  143.7110 LP  0  0  0  0  0  0  0  0  0  0  0  0  # atno 17320 bound_to 7965
  146.2368  139.5922  142.9518 LP  0  0  0  0  0  0  0  0  0  0  0  0  # atno 17321 bound_to 7965
  140.1873  143.4065  152.1889 LP  0  0  0  0  0  0  0  0  0  0  0  0  # atno 17342 bound_to 10162
  139.5405  144.7251  151.4751 LP  0  0  0  0  0  0  0  0  0  0  0  0  # atno 17343 bound_to 10162
  157.2006  130.6393  149.5737 LP  0  0  0  0  0  0  0  0  0  0  0  0  # atno 17370 bound_to 10713
  155.9744  130.4692  150.6387 LP  0  0  0  0  0  0  0  0  0  0  0  0  # atno 17371 bound_to 10713
  141.0802  134.0074  157.3397 LP  0  0  0  0  0  0  0  0  0  0  0  0  # atno 17394 bound_to 11000
  139.9189  135.0199  156.7987 LP  0  0  0  0  0  0  0  0  0  0  0  0  # atno 17395 bound_to 11000

$$$$
