AV-unprocessed.smi:890|AV-procd|sdf|4057|dock1
  -GOLD-   22720 1543D 1   1.00000     0.00000
 Structure written by MMmdl.
 52 55  0  0  0  0  0  0  0  0  2 V2000
  150.3087  134.2159  155.6955 O   0  0  0  0  0  0  0  0  0  0  0  0
  149.8244  134.7867  154.7186 C   0  0  0  0  0  0  0  0  0  0  0  0
  149.0519  134.2107  153.7827 N   0  0  0  0  0  0  0  0  0  0  0  0
  148.6594  132.8458  153.6690 C   0  0  0  0  0  0  0  0  0  0  0  0
  149.4339  131.7816  154.1930 C   0  0  0  0  0  0  0  0  0  0  0  0
  148.9631  130.4626  154.0683 C   0  0  0  0  0  0  0  0  0  0  0  0
  147.7275  130.2525  153.4321 C   0  0  0  0  0  0  0  0  0  0  0  0
  146.9714  131.2549  152.9411 N   0  0  0  0  0  0  0  0  0  0  0  0
  147.4147  132.5306  153.0589 C   0  0  0  0  0  0  0  0  0  0  0  0
  146.6152  133.5550  152.5086 N   0  0  0  0  0  0  0  0  0  0  0  0
  146.4924  133.4812  151.0550 C   0  0  0  0  0  0  0  0  0  0  0  0
  145.0537  133.8791  150.7180 C   0  0  0  0  0  0  0  0  0  0  0  0
  144.2871  133.5070  151.9809 C   0  0  0  0  0  0  0  0  0  0  0  0
  145.2971  133.8232  153.0819 C   0  0  0  0  0  0  0  0  0  0  0  0
  150.0265  136.0843  154.4472 N   0  0  0  0  0  0  0  0  0  0  0  0
  150.8205  136.9991  155.2622 C   0  0  2  0  0  0  0  0  0  0  0  0
  150.0884  137.2941  156.5819 C   0  0  0  0  0  0  0  0  0  0  0  0
  150.8643  138.3160  157.4302 C   0  0  0  0  0  0  0  0  0  0  0  0
  151.0993  139.5701  156.6722 N   0  3  1  0  0  0  0  0  0  0  0  0
  151.7498  140.6094  157.4996 C   0  0  0  0  0  0  0  0  0  0  0  0
  152.6979  140.0577  158.5389 C   0  0  0  0  0  0  0  0  0  0  0  0
  151.3373  140.5732  158.9526 C   0  0  0  0  0  0  0  0  0  0  0  0
  151.8387  139.3198  155.4103 C   0  0  0  0  0  0  0  0  0  0  0  0
  151.0864  138.3208  154.5160 C   0  0  0  0  0  0  0  0  0  0  0  0
  148.7921  134.7949  153.0013 H   0  0  0  0  0  0  0  0  0  0  0  0
  150.3699  131.9512  154.7019 H   0  0  0  0  0  0  0  0  0  0  0  0
  149.5339  129.6323  154.4567 H   0  0  0  0  0  0  0  0  0  0  0  0
  147.3328  129.2538  153.3186 H   0  0  0  0  0  0  0  0  0  0  0  0
  147.2102  134.1406  150.5664 H   0  0  0  0  0  0  0  0  0  0  0  0
  146.6871  132.4638  150.7112 H   0  0  0  0  0  0  0  0  0  0  0  0
  144.9950  134.9563  150.5563 H   0  0  0  0  0  0  0  0  0  0  0  0
  144.6747  133.3819  149.8248 H   0  0  0  0  0  0  0  0  0  0  0  0
  143.3507  134.0545  152.0919 H   0  0  0  0  0  0  0  0  0  0  0  0
  144.0610  132.4397  151.9780 H   0  0  0  0  0  0  0  0  0  0  0  0
  145.0827  133.2762  154.0001 H   0  0  0  0  0  0  0  0  0  0  0  0
  145.2547  134.8841  153.3305 H   0  0  0  0  0  0  0  0  0  0  0  0
  149.5927  136.4680  153.6201 H   0  0  0  0  0  0  0  0  0  0  0  0
  151.7748  136.5231  155.4977 H   0  0  0  0  0  0  0  0  0  0  0  0
  149.0892  137.6810  156.3746 H   0  0  0  0  0  0  0  0  0  0  0  0
  149.9520  136.3726  157.1491 H   0  0  0  0  0  0  0  0  0  0  0  0
  150.3014  138.5371  158.3376 H   0  0  0  0  0  0  0  0  0  0  0  0
  151.8205  137.8950  157.7454 H   0  0  0  0  0  0  0  0  0  0  0  0
  151.9597  141.5581  157.0083 H   0  0  0  0  0  0  0  0  0  0  0  0
  152.8583  138.9816  158.5727 H   0  0  0  0  0  0  0  0  0  0  0  0
  153.5616  140.6645  158.8033 H   0  0  0  0  0  0  0  0  0  0  0  0
  151.3049  141.5196  159.4889 H   0  0  0  0  0  0  0  0  0  0  0  0
  150.5950  139.8388  159.2607 H   0  0  0  0  0  0  0  0  0  0  0  0
  151.9737  140.2591  154.8728 H   0  0  0  0  0  0  0  0  0  0  0  0
  152.8359  138.9406  155.6402 H   0  0  0  0  0  0  0  0  0  0  0  0
  151.6669  138.1358  153.6115 H   0  0  0  0  0  0  0  0  0  0  0  0
  150.1425  138.7619  154.1922 H   0  0  0  0  0  0  0  0  0  0  0  0
  150.1918  139.9307  156.4139 H   0  0  0  0  0  0  0  0  0  0  0  0
  1  2  2  0  0  0  0
  2  3  1  0  0  0  0
  2 15  1  0  0  0  0
  3  4  1  0  0  0  0
  3 25  1  0  0  0  0
  4  9  1  0  0  0  0
  4  5  2  0  0  0  0
  5  6  1  0  0  0  0
  5 26  1  0  0  0  0
  6  7  2  0  0  0  0
  6 27  1  0  0  0  0
  7  8  1  0  0  0  0
  7 28  1  0  0  0  0
  8  9  2  0  0  0  0
  9 10  1  0  0  0  0
 10 14  1  0  0  0  0
 10 11  1  0  0  0  0
 11 12  1  0  0  0  0
 11 29  1  0  0  0  0
 11 30  1  0  0  0  0
 12 13  1  0  0  0  0
 12 31  1  0  0  0  0
 12 32  1  0  0  0  0
 13 14  1  0  0  0  0
 13 33  1  0  0  0  0
 13 34  1  0  0  0  0
 14 35  1  0  0  0  0
 14 36  1  0  0  0  0
 15 16  1  0  0  0  0
 15 37  1  0  0  0  0
 16 24  1  0  0  0  0
 16 17  1  0  0  0  0
 16 38  1  0  0  0  0
 17 18  1  0  0  0  0
 17 39  1  0  0  0  0
 17 40  1  0  0  0  0
 18 19  1  0  0  0  0
 18 41  1  0  0  0  0
 18 42  1  0  0  0  0
 19 20  1  0  0  0  0
 19 23  1  0  0  0  0
 19 52  1  0  0  0  0
 20 22  1  0  0  0  0
 20 21  1  0  0  0  0
 20 43  1  0  0  0  0
 21 22  1  0  0  0  0
 21 44  1  0  0  0  0
 21 45  1  0  0  0  0
 22 46  1  0  0  0  0
 22 47  1  0  0  0  0
 23 24  1  0  0  0  0
 23 48  1  0  0  0  0
 23 49  1  0  0  0  0
 24 50  1  0  0  0  0
 24 51  1  0  0  0  0
M  CHG  1  19   1
M  END
> <s_m_source_file>
AV-unprocessed.smi

> <i_m_source_file_index>
890

> <i_lp_mmshare_version>
43012

> <i_f3d_flags>
0

> <s_epik_input>
W0NIMl0xW0NIMl1bQ0hdMU4oW0NIMl1bQ0gyXTIpW0NIMl1bQ0gyXVtDSF0yW05IXUMoPU8pW05IXWMzW2NIXVtjSF1bY0hdbmMzTjRbQ0gyXVtDSDJdW0NIMl1bQ0gyXTQ=

> <s_epik_cmdline>
J2VwaWtfcHl0aG9uJywgJy1waCcsICc3LjAnLCAnLXRuJywgJzgnLCAnLW1hJywgJzIwMCcsICctbWV0YWxfYmluZGluZycsICctaW1hZScsICc8aW5maWxlLm1hZT4nLCAnLW9tYWUnLCAnPG91dGZpbGUubWFlPic=

> <r_lp_tautomer_probability>
1

> <r_epik_Ionization_Penalty>
0.193768

> <r_epik_Ionization_Penalty_Charging>
0.115549

> <r_epik_Ionization_Penalty_Neutral>
0.078219

> <r_epik_State_Penalty>
0.174811

> <r_epik_Charging_Adjusted_Penalty>
0.29036

> <i_epik_Tot_Q>
1

> <i_epik_Tot_abs_Q>
1

> <r_epik_Metal_State_Penalty>
0.169761

> <b_epik_Metal_Only>
0

> <s_lp_Force_Field>
OPLS_2005

> <r_lp_Energy>
54.8622

> <b_lp_Chiralities_Consistent>
1

> <s_lp_Variant>
AV-unprocessed.smi:890-1

> <Gold.Version>
5.8.1

> <Gold.Id.Protein>
6NUR|6NUR_protein|mol2

> <Gold.PLP.Fitness>
42.6325

> <Gold.PLP.PLP>
-37.6321

> <Gold.PLP.part.hbond>
-2.7118

> <Gold.PLP.part.metal>
0.0000

> <Gold.PLP.part.buried>
-4.5967

> <Gold.PLP.part.nonpolar>
-30.8473

> <Gold.PLP.part.repulsive>
0.4238

> <Gold.PLP.ligand.clash>
0.0000

> <Gold.PLP.ligand.torsion>
0.9739

> <Gold.PLP.Chemscore.Hbond>
1.8500

> <Gold.PLP.Chemscore.CHOScore>
0.0000

> <Gold.PLP.Chemscore.Metal>
0.0000

> <Gold.Chemscore.Hbonds>
donor molecule, donor type, donor heavy atom, donor atom, acceptor molecule, acceptor atom, score
      L1  H     3    25       P1  7948  0.90
      L1  H    15    37       P1  7948  0.98

> <Gold.PLP.Chemscore.Internal.Correction>
1.3981

> <Gold.Rescore>
     Score         DG    S(hbond)    S(metal)    S(lipo)     H(rot)  DE(clash)    DE(int)     intcor
     14.33     -16.38       1.44        0.00      81.10       1.33       0.02       2.03       ----

> <Gold.Chemscore.Fitness>
14.3278

> <Gold.Chemscore.DG>
-16.3758

> <Gold.Chemscore.ZeroCoef>
-5.4800

> <Gold.Chemscore.Hbond>
1.4402

> <Gold.Chemscore.Metal>
0.0000

> <Gold.Chemscore.Lipo>
81.0993

> <Gold.Chemscore.Internal_Hbond>
0.0000

> <Gold.Chemscore.DEClash>
0.0201

> <Gold.Chemscore.DEInternal>
2.0279

> <Gold.Chemscore.Rot>
1.3294

> <Gold.Chemscore.Internal.Correction>
   9.000000E+99

> <Gold.Chemscore.Hbonds>
donor molecule, donor type, donor heavy atom, donor atom, acceptor molecule, acceptor atom, score
      L1  H     3    25       P1  7948  0.18
      L1  H    15    37       P1  7948  0.56

> <Gold.Chemscore.Hbond.Weighted>
-4.8103

> <Gold.Chemscore.Metal.Weighted>
-0.0000

> <Gold.Chemscore.Lipo.Weighted>
-9.4886

> <Gold.Chemscore.Internal_Hbond.Weighted>
0.0000

> <Gold.Chemscore.DEClash.Weighted>
0.0201

> <Gold.Chemscore.DEInternal.Weighted>
2.0279

> <Gold.Chemscore.Rot.Weighted>
3.4032

> <Gold.Chemscore.Internal.Correction.Weighted>
   9.000000E+99

> <Gold.Protein.RotatedTorsions>
[ 6907 6896 6895 6894 ] final  132.88 input  -60.11 | X-H torsion
[ 7974 7965 7964 7962 ] final -122.26 input  175.53 | X-H torsion
[ 8008 7997 7996 7995 ] final  -60.84 input   59.86 | X-H torsion
[ 10167 10162 10161 10158 ] final  -99.37 input  -65.29 | X-H torsion
[ 10718 10713 10712 10709 ] final  -29.14 input   66.30 | X-H torsion
[ 10763 10752 10751 10750 ] final    7.35 input  -60.55 | X-H torsion
[ 11005 11000 10999 10996 ] final  -22.56 input  -57.11 | X-H torsion

> <Gold.Protein.ActiveResidues>
 VAL166  LYS551  ARG553  GLY616  TRP617  ASP618  TYR619  PRO620  LYS621  CYS622 
 ASP623  PHE694  ASN695  SER759  ASP760  ASP761  ALA762  ILE779  LEU786  VAL792 
 PHE793  MET794  SER795  GLU796  ALA797  LYS798  CYS799  TRP800  GLU811  SER814 

> <Gold.Protein.RotatedAtoms>
  152.3278  133.5924  159.5788 H   0  0  0  0  0  0  0  0  0  0  0  0  # atno 6907 bound_to 6896
  150.7406  133.9914  159.3617 H   0  0  0  0  0  0  0  0  0  0  0  0  # atno 6908 bound_to 6896
  151.7792  135.0766  160.0422 H   0  0  0  0  0  0  0  0  0  0  0  0  # atno 6909 bound_to 6896
  145.0314  140.8071  143.4321 H   0  0  0  0  0  0  0  0  0  0  0  0  # atno 7974 bound_to 7965
  154.4418  140.1031  156.6336 H   0  0  0  0  0  0  0  0  0  0  0  0  # atno 8008 bound_to 7997
  155.5577  140.3487  155.4465 H   0  0  0  0  0  0  0  0  0  0  0  0  # atno 8009 bound_to 7997
  156.0482  140.1298  157.0069 H   0  0  0  0  0  0  0  0  0  0  0  0  # atno 8010 bound_to 7997
  140.2631  143.3394  152.0606 H   0  0  0  0  0  0  0  0  0  0  0  0  # atno 10167 bound_to 10162
  156.4163  130.4417  149.7216 H   0  0  0  0  0  0  0  0  0  0  0  0  # atno 10718 bound_to 10713
  153.2373  135.6899  153.7822 H   0  0  0  0  0  0  0  0  0  0  0  0  # atno 10763 bound_to 10752
  153.6965  135.3304  155.3215 H   0  0  0  0  0  0  0  0  0  0  0  0  # atno 10764 bound_to 10752
  154.8340  135.4557  154.1282 H   0  0  0  0  0  0  0  0  0  0  0  0  # atno 10765 bound_to 10752
  140.8668  133.7748  156.0139 H   0  0  0  0  0  0  0  0  0  0  0  0  # atno 11005 bound_to 11000
  145.1765  139.2375  143.5314 LP  0  0  0  0  0  0  0  0  0  0  0  0  # atno 17320 bound_to 7965
  146.3499  140.1529  142.8592 LP  0  0  0  0  0  0  0  0  0  0  0  0  # atno 17321 bound_to 7965
  139.5011  144.6705  151.6253 LP  0  0  0  0  0  0  0  0  0  0  0  0  # atno 17342 bound_to 10162
  140.5950  143.9713  150.6348 LP  0  0  0  0  0  0  0  0  0  0  0  0  # atno 17343 bound_to 10162
  156.4174  130.7752  151.2768 LP  0  0  0  0  0  0  0  0  0  0  0  0  # atno 17370 bound_to 10713
  157.7508  131.0193  150.3661 LP  0  0  0  0  0  0  0  0  0  0  0  0  # atno 17371 bound_to 10713
  140.8619  134.2830  157.5230 LP  0  0  0  0  0  0  0  0  0  0  0  0  # atno 17394 bound_to 11000
  139.8710  134.9522  156.4109 LP  0  0  0  0  0  0  0  0  0  0  0  0  # atno 17395 bound_to 11000

$$$$
