#       Name:                AV-unprocessed.smi:1749
#       Creating user name   scv26
#       Creation time:       Fri Mar 27 08:26:22 2020


#       File generated by GOLD software.
#

@<TRIPOS>MOLECULE
AV-unprocessed.smi:1749
    36    37     1
SMALL
NO_CHARGES


@<TRIPOS>ATOM
      1 ****        -2.9979  -0.6551  -2.2964 C.3            1 S1                 0.0000
      2 ****        -2.4887   0.0421  -1.0267 C.3            1 S1                 0.0000
      3 ****        -3.0536  -0.6208   0.2443 C.3            1 S1                 0.0000
      4 ****        -2.5427   0.0729   1.5167 C.3            1 S1                 0.0000
      5 ****        -1.0071   0.1029   1.5563 C.3            1 S1                 0.0000
      6 ****        -0.4269   0.7654   0.2935 C.3            1 S1                 0.0000
      7 ****         1.0308   0.6938   0.3275 N.am           1 S1                 0.0000
      8 ****         1.8818   1.7313   0.2615 C.2            1 S1                 0.0000
      9 ****         1.5063   2.8995   0.1802 O.2            1 S1                 0.0000
     10 ****         3.1979   1.4296   0.2916 N.am           1 S1                 0.0000
     11 ****         4.3637   2.2495   0.2429 C.2            1 S1                 0.0000
     12 ****         4.3529   3.5917   0.1858 N.2            1 S1                 0.0000
     13 ****         5.6343   4.1251   0.1566 N.2            1 S1                 0.0000
     14 ****         6.5642   3.1671   0.1962 C.2            1 S1                 0.0000
     15 ****         5.9639   1.5199   0.2723 S.3            1 S1                 0.0000
     16 ****        -0.9485   0.0732  -0.9804 C.3            1 S1                 0.0000
     17 ****        -2.6784  -1.6970  -2.3316 H              1 S1                 0.0000
     18 ****        -2.6225  -0.1615  -3.1932 H              1 S1                 0.0000
     19 ****        -4.0871  -0.6389  -2.3433 H              1 S1                 0.0000
     20 ****        -2.8440   1.0733  -1.0540 H              1 S1                 0.0000
     21 ****        -4.1437  -0.5939   0.2267 H              1 S1                 0.0000
     22 ****        -2.7716  -1.6744   0.2679 H              1 S1                 0.0000
     23 ****        -2.9301   1.0917   1.5586 H              1 S1                 0.0000
     24 ****        -2.9264  -0.4402   2.3988 H              1 S1                 0.0000
     25 ****        -0.6724   0.6368   2.4467 H              1 S1                 0.0000
     26 ****        -0.6296  -0.9167   1.6467 H              1 S1                 0.0000
     27 ****        -0.7564   1.8057   0.2757 H              1 S1                 0.0000
     28 ****         1.4321  -0.2309   0.3952 H              1 S1                 0.0000
     29 ****         3.3918   0.4438   0.3911 H              1 S1                 0.0000
     30 ****         7.6111   3.4323   0.1806 H              1 S1                 0.0000
     31 ****        -0.5620  -0.9462  -1.0286 H              1 S1                 0.0000
     32 ****        -0.5637   0.5894  -1.8611 H              1 S1                 0.0000
     33 ****         0.5290   3.1103   0.1608 LP             1 S1                 0.0000
     34 ****         2.1783   3.6386   0.1335 LP             1 S1                 0.0000
     35 ****         3.5186   4.1426   0.1666 LP             1 S1                 0.0000
     36 ****         5.8357   5.1035   0.1116 LP             1 S1                 0.0000
@<TRIPOS>BOND
    1    1    2 1     
    2    1   17 1     
    3    1   18 1     
    4    1   19 1     
    5    2   16 1     
    6    2    3 1     
    7    2   20 1     
    8    3    4 1     
    9    3   21 1     
   10    3   22 1     
   11    4    5 1     
   12    4   23 1     
   13    4   24 1     
   14    5    6 1     
   15    5   25 1     
   16    5   26 1     
   17    6    7 1     
   18    6   16 1     
   19    6   27 1     
   20    7    8 am    
   21    7   28 1     
   22    8    9 2     
   23    8   10 am    
   24   10   11 1     
   25   10   29 1     
   26   11   15 1     
   27   11   12 2     
   28   12   13 1     
   29   13   14 2     
   30   14   15 1     
   31   14   30 1     
   32   16   31 1     
   33   16   32 1     
   34    9   33 1     
   35    9   34 1     
   36   12   35 1     
   37   13   36 1     
@<TRIPOS>SUBSTRUCTURE
      1 S1             1
@<TRIPOS>SET
LONE_PAIRS      STATIC     ATOMS    <user>   **** ""
4 33 34 35 36
DONOR_HYDROGENS      STATIC     ATOMS    <user>   **** ""
2 28 29
ATOM$BLUE        STATIC     ATOMS    COLORGROUP SYSTEM
4 33 34 35 36
ATOM$RED        STATIC     ATOMS    COLORGROUP SYSTEM
2 28 29
