AV-unprocessed.smi:1242|AV-procd|sdf|5216|dock7
  -GOLD-   22720 4313D 1   1.00000     0.00000
 Structure written by MMmdl.
 39 40  0  0  0  0  0  0  0  0  1 V2000
  149.7260  140.3727  156.6208 O   0  0  0  0  0  0  0  0  0  0  0  0
  150.0026  141.2825  155.8375 C   0  0  0  0  0  0  0  0  0  0  0  0
  151.0673  142.3334  156.1842 C   0  0  0  0  0  0  0  0  0  0  0  0
  151.6153  142.1973  157.5444 N   0  0  0  0  0  0  0  0  0  0  0  0
  151.4255  143.2820  158.4231 C   0  0  0  0  0  0  0  0  0  0  0  0
  151.8702  143.2826  159.6942 C   0  0  0  0  0  0  0  0  0  0  0  0
  151.6971  144.4928  160.5988 C   0  0  0  0  0  0  0  0  0  0  0  0
  152.3245  144.3184  161.7624 F   0  0  0  0  0  0  0  0  0  0  0  0
  152.1815  145.5938  160.0232 F   0  0  0  0  0  0  0  0  0  0  0  0
  150.4035  144.6910  160.8491 F   0  0  0  0  0  0  0  0  0  0  0  0
  152.5977  142.1040  160.1236 C   0  0  0  0  0  0  0  0  0  0  0  0
  152.7927  141.0600  159.2944 C   0  0  0  0  0  0  0  0  0  0  0  0
  152.2834  141.0657  157.9213 C   0  0  0  0  0  0  0  0  0  0  0  0
  152.4480  140.1143  157.1572 O   0  0  0  0  0  0  0  0  0  0  0  0
  149.4063  141.4334  154.6452 N   0  0  0  0  0  0  0  0  0  0  0  0
  148.3630  140.5702  154.0911 C   0  0  2  0  0  0  0  0  0  0  0  0
  147.0984  140.5999  154.9895 C   0  0  0  0  0  0  0  0  0  0  0  0
  146.2035  139.3432  154.9499 C   0  0  0  0  0  0  0  0  0  0  0  0
  145.7174  138.9163  153.5502 C   0  0  0  0  0  0  0  0  0  0  0  0
  146.8067  138.7168  152.4705 C   0  0  0  0  0  0  0  0  0  0  0  0
  148.1204  138.3613  153.0051 N   0  0  0  0  0  0  0  0  0  0  0  0
  148.9015  139.1675  153.7447 C   0  0  0  0  0  0  0  0  0  0  0  0
  150.0022  138.7968  154.1509 O   0  0  0  0  0  0  0  0  0  0  0  0
  151.8719  142.2789  155.4483 H   0  0  0  0  0  0  0  0  0  0  0  0
  150.6263  143.3218  156.0479 H   0  0  0  0  0  0  0  0  0  0  0  0
  150.8904  144.1183  157.9969 H   0  0  0  0  0  0  0  0  0  0  0  0
  152.9900  142.0546  161.1287 H   0  0  0  0  0  0  0  0  0  0  0  0
  153.3376  140.1975  159.6491 H   0  0  0  0  0  0  0  0  0  0  0  0
  149.6891  142.2153  154.0716 H   0  0  0  0  0  0  0  0  0  0  0  0
  148.0891  141.0083  153.1306 H   0  0  0  0  0  0  0  0  0  0  0  0
  147.3976  140.7505  156.0279 H   0  0  0  0  0  0  0  0  0  0  0  0
  146.5014  141.4747  154.7288 H   0  0  0  0  0  0  0  0  0  0  0  0
  146.7305  138.5103  155.4176 H   0  0  0  0  0  0  0  0  0  0  0  0
  145.3330  139.5153  155.5836 H   0  0  0  0  0  0  0  0  0  0  0  0
  145.1723  137.9788  153.6646 H   0  0  0  0  0  0  0  0  0  0  0  0
  144.9849  139.6358  153.1831 H   0  0  0  0  0  0  0  0  0  0  0  0
  146.4933  137.9347  151.7787 H   0  0  0  0  0  0  0  0  0  0  0  0
  146.8990  139.6167  151.8615 H   0  0  0  0  0  0  0  0  0  0  0  0
  148.4670  137.4378  152.7889 H   0  0  0  0  0  0  0  0  0  0  0  0
  1  2  2  0  0  0  0
  2  3  1  0  0  0  0
  2 15  1  0  0  0  0
  3  4  1  0  0  0  0
  3 24  1  0  0  0  0
  3 25  1  0  0  0  0
  4 13  1  0  0  0  0
  4  5  1  0  0  0  0
  5  6  2  0  0  0  0
  5 26  1  0  0  0  0
  6  7  1  0  0  0  0
  6 11  1  0  0  0  0
  7  8  1  0  0  0  0
  7  9  1  0  0  0  0
  7 10  1  0  0  0  0
 11 12  2  0  0  0  0
 11 27  1  0  0  0  0
 12 13  1  0  0  0  0
 12 28  1  0  0  0  0
 13 14  2  0  0  0  0
 15 16  1  0  0  0  0
 15 29  1  0  0  0  0
 16 22  1  0  0  0  0
 16 17  1  0  0  0  0
 16 30  1  0  0  0  0
 17 18  1  0  0  0  0
 17 31  1  0  0  0  0
 17 32  1  0  0  0  0
 18 19  1  0  0  0  0
 18 33  1  0  0  0  0
 18 34  1  0  0  0  0
 19 20  1  0  0  0  0
 19 35  1  0  0  0  0
 19 36  1  0  0  0  0
 20 21  1  0  0  0  0
 20 37  1  0  0  0  0
 20 38  1  0  0  0  0
 21 22  1  0  0  0  0
 21 39  1  0  0  0  0
 22 23  2  0  0  0  0
M  END
> <s_m_source_file>
AV-unprocessed.smi

> <i_m_source_file_index>
1242

> <i_lp_mmshare_version>
43012

> <i_f3d_flags>
0

> <s_epik_input>
Tz1jMVtjSF1bY0hdYyhDKEYpKEYpRilbY0hdbjFbQ0gyXUMoPU8pW05IXVtDQEBIXTJbQ0gyXVtDSDJdW0NIMl1bQ0gyXVtOSF1DMj1P

> <s_epik_cmdline>
J2VwaWtfcHl0aG9uJywgJy1waCcsICc3LjAnLCAnLXRuJywgJzgnLCAnLW1hJywgJzIwMCcsICctbWV0YWxfYmluZGluZycsICctaW1hZScsICc8aW5maWxlLm1hZT4nLCAnLW9tYWUnLCAnPG91dGZpbGUubWFlPic=

> <r_lp_tautomer_probability>
1

> <r_epik_Ionization_Penalty>
6.92876e-08

> <r_epik_Ionization_Penalty_Charging>
1.59659e-08

> <r_epik_Ionization_Penalty_Neutral>
5.33217e-08

> <r_epik_State_Penalty>
-0

> <r_epik_Charging_Adjusted_Penalty>
1.59659e-08

> <i_epik_Tot_Q>
0

> <i_epik_Tot_abs_Q>
0

> <r_epik_Metal_State_Penalty>
-0

> <b_epik_Metal_Only>
0

> <s_lp_Force_Field>
OPLS_2005

> <r_lp_Energy>
26.9049

> <b_lp_Chiralities_Consistent>
1

> <s_lp_Variant>
AV-unprocessed.smi:1242-1

> <Gold.Version>
5.8.1

> <Gold.Id.Protein>
6NUR|6NUR_protein|mol2

> <Gold.PLP.Fitness>
43.7446

> <Gold.PLP.PLP>
-37.9424

> <Gold.PLP.part.hbond>
-3.0000

> <Gold.PLP.part.metal>
0.0000

> <Gold.PLP.part.buried>
1.5785

> <Gold.PLP.part.nonpolar>
-36.0194

> <Gold.PLP.part.repulsive>
0.5025

> <Gold.PLP.ligand.clash>
0.0000

> <Gold.PLP.ligand.torsion>
0.1272

> <Gold.PLP.Chemscore.Hbond>
1.9913

> <Gold.PLP.Chemscore.CHOScore>
0.0000

> <Gold.PLP.Chemscore.Metal>
0.0000

> <Gold.Chemscore.Hbonds>
donor molecule, donor type, donor heavy atom, donor atom, acceptor molecule, acceptor atom, score
      L1  H    21    39       P1  7948  1.00
      P1  H  7997  8009       L1    14  1.00

> <Gold.PLP.Chemscore.Internal.Correction>
0.0830

> <Gold.Rescore>
     Score         DG    S(hbond)    S(metal)    S(lipo)     H(rot)  DE(clash)    DE(int)     intcor
     10.74     -15.84       1.69        0.00      77.91       1.72       0.65       4.45       ----

> <Gold.Chemscore.Fitness>
10.7450

> <Gold.Chemscore.DG>
-15.8392

> <Gold.Chemscore.ZeroCoef>
-5.4800

> <Gold.Chemscore.Hbond>
1.6915

> <Gold.Chemscore.Metal>
0.0000

> <Gold.Chemscore.Lipo>
77.9133

> <Gold.Chemscore.Internal_Hbond>
0.0000

> <Gold.Chemscore.DEClash>
0.6473

> <Gold.Chemscore.DEInternal>
4.4470

> <Gold.Chemscore.Rot>
1.7212

> <Gold.Chemscore.Internal.Correction>
   9.000000E+99

> <Gold.Chemscore.Hbonds>
donor molecule, donor type, donor heavy atom, donor atom, acceptor molecule, acceptor atom, score
      L1  H    21    39       P1  7948  0.96
      P1  H  7997  8009       L1    14  0.66

> <Gold.Chemscore.Hbond.Weighted>
-5.6496

> <Gold.Chemscore.Metal.Weighted>
-0.0000

> <Gold.Chemscore.Lipo.Weighted>
-9.1159

> <Gold.Chemscore.Internal_Hbond.Weighted>
0.0000

> <Gold.Chemscore.DEClash.Weighted>
0.6473

> <Gold.Chemscore.DEInternal.Weighted>
4.4470

> <Gold.Chemscore.Rot.Weighted>
4.4062

> <Gold.Chemscore.Internal.Correction.Weighted>
   9.000000E+99

> <Gold.Protein.RotatedTorsions>
[ 6907 6896 6895 6894 ] final   -5.29 input  -60.11 | X-H torsion
[ 7974 7965 7964 7962 ] final  -63.82 input  175.53 | X-H torsion
[ 8008 7997 7996 7995 ] final -173.19 input   59.86 | X-H torsion
[ 10167 10162 10161 10158 ] final -122.17 input  -65.29 | X-H torsion
[ 10718 10713 10712 10709 ] final -174.90 input   66.30 | X-H torsion
[ 10763 10752 10751 10750 ] final -138.28 input  -60.55 | X-H torsion
[ 11005 11000 10999 10996 ] final -118.32 input  -57.11 | X-H torsion

> <Gold.Protein.ActiveResidues>
 VAL166  LYS551  ARG553  GLY616  TRP617  ASP618  TYR619  PRO620  LYS621  CYS622 
 ASP623  PHE694  ASN695  SER759  ASP760  ASP761  ALA762  ILE779  LEU786  VAL792 
 PHE793  MET794  SER795  GLU796  ALA797  LYS798  CYS799  TRP800  GLU811  SER814 

> <Gold.Protein.RotatedAtoms>
  151.4839  135.1054  159.9784 H   0  0  0  0  0  0  0  0  0  0  0  0  # atno 6907 bound_to 6896
  152.4768  133.8154  159.7036 H   0  0  0  0  0  0  0  0  0  0  0  0  # atno 6908 bound_to 6896
  150.8812  133.7308  159.2958 H   0  0  0  0  0  0  0  0  0  0  0  0  # atno 6909 bound_to 6896
  145.7743  140.8796  143.0363 H   0  0  0  0  0  0  0  0  0  0  0  0  # atno 7974 bound_to 7965
  155.9542  140.1132  157.0951 H   0  0  0  0  0  0  0  0  0  0  0  0  # atno 8008 bound_to 7997
  154.4116  140.1194  156.5159 H   0  0  0  0  0  0  0  0  0  0  0  0  # atno 8009 bound_to 7997
  155.6803  140.3473  155.4855 H   0  0  0  0  0  0  0  0  0  0  0  0  # atno 8010 bound_to 7997
  140.0172  143.5382  152.2237 H   0  0  0  0  0  0  0  0  0  0  0  0  # atno 10167 bound_to 10162
  156.7919  130.9521  151.3120 H   0  0  0  0  0  0  0  0  0  0  0  0  # atno 10718 bound_to 10713
  154.8641  135.3617  154.5360 H   0  0  0  0  0  0  0  0  0  0  0  0  # atno 10763 bound_to 10752
  153.5983  135.7013  153.5399 H   0  0  0  0  0  0  0  0  0  0  0  0  # atno 10764 bound_to 10752
  153.3313  135.4124  155.1459 H   0  0  0  0  0  0  0  0  0  0  0  0  # atno 10765 bound_to 10752
  141.0294  134.0004  157.3165 H   0  0  0  0  0  0  0  0  0  0  0  0  # atno 11005 bound_to 11000
  144.6807  139.9900  143.7484 LP  0  0  0  0  0  0  0  0  0  0  0  0  # atno 17320 bound_to 7965
  146.0138  139.3192  143.0854 LP  0  0  0  0  0  0  0  0  0  0  0  0  # atno 17321 bound_to 7965
  139.6165  144.7620  151.2835 LP  0  0  0  0  0  0  0  0  0  0  0  0  # atno 17342 bound_to 10162
  140.7357  143.6728  150.8067 LP  0  0  0  0  0  0  0  0  0  0  0  0  # atno 17343 bound_to 10162
  157.6596  130.8954  149.9802 LP  0  0  0  0  0  0  0  0  0  0  0  0  # atno 17370 bound_to 10713
  156.1154  130.3648  149.9978 LP  0  0  0  0  0  0  0  0  0  0  0  0  # atno 17371 bound_to 10713
  139.9198  135.0199  156.8019 LP  0  0  0  0  0  0  0  0  0  0  0  0  # atno 17394 bound_to 11000
  140.6433  133.9798  155.7718 LP  0  0  0  0  0  0  0  0  0  0  0  0  # atno 17395 bound_to 11000

$$$$
