AV-unprocessed.smi:114|AV-procd|sdf|1116|dock6
  -GOLD-   2262018233D 1   1.00000     0.00000
 Structure written by MMmdl.
 32 34  0  0  0  0  0  0  0  0  1 V2000
  138.8932  137.6616  155.6143 N   0  0  0  0  0  0  0  0  0  0  0  0
  140.2071  137.5392  155.3791 C   0  0  0  0  0  0  0  0  0  0  0  0
  141.0527  138.4185  155.9664 N   0  0  0  0  0  0  0  0  0  0  0  0
  142.3724  138.3325  155.7558 C   0  0  0  0  0  0  0  0  0  0  0  0
  143.1420  139.2535  156.3817 F   0  0  0  0  0  0  0  0  0  0  0  0
  143.0166  137.4401  154.9953 N   0  0  0  0  0  0  0  0  0  0  0  0
  142.1653  136.5524  154.4048 C   0  0  0  0  0  0  0  0  0  0  0  0
  140.7528  136.5344  154.5437 C   0  0  0  0  0  0  0  0  0  0  0  0
  140.2180  135.4940  153.7958 N   0  0  0  0  0  0  0  0  0  0  0  0
  141.2622  134.9324  153.2459 C   0  0  0  0  0  0  0  0  0  0  0  0
  142.4752  135.5114  153.5583 N   0  0  0  0  0  0  0  0  0  0  0  0
  143.8557  135.1338  153.1129 C   0  0  1  0  0  0  0  0  0  0  0  0
  143.7641  133.9905  152.3157 O   0  0  0  0  0  0  0  0  0  0  0  0
  143.9074  134.3448  150.9443 C   0  0  2  0  0  0  0  0  0  0  0  0
  144.3437  133.1163  150.1322 C   0  0  0  0  0  0  0  0  0  0  0  0
  143.2105  132.3679  149.7471 O   0  0  0  0  0  0  0  0  0  0  0  0
  144.9710  135.4389  151.0312 C   0  0  1  0  0  0  0  0  0  0  0  0
  145.0644  136.2175  149.8525 O   0  0  0  0  0  0  0  0  0  0  0  0
  144.5265  136.2346  152.2559 C   0  0  1  0  0  0  0  0  0  0  0  0
  143.6596  137.3073  151.9154 O   0  0  0  0  0  0  0  0  0  0  0  0
  144.3916  134.9054  154.0351 H   0  0  0  0  0  0  0  0  0  0  0  0
  142.9746  134.7639  150.5614 H   0  0  0  0  0  0  0  0  0  0  0  0
  145.9432  134.9864  151.2330 H   0  0  0  0  0  0  0  0  0  0  0  0
  145.3827  136.6421  152.7943 H   0  0  0  0  0  0  0  0  0  0  0  0
  138.2451  137.0167  155.1849 H   0  0  0  0  0  0  0  0  0  0  0  0
  138.5540  138.3966  156.2179 H   0  0  0  0  0  0  0  0  0  0  0  0
  141.1692  134.0759  152.5942 H   0  0  0  0  0  0  0  0  0  0  0  0
  144.8536  133.4297  149.2209 H   0  0  0  0  0  0  0  0  0  0  0  0
  145.0388  132.4927  150.6952 H   0  0  0  0  0  0  0  0  0  0  0  0
  142.4726  132.9541  149.6775 H   0  0  0  0  0  0  0  0  0  0  0  0
  144.6059  137.0315  149.9943 H   0  0  0  0  0  0  0  0  0  0  0  0
  143.9035  137.6280  151.0603 H   0  0  0  0  0  0  0  0  0  0  0  0
  1  2  1  0  0  0  0
  1 25  1  0  0  0  0
  1 26  1  0  0  0  0
  2  8  1  0  0  0  0
  2  3  2  0  0  0  0
  3  4  1  0  0  0  0
  4  5  1  0  0  0  0
  4  6  2  0  0  0  0
  6  7  1  0  0  0  0
  7 11  1  0  0  0  0
  7  8  2  0  0  0  0
  8  9  1  0  0  0  0
  9 10  2  0  0  0  0
 10 11  1  0  0  0  0
 10 27  1  0  0  0  0
 11 12  1  0  0  0  0
 12 21  1  0  0  0  0
 12 19  1  0  0  0  0
 12 13  1  0  0  0  0
 13 14  1  0  0  0  0
 14 22  1  0  0  0  0
 14 15  1  0  0  0  0
 14 17  1  0  0  0  0
 15 16  1  0  0  0  0
 15 28  1  0  0  0  0
 15 29  1  0  0  0  0
 16 30  1  0  0  0  0
 17 23  1  0  0  0  0
 17 18  1  0  0  0  0
 17 19  1  0  0  0  0
 18 31  1  0  0  0  0
 19 24  1  0  0  0  0
 19 20  1  0  0  0  0
 20 32  1  0  0  0  0
M  END
> <s_m_source_file>
AV-unprocessed.smi

> <i_m_source_file_index>
114

> <i_lp_mmshare_version>
43012

> <i_f3d_flags>
0

> <s_epik_input>
RmMobjEpbmMoW05IMl0pYyhjMTIpbltjSF1uMltDQEBIXTNPW0NASF0oW0NIMl1bT0hdKVtDQEBIXShbT0hdKVtDQEBIXTNbT0hd

> <s_epik_cmdline>
J2VwaWtfcHl0aG9uJywgJy1waCcsICc3LjAnLCAnLXRuJywgJzgnLCAnLW1hJywgJzIwMCcsICctbWV0YWxfYmluZGluZycsICctaW1hZScsICc8aW5maWxlLm1hZT4nLCAnLW9tYWUnLCAnPG91dGZpbGUubWFlPic=

> <r_lp_tautomer_probability>
1

> <r_epik_Ionization_Penalty>
1.13199e-05

> <r_epik_Ionization_Penalty_Charging>
0

> <r_epik_Ionization_Penalty_Neutral>
1.13199e-05

> <r_epik_State_Penalty>
-0

> <r_epik_Charging_Adjusted_Penalty>
0

> <i_epik_Tot_Q>
0

> <i_epik_Tot_abs_Q>
0

> <r_epik_Metal_State_Penalty>
-0

> <b_epik_Metal_Only>
0

> <s_epik_Chemistry_Notes>
This compound contains an acetal/aminal-like group ( X-CH(R)-Y where X, Y are N, S, or O) that may be acid/base labile, releasing an aldehyde.

> <s_lp_Force_Field>
OPLS_2005

> <r_lp_Energy>
42.7446

> <b_lp_Chiralities_Consistent>
1

> <s_lp_Variant>
AV-unprocessed.smi:114-10

> <Gold.Version>
5.8.1

> <Gold.Id.Protein>
6NUR|6NUR_protein|mol2

> <Gold.PLP.Fitness>
37.6245

> <Gold.PLP.PLP>
-28.7938

> <Gold.PLP.part.hbond>
-6.0364

> <Gold.PLP.part.metal>
0.0000

> <Gold.PLP.part.buried>
-6.4279

> <Gold.PLP.part.nonpolar>
-16.8876

> <Gold.PLP.part.repulsive>
0.3742

> <Gold.PLP.ligand.clash>
0.0004

> <Gold.PLP.ligand.torsion>
0.2534

> <Gold.PLP.Chemscore.Hbond>
3.0879

> <Gold.PLP.Chemscore.CHOScore>
0.0000

> <Gold.PLP.Chemscore.Metal>
0.0000

> <Gold.Chemscore.Hbonds>
donor molecule, donor type, donor heavy atom, donor atom, acceptor molecule, acceptor atom, score
      L1  H    16    30       P1 10186  0.89
      L1  H    18    31       P1 10171  1.00
      L1  H    20    32       P1 10171  1.00
      P1  H 11000 11005       L1     9  0.10

> <Gold.PLP.Chemscore.Internal.Correction>
0.0740

> <Gold.Rescore>
     Score         DG    S(hbond)    S(metal)    S(lipo)     H(rot)  DE(clash)    DE(int)     intcor
      8.50      -8.98       3.10        0.00      29.43       4.03       0.10       0.38       ----

> <Gold.Chemscore.Fitness>
8.4979

> <Gold.Chemscore.DG>
-8.9780

> <Gold.Chemscore.ZeroCoef>
-5.4800

> <Gold.Chemscore.Hbond>
3.1036

> <Gold.Chemscore.Metal>
0.0000

> <Gold.Chemscore.Lipo>
29.4281

> <Gold.Chemscore.Internal_Hbond>
0.0000

> <Gold.Chemscore.DEClash>
0.0963

> <Gold.Chemscore.DEInternal>
0.3838

> <Gold.Chemscore.Rot>
4.0277

> <Gold.Chemscore.Internal.Correction>
   9.000000E+99

> <Gold.Chemscore.Hbonds>
donor molecule, donor type, donor heavy atom, donor atom, acceptor molecule, acceptor atom, score
      L1  H    16    30       P1 10186  0.87
      L1  H    18    31       P1 10171  1.00
      L1  H    20    32       P1 10171  0.95
      P1  H 10785 10796       L1    16  0.05

> <Gold.Chemscore.Hbond.Weighted>
-10.3659

> <Gold.Chemscore.Metal.Weighted>
-0.0000

> <Gold.Chemscore.Lipo.Weighted>
-3.4431

> <Gold.Chemscore.Internal_Hbond.Weighted>
0.0000

> <Gold.Chemscore.DEClash.Weighted>
0.0963

> <Gold.Chemscore.DEInternal.Weighted>
0.3838

> <Gold.Chemscore.Rot.Weighted>
10.3110

> <Gold.Chemscore.Internal.Correction.Weighted>
   9.000000E+99

> <Gold.Protein.RotatedTorsions>
[ 6907 6896 6895 6894 ] final  -22.56 input  -60.11 | X-H torsion
[ 7974 7965 7964 7962 ] final  126.61 input  175.53 | X-H torsion
[ 8008 7997 7996 7995 ] final    5.37 input   59.86 | X-H torsion
[ 10167 10162 10161 10158 ] final  110.28 input  -65.29 | X-H torsion
[ 10718 10713 10712 10709 ] final  152.96 input   66.30 | X-H torsion
[ 10763 10752 10751 10750 ] final  -82.66 input  -60.55 | X-H torsion
[ 11005 11000 10999 10996 ] final   32.73 input  -57.11 | X-H torsion

> <Gold.Protein.ActiveResidues>
 VAL166  LYS551  ARG553  GLY616  TRP617  ASP618  TYR619  PRO620  LYS621  CYS622 
 ASP623  PHE694  ASN695  SER759  ASP760  ASP761  ALA762  ILE779  LEU786  VAL792 
 PHE793  MET794  SER795  GLU796  ALA797  LYS798  CYS799  TRP800  GLU811  SER814 

> <Gold.Protein.RotatedAtoms>
  151.2168  135.0503  159.8933 H   0  0  0  0  0  0  0  0  0  0  0  0  # atno 6907 bound_to 6896
  152.5419  134.0684  159.8193 H   0  0  0  0  0  0  0  0  0  0  0  0  # atno 6908 bound_to 6896
  151.0845  133.5316  159.2650 H   0  0  0  0  0  0  0  0  0  0  0  0  # atno 6909 bound_to 6896
  145.0597  139.3815  143.5012 H   0  0  0  0  0  0  0  0  0  0  0  0  # atno 7974 bound_to 7965
  154.7275  140.2724  155.6486 H   0  0  0  0  0  0  0  0  0  0  0  0  # atno 8008 bound_to 7997
  156.2841  140.2722  156.1890 H   0  0  0  0  0  0  0  0  0  0  0  0  # atno 8009 bound_to 7997
  155.0425  140.0371  157.2504 H   0  0  0  0  0  0  0  0  0  0  0  0  # atno 8010 bound_to 7997
  139.6701  144.7125  151.1704 H   0  0  0  0  0  0  0  0  0  0  0  0  # atno 10167 bound_to 10162
  157.2510  131.0779  151.1730 H   0  0  0  0  0  0  0  0  0  0  0  0  # atno 10718 bound_to 10713
  154.5784  135.5583  153.7162 H   0  0  0  0  0  0  0  0  0  0  0  0  # atno 10763 bound_to 10752
  153.0073  135.6314  154.2016 H   0  0  0  0  0  0  0  0  0  0  0  0  # atno 10764 bound_to 10752
  154.1957  135.2880  155.2987 H   0  0  0  0  0  0  0  0  0  0  0  0  # atno 10765 bound_to 10752
  140.2704  134.3089  155.7829 H   0  0  0  0  0  0  0  0  0  0  0  0  # atno 11005 bound_to 11000
  146.3523  140.0289  142.8652 LP  0  0  0  0  0  0  0  0  0  0  0  0  # atno 17320 bound_to 7965
  145.1424  140.9578  143.4481 LP  0  0  0  0  0  0  0  0  0  0  0  0  # atno 17321 bound_to 7965
  140.7614  143.5858  150.8847 LP  0  0  0  0  0  0  0  0  0  0  0  0  # atno 17342 bound_to 10162
  139.9522  143.6258  152.3026 LP  0  0  0  0  0  0  0  0  0  0  0  0  # atno 17343 bound_to 10162
  157.3278  130.6970  149.6306 LP  0  0  0  0  0  0  0  0  0  0  0  0  # atno 17370 bound_to 10713
  155.9666  130.4316  150.4928 LP  0  0  0  0  0  0  0  0  0  0  0  0  # atno 17371 bound_to 10713
  141.2178  133.7463  156.9325 LP  0  0  0  0  0  0  0  0  0  0  0  0  # atno 17394 bound_to 11000
  140.1379  134.9313  157.2426 LP  0  0  0  0  0  0  0  0  0  0  0  0  # atno 17395 bound_to 11000

$$$$
