AV-unprocessed.smi:1278|AV-procd|sdf|5353|dock9
  -GOLD-   22720 4493D 1   1.00000     0.00000
 Structure written by MMmdl.
 38 39  0  0  0  0  0  0  0  0  3 V2000
  143.6623  133.3072  152.1356 C   0  0  0  0  0  0  0  0  0  0  0  0
  145.1393  133.7113  152.2892 C   0  0  2  0  0  0  0  0  0  0  0  0
  146.1107  132.6185  151.8061 C   0  0  0  0  0  0  0  0  0  0  0  0
  146.1735  131.4509  152.8008 C   0  0  0  0  0  0  0  0  0  0  0  0
  146.4925  131.9501  154.2187 C   0  0  0  0  0  0  0  0  0  0  0  0
  145.5124  132.9750  154.6607 N   0  3  1  0  0  0  0  0  0  0  0  0
  145.7135  133.3666  156.0776 C   0  0  0  0  0  0  0  0  0  0  0  0
  147.1243  133.9289  156.3342 C   0  0  0  0  0  0  0  0  0  0  0  0
  147.0841  135.0647  157.2471 N   0  0  0  0  0  0  0  0  0  0  0  0
  147.9567  135.3025  158.2366 C   0  0  0  0  0  0  0  0  0  0  0  0
  148.8932  134.5235  158.4297 O   0  0  0  0  0  0  0  0  0  0  0  0
  147.6869  136.4237  158.9415 N   0  5  0  0  0  0  0  0  0  0  0  0
  147.5913  136.3686  160.2800 C   0  0  0  0  0  0  0  0  0  0  0  0
  147.2384  137.4191  161.0294 N   0  0  0  0  0  0  0  0  0  0  0  0
  147.1984  137.1378  162.3963 C   0  0  0  0  0  0  0  0  0  0  0  0
  147.5202  135.8400  162.6935 C   0  0  0  0  0  0  0  0  0  0  0  0
  147.8850  134.9275  161.2569 S   0  0  0  0  0  0  0  0  0  0  0  0
  145.4807  134.1382  153.7322 C   0  0  0  0  0  0  0  0  0  0  0  0
  143.4047  132.4552  152.7647 H   0  0  0  0  0  0  0  0  0  0  0  0
  143.4357  133.0379  151.1036 H   0  0  0  0  0  0  0  0  0  0  0  0
  143.0015  134.1299  152.4109 H   0  0  0  0  0  0  0  0  0  0  0  0
  145.2868  134.5814  151.6479 H   0  0  0  0  0  0  0  0  0  0  0  0
  145.8255  132.2598  150.8164 H   0  0  0  0  0  0  0  0  0  0  0  0
  147.1080  133.0476  151.6999 H   0  0  0  0  0  0  0  0  0  0  0  0
  145.2256  130.9121  152.8046 H   0  0  0  0  0  0  0  0  0  0  0  0
  146.9301  130.7336  152.4819 H   0  0  0  0  0  0  0  0  0  0  0  0
  146.4762  131.1020  154.9045 H   0  0  0  0  0  0  0  0  0  0  0  0
  147.4996  132.3688  154.2558 H   0  0  0  0  0  0  0  0  0  0  0  0
  144.9924  134.1404  156.3453 H   0  0  0  0  0  0  0  0  0  0  0  0
  145.5013  132.5142  156.7249 H   0  0  0  0  0  0  0  0  0  0  0  0
  147.7951  133.1706  156.7382 H   0  0  0  0  0  0  0  0  0  0  0  0
  147.5663  134.2655  155.3962 H   0  0  0  0  0  0  0  0  0  0  0  0
  146.3358  135.7306  157.1200 H   0  0  0  0  0  0  0  0  0  0  0  0
  146.9294  137.9228  163.0873 H   0  0  0  0  0  0  0  0  0  0  0  0
  147.5634  135.3669  163.6627 H   0  0  0  0  0  0  0  0  0  0  0  0
  146.4544  134.6305  153.7484 H   0  0  0  0  0  0  0  0  0  0  0  0
  144.7573  134.8805  154.0675 H   0  0  0  0  0  0  0  0  0  0  0  0
  144.6045  132.5351  154.6145 H   0  0  0  0  0  0  0  0  0  0  0  0
  1  2  1  0  0  0  0
  1 19  1  0  0  0  0
  1 20  1  0  0  0  0
  1 21  1  0  0  0  0
  2 18  1  0  0  0  0
  2  3  1  0  0  0  0
  2 22  1  0  0  0  0
  3  4  1  0  0  0  0
  3 23  1  0  0  0  0
  3 24  1  0  0  0  0
  4  5  1  0  0  0  0
  4 25  1  0  0  0  0
  4 26  1  0  0  0  0
  5  6  1  0  0  0  0
  5 27  1  0  0  0  0
  5 28  1  0  0  0  0
  6  7  1  0  0  0  0
  6 18  1  0  0  0  0
  6 38  1  0  0  0  0
  7  8  1  0  0  0  0
  7 29  1  0  0  0  0
  7 30  1  0  0  0  0
  8  9  1  0  0  0  0
  8 31  1  0  0  0  0
  8 32  1  0  0  0  0
  9 10  1  0  0  0  0
  9 33  1  0  0  0  0
 10 11  2  0  0  0  0
 10 12  1  0  0  0  0
 12 13  1  0  0  0  0
 13 17  1  0  0  0  0
 13 14  2  0  0  0  0
 14 15  1  0  0  0  0
 15 16  2  0  0  0  0
 15 34  1  0  0  0  0
 16 17  1  0  0  0  0
 16 35  1  0  0  0  0
 18 36  1  0  0  0  0
 18 37  1  0  0  0  0
M  CHG  1   6   1
M  CHG  1  12  -1
M  END
> <s_m_source_file>
AV-unprocessed.smi

> <i_m_source_file_index>
1278

> <i_lp_mmshare_version>
43012

> <i_f3d_flags>
0

> <s_epik_input>
W0NIM11bQ0BASF0xW0NIMl1bQ0gyXVtDSDJdTihbQ0gyXTEpW0NIMl1bQ0gyXVtOSF1DKD1PKVtOSF1jMm5bY0hdW2NIXXMy

> <s_epik_cmdline>
J2VwaWtfcHl0aG9uJywgJy1waCcsICc3LjAnLCAnLXRuJywgJzgnLCAnLW1hJywgJzIwMCcsICctbWV0YWxfYmluZGluZycsICctaW1hZScsICc8aW5maWxlLm1hZT4nLCAnLW9tYWUnLCAnPG91dGZpbGUubWFlPic=

> <r_lp_tautomer_probability>
0.999

> <r_epik_Ionization_Penalty>
6.22019

> <r_epik_Ionization_Penalty_Charging>
5.38911

> <r_epik_Ionization_Penalty_Neutral>
0.831074

> <r_epik_State_Penalty>
5.38904

> <r_epik_Charging_Adjusted_Penalty>
10.7782

> <i_epik_Tot_Q>
0

> <i_epik_Tot_abs_Q>
2

> <r_epik_Metal_State_Penalty>
1.41502

> <b_epik_Metal_Only>
1

> <s_lp_Force_Field>
OPLS_2005

> <r_lp_Energy>
8.40837

> <b_lp_Chiralities_Consistent>
1

> <s_lp_Variant>
AV-unprocessed.smi:1278-7

> <Gold.Version>
5.8.1

> <Gold.Id.Protein>
6NUR|6NUR_protein|mol2

> <Gold.PLP.Fitness>
37.4856

> <Gold.PLP.PLP>
-27.1899

> <Gold.PLP.part.hbond>
-4.0000

> <Gold.PLP.part.metal>
0.0000

> <Gold.PLP.part.buried>
-3.9885

> <Gold.PLP.part.nonpolar>
-19.7564

> <Gold.PLP.part.repulsive>
0.0000

> <Gold.PLP.ligand.clash>
0.0000

> <Gold.PLP.ligand.torsion>
0.9076

> <Gold.PLP.Chemscore.Hbond>
4.0264

> <Gold.PLP.Chemscore.CHOScore>
0.0000

> <Gold.PLP.Chemscore.Metal>
0.0000

> <Gold.Chemscore.Hbonds>
donor molecule, donor type, donor heavy atom, donor atom, acceptor molecule, acceptor atom, score
      L1  H     6    38       P1 10957  1.76
      P1  H  6896  6909       L1    11  0.84
      P1  H  6934  6947       L1    14  1.00

> <Gold.PLP.Chemscore.Internal.Correction>
0.0318

> <Gold.Rescore>
     Score         DG    S(hbond)    S(metal)    S(lipo)     H(rot)  DE(clash)    DE(int)     intcor
     16.33     -17.36       2.88        0.00      53.72       1.57       0.00       1.03       ----

> <Gold.Chemscore.Fitness>
16.3291

> <Gold.Chemscore.DG>
-17.3604

> <Gold.Chemscore.ZeroCoef>
-5.4800

> <Gold.Chemscore.Hbond>
2.8768

> <Gold.Chemscore.Metal>
0.0000

> <Gold.Chemscore.Lipo>
53.7173

> <Gold.Chemscore.Internal_Hbond>
0.0000

> <Gold.Chemscore.DEClash>
0.0000

> <Gold.Chemscore.DEInternal>
1.0313

> <Gold.Chemscore.Rot>
1.5676

> <Gold.Chemscore.Internal.Correction>
   9.000000E+99

> <Gold.Chemscore.Hbonds>
donor molecule, donor type, donor heavy atom, donor atom, acceptor molecule, acceptor atom, score
      L1  H     6    38       P1 10957  0.73
      P1  H  6896  6909       L1    11  0.79
      P1  H  6934  6947       L1    14  0.49

> <Gold.Chemscore.Hbond.Weighted>
-9.6085

> <Gold.Chemscore.Metal.Weighted>
-0.0000

> <Gold.Chemscore.Lipo.Weighted>
-6.2849

> <Gold.Chemscore.Internal_Hbond.Weighted>
0.0000

> <Gold.Chemscore.DEClash.Weighted>
0.0000

> <Gold.Chemscore.DEInternal.Weighted>
1.0313

> <Gold.Chemscore.Rot.Weighted>
4.0130

> <Gold.Chemscore.Internal.Correction.Weighted>
   9.000000E+99

> <Gold.Protein.RotatedTorsions>
[ 6907 6896 6895 6894 ] final    9.45 input  -60.11 | X-H torsion
[ 7974 7965 7964 7962 ] final  -24.88 input  175.53 | X-H torsion
[ 8008 7997 7996 7995 ] final  113.65 input   59.86 | X-H torsion
[ 10167 10162 10161 10158 ] final -112.90 input  -65.29 | X-H torsion
[ 10718 10713 10712 10709 ] final  100.22 input   66.30 | X-H torsion
[ 10763 10752 10751 10750 ] final  154.72 input  -60.55 | X-H torsion
[ 11005 11000 10999 10996 ] final  114.05 input  -57.11 | X-H torsion

> <Gold.Protein.ActiveResidues>
 VAL166  LYS551  ARG553  GLY616  TRP617  ASP618  TYR619  PRO620  LYS621  CYS622 
 ASP623  PHE694  ASN695  SER759  ASP760  ASP761  ALA762  ILE779  LEU786  VAL792 
 PHE793  MET794  SER795  GLU796  ALA797  LYS798  CYS799  TRP800  GLU811  SER814 

> <Gold.Protein.RotatedAtoms>
  151.7224  135.0891  160.0286 H   0  0  0  0  0  0  0  0  0  0  0  0  # atno 6907 bound_to 6896
  152.3593  133.6273  159.6011 H   0  0  0  0  0  0  0  0  0  0  0  0  # atno 6908 bound_to 6896
  150.7593  133.9365  159.3484 H   0  0  0  0  0  0  0  0  0  0  0  0  # atno 6909 bound_to 6896
  146.1527  140.4811  142.8604 H   0  0  0  0  0  0  0  0  0  0  0  0  # atno 7974 bound_to 7965
  156.2271  140.2975  156.0095 H   0  0  0  0  0  0  0  0  0  0  0  0  # atno 8008 bound_to 7997
  155.2326  140.0419  157.2981 H   0  0  0  0  0  0  0  0  0  0  0  0  # atno 8009 bound_to 7997
  154.5934  140.2407  155.7898 H   0  0  0  0  0  0  0  0  0  0  0  0  # atno 8010 bound_to 7997
  140.1176  143.4471  152.1712 H   0  0  0  0  0  0  0  0  0  0  0  0  # atno 10167 bound_to 10162
  157.6859  131.0692  150.5067 H   0  0  0  0  0  0  0  0  0  0  0  0  # atno 10718 bound_to 10713
  154.1569  135.2812  155.3120 H   0  0  0  0  0  0  0  0  0  0  0  0  # atno 10763 bound_to 10752
  154.6176  135.5478  153.7543 H   0  0  0  0  0  0  0  0  0  0  0  0  # atno 10764 bound_to 10752
  153.0204  135.6431  154.1711 H   0  0  0  0  0  0  0  0  0  0  0  0  # atno 10765 bound_to 10752
  139.8969  134.9561  156.6832 H   0  0  0  0  0  0  0  0  0  0  0  0  # atno 11005 bound_to 11000
  144.7923  140.6057  143.6533 LP  0  0  0  0  0  0  0  0  0  0  0  0  # atno 17320 bound_to 7965
  145.4785  139.1497  143.3775 LP  0  0  0  0  0  0  0  0  0  0  0  0  # atno 17321 bound_to 7965
  139.5585  144.7390  151.4222 LP  0  0  0  0  0  0  0  0  0  0  0  0  # atno 17342 bound_to 10162
  140.6890  143.7906  150.7228 LP  0  0  0  0  0  0  0  0  0  0  0  0  # atno 17343 bound_to 10162
  156.5386  130.4202  149.6165 LP  0  0  0  0  0  0  0  0  0  0  0  0  # atno 17370 bound_to 10713
  156.3005  130.7174  151.2045 LP  0  0  0  0  0  0  0  0  0  0  0  0  # atno 17371 bound_to 10713
  140.7283  133.9081  155.8193 LP  0  0  0  0  0  0  0  0  0  0  0  0  # atno 17394 bound_to 11000
  141.0174  134.0937  157.4158 LP  0  0  0  0  0  0  0  0  0  0  0  0  # atno 17395 bound_to 11000

$$$$
