AV-unprocessed.smi:1258|AV-procd|sdf|5289|dock9
  -GOLD-   22720 4413D 1   1.00000     0.00000
 Structure written by MMmdl.
 33 34  0  0  0  0  0  0  0  0  1 V2000
  152.7736  142.3975  161.7994 C   0  0  0  0  0  0  0  0  0  0  0  0
  152.7838  143.0964  160.4324 C   0  0  2  0  0  0  0  0  0  0  0  0
  152.1902  144.5153  160.5207 C   0  0  0  0  0  0  0  0  0  0  0  0
  152.2001  145.2150  159.1528 C   0  0  0  0  0  0  0  0  0  0  0  0
  151.4593  144.3813  158.0962 C   0  0  0  0  0  0  0  0  0  0  0  0
  152.0462  142.9619  157.9912 C   0  0  2  0  0  0  0  0  0  0  0  0
  151.2839  142.1899  157.0142 N   0  0  0  0  0  0  0  0  0  0  0  0
  151.5318  140.9183  156.6650 C   0  0  0  0  0  0  0  0  0  0  0  0
  152.4417  140.2499  157.1582 O   0  0  0  0  0  0  0  0  0  0  0  0
  150.6024  140.3305  155.5961 C   0  0  0  0  0  0  0  0  0  0  0  0
  151.0060  139.0026  155.1664 N   0  0  0  0  0  0  0  0  0  0  0  0
  152.1546  138.5580  154.6524 C   0  0  0  0  0  0  0  0  0  0  0  0
  152.1037  137.2608  154.3911 N   0  0  0  0  0  0  0  0  0  0  0  0
  150.8220  136.9112  154.7820 N   0  0  0  0  0  0  0  0  0  0  0  0
  150.1660  137.9405  155.2433 N   0  0  0  0  0  0  0  0  0  0  0  0
  152.0401  142.2651  159.3684 C   0  0  0  0  0  0  0  0  0  0  0  0
  151.7574  142.2764  162.1757 H   0  0  0  0  0  0  0  0  0  0  0  0
  153.3361  142.9703  162.5372 H   0  0  0  0  0  0  0  0  0  0  0  0
  153.2261  141.4076  161.7370 H   0  0  0  0  0  0  0  0  0  0  0  0
  153.8250  143.1869  160.1190 H   0  0  0  0  0  0  0  0  0  0  0  0
  151.1670  144.4656  160.8956 H   0  0  0  0  0  0  0  0  0  0  0  0
  152.7532  145.1118  161.2395 H   0  0  0  0  0  0  0  0  0  0  0  0
  151.7421  146.2008  159.2364 H   0  0  0  0  0  0  0  0  0  0  0  0
  153.2300  145.3789  158.8331 H   0  0  0  0  0  0  0  0  0  0  0  0
  150.4012  144.3274  158.3569 H   0  0  0  0  0  0  0  0  0  0  0  0
  151.5154  144.8824  157.1289 H   0  0  0  0  0  0  0  0  0  0  0  0
  153.0779  143.0479  157.6441 H   0  0  0  0  0  0  0  0  0  0  0  0
  150.5169  142.6646  156.5603 H   0  0  0  0  0  0  0  0  0  0  0  0
  149.5864  140.2715  155.9884 H   0  0  0  0  0  0  0  0  0  0  0  0
  150.5773  140.9947  154.7308 H   0  0  0  0  0  0  0  0  0  0  0  0
  153.0192  139.1793  154.4702 H   0  0  0  0  0  0  0  0  0  0  0  0
  152.5020  141.2803  159.2884 H   0  0  0  0  0  0  0  0  0  0  0  0
  151.0113  142.0965  159.6905 H   0  0  0  0  0  0  0  0  0  0  0  0
  1  2  1  0  0  0  0
  1 17  1  0  0  0  0
  1 18  1  0  0  0  0
  1 19  1  0  0  0  0
  2 16  1  0  0  0  0
  2  3  1  0  0  0  0
  2 20  1  0  0  0  0
  3  4  1  0  0  0  0
  3 21  1  0  0  0  0
  3 22  1  0  0  0  0
  4  5  1  0  0  0  0
  4 23  1  0  0  0  0
  4 24  1  0  0  0  0
  5  6  1  0  0  0  0
  5 25  1  0  0  0  0
  5 26  1  0  0  0  0
  6  7  1  0  0  0  0
  6 16  1  0  0  0  0
  6 27  1  0  0  0  0
  7  8  1  0  0  0  0
  7 28  1  0  0  0  0
  8  9  2  0  0  0  0
  8 10  1  0  0  0  0
 10 11  1  0  0  0  0
 10 29  1  0  0  0  0
 10 30  1  0  0  0  0
 11 15  1  0  0  0  0
 11 12  1  0  0  0  0
 12 13  2  0  0  0  0
 12 31  1  0  0  0  0
 13 14  1  0  0  0  0
 14 15  2  0  0  0  0
 16 32  1  0  0  0  0
 16 33  1  0  0  0  0
M  END
> <s_m_source_file>
AV-unprocessed.smi

> <i_m_source_file_index>
1258

> <i_lp_mmshare_version>
43012

> <i_f3d_flags>
0

> <s_epik_input>
W0NIM11bQ0BASF0xW0NIMl1bQ0gyXVtDSDJdW0NASF0oW0NIMl0xKVtOSF1DKD1PKVtDSDJdbjJbY0hdbm5uMg==

> <s_epik_cmdline>
J2VwaWtfcHl0aG9uJywgJy1waCcsICc3LjAnLCAnLXRuJywgJzgnLCAnLW1hJywgJzIwMCcsICctbWV0YWxfYmluZGluZycsICctaW1hZScsICc8aW5maWxlLm1hZT4nLCAnLW9tYWUnLCAnPG91dGZpbGUubWFlPic=

> <r_lp_tautomer_probability>
1

> <r_epik_Ionization_Penalty>
5.03816e-07

> <r_epik_Ionization_Penalty_Charging>
0

> <r_epik_Ionization_Penalty_Neutral>
5.03816e-07

> <r_epik_State_Penalty>
-0

> <r_epik_Charging_Adjusted_Penalty>
0

> <i_epik_Tot_Q>
0

> <i_epik_Tot_abs_Q>
0

> <r_epik_Metal_State_Penalty>
-0

> <b_epik_Metal_Only>
0

> <s_lp_Force_Field>
OPLS_2005

> <r_lp_Energy>
11.1566

> <b_lp_Chiralities_Consistent>
1

> <s_lp_Variant>
AV-unprocessed.smi:1258-3

> <Gold.Version>
5.8.1

> <Gold.Id.Protein>
6NUR|6NUR_protein|mol2

> <Gold.PLP.Fitness>
43.8679

> <Gold.PLP.PLP>
-38.2688

> <Gold.PLP.part.hbond>
-2.0000

> <Gold.PLP.part.metal>
0.0000

> <Gold.PLP.part.buried>
-4.5377

> <Gold.PLP.part.nonpolar>
-30.8146

> <Gold.PLP.part.repulsive>
0.4765

> <Gold.PLP.ligand.clash>
0.0000

> <Gold.PLP.ligand.torsion>
0.0467

> <Gold.PLP.Chemscore.Hbond>
1.8960

> <Gold.PLP.Chemscore.CHOScore>
0.0000

> <Gold.PLP.Chemscore.Metal>
0.0000

> <Gold.Chemscore.Hbonds>
donor molecule, donor type, donor heavy atom, donor atom, acceptor molecule, acceptor atom, score
      P1  H  7997  8010       L1     9  1.00
      P1  H 10752 10764       L1    13  0.90

> <Gold.PLP.Chemscore.Internal.Correction>
0.0045

> <Gold.Rescore>
     Score         DG    S(hbond)    S(metal)    S(lipo)     H(rot)  DE(clash)    DE(int)     intcor
     15.94     -17.14       1.84        0.00      88.95       1.92       0.19       1.01       ----

> <Gold.Chemscore.Fitness>
15.9422

> <Gold.Chemscore.DG>
-17.1359

> <Gold.Chemscore.ZeroCoef>
-5.4800

> <Gold.Chemscore.Hbond>
1.8431

> <Gold.Chemscore.Metal>
0.0000

> <Gold.Chemscore.Lipo>
88.9516

> <Gold.Chemscore.Internal_Hbond>
0.0000

> <Gold.Chemscore.DEClash>
0.1885

> <Gold.Chemscore.DEInternal>
1.0052

> <Gold.Chemscore.Rot>
1.9169

> <Gold.Chemscore.Internal.Correction>
   9.000000E+99

> <Gold.Chemscore.Hbonds>
donor molecule, donor type, donor heavy atom, donor atom, acceptor molecule, acceptor atom, score
      P1  H  7997  8010       L1     9  0.91
      P1  H 10752 10764       L1    13  0.39

> <Gold.Chemscore.Hbond.Weighted>
-6.1558

> <Gold.Chemscore.Metal.Weighted>
-0.0000

> <Gold.Chemscore.Lipo.Weighted>
-10.4073

> <Gold.Chemscore.Internal_Hbond.Weighted>
0.0000

> <Gold.Chemscore.DEClash.Weighted>
0.1885

> <Gold.Chemscore.DEInternal.Weighted>
1.0052

> <Gold.Chemscore.Rot.Weighted>
4.9073

> <Gold.Chemscore.Internal.Correction.Weighted>
   9.000000E+99

> <Gold.Protein.RotatedTorsions>
[ 6907 6896 6895 6894 ] final  -58.57 input  -60.11 | X-H torsion
[ 7974 7965 7964 7962 ] final -177.91 input  175.53 | X-H torsion
[ 8008 7997 7996 7995 ] final   57.86 input   59.86 | X-H torsion
[ 10167 10162 10161 10158 ] final   80.20 input  -65.29 | X-H torsion
[ 10718 10713 10712 10709 ] final  -19.38 input   66.30 | X-H torsion
[ 10763 10752 10751 10750 ] final  -79.88 input  -60.55 | X-H torsion
[ 11005 11000 10999 10996 ] final   87.68 input  -57.11 | X-H torsion

> <Gold.Protein.ActiveResidues>
 VAL166  LYS551  ARG553  GLY616  TRP617  ASP618  TYR619  PRO620  LYS621  CYS622 
 ASP623  PHE694  ASN695  SER759  ASP760  ASP761  ALA762  ILE779  LEU786  VAL792 
 PHE793  MET794  SER795  GLU796  ALA797  LYS798  CYS799  TRP800  GLU811  SER814 

> <Gold.Protein.RotatedAtoms>
  150.7997  134.7081  159.6587 H   0  0  0  0  0  0  0  0  0  0  0  0  # atno 6907 bound_to 6896
  152.4112  134.6117  160.0037 H   0  0  0  0  0  0  0  0  0  0  0  0  # atno 6908 bound_to 6896
  151.6360  133.3292  159.3155 H   0  0  0  0  0  0  0  0  0  0  0  0  # atno 6909 bound_to 6896
  144.7129  140.0948  143.6419 H   0  0  0  0  0  0  0  0  0  0  0  0  # atno 7974 bound_to 7965
  155.5407  140.3484  155.4446 H   0  0  0  0  0  0  0  0  0  0  0  0  # atno 8008 bound_to 7997
  156.0653  140.1350  156.9919 H   0  0  0  0  0  0  0  0  0  0  0  0  # atno 8009 bound_to 7997
  154.4500  140.0977  156.6563 H   0  0  0  0  0  0  0  0  0  0  0  0  # atno 8010 bound_to 7997
  139.9523  144.6017  150.8149 H   0  0  0  0  0  0  0  0  0  0  0  0  # atno 10167 bound_to 10162
  156.5464  130.4691  149.6473 H   0  0  0  0  0  0  0  0  0  0  0  0  # atno 10718 bound_to 10713
  154.5442  135.5680  153.6866 H   0  0  0  0  0  0  0  0  0  0  0  0  # atno 10763 bound_to 10752
  152.9972  135.6235  154.2460 H   0  0  0  0  0  0  0  0  0  0  0  0  # atno 10764 bound_to 10752
  154.2393  135.2863  155.2840 H   0  0  0  0  0  0  0  0  0  0  0  0  # atno 10765 bound_to 10752
  139.8914  134.8438  156.2893 H   0  0  0  0  0  0  0  0  0  0  0  0  # atno 11005 bound_to 11000
  145.9589  139.2786  143.1167 LP  0  0  0  0  0  0  0  0  0  0  0  0  # atno 17320 bound_to 7965
  145.9242  140.9094  143.0389 LP  0  0  0  0  0  0  0  0  0  0  0  0  # atno 17321 bound_to 7965
  140.7579  143.3096  151.2878 LP  0  0  0  0  0  0  0  0  0  0  0  0  # atno 17342 bound_to 10162
  139.6619  144.0175  152.2697 LP  0  0  0  0  0  0  0  0  0  0  0  0  # atno 17343 bound_to 10162
  156.2924  130.7131  151.1984 LP  0  0  0  0  0  0  0  0  0  0  0  0  # atno 17370 bound_to 10713
  157.7396  131.0527  150.5223 LP  0  0  0  0  0  0  0  0  0  0  0  0  # atno 17371 bound_to 10713
  140.9987  133.7165  156.0926 LP  0  0  0  0  0  0  0  0  0  0  0  0  # atno 17394 bound_to 11000
  140.7528  134.4026  157.5538 LP  0  0  0  0  0  0  0  0  0  0  0  0  # atno 17395 bound_to 11000

$$$$
