#       Name:                AV-unprocessed.smi:2671
#       Creating user name   scv26
#       Creation time:       Fri Mar 27 14:37:15 2020


#       File generated by GOLD software.
#

@<TRIPOS>MOLECULE
AV-unprocessed.smi:2671
    34    35     1
SMALL
NO_CHARGES


@<TRIPOS>ATOM
      1 ****        -3.9832  -1.6054  -3.7187 O.2            1 S1                 0.0000
      2 ****        -3.3786  -1.0480  -2.8050 C.2            1 S1                 0.0000
      3 ****        -3.9623   0.1329  -2.1708 C.2            1 S1                 0.0000
      4 ****        -3.2916   0.7361  -1.1575 C.2            1 S1                 0.0000
      5 ****        -3.8390   1.9775  -0.4732 C.3            1 S1                 0.0000
      6 ****        -4.1432   2.9107  -1.3754 F              1 S1                 0.0000
      7 ****        -4.9481   1.6778   0.2023 F              1 S1                 0.0000
      8 ****        -2.9567   2.4968   0.3824 F              1 S1                 0.0000
      9 ****        -2.0454   0.2379  -0.7333 N.2            1 S1                 0.0000
     10 ****        -1.5523  -0.7964  -1.3060 C.2            1 S1                 0.0000
     11 ****         0.0412  -1.4403  -0.7648 S.3            1 S1                 0.0000
     12 ****         0.5235  -0.3271   0.5891 C.3            1 S1                 0.0000
     13 ****         1.8811  -0.7156   1.1900 C.3            1 S1                 0.0000
     14 ****         3.0771  -0.5100   0.2538 C.3            1 S1                 0.0000
     15 ****         4.2177  -0.1127   1.1822 C.3            1 S1                 0.0000
     16 ****         3.5714  -0.0535   2.5658 C.3            1 S1                 0.0000
     17 ****         2.1903   0.1209   2.2939 O.3            1 S1                 0.0000
     18 ****        -2.1695  -1.4731  -2.3365 N.pl3          1 S1                -1.0000
     19 ****        -4.9139   0.5177  -2.5072 H              1 S1                 0.0000
     20 ****        -0.2435  -0.3712   1.3629 H              1 S1                 0.0000
     21 ****         0.5523   0.6999   0.2234 H              1 S1                 0.0000
     22 ****         1.8553  -1.7489   1.5412 H              1 S1                 0.0000
     23 ****         3.2997  -1.4091  -0.3218 H              1 S1                 0.0000
     24 ****         2.8832   0.2974  -0.4536 H              1 S1                 0.0000
     25 ****         5.0444  -0.8231   1.1560 H              1 S1                 0.0000
     26 ****         4.6069   0.8659   0.8987 H              1 S1                 0.0000
     27 ****         3.7174  -0.9934   3.1009 H              1 S1                 0.0000
     28 ****         3.9655   0.7552   3.1818 H              1 S1                 0.0000
     29 ****        -3.5908  -2.4135  -4.1580 LP             1 S1                 0.0000
     30 ****        -4.8674  -1.2507  -4.0227 LP             1 S1                 0.0000
     31 ****        -1.5490   0.6878   0.0091 LP             1 S1                 0.0000
     32 ****         1.6465  -0.1445   3.0900 LP             1 S1                 0.0000
     33 ****         2.0023   1.0761   2.0653 LP             1 S1                 0.0000
     34 ****        -1.7309  -2.2757  -2.7408 LP             1 S1                 0.0000
@<TRIPOS>BOND
    1    1    2 2     
    2    2   18 1     
    3    2    3 1     
    4    3   19 1     
    5    3    4 2     
    6    4    5 1     
    7    4    9 1     
    8    5    6 1     
    9    5    7 1     
   10    5    8 1     
   11    9   10 2     
   12   10   11 1     
   13   10   18 1     
   14   11   12 1     
   15   12   13 1     
   16   12   20 1     
   17   12   21 1     
   18   13   17 1     
   19   13   14 1     
   20   13   22 1     
   21   14   15 1     
   22   14   23 1     
   23   14   24 1     
   24   15   16 1     
   25   15   25 1     
   26   15   26 1     
   27   16   17 1     
   28   16   27 1     
   29   16   28 1     
   30    1   29 1     
   31    1   30 1     
   32    9   31 1     
   33   17   32 1     
   34   17   33 1     
   35   18   34 1     
@<TRIPOS>SUBSTRUCTURE
      1 S1             1
@<TRIPOS>SET
LONE_PAIRS      STATIC     ATOMS    <user>   **** ""
6 29 30 31 32 33 34
ATOM$BLUE        STATIC     ATOMS    COLORGROUP SYSTEM
6 29 30 31 32 33 34
