AV-unprocessed.smi:1381|AV-procd|sdf|5602|dock3
  -GOLD-   22720 5213D 1   1.00000     0.00000
 Structure written by MMmdl.
 42 43  0  0  0  0  0  0  0  0  1 V2000
  143.5960  144.0652  162.5587 C   0  0  0  0  0  0  0  0  0  0  0  0
  144.8212  143.9597  161.7165 C   0  0  0  0  0  0  0  0  0  0  0  0
  145.5866  144.8894  161.0703 C   0  0  0  0  0  0  0  0  0  0  0  0
  146.5972  144.1017  160.4575 C   0  0  0  0  0  0  0  0  0  0  0  0
  147.6151  144.7044  159.6749 N   0  0  0  0  0  0  0  0  0  0  0  0
  148.9066  144.3422  159.5908 C   0  0  0  0  0  0  0  0  0  0  0  0
  149.4219  143.4042  160.2002 O   0  0  0  0  0  0  0  0  0  0  0  0
  149.5825  145.1377  158.7491 N   0  0  0  0  0  0  0  0  0  0  0  0
  151.0012  145.0106  158.4380 C   0  0  0  0  0  0  0  0  0  0  0  0
  151.2441  143.9400  157.3577 C   0  0  0  0  0  0  0  0  0  0  0  0
  151.3918  142.5762  157.8628 N   0  0  0  0  0  0  0  0  0  0  0  0
  151.5523  141.5962  156.7909 C   0  0  0  0  0  0  0  0  0  0  0  0
  151.7344  140.1669  157.3379 C   0  0  1  0  0  0  0  0  0  0  0  0
  151.9900  139.1475  156.2228 C   0  0  0  0  0  0  0  0  0  0  0  0
  152.8464  140.1443  158.2285 O   0  0  0  0  0  0  0  0  0  0  0  0
  152.7125  141.0517  159.3188 C   0  0  1  0  0  0  0  0  0  0  0  0
  153.9556  140.9256  160.2057 C   0  0  0  0  0  0  0  0  0  0  0  0
  152.5335  142.4778  158.7649 C   0  0  0  0  0  0  0  0  0  0  0  0
  146.4606  142.8081  160.7060 N   0  0  0  0  0  0  0  0  0  0  0  0
  145.3214  142.7104  161.5137 O   0  0  0  0  0  0  0  0  0  0  0  0
  142.7021  144.0955  161.9357 H   0  0  0  0  0  0  0  0  0  0  0  0
  143.6183  144.9719  163.1635 H   0  0  0  0  0  0  0  0  0  0  0  0
  143.5098  143.2131  163.2332 H   0  0  0  0  0  0  0  0  0  0  0  0
  145.4436  145.9593  161.0424 H   0  0  0  0  0  0  0  0  0  0  0  0
  147.3288  145.4973  159.1201 H   0  0  0  0  0  0  0  0  0  0  0  0
  149.0825  145.8868  158.2932 H   0  0  0  0  0  0  0  0  0  0  0  0
  151.3579  145.9792  158.0866 H   0  0  0  0  0  0  0  0  0  0  0  0
  151.5510  144.7879  159.3531 H   0  0  0  0  0  0  0  0  0  0  0  0
  150.4407  143.9712  156.6200 H   0  0  0  0  0  0  0  0  0  0  0  0
  152.1531  144.2142  156.8206 H   0  0  0  0  0  0  0  0  0  0  0  0
  150.6825  141.6081  156.1352 H   0  0  0  0  0  0  0  0  0  0  0  0
  152.4125  141.8622  156.1743 H   0  0  0  0  0  0  0  0  0  0  0  0
  150.8382  139.8692  157.8851 H   0  0  0  0  0  0  0  0  0  0  0  0
  151.1577  139.1187  155.5190 H   0  0  0  0  0  0  0  0  0  0  0  0
  152.1132  138.1449  156.6328 H   0  0  0  0  0  0  0  0  0  0  0  0
  152.8934  139.3925  155.6637 H   0  0  0  0  0  0  0  0  0  0  0  0
  151.8341  140.7741  159.9043 H   0  0  0  0  0  0  0  0  0  0  0  0
  153.8951  141.5953  161.0636 H   0  0  0  0  0  0  0  0  0  0  0  0
  154.8619  141.1715  159.6516 H   0  0  0  0  0  0  0  0  0  0  0  0
  154.0623  139.9087  160.5840 H   0  0  0  0  0  0  0  0  0  0  0  0
  153.4426  142.7811  158.2426 H   0  0  0  0  0  0  0  0  0  0  0  0
  152.4060  143.1725  159.5961 H   0  0  0  0  0  0  0  0  0  0  0  0
  1  2  1  0  0  0  0
  1 21  1  0  0  0  0
  1 22  1  0  0  0  0
  1 23  1  0  0  0  0
  2 20  1  0  0  0  0
  2  3  2  0  0  0  0
  3  4  1  0  0  0  0
  3 24  1  0  0  0  0
  4  5  1  0  0  0  0
  4 19  2  0  0  0  0
  5  6  1  0  0  0  0
  5 25  1  0  0  0  0
  6  7  2  0  0  0  0
  6  8  1  0  0  0  0
  8  9  1  0  0  0  0
  8 26  1  0  0  0  0
  9 10  1  0  0  0  0
  9 27  1  0  0  0  0
  9 28  1  0  0  0  0
 10 11  1  0  0  0  0
 10 29  1  0  0  0  0
 10 30  1  0  0  0  0
 11 18  1  0  0  0  0
 11 12  1  0  0  0  0
 12 13  1  0  0  0  0
 12 31  1  0  0  0  0
 12 32  1  0  0  0  0
 13 14  1  0  0  0  0
 13 15  1  0  0  0  0
 13 33  1  0  0  0  0
 14 34  1  0  0  0  0
 14 35  1  0  0  0  0
 14 36  1  0  0  0  0
 15 16  1  0  0  0  0
 16 17  1  0  0  0  0
 16 18  1  0  0  0  0
 16 37  1  0  0  0  0
 17 38  1  0  0  0  0
 17 39  1  0  0  0  0
 17 40  1  0  0  0  0
 18 41  1  0  0  0  0
 18 42  1  0  0  0  0
 19 20  1  0  0  0  0
M  END
> <s_m_source_file>
AV-unprocessed.smi

> <i_m_source_file_index>
1381

> <i_lp_mmshare_version>
43012

> <i_f3d_flags>
0

> <s_epik_input>
W0NIM11jMVtjSF1jKG5vMSlbTkhdQyg9TylbTkhdW0NIMl1bQ0gyXU4yW0NIMl1bQ0BASF0oW0NIM10pT1tDQEBIXShbQ0gzXSlbQ0gyXTI=

> <s_epik_cmdline>
J2VwaWtfcHl0aG9uJywgJy1waCcsICc3LjAnLCAnLXRuJywgJzgnLCAnLW1hJywgJzIwMCcsICctbWV0YWxfYmluZGluZycsICctaW1hZScsICc8aW5maWxlLm1hZT4nLCAnLW9tYWUnLCAnPG91dGZpbGUubWFlPic=

> <r_epik_Ionization_Penalty>
0.214073

> <r_epik_Ionization_Penalty_Charging>
0

> <r_epik_Ionization_Penalty_Neutral>
0.214073

> <r_epik_State_Penalty>
0.204211

> <r_epik_Charging_Adjusted_Penalty>
0.204211

> <i_epik_Tot_Q>
0

> <i_epik_Tot_abs_Q>
0

> <r_epik_Metal_State_Penalty>
0.217067

> <b_epik_Metal_Only>
0

> <s_lp_Force_Field>
OPLS_2005

> <r_lp_Energy>
17.1752

> <b_lp_Chiralities_Consistent>
1

> <s_lp_Variant>
AV-unprocessed.smi:1381-1

> <Gold.Version>
5.8.1

> <Gold.Id.Protein>
6NUR|6NUR_protein|mol2

> <Gold.PLP.Fitness>
46.7657

> <Gold.PLP.PLP>
-36.6897

> <Gold.PLP.part.hbond>
-5.8409

> <Gold.PLP.part.metal>
0.0000

> <Gold.PLP.part.buried>
-0.9754

> <Gold.PLP.part.nonpolar>
-29.4379

> <Gold.PLP.part.repulsive>
0.5468

> <Gold.PLP.ligand.clash>
0.0000

> <Gold.PLP.ligand.torsion>
0.5817

> <Gold.PLP.Chemscore.Hbond>
3.7400

> <Gold.PLP.Chemscore.CHOScore>
0.0000

> <Gold.PLP.Chemscore.Metal>
0.0000

> <Gold.Chemscore.Hbonds>
donor molecule, donor type, donor heavy atom, donor atom, acceptor molecule, acceptor atom, score
      L1  H     5    25       P1  8029  0.58
      L1  H     8    26       P1  8029  0.72
      P1  H  6933  6944       L1    19  0.48
      P1  H  6934  6946       L1    19  0.80
      P1  H  7997  8010       L1    15  0.65

> <Gold.PLP.Chemscore.Internal.Correction>
0.0193

> <Gold.Rescore>
     Score         DG    S(hbond)    S(metal)    S(lipo)     H(rot)  DE(clash)    DE(int)     intcor
     18.69     -20.33       2.36        0.00      93.92       1.57       0.12       1.52       ----

> <Gold.Chemscore.Fitness>
18.6888

> <Gold.Chemscore.DG>
-20.3263

> <Gold.Chemscore.ZeroCoef>
-5.4800

> <Gold.Chemscore.Hbond>
2.3581

> <Gold.Chemscore.Metal>
0.0000

> <Gold.Chemscore.Lipo>
93.9194

> <Gold.Chemscore.Internal_Hbond>
0.0000

> <Gold.Chemscore.DEClash>
0.1217

> <Gold.Chemscore.DEInternal>
1.5158

> <Gold.Chemscore.Rot>
1.5697

> <Gold.Chemscore.Internal.Correction>
   9.000000E+99

> <Gold.Chemscore.Hbonds>
donor molecule, donor type, donor heavy atom, donor atom, acceptor molecule, acceptor atom, score
      L1  H     5    25       P1  8029  0.57
      L1  H     8    26       P1  8029  0.67
      P1  H  6933  6944       L1     7  0.26
      P1  H  6934  6946       L1    19  0.11
      P1  H  7997  8010       L1    15  0.45

> <Gold.Chemscore.Hbond.Weighted>
-7.8762

> <Gold.Chemscore.Metal.Weighted>
-0.0000

> <Gold.Chemscore.Lipo.Weighted>
-10.9886

> <Gold.Chemscore.Internal_Hbond.Weighted>
0.0000

> <Gold.Chemscore.DEClash.Weighted>
0.1217

> <Gold.Chemscore.DEInternal.Weighted>
1.5158

> <Gold.Chemscore.Rot.Weighted>
4.0185

> <Gold.Chemscore.Internal.Correction.Weighted>
   9.000000E+99

> <Gold.Protein.RotatedTorsions>
[ 6907 6896 6895 6894 ] final  137.28 input  -60.11 | X-H torsion
[ 7974 7965 7964 7962 ] final  -31.17 input  175.53 | X-H torsion
[ 8008 7997 7996 7995 ] final   26.54 input   59.86 | X-H torsion
[ 10167 10162 10161 10158 ] final  120.37 input  -65.29 | X-H torsion
[ 10718 10713 10712 10709 ] final -142.90 input   66.30 | X-H torsion
[ 10763 10752 10751 10750 ] final  112.97 input  -60.55 | X-H torsion
[ 11005 11000 10999 10996 ] final  -37.80 input  -57.11 | X-H torsion

> <Gold.Protein.ActiveResidues>
 VAL166  LYS551  ARG553  GLY616  TRP617  ASP618  TYR619  PRO620  LYS621  CYS622 
 ASP623  PHE694  ASN695  SER759  ASP760  ASP761  ALA762  ILE779  LEU786  VAL792 
 PHE793  MET794  SER795  GLU796  ALA797  LYS798  CYS799  TRP800  GLU811  SER814 

> <Gold.Protein.RotatedAtoms>
  152.2799  133.5460  159.5490 H   0  0  0  0  0  0  0  0  0  0  0  0  # atno 6907 bound_to 6896
  150.7192  134.0579  159.3830 H   0  0  0  0  0  0  0  0  0  0  0  0  # atno 6908 bound_to 6896
  151.8490  135.0564  160.0507 H   0  0  0  0  0  0  0  0  0  0  0  0  # atno 6909 bound_to 6896
  146.1088  140.5633  142.8787 H   0  0  0  0  0  0  0  0  0  0  0  0  # atno 7974 bound_to 7965
  155.0288  140.3156  155.4766 H   0  0  0  0  0  0  0  0  0  0  0  0  # atno 8008 bound_to 7997
  156.2878  140.2184  156.5351 H   0  0  0  0  0  0  0  0  0  0  0  0  # atno 8009 bound_to 7997
  154.7388  140.0475  157.0780 H   0  0  0  0  0  0  0  0  0  0  0  0  # atno 8010 bound_to 7997
  139.5986  144.7049  151.3116 H   0  0  0  0  0  0  0  0  0  0  0  0  # atno 10167 bound_to 10162
  156.3514  130.7690  151.1843 H   0  0  0  0  0  0  0  0  0  0  0  0  # atno 10718 bound_to 10713
  153.4856  135.3670  155.2465 H   0  0  0  0  0  0  0  0  0  0  0  0  # atno 10763 bound_to 10752
  154.8754  135.3965  154.3649 H   0  0  0  0  0  0  0  0  0  0  0  0  # atno 10764 bound_to 10752
  153.4260  135.7081  153.6328 H   0  0  0  0  0  0  0  0  0  0  0  0  # atno 10765 bound_to 10752
  140.9979  133.6970  156.1969 H   0  0  0  0  0  0  0  0  0  0  0  0  # atno 11005 bound_to 11000
  144.7493  140.5151  143.6813 LP  0  0  0  0  0  0  0  0  0  0  0  0  # atno 17320 bound_to 7965
  145.5706  139.1483  143.3290 LP  0  0  0  0  0  0  0  0  0  0  0  0  # atno 17321 bound_to 7965
  140.7232  143.7078  150.7793 LP  0  0  0  0  0  0  0  0  0  0  0  0  # atno 17342 bound_to 10162
  140.0650  143.5117  152.2609 LP  0  0  0  0  0  0  0  0  0  0  0  0  # atno 17343 bound_to 10162
  157.7461  131.0426  150.4704 LP  0  0  0  0  0  0  0  0  0  0  0  0  # atno 17370 bound_to 10713
  156.4900  130.4093  149.6412 LP  0  0  0  0  0  0  0  0  0  0  0  0  # atno 17371 bound_to 10713
  140.6936  134.4640  157.5588 LP  0  0  0  0  0  0  0  0  0  0  0  0  # atno 17394 bound_to 11000
  139.9024  134.8526  156.1841 LP  0  0  0  0  0  0  0  0  0  0  0  0  # atno 17395 bound_to 11000

$$$$
