#       Name:                AV-unprocessed.smi:325
#       Creating user name   scv26
#       Creation time:       Thu Mar 26 22:25:19 2020


#       File generated by GOLD software.
#

@<TRIPOS>MOLECULE
AV-unprocessed.smi:325
    53    54     1
SMALL
NO_CHARGES


@<TRIPOS>ATOM
      1 ****        -1.2895  -0.1629   1.8753 C.3            1 S1                 0.0000
      2 ****        -1.1761   0.3943   0.4672 C.2            1 S1                 0.0000
      3 ****        -1.5684   1.7140   0.3382 N.pl3          1 S1                 0.0000
      4 ****        -1.5162   2.3197  -0.9114 C.2            1 S1                 0.0000
      5 ****        -1.9452   3.6467  -0.9295 N.pl3          1 S1                 0.0000
      6 ****        -3.2595   3.9945  -0.3881 C.3            1 S1                 0.0000
      7 ****        -3.3436   5.4917  -0.0461 C.3            1 S1                 0.0000
      8 ****        -3.0279   6.2637  -1.1968 O.3            1 S1                 0.0000
      9 ****        -1.7048   6.0065  -1.6480 C.3            1 S1                 0.0000
     10 ****        -1.5694   4.5250  -2.0376 C.3            1 S1                 0.0000
     11 ****        -1.0895   1.7071  -1.9782 N.2            1 S1                 0.0000
     12 ****        -0.6631   0.3724  -1.9095 C.2            1 S1                 0.0000
     13 ****        -0.2503  -0.2030  -2.9152 O.2            1 S1                 0.0000
     14 ****        -0.7222  -0.3071  -0.5986 C.2            1 S1                 0.0000
     15 ****        -0.2885  -1.7679  -0.5132 C.3            1 S1                 0.0000
     16 ****         1.2357  -1.9132  -0.3430 C.3            1 S1                 0.0000
     17 ****         1.6884  -3.3705  -0.2106 C.2            1 S1                 0.0000
     18 ****         1.0818  -4.2713  -0.7913 O.2            1 S1                 0.0000
     19 ****         2.7664  -3.5871   0.5597 N.am           1 S1                 0.0000
     20 ****         3.3770  -4.8888   0.8159 C.3            1 S1                 0.0000
     21 ****         2.6142  -5.6360   1.9218 C.3            1 S1                 0.0000
     22 ****         4.8554  -4.6962   1.1798 C.3            1 S1                 0.0000
     23 ****        -1.8895   2.1949   1.1659 H              1 S1                 0.0000
     24 ****        -0.3288  -0.5576   2.2067 H              1 S1                 0.0000
     25 ****        -2.0241  -0.9678   1.9073 H              1 S1                 0.0000
     26 ****        -1.6006   0.6026   2.5874 H              1 S1                 0.0000
     27 ****        -3.4857   3.4129   0.5062 H              1 S1                 0.0000
     28 ****        -4.0206   3.7405  -1.1271 H              1 S1                 0.0000
     29 ****        -4.3513   5.7449   0.2841 H              1 S1                 0.0000
     30 ****        -2.6673   5.7421   0.7729 H              1 S1                 0.0000
     31 ****        -1.4941   6.6410  -2.5089 H              1 S1                 0.0000
     32 ****        -0.9842   6.2722  -0.8728 H              1 S1                 0.0000
     33 ****        -2.2062   4.3059  -2.8959 H              1 S1                 0.0000
     34 ****        -0.5413   4.3280  -2.3450 H              1 S1                 0.0000
     35 ****        -0.6265  -2.2945  -1.4073 H              1 S1                 0.0000
     36 ****        -0.7980  -2.2589   0.3159 H              1 S1                 0.0000
     37 ****         1.7518  -1.4735  -1.1972 H              1 S1                 0.0000
     38 ****         1.5580  -1.3555   0.5377 H              1 S1                 0.0000
     39 ****         3.2026  -2.7876   0.9957 H              1 S1                 0.0000
     40 ****         3.3356  -5.4840  -0.0981 H              1 S1                 0.0000
     41 ****         3.0638  -6.6098   2.1175 H              1 S1                 0.0000
     42 ****         1.5747  -5.8075   1.6404 H              1 S1                 0.0000
     43 ****         2.6183  -5.0745   2.8566 H              1 S1                 0.0000
     44 ****         5.3472  -5.6563   1.3382 H              1 S1                 0.0000
     45 ****         4.9675  -4.1110   2.0935 H              1 S1                 0.0000
     46 ****         5.3929  -4.1793   0.3838 H              1 S1                 0.0000
     47 ****        -3.1113   7.2342  -0.9702 LP             1 S1                 0.0000
     48 ****        -3.6709   6.0356  -1.9279 LP             1 S1                 0.0000
     49 ****        -1.0656   2.1915  -2.8527 LP             1 S1                 0.0000
     50 ****        -0.2169   0.2808  -3.7897 LP             1 S1                 0.0000
     51 ****         0.0520  -1.1545  -2.8582 LP             1 S1                 0.0000
     52 ****         0.2854  -4.0546  -1.3559 LP             1 S1                 0.0000
     53 ****         1.3857  -5.2194  -0.6982 LP             1 S1                 0.0000
@<TRIPOS>BOND
    1    1   24 1     
    2    1   25 1     
    3    1   26 1     
    4    1    2 1     
    5    2   14 2     
    6    2    3 1     
    7    3   23 1     
    8    3    4 1     
    9    4    5 1     
   10    4   11 2     
   11    5   10 1     
   12    5    6 1     
   13    6    7 1     
   14    6   27 1     
   15    6   28 1     
   16    7    8 1     
   17    7   29 1     
   18    7   30 1     
   19    8    9 1     
   20    9   10 1     
   21    9   31 1     
   22    9   32 1     
   23   10   33 1     
   24   10   34 1     
   25   11   12 1     
   26   12   13 2     
   27   12   14 1     
   28   14   15 1     
   29   15   16 1     
   30   15   35 1     
   31   15   36 1     
   32   16   17 1     
   33   16   37 1     
   34   16   38 1     
   35   17   18 2     
   36   17   19 am    
   37   19   20 1     
   38   19   39 1     
   39   20   21 1     
   40   20   22 1     
   41   20   40 1     
   42   21   41 1     
   43   21   42 1     
   44   21   43 1     
   45   22   44 1     
   46   22   45 1     
   47   22   46 1     
   48    8   47 1     
   49    8   48 1     
   50   11   49 1     
   51   13   50 1     
   52   13   51 1     
   53   18   52 1     
   54   18   53 1     
@<TRIPOS>SUBSTRUCTURE
      1 S1             1
@<TRIPOS>SET
LONE_PAIRS      STATIC     ATOMS    <user>   **** ""
7 47 48 49 50 51 52 53
DONOR_HYDROGENS      STATIC     ATOMS    <user>   **** ""
2 23 39
ATOM$BLUE        STATIC     ATOMS    COLORGROUP SYSTEM
7 47 48 49 50 51 52 53
ATOM$RED        STATIC     ATOMS    COLORGROUP SYSTEM
2 23 39
