AV-unprocessed.smi:1213|AV-procd|sdf|5084|dock1
  -GOLD-   22720 4133D 1   1.00000     0.00000
 Structure written by MMmdl.
 36 37  0  0  0  0  0  0  0  0  1 V2000
  143.9688  138.1360  153.4074 N   0  0  0  0  0  0  0  0  0  0  0  0
  145.0364  137.4474  152.9967 C   0  0  0  0  0  0  0  0  0  0  0  0
  145.1004  136.2226  153.0807 O   0  0  0  0  0  0  0  0  0  0  0  0
  146.1991  138.2480  152.3979 C   0  0  0  0  0  0  0  0  0  0  0  0
  146.8483  139.1848  153.3428 N   0  0  0  0  0  0  0  0  0  0  0  0
  147.0393  140.4805  152.6827 C   0  0  0  0  0  0  0  0  0  0  0  0
  147.5920  141.5191  153.6739 C   0  0  0  0  0  0  0  0  0  0  0  0
  148.9241  141.0503  154.2810 C   0  0  0  0  0  0  0  0  0  0  0  0
  149.3797  141.9751  155.3145 N   0  0  0  0  0  0  0  0  0  0  0  0
  150.3570  141.7258  156.1981 C   0  0  0  0  0  0  0  0  0  0  0  0
  150.9841  140.6665  156.2370 O   0  0  0  0  0  0  0  0  0  0  0  0
  150.5519  142.7758  157.0150 N   0  0  0  0  0  0  0  0  0  0  0  0
  151.4880  142.9024  158.0747 C   0  0  0  0  0  0  0  0  0  0  0  0
  152.1029  141.8718  158.6668 N   0  0  0  0  0  0  0  0  0  0  0  0
  152.9708  142.2901  159.6786 C   0  0  0  0  0  0  0  0  0  0  0  0
  153.0046  143.6522  159.8446 C   0  0  0  0  0  0  0  0  0  0  0  0
  151.9422  144.4690  158.7294 S   0  0  0  0  0  0  0  0  0  0  0  0
  148.7302  139.6502  154.8800 C   0  0  0  0  0  0  0  0  0  0  0  0
  148.1327  138.6775  153.8476 C   0  0  0  0  0  0  0  0  0  0  0  0
  143.1806  137.6457  153.8050 H   0  0  0  0  0  0  0  0  0  0  0  0
  143.9509  139.1413  153.3172 H   0  0  0  0  0  0  0  0  0  0  0  0
  146.9451  137.5653  151.9859 H   0  0  0  0  0  0  0  0  0  0  0  0
  145.7949  138.8083  151.5536 H   0  0  0  0  0  0  0  0  0  0  0  0
  147.7122  140.3776  151.8294 H   0  0  0  0  0  0  0  0  0  0  0  0
  146.0865  140.8412  152.2924 H   0  0  0  0  0  0  0  0  0  0  0  0
  147.7248  142.4748  153.1657 H   0  0  0  0  0  0  0  0  0  0  0  0
  146.8607  141.6895  154.4657 H   0  0  0  0  0  0  0  0  0  0  0  0
  149.6773  140.9879  153.4930 H   0  0  0  0  0  0  0  0  0  0  0  0
  148.9205  142.8732  155.3536 H   0  0  0  0  0  0  0  0  0  0  0  0
  149.9609  143.5791  156.8615 H   0  0  0  0  0  0  0  0  0  0  0  0
  153.5267  141.5487  160.2334 H   0  0  0  0  0  0  0  0  0  0  0  0
  153.5876  144.2220  160.5528 H   0  0  0  0  0  0  0  0  0  0  0  0
  149.6839  139.2633  155.2407 H   0  0  0  0  0  0  0  0  0  0  0  0
  148.0708  139.7031  155.7478 H   0  0  0  0  0  0  0  0  0  0  0  0
  148.0065  137.7095  154.3321 H   0  0  0  0  0  0  0  0  0  0  0  0
  148.8292  138.5279  153.0207 H   0  0  0  0  0  0  0  0  0  0  0  0
  1  2  1  0  0  0  0
  1 20  1  0  0  0  0
  1 21  1  0  0  0  0
  2  3  2  0  0  0  0
  2  4  1  0  0  0  0
  4  5  1  0  0  0  0
  4 22  1  0  0  0  0
  4 23  1  0  0  0  0
  5 19  1  0  0  0  0
  5  6  1  0  0  0  0
  6  7  1  0  0  0  0
  6 24  1  0  0  0  0
  6 25  1  0  0  0  0
  7  8  1  0  0  0  0
  7 26  1  0  0  0  0
  7 27  1  0  0  0  0
  8  9  1  0  0  0  0
  8 18  1  0  0  0  0
  8 28  1  0  0  0  0
  9 10  1  0  0  0  0
  9 29  1  0  0  0  0
 10 11  2  0  0  0  0
 10 12  1  0  0  0  0
 12 13  1  0  0  0  0
 12 30  1  0  0  0  0
 13 17  1  0  0  0  0
 13 14  2  0  0  0  0
 14 15  1  0  0  0  0
 15 16  2  0  0  0  0
 15 31  1  0  0  0  0
 16 17  1  0  0  0  0
 16 32  1  0  0  0  0
 18 19  1  0  0  0  0
 18 33  1  0  0  0  0
 18 34  1  0  0  0  0
 19 35  1  0  0  0  0
 19 36  1  0  0  0  0
M  END
> <s_m_source_file>
AV-unprocessed.smi

> <i_m_source_file_index>
1213

> <i_lp_mmshare_version>
43012

> <i_f3d_flags>
0

> <s_epik_input>
W05IMl1DKD1PKVtDSDJdTjFbQ0gyXVtDSDJdW0NIXShbQ0gyXVtDSDJdMSlbTkhdQyg9TylbTkhdYzJuW2NIXVtjSF1zMg==

> <s_epik_cmdline>
J2VwaWtfcHl0aG9uJywgJy1waCcsICc3LjAnLCAnLXRuJywgJzgnLCAnLW1hJywgJzIwMCcsICctbWV0YWxfYmluZGluZycsICctaW1hZScsICc8aW5maWxlLm1hZT4nLCAnLW9tYWUnLCAnPG91dGZpbGUubWFlPic=

> <r_lp_tautomer_probability>
0.999

> <r_epik_Ionization_Penalty>
0.157547

> <r_epik_Ionization_Penalty_Charging>
0

> <r_epik_Ionization_Penalty_Neutral>
0.157547

> <r_epik_State_Penalty>
0.146692

> <r_epik_Charging_Adjusted_Penalty>
0.146692

> <i_epik_Tot_Q>
0

> <i_epik_Tot_abs_Q>
0

> <r_epik_Metal_State_Penalty>
0.196238

> <b_epik_Metal_Only>
0

> <s_lp_Force_Field>
OPLS_2005

> <r_lp_Energy>
10.5747

> <b_lp_Chiralities_Consistent>
1

> <s_lp_Variant>
AV-unprocessed.smi:1213-1

> <Gold.Version>
5.8.1

> <Gold.Id.Protein>
6NUR|6NUR_protein|mol2

> <Gold.PLP.Fitness>
42.9224

> <Gold.PLP.PLP>
-35.6321

> <Gold.PLP.part.hbond>
-3.0000

> <Gold.PLP.part.metal>
0.0000

> <Gold.PLP.part.buried>
-4.6066

> <Gold.PLP.part.nonpolar>
-29.5207

> <Gold.PLP.part.repulsive>
0.5688

> <Gold.PLP.ligand.clash>
0.0000

> <Gold.PLP.ligand.torsion>
0.8788

> <Gold.PLP.Chemscore.Hbond>
3.0000

> <Gold.PLP.Chemscore.CHOScore>
0.0000

> <Gold.PLP.Chemscore.Metal>
0.0000

> <Gold.Chemscore.Hbonds>
donor molecule, donor type, donor heavy atom, donor atom, acceptor molecule, acceptor atom, score
      L1  H     1    21       P1 10175  1.00
      L1  H     9    29       P1  8028  1.00
      L1  H    12    30       P1  8028  1.00

> <Gold.PLP.Chemscore.Internal.Correction>
0.0479

> <Gold.Rescore>
     Score         DG    S(hbond)    S(metal)    S(lipo)     H(rot)  DE(clash)    DE(int)     intcor
     15.69     -19.41       2.91        0.00      80.70       2.04       0.26       3.46       ----

> <Gold.Chemscore.Fitness>
15.6930

> <Gold.Chemscore.DG>
-19.4130

> <Gold.Chemscore.ZeroCoef>
-5.4800

> <Gold.Chemscore.Hbond>
2.9066

> <Gold.Chemscore.Metal>
0.0000

> <Gold.Chemscore.Lipo>
80.6950

> <Gold.Chemscore.Internal_Hbond>
0.0000

> <Gold.Chemscore.DEClash>
0.2552

> <Gold.Chemscore.DEInternal>
3.4648

> <Gold.Chemscore.Rot>
2.0377

> <Gold.Chemscore.Internal.Correction>
   9.000000E+99

> <Gold.Chemscore.Hbonds>
donor molecule, donor type, donor heavy atom, donor atom, acceptor molecule, acceptor atom, score
      L1  H     1    21       P1 10175  0.93
      L1  H     9    29       P1  8028  0.98
      L1  H    12    30       P1  8028  0.93

> <Gold.Chemscore.Hbond.Weighted>
-9.7081

> <Gold.Chemscore.Metal.Weighted>
-0.0000

> <Gold.Chemscore.Lipo.Weighted>
-9.4413

> <Gold.Chemscore.Internal_Hbond.Weighted>
0.0000

> <Gold.Chemscore.DEClash.Weighted>
0.2552

> <Gold.Chemscore.DEInternal.Weighted>
3.4648

> <Gold.Chemscore.Rot.Weighted>
5.2164

> <Gold.Chemscore.Internal.Correction.Weighted>
   9.000000E+99

> <Gold.Protein.RotatedTorsions>
[ 6907 6896 6895 6894 ] final  -83.84 input  -60.11 | X-H torsion
[ 7974 7965 7964 7962 ] final  179.77 input  175.53 | X-H torsion
[ 8008 7997 7996 7995 ] final   22.97 input   59.86 | X-H torsion
[ 10167 10162 10161 10158 ] final  127.22 input  -65.29 | X-H torsion
[ 10718 10713 10712 10709 ] final    1.51 input   66.30 | X-H torsion
[ 10763 10752 10751 10750 ] final  -99.53 input  -60.55 | X-H torsion
[ 11005 11000 10999 10996 ] final  157.12 input  -57.11 | X-H torsion

> <Gold.Protein.ActiveResidues>
 VAL166  LYS551  ARG553  GLY616  TRP617  ASP618  TYR619  PRO620  LYS621  CYS622 
 ASP623  PHE694  ASN695  SER759  ASP760  ASP761  ALA762  ILE779  LEU786  VAL792 
 PHE793  MET794  SER795  GLU796  ALA797  LYS798  CYS799  TRP800  GLU811  SER814 

> <Gold.Protein.RotatedAtoms>
  150.6881  134.3450  159.4884 H   0  0  0  0  0  0  0  0  0  0  0  0  # atno 6907 bound_to 6896
  152.1298  134.9140  160.0568 H   0  0  0  0  0  0  0  0  0  0  0  0  # atno 6908 bound_to 6896
  152.0314  133.3904  159.4336 H   0  0  0  0  0  0  0  0  0  0  0  0  # atno 6909 bound_to 6896
  144.7142  140.0599  143.6433 H   0  0  0  0  0  0  0  0  0  0  0  0  # atno 7974 bound_to 7965
  154.9737  140.3093  155.4976 H   0  0  0  0  0  0  0  0  0  0  0  0  # atno 8008 bound_to 7997
  156.2962  140.2279  156.4771 H   0  0  0  0  0  0  0  0  0  0  0  0  # atno 8009 bound_to 7997
  154.7853  140.0443  157.1147 H   0  0  0  0  0  0  0  0  0  0  0  0  # atno 8010 bound_to 7997
  139.5590  144.6868  151.4099 H   0  0  0  0  0  0  0  0  0  0  0  0  # atno 10167 bound_to 10162
  156.8492  130.5548  149.5671 H   0  0  0  0  0  0  0  0  0  0  0  0  # atno 10718 bound_to 10713
  154.7506  135.4968  153.9282 H   0  0  0  0  0  0  0  0  0  0  0  0  # atno 10763 bound_to 10752
  153.1139  135.6716  153.9460 H   0  0  0  0  0  0  0  0  0  0  0  0  # atno 10764 bound_to 10752
  153.9211  135.3088  155.3426 H   0  0  0  0  0  0  0  0  0  0  0  0  # atno 10765 bound_to 10752
  140.1739  134.8523  157.2723 H   0  0  0  0  0  0  0  0  0  0  0  0  # atno 11005 bound_to 11000
  145.9873  139.2987  143.1006 LP  0  0  0  0  0  0  0  0  0  0  0  0  # atno 17320 bound_to 7965
  145.8943  140.9284  143.0536 LP  0  0  0  0  0  0  0  0  0  0  0  0  # atno 17321 bound_to 7965
  140.6867  143.7958  150.7196 LP  0  0  0  0  0  0  0  0  0  0  0  0  # atno 17342 bound_to 10162
  140.1428  143.4426  152.2183 LP  0  0  0  0  0  0  0  0  0  0  0  0  # atno 17343 bound_to 10162
  156.0837  130.5841  150.9610 LP  0  0  0  0  0  0  0  0  0  0  0  0  # atno 17370 bound_to 10713
  157.6313  131.0921  150.8436 LP  0  0  0  0  0  0  0  0  0  0  0  0  # atno 17371 bound_to 10713
  140.2345  134.3869  155.7507 LP  0  0  0  0  0  0  0  0  0  0  0  0  # atno 17394 bound_to 11000
  141.2219  133.7232  156.8693 LP  0  0  0  0  0  0  0  0  0  0  0  0  # atno 17395 bound_to 11000

$$$$
