AV-unprocessed.smi:3338|AV-procd|sdf|12876|dock7
  -GOLD-   2272019283D 1   1.00000     0.00000
 Structure written by MMmdl.
 44 45  0  0  0  0  0  0  0  0  2 V2000
  147.9931  131.8012  154.1980 C   0  0  0  0  0  0  0  0  0  0  0  0
  147.5539  132.8669  153.1840 C   0  0  1  0  0  0  0  0  0  0  0  0
  146.6972  132.2562  152.0625 C   0  0  0  0  0  0  0  0  0  0  0  0
  146.2508  133.3468  151.0807 C   0  0  0  0  0  0  0  0  0  0  0  0
  145.5278  134.4868  151.8154 C   0  0  0  0  0  0  0  0  0  0  0  0
  146.3807  135.0596  152.8889 N   0  3  1  0  0  0  0  0  0  0  0  0
  145.7585  136.2504  153.5221 C   0  0  0  0  0  0  0  0  0  0  0  0
  146.5971  136.8026  154.6863 C   0  0  0  0  0  0  0  0  0  0  0  0
  147.6257  137.7073  154.1932 N   0  0  0  0  0  0  0  0  0  0  0  0
  147.8049  138.9605  154.6382 C   0  0  0  0  0  0  0  0  0  0  0  0
  147.0883  139.4684  155.5016 O   0  0  0  0  0  0  0  0  0  0  0  0
  148.9632  139.7519  154.0052 C   0  0  1  0  0  0  0  0  0  0  0  0
  148.8169  141.2775  154.1765 C   0  0  0  0  0  0  0  0  0  0  0  0
  150.2491  139.2752  154.5025 N   0  0  0  0  0  0  0  0  0  0  0  0
  150.6927  137.9717  154.5967 C   0  0  0  0  0  0  0  0  0  0  0  0
  151.9447  138.0023  155.1405 C   0  0  0  0  0  0  0  0  0  0  0  0
  152.1870  139.3876  155.3537 C   0  0  0  0  0  0  0  0  0  0  0  0
  151.1702  140.1456  154.9778 N   0  0  0  0  0  0  0  0  0  0  0  0
  146.7934  134.0195  153.8699 C   0  0  0  0  0  0  0  0  0  0  0  0
  147.1341  131.3454  154.6916 H   0  0  0  0  0  0  0  0  0  0  0  0
  148.6307  132.2321  154.9703 H   0  0  0  0  0  0  0  0  0  0  0  0
  148.5584  131.0054  153.7120 H   0  0  0  0  0  0  0  0  0  0  0  0
  148.4570  133.2812  152.7325 H   0  0  0  0  0  0  0  0  0  0  0  0
  147.2596  131.4870  151.5316 H   0  0  0  0  0  0  0  0  0  0  0  0
  145.8213  131.7642  152.4879 H   0  0  0  0  0  0  0  0  0  0  0  0
  147.1190  133.7427  150.5520 H   0  0  0  0  0  0  0  0  0  0  0  0
  145.5958  132.9182  150.3216 H   0  0  0  0  0  0  0  0  0  0  0  0
  145.2668  135.2635  151.0954 H   0  0  0  0  0  0  0  0  0  0  0  0
  144.5926  134.1246  152.2459 H   0  0  0  0  0  0  0  0  0  0  0  0
  145.6587  137.0411  152.7767 H   0  0  0  0  0  0  0  0  0  0  0  0
  144.7468  136.0078  153.8513 H   0  0  0  0  0  0  0  0  0  0  0  0
  145.9742  137.3444  155.3980 H   0  0  0  0  0  0  0  0  0  0  0  0
  147.0694  135.9819  155.2286 H   0  0  0  0  0  0  0  0  0  0  0  0
  148.2515  137.3581  153.4816 H   0  0  0  0  0  0  0  0  0  0  0  0
  148.9361  139.5445  152.9343 H   0  0  0  0  0  0  0  0  0  0  0  0
  147.8828  141.6361  153.7425 H   0  0  0  0  0  0  0  0  0  0  0  0
  149.6306  141.8035  153.6766 H   0  0  0  0  0  0  0  0  0  0  0  0
  148.8296  141.5737  155.2262 H   0  0  0  0  0  0  0  0  0  0  0  0
  150.0871  137.1387  154.2713 H   0  0  0  0  0  0  0  0  0  0  0  0
  152.5900  137.1630  155.3535 H   0  0  0  0  0  0  0  0  0  0  0  0
  153.0641  139.8612  155.7696 H   0  0  0  0  0  0  0  0  0  0  0  0
  145.9107  133.6359  154.3847 H   0  0  0  0  0  0  0  0  0  0  0  0
  147.4355  134.4572  154.6333 H   0  0  0  0  0  0  0  0  0  0  0  0
  147.2214  135.3856  152.4337 H   0  0  0  0  0  0  0  0  0  0  0  0
  1  2  1  0  0  0  0
  1 20  1  0  0  0  0
  1 21  1  0  0  0  0
  1 22  1  0  0  0  0
  2 19  1  0  0  0  0
  2  3  1  0  0  0  0
  2 23  1  0  0  0  0
  3  4  1  0  0  0  0
  3 24  1  0  0  0  0
  3 25  1  0  0  0  0
  4  5  1  0  0  0  0
  4 26  1  0  0  0  0
  4 27  1  0  0  0  0
  5  6  1  0  0  0  0
  5 28  1  0  0  0  0
  5 29  1  0  0  0  0
  6  7  1  0  0  0  0
  6 19  1  0  0  0  0
  6 44  1  0  0  0  0
  7  8  1  0  0  0  0
  7 30  1  0  0  0  0
  7 31  1  0  0  0  0
  8  9  1  0  0  0  0
  8 32  1  0  0  0  0
  8 33  1  0  0  0  0
  9 10  1  0  0  0  0
  9 34  1  0  0  0  0
 10 11  2  0  0  0  0
 10 12  1  0  0  0  0
 12 13  1  0  0  0  0
 12 14  1  0  0  0  0
 12 35  1  0  0  0  0
 13 36  1  0  0  0  0
 13 37  1  0  0  0  0
 13 38  1  0  0  0  0
 14 18  1  0  0  0  0
 14 15  1  0  0  0  0
 15 16  2  0  0  0  0
 15 39  1  0  0  0  0
 16 17  1  0  0  0  0
 16 40  1  0  0  0  0
 17 18  2  0  0  0  0
 17 41  1  0  0  0  0
 19 42  1  0  0  0  0
 19 43  1  0  0  0  0
M  CHG  1   6   1
M  END
> <s_m_source_file>
AV-unprocessed.smi

> <i_m_source_file_index>
3338

> <i_lp_mmshare_version>
43012

> <i_f3d_flags>
0

> <s_epik_input>
W0NIM11bQ0BASF0xW0NIMl1bQ0gyXVtDSDJdTihbQ0gyXTEpW0NIMl1bQ0gyXVtOSF1DKD1PKVtDQEhdKFtDSDNdKW4yW2NIXVtjSF1bY0hdbjI=

> <s_epik_cmdline>
J2VwaWtfcHl0aG9uJywgJy1waCcsICc3LjAnLCAnLXRuJywgJzgnLCAnLW1hJywgJzIwMCcsICctbWV0YWxfYmluZGluZycsICctaW1hZScsICc8aW5maWxlLm1hZT4nLCAnLW9tYWUnLCAnPG91dGZpbGUubWFlPic=

> <r_lp_tautomer_probability>
1

> <r_epik_Ionization_Penalty>
0.00225707

> <r_epik_Ionization_Penalty_Charging>
0.00223709

> <r_epik_Ionization_Penalty_Neutral>
1.99775e-05

> <r_epik_State_Penalty>
0.00153978

> <r_epik_Charging_Adjusted_Penalty>
0.00377687

> <i_epik_Tot_Q>
1

> <i_epik_Tot_abs_Q>
1

> <r_epik_Metal_State_Penalty>
-0

> <b_epik_Metal_Only>
0

> <s_lp_Force_Field>
OPLS_2005

> <r_lp_Energy>
20.7823

> <b_lp_Chiralities_Consistent>
1

> <s_lp_Variant>
AV-unprocessed.smi:3338-8

> <Gold.Version>
5.8.1

> <Gold.Id.Protein>
6NUR|6NUR_protein|mol2

> <Gold.PLP.Fitness>
46.5250

> <Gold.PLP.PLP>
-32.9045

> <Gold.PLP.part.hbond>
-3.0000

> <Gold.PLP.part.metal>
0.0000

> <Gold.PLP.part.buried>
0.1896

> <Gold.PLP.part.nonpolar>
-30.9096

> <Gold.PLP.part.repulsive>
0.0675

> <Gold.PLP.ligand.clash>
0.0000

> <Gold.PLP.ligand.torsion>
0.7618

> <Gold.PLP.Chemscore.Hbond>
3.9913

> <Gold.PLP.Chemscore.CHOScore>
1.0111

> <Gold.PLP.Chemscore.Metal>
0.0000

> <Gold.Chemscore.Hbonds>
donor molecule, donor type, donor heavy atom, donor atom, acceptor molecule, acceptor atom, score
      L1  H     6    44       P1  7948  2.00
      L1  H     9    34       P1  7948  0.86
      P1  H  7989  7998       L1    18  0.95
      L1  C    15    39       P1  7948  0.38

> <Gold.PLP.Chemscore.Internal.Correction>
0.1370

> <Gold.Rescore>
     Score         DG    S(hbond)    S(metal)    S(lipo)     H(rot)  DE(clash)    DE(int)     intcor
     15.45     -16.28       1.88        0.00      76.94       1.76       0.13       0.70       ----

> <Gold.Chemscore.Fitness>
15.4492

> <Gold.Chemscore.DG>
-16.2758

> <Gold.Chemscore.ZeroCoef>
-5.4800

> <Gold.Chemscore.Hbond>
1.8838

> <Gold.Chemscore.Metal>
0.0000

> <Gold.Chemscore.Lipo>
76.9376

> <Gold.Chemscore.Internal_Hbond>
0.0000

> <Gold.Chemscore.DEClash>
0.1312

> <Gold.Chemscore.DEInternal>
0.6954

> <Gold.Chemscore.Rot>
1.7570

> <Gold.Chemscore.Internal.Correction>
   9.000000E+99

> <Gold.Chemscore.Hbonds>
donor molecule, donor type, donor heavy atom, donor atom, acceptor molecule, acceptor atom, score
      L1  H     6    44       P1  7948  0.97
      L1  H     9    34       P1  7948  0.84
      P1  H  7989  7998       L1    18  0.12

> <Gold.Chemscore.Hbond.Weighted>
-6.2920

> <Gold.Chemscore.Metal.Weighted>
-0.0000

> <Gold.Chemscore.Lipo.Weighted>
-9.0017

> <Gold.Chemscore.Internal_Hbond.Weighted>
0.0000

> <Gold.Chemscore.DEClash.Weighted>
0.1312

> <Gold.Chemscore.DEInternal.Weighted>
0.6954

> <Gold.Chemscore.Rot.Weighted>
4.4979

> <Gold.Chemscore.Internal.Correction.Weighted>
   9.000000E+99

> <Gold.Protein.RotatedTorsions>
[ 6907 6896 6895 6894 ] final   -8.96 input  -60.11 | X-H torsion
[ 7974 7965 7964 7962 ] final   93.86 input  175.53 | X-H torsion
[ 8008 7997 7996 7995 ] final  105.80 input   59.86 | X-H torsion
[ 10167 10162 10161 10158 ] final -142.44 input  -65.29 | X-H torsion
[ 10718 10713 10712 10709 ] final -179.64 input   66.30 | X-H torsion
[ 10763 10752 10751 10750 ] final   25.65 input  -60.55 | X-H torsion
[ 11005 11000 10999 10996 ] final  107.71 input  -57.11 | X-H torsion

> <Gold.Protein.ActiveResidues>
 VAL166  LYS551  ARG553  GLY616  TRP617  ASP618  TYR619  PRO620  LYS621  CYS622 
 ASP623  PHE694  ASN695  SER759  ASP760  ASP761  ALA762  ILE779  LEU786  VAL792 
 PHE793  MET794  SER795  GLU796  ALA797  LYS798  CYS799  TRP800  GLU811  SER814 

> <Gold.Protein.RotatedAtoms>
  151.4254  135.1003  159.9626 H   0  0  0  0  0  0  0  0  0  0  0  0  # atno 6907 bound_to 6896
  152.4974  133.8668  159.7288 H   0  0  0  0  0  0  0  0  0  0  0  0  # atno 6908 bound_to 6896
  150.9193  133.6842  159.2863 H   0  0  0  0  0  0  0  0  0  0  0  0  # atno 6909 bound_to 6896
  145.4733  139.2281  143.2923 H   0  0  0  0  0  0  0  0  0  0  0  0  # atno 7974 bound_to 7965
  156.1690  140.3124  155.8939 H   0  0  0  0  0  0  0  0  0  0  0  0  # atno 8008 bound_to 7997
  155.3627  140.0477  157.3063 H   0  0  0  0  0  0  0  0  0  0  0  0  # atno 8009 bound_to 7997
  154.5221  140.2202  155.8967 H   0  0  0  0  0  0  0  0  0  0  0  0  # atno 8010 bound_to 7997
  139.8089  143.7731  152.2662 H   0  0  0  0  0  0  0  0  0  0  0  0  # atno 10167 bound_to 10162
  156.8620  130.9755  151.3082 H   0  0  0  0  0  0  0  0  0  0  0  0  # atno 10718 bound_to 10713
  153.0677  135.6578  154.0317 H   0  0  0  0  0  0  0  0  0  0  0  0  # atno 10763 bound_to 10752
  153.9970  135.2940  155.3408 H   0  0  0  0  0  0  0  0  0  0  0  0  # atno 10764 bound_to 10752
  154.7041  135.5232  153.8638 H   0  0  0  0  0  0  0  0  0  0  0  0  # atno 10765 bound_to 10752
  139.8832  134.9409  156.5860 H   0  0  0  0  0  0  0  0  0  0  0  0  # atno 11005 bound_to 11000
  146.2384  140.5513  142.8945 LP  0  0  0  0  0  0  0  0  0  0  0  0  # atno 17320 bound_to 7965
  144.7932  140.6072  143.6527 LP  0  0  0  0  0  0  0  0  0  0  0  0  # atno 17321 bound_to 7965
  139.7873  144.7423  151.0004 LP  0  0  0  0  0  0  0  0  0  0  0  0  # atno 17342 bound_to 10162
  140.7818  143.4478  151.0456 LP  0  0  0  0  0  0  0  0  0  0  0  0  # atno 17343 bound_to 10162
  157.6244  130.8680  149.9164 LP  0  0  0  0  0  0  0  0  0  0  0  0  # atno 17370 bound_to 10713
  156.0771  130.3677  150.0655 LP  0  0  0  0  0  0  0  0  0  0  0  0  # atno 17371 bound_to 10713
  140.7991  133.8520  155.8711 LP  0  0  0  0  0  0  0  0  0  0  0  0  # atno 17394 bound_to 11000
  140.9609  134.1657  157.4655 LP  0  0  0  0  0  0  0  0  0  0  0  0  # atno 17395 bound_to 11000

$$$$
