AV-unprocessed.smi:3188|AV-procd|sdf|12183|dock9
  -GOLD-   2272018 23D 1   1.00000     0.00000
 Structure written by MMmdl.
 40 41  0  0  0  0  0  0  0  0  2 V2000
  152.1072  145.6023  158.0981 C   0  0  0  0  0  0  0  0  0  0  0  0
  152.2262  144.5443  159.1829 C   0  0  0  0  0  0  0  0  0  0  0  0
  152.2293  144.8908  160.4854 C   0  0  0  0  0  0  0  0  0  0  0  0
  152.4023  143.9201  161.6404 C   0  0  0  0  0  0  0  0  0  0  0  0
  152.3898  142.4475  161.1990 C   0  0  0  0  0  0  0  0  0  0  0  0
  153.0963  142.2598  159.8453 C   0  0  1  0  0  0  0  0  0  0  0  0
  153.3027  140.7743  159.5017 C   0  0  0  0  0  0  0  0  0  0  0  0
  152.3945  143.0871  158.7307 C   0  0  1  0  0  0  0  0  0  0  0  0
  151.0560  142.4571  158.2628 C   0  0  0  0  0  0  0  0  0  0  0  0
  150.7476  142.7403  156.8473 N   0  3  0  0  0  0  0  0  0  0  0  0
  150.3588  141.5504  156.0661 C   0  0  0  0  0  0  0  0  0  0  0  0
  151.5379  140.5781  155.9202 C   0  0  0  0  0  0  0  0  0  0  0  0
  151.0948  139.2485  155.5483 N   0  0  0  0  0  0  0  0  0  0  0  0
  150.4568  138.8453  154.3935 C   0  0  0  0  0  0  0  0  0  0  0  0
  150.2810  137.5037  154.5805 C   0  0  0  0  0  0  0  0  0  0  0  0
  150.8109  137.1526  155.8210 N   0  0  0  0  0  0  0  0  0  0  0  0
  151.2943  138.2095  156.3941 N   0  0  0  0  0  0  0  0  0  0  0  0
  152.8795  145.4638  157.3411 H   0  0  0  0  0  0  0  0  0  0  0  0
  152.2288  146.6034  158.5136 H   0  0  0  0  0  0  0  0  0  0  0  0
  151.1328  145.5716  157.6138 H   0  0  0  0  0  0  0  0  0  0  0  0
  152.1349  145.9311  160.7616 H   0  0  0  0  0  0  0  0  0  0  0  0
  153.3549  144.1504  162.1187 H   0  0  0  0  0  0  0  0  0  0  0  0
  151.6257  144.0962  162.3851 H   0  0  0  0  0  0  0  0  0  0  0  0
  152.8671  141.8377  161.9671 H   0  0  0  0  0  0  0  0  0  0  0  0
  151.3608  142.0934  161.1307 H   0  0  0  0  0  0  0  0  0  0  0  0
  154.0995  142.6755  159.9556 H   0  0  0  0  0  0  0  0  0  0  0  0
  152.3655  140.2178  159.5087 H   0  0  0  0  0  0  0  0  0  0  0  0
  153.9611  140.2991  160.2295 H   0  0  0  0  0  0  0  0  0  0  0  0
  153.7622  140.6564  158.5200 H   0  0  0  0  0  0  0  0  0  0  0  0
  153.0746  143.0937  157.8775 H   0  0  0  0  0  0  0  0  0  0  0  0
  151.0848  141.3732  158.3651 H   0  0  0  0  0  0  0  0  0  0  0  0
  150.2332  142.8141  158.8831 H   0  0  0  0  0  0  0  0  0  0  0  0
  149.9893  143.4069  156.8146 H   0  0  0  0  0  0  0  0  0  0  0  0
  149.5239  141.0518  156.5606 H   0  0  0  0  0  0  0  0  0  0  0  0
  150.0087  141.8683  155.0828 H   0  0  0  0  0  0  0  0  0  0  0  0
  152.2394  140.9350  155.1643 H   0  0  0  0  0  0  0  0  0  0  0  0
  152.0907  140.5084  156.8581 H   0  0  0  0  0  0  0  0  0  0  0  0
  150.1969  139.5108  153.5834 H   0  0  0  0  0  0  0  0  0  0  0  0
  149.8228  136.7696  153.9341 H   0  0  0  0  0  0  0  0  0  0  0  0
  151.5622  143.1560  156.4184 H   0  0  0  0  0  0  0  0  0  0  0  0
  1  2  1  0  0  0  0
  1 18  1  0  0  0  0
  1 19  1  0  0  0  0
  1 20  1  0  0  0  0
  2  8  1  0  0  0  0
  2  3  2  0  0  0  0
  3  4  1  0  0  0  0
  3 21  1  0  0  0  0
  4  5  1  0  0  0  0
  4 22  1  0  0  0  0
  4 23  1  0  0  0  0
  5  6  1  0  0  0  0
  5 24  1  0  0  0  0
  5 25  1  0  0  0  0
  6  7  1  0  0  0  0
  6  8  1  0  0  0  0
  6 26  1  0  0  0  0
  7 27  1  0  0  0  0
  7 28  1  0  0  0  0
  7 29  1  0  0  0  0
  8  9  1  0  0  0  0
  8 30  1  0  0  0  0
  9 10  1  0  0  0  0
  9 31  1  0  0  0  0
  9 32  1  0  0  0  0
 10 11  1  0  0  0  0
 10 33  1  0  0  0  0
 10 40  1  0  0  0  0
 11 12  1  0  0  0  0
 11 34  1  0  0  0  0
 11 35  1  0  0  0  0
 12 13  1  0  0  0  0
 12 36  1  0  0  0  0
 12 37  1  0  0  0  0
 13 17  1  0  0  0  0
 13 14  1  0  0  0  0
 14 15  2  0  0  0  0
 14 38  1  0  0  0  0
 15 16  1  0  0  0  0
 15 39  1  0  0  0  0
 16 17  2  0  0  0  0
M  CHG  1  10   1
M  END
> <s_m_source_file>
AV-unprocessed.smi

> <i_m_source_file_index>
3188

> <i_lp_mmshare_version>
43012

> <i_f3d_flags>
0

> <s_epik_input>
W0NIM11DMT1bQ0hdW0NIMl1bQ0gyXVtDQEBIXShbQ0gzXSlbQ0BIXTFbQ0gyXVtOSF1bQ0gyXVtDSDJdbjJbY0hdW2NIXW5uMg==

> <s_epik_cmdline>
J2VwaWtfcHl0aG9uJywgJy1waCcsICc3LjAnLCAnLXRuJywgJzgnLCAnLW1hJywgJzIwMCcsICctbWV0YWxfYmluZGluZycsICctaW1hZScsICc8aW5maWxlLm1hZT4nLCAnLW9tYWUnLCAnPG91dGZpbGUubWFlPic=

> <r_lp_tautomer_probability>
1

> <r_epik_Ionization_Penalty>
0.007268

> <r_epik_Ionization_Penalty_Charging>
0.00726786

> <r_epik_Ionization_Penalty_Neutral>
1.34882e-07

> <r_epik_State_Penalty>
0.00542069

> <r_epik_Charging_Adjusted_Penalty>
0.0126886

> <i_epik_Tot_Q>
1

> <i_epik_Tot_abs_Q>
1

> <r_epik_Metal_State_Penalty>
-0

> <b_epik_Metal_Only>
0

> <s_lp_Force_Field>
OPLS_2005

> <r_lp_Energy>
14.7496

> <b_lp_Chiralities_Consistent>
1

> <s_lp_Variant>
AV-unprocessed.smi:3188-1

> <Gold.Version>
5.8.1

> <Gold.Id.Protein>
6NUR|6NUR_protein|mol2

> <Gold.PLP.Fitness>
50.4635

> <Gold.PLP.PLP>
-40.4872

> <Gold.PLP.part.hbond>
-1.0000

> <Gold.PLP.part.metal>
0.0000

> <Gold.PLP.part.buried>
-3.5931

> <Gold.PLP.part.nonpolar>
-35.3060

> <Gold.PLP.part.repulsive>
0.1006

> <Gold.PLP.ligand.clash>
0.0000

> <Gold.PLP.ligand.torsion>
0.7811

> <Gold.PLP.Chemscore.Hbond>
1.7875

> <Gold.PLP.Chemscore.CHOScore>
2.0410

> <Gold.PLP.Chemscore.Metal>
0.0000

> <Gold.Chemscore.Hbonds>
donor molecule, donor type, donor heavy atom, donor atom, acceptor molecule, acceptor atom, score
      L1  H    10    33       P1  8028  1.75
      L1  C    14    38       P1  7957  0.97
      L1  C    15    39       P1  7948  1.00

> <Gold.PLP.Chemscore.Internal.Correction>
0.0529

> <Gold.Rescore>
     Score         DG    S(hbond)    S(metal)    S(lipo)     H(rot)  DE(clash)    DE(int)     intcor
     16.69     -18.24       0.70        0.00     128.17       1.78       0.57       0.98       ----

> <Gold.Chemscore.Fitness>
16.6887

> <Gold.Chemscore.DG>
-18.2391

> <Gold.Chemscore.ZeroCoef>
-5.4800

> <Gold.Chemscore.Hbond>
0.6953

> <Gold.Chemscore.Metal>
0.0000

> <Gold.Chemscore.Lipo>
128.1688

> <Gold.Chemscore.Internal_Hbond>
0.0000

> <Gold.Chemscore.DEClash>
0.5670

> <Gold.Chemscore.DEInternal>
0.9833

> <Gold.Chemscore.Rot>
1.7809

> <Gold.Chemscore.Internal.Correction>
   9.000000E+99

> <Gold.Chemscore.Hbonds>
donor molecule, donor type, donor heavy atom, donor atom, acceptor molecule, acceptor atom, score
      L1  H    10    33       P1  8028  0.81

> <Gold.Chemscore.Hbond.Weighted>
-2.3223

> <Gold.Chemscore.Metal.Weighted>
-0.0000

> <Gold.Chemscore.Lipo.Weighted>
-14.9958

> <Gold.Chemscore.Internal_Hbond.Weighted>
0.0000

> <Gold.Chemscore.DEClash.Weighted>
0.5670

> <Gold.Chemscore.DEInternal.Weighted>
0.9833

> <Gold.Chemscore.Rot.Weighted>
4.5590

> <Gold.Chemscore.Internal.Correction.Weighted>
   9.000000E+99

> <Gold.Protein.RotatedTorsions>
[ 6907 6896 6895 6894 ] final  164.32 input  -60.11 | X-H torsion
[ 7974 7965 7964 7962 ] final  -11.46 input  175.53 | X-H torsion
[ 8008 7997 7996 7995 ] final  168.97 input   59.86 | X-H torsion
[ 10167 10162 10161 10158 ] final  165.83 input  -65.29 | X-H torsion
[ 10718 10713 10712 10709 ] final  118.69 input   66.30 | X-H torsion
[ 10763 10752 10751 10750 ] final  153.22 input  -60.55 | X-H torsion
[ 11005 11000 10999 10996 ] final -144.31 input  -57.11 | X-H torsion

> <Gold.Protein.ActiveResidues>
 VAL166  LYS551  ARG553  GLY616  TRP617  ASP618  TYR619  PRO620  LYS621  CYS622 
 ASP623  PHE694  ASN695  SER759  ASP760  ASP761  ALA762  ILE779  LEU786  VAL792 
 PHE793  MET794  SER795  GLU796  ALA797  LYS798  CYS799  TRP800  GLU811  SER814 

> <Gold.Protein.RotatedAtoms>
  151.9117  133.3563  159.3865 H   0  0  0  0  0  0  0  0  0  0  0  0  # atno 6907 bound_to 6896
  150.7056  134.4725  159.5441 H   0  0  0  0  0  0  0  0  0  0  0  0  # atno 6908 bound_to 6896
  152.2333  134.8301  160.0521 H   0  0  0  0  0  0  0  0  0  0  0  0  # atno 6909 bound_to 6896
  146.2186  140.2915  142.8369 H   0  0  0  0  0  0  0  0  0  0  0  0  # atno 7974 bound_to 7965
  156.1499  140.1576  156.8786 H   0  0  0  0  0  0  0  0  0  0  0  0  # atno 8008 bound_to 7997
  154.5062  140.0812  156.7935 H   0  0  0  0  0  0  0  0  0  0  0  0  # atno 8009 bound_to 7997
  155.3916  140.3410  155.4254 H   0  0  0  0  0  0  0  0  0  0  0  0  # atno 8010 bound_to 7997
  139.4913  144.4091  151.9320 H   0  0  0  0  0  0  0  0  0  0  0  0  # atno 10167 bound_to 10162
  157.6013  131.1050  150.7791 H   0  0  0  0  0  0  0  0  0  0  0  0  # atno 10718 bound_to 10713
  154.1327  135.2825  155.3181 H   0  0  0  0  0  0  0  0  0  0  0  0  # atno 10763 bound_to 10752
  154.6344  135.5424  153.7720 H   0  0  0  0  0  0  0  0  0  0  0  0  # atno 10764 bound_to 10752
  153.0276  135.6470  154.1477 H   0  0  0  0  0  0  0  0  0  0  0  0  # atno 10765 bound_to 10752
  140.8037  134.2826  157.4968 H   0  0  0  0  0  0  0  0  0  0  0  0  # atno 11005 bound_to 11000
  144.9123  140.7772  143.5799 LP  0  0  0  0  0  0  0  0  0  0  0  0  # atno 17320 bound_to 7965
  145.2846  139.1905  143.4772 LP  0  0  0  0  0  0  0  0  0  0  0  0  # atno 17321 bound_to 7965
  140.3532  144.3063  150.5945 LP  0  0  0  0  0  0  0  0  0  0  0  0  # atno 17342 bound_to 10162
  140.5467  143.2213  151.7995 LP  0  0  0  0  0  0  0  0  0  0  0  0  # atno 17343 bound_to 10162
  156.8190  130.4977  149.5345 LP  0  0  0  0  0  0  0  0  0  0  0  0  # atno 17370 bound_to 10713
  156.1087  130.6024  151.0012 LP  0  0  0  0  0  0  0  0  0  0  0  0  # atno 17371 bound_to 10713
  139.8719  134.9444  156.3880 LP  0  0  0  0  0  0  0  0  0  0  0  0  # atno 17394 bound_to 11000
  140.9268  133.7606  155.9975 LP  0  0  0  0  0  0  0  0  0  0  0  0  # atno 17395 bound_to 11000

$$$$
