AV-unprocessed.smi:81|AV-procd|sdf|793|dock10
  -GOLD-   2262017173D 1   1.00000     0.00000
 Structure written by MMmdl.
 64 67  0  0  0  0  0  0  0  0  2 V2000
  151.9357  143.9749  158.8542 C   0  0  0  0  0  0  0  0  0  0  0  0
  150.9578  142.9081  158.3350 C   0  0  0  0  0  0  0  0  0  0  0  0
  149.6065  143.0216  159.0539 C   0  0  0  0  0  0  0  0  0  0  0  0
  151.5310  141.4799  158.4879 C   0  0  0  0  0  0  0  0  0  0  0  0
  150.8345  140.4574  157.6990 N   0  0  0  0  0  0  0  0  0  0  0  0
  150.7616  139.2270  158.2634 C   0  0  0  0  0  0  0  0  0  0  0  0
  151.9240  138.6640  158.6782 N   0  0  0  0  0  0  0  0  0  0  0  0
  151.9230  137.4423  159.2182 C   0  0  0  0  0  0  0  0  0  0  0  0
  150.8910  136.6224  159.4227 N   0  0  0  0  0  0  0  0  0  0  0  0
  149.7217  137.1730  158.9856 C   0  0  0  0  0  0  0  0  0  0  0  0
  149.5682  138.4607  158.3995 C   0  0  0  0  0  0  0  0  0  0  0  0
  148.2315  138.6817  158.0954 N   0  0  0  0  0  0  0  0  0  0  0  0
  147.6306  137.5892  158.4789 C   0  0  0  0  0  0  0  0  0  0  0  0
  148.4537  136.6142  159.0012 N   0  0  0  0  0  0  0  0  0  0  0  0
  148.0723  135.3054  159.5241 C   0  0  0  0  0  0  0  0  0  0  0  0
  147.2987  135.3168  160.8718 C   0  0  2  0  0  0  0  0  0  0  0  0
  147.9824  136.1869  161.7578 O   0  0  0  0  0  0  0  0  0  0  0  0
  147.2452  133.9450  161.5254 C   0  0  0  0  0  0  0  0  0  0  0  0
  146.1000  134.0954  162.5169 C   0  0  0  0  0  0  0  0  0  0  0  0
  145.1648  134.9356  161.8552 O   0  0  0  0  0  0  0  0  0  0  0  0
  145.8046  135.7350  160.8573 C   0  0  2  0  0  0  0  0  0  0  0  0
  145.0303  135.4408  159.5621 C   0  0  0  0  0  0  0  0  0  0  0  0
  150.9550  140.5523  156.2338 C   0  0  2  0  0  0  0  0  0  0  0  0
  149.9004  141.4386  155.5288 C   0  0  0  0  0  0  0  0  0  0  0  0
  148.6170  140.6899  155.1192 C   0  0  0  0  0  0  0  0  0  0  0  0
  148.9330  139.4721  154.3373 N   0  3  2  0  0  0  0  0  0  0  0  0
  147.7185  138.8160  153.8075 C   0  0  0  0  0  0  0  0  0  0  0  0
  149.7882  138.5367  155.1038 C   0  0  0  0  0  0  0  0  0  0  0  0
  151.1198  139.1977  155.5042 C   0  0  0  0  0  0  0  0  0  0  0  0
  152.1606  143.8256  159.9107 H   0  0  0  0  0  0  0  0  0  0  0  0
  151.5197  144.9762  158.7410 H   0  0  0  0  0  0  0  0  0  0  0  0
  152.8787  143.9517  158.3077 H   0  0  0  0  0  0  0  0  0  0  0  0
  150.7666  143.1113  157.2811 H   0  0  0  0  0  0  0  0  0  0  0  0
  149.7103  142.8471  160.1254 H   0  0  0  0  0  0  0  0  0  0  0  0
  148.8928  142.2945  158.6651 H   0  0  0  0  0  0  0  0  0  0  0  0
  149.1709  144.0120  158.9182 H   0  0  0  0  0  0  0  0  0  0  0  0
  152.5816  141.4928  158.1956 H   0  0  0  0  0  0  0  0  0  0  0  0
  151.5242  141.1927  159.5386 H   0  0  0  0  0  0  0  0  0  0  0  0
  152.8875  137.0664  159.5270 H   0  0  0  0  0  0  0  0  0  0  0  0
  146.5609  137.4759  158.3877 H   0  0  0  0  0  0  0  0  0  0  0  0
  147.4720  134.7992  158.7678 H   0  0  0  0  0  0  0  0  0  0  0  0
  148.9808  134.7099  159.6229 H   0  0  0  0  0  0  0  0  0  0  0  0
  148.3008  135.6783  162.4882 H   0  0  0  0  0  0  0  0  0  0  0  0
  146.9850  133.1849  160.7873 H   0  0  0  0  0  0  0  0  0  0  0  0
  148.1825  133.6455  161.9962 H   0  0  0  0  0  0  0  0  0  0  0  0
  145.6537  133.1398  162.7926 H   0  0  0  0  0  0  0  0  0  0  0  0
  146.4394  134.5881  163.4290 H   0  0  0  0  0  0  0  0  0  0  0  0
  145.6860  136.7913  161.1048 H   0  0  0  0  0  0  0  0  0  0  0  0
  145.3214  136.1094  158.7554 H   0  0  0  0  0  0  0  0  0  0  0  0
  143.9605  135.5853  159.7144 H   0  0  0  0  0  0  0  0  0  0  0  0
  145.1793  134.4135  159.2290 H   0  0  0  0  0  0  0  0  0  0  0  0
  151.9001  141.0795  156.0982 H   0  0  0  0  0  0  0  0  0  0  0  0
  149.6614  142.3123  156.1358 H   0  0  0  0  0  0  0  0  0  0  0  0
  150.3526  141.8341  154.6184 H   0  0  0  0  0  0  0  0  0  0  0  0
  148.0206  140.4131  155.9873 H   0  0  0  0  0  0  0  0  0  0  0  0
  147.9946  141.3542  154.5186 H   0  0  0  0  0  0  0  0  0  0  0  0
  147.0789  138.4645  154.6183 H   0  0  0  0  0  0  0  0  0  0  0  0
  147.9822  137.9613  153.1838 H   0  0  0  0  0  0  0  0  0  0  0  0
  147.1430  139.5094  153.1937 H   0  0  0  0  0  0  0  0  0  0  0  0
  149.2424  138.1842  155.9766 H   0  0  0  0  0  0  0  0  0  0  0  0
  149.9973  137.6561  154.4954 H   0  0  0  0  0  0  0  0  0  0  0  0
  151.6861  139.3772  154.5895 H   0  0  0  0  0  0  0  0  0  0  0  0
  151.7251  138.5048  156.0888 H   0  0  0  0  0  0  0  0  0  0  0  0
  149.4720  139.7706  153.5368 H   0  0  0  0  0  0  0  0  0  0  0  0
  1  2  1  0  0  0  0
  1 30  1  0  0  0  0
  1 31  1  0  0  0  0
  1 32  1  0  0  0  0
  2  3  1  0  0  0  0
  2  4  1  0  0  0  0
  2 33  1  0  0  0  0
  3 34  1  0  0  0  0
  3 35  1  0  0  0  0
  3 36  1  0  0  0  0
  4  5  1  0  0  0  0
  4 37  1  0  0  0  0
  4 38  1  0  0  0  0
  5  6  1  0  0  0  0
  5 23  1  0  0  0  0
  6 11  1  0  0  0  0
  6  7  2  0  0  0  0
  7  8  1  0  0  0  0
  8  9  2  0  0  0  0
  8 39  1  0  0  0  0
  9 10  1  0  0  0  0
 10 14  1  0  0  0  0
 10 11  2  0  0  0  0
 11 12  1  0  0  0  0
 12 13  2  0  0  0  0
 13 14  1  0  0  0  0
 13 40  1  0  0  0  0
 14 15  1  0  0  0  0
 15 16  1  0  0  0  0
 15 41  1  0  0  0  0
 15 42  1  0  0  0  0
 16 21  1  0  0  0  0
 16 17  1  0  0  0  0
 16 18  1  0  0  0  0
 17 43  1  0  0  0  0
 18 19  1  0  0  0  0
 18 44  1  0  0  0  0
 18 45  1  0  0  0  0
 19 20  1  0  0  0  0
 19 46  1  0  0  0  0
 19 47  1  0  0  0  0
 20 21  1  0  0  0  0
 21 22  1  0  0  0  0
 21 48  1  0  0  0  0
 22 49  1  0  0  0  0
 22 50  1  0  0  0  0
 22 51  1  0  0  0  0
 23 29  1  0  0  0  0
 23 24  1  0  0  0  0
 23 52  1  0  0  0  0
 24 25  1  0  0  0  0
 24 53  1  0  0  0  0
 24 54  1  0  0  0  0
 25 26  1  0  0  0  0
 25 55  1  0  0  0  0
 25 56  1  0  0  0  0
 26 27  1  0  0  0  0
 26 28  1  0  0  0  0
 26 64  1  0  0  0  0
 27 57  1  0  0  0  0
 27 58  1  0  0  0  0
 27 59  1  0  0  0  0
 28 29  1  0  0  0  0
 28 60  1  0  0  0  0
 28 61  1  0  0  0  0
 29 62  1  0  0  0  0
 29 63  1  0  0  0  0
M  CHG  1  26   1
M  END
> <s_m_source_file>
AV-unprocessed.smi

> <i_m_source_file_index>
81

> <i_lp_mmshare_version>
43012

> <i_f3d_flags>
0

> <s_epik_input>
W0NIMl0xW0NIMl1OKFtDSDNdKVtDSDJdW0NIMl1bQ0hdMU4oW0NIMl1bQ0hdKFtDSDNdKVtDSDNdKWMobltjSF1uMiljKGMyMyluW2NIXW4zW0NIMl1bQ0BAXTQoW09IXSlbQ0gyXVtDSDJdT1tDQEhdNFtDSDNd

> <s_epik_cmdline>
J2VwaWtfcHl0aG9uJywgJy1waCcsICc3LjAnLCAnLXRuJywgJzgnLCAnLW1hJywgJzIwMCcsICctbWV0YWxfYmluZGluZycsICctaW1hZScsICc8aW5maWxlLm1hZT4nLCAnLW9tYWUnLCAnPG91dGZpbGUubWFlPic=

> <r_lp_tautomer_probability>
1

> <r_epik_Ionization_Penalty>
0.00272708

> <r_epik_Ionization_Penalty_Charging>
0.00158983

> <r_epik_Ionization_Penalty_Neutral>
0.00113725

> <r_epik_State_Penalty>
-0

> <r_epik_Charging_Adjusted_Penalty>
0.00158983

> <i_epik_Tot_Q>
1

> <i_epik_Tot_abs_Q>
1

> <r_epik_Metal_State_Penalty>
-0

> <b_epik_Metal_Only>
0

> <s_lp_Force_Field>
OPLS_2005

> <r_lp_Energy>
52.2974

> <b_lp_Chiralities_Consistent>
1

> <s_lp_Variant>
AV-unprocessed.smi:81-8

> <Gold.Version>
5.8.1

> <Gold.Id.Protein>
6NUR|6NUR_protein|mol2

> <Gold.PLP.Fitness>
54.5949

> <Gold.PLP.PLP>
-49.2774

> <Gold.PLP.part.hbond>
-3.1148

> <Gold.PLP.part.metal>
0.0000

> <Gold.PLP.part.buried>
-5.3993

> <Gold.PLP.part.nonpolar>
-40.3188

> <Gold.PLP.part.repulsive>
0.1007

> <Gold.PLP.ligand.clash>
0.0000

> <Gold.PLP.ligand.torsion>
2.1535

> <Gold.PLP.Chemscore.Hbond>
2.7488

> <Gold.PLP.Chemscore.CHOScore>
0.0000

> <Gold.PLP.Chemscore.Metal>
0.0000

> <Gold.Chemscore.Hbonds>
donor molecule, donor type, donor heavy atom, donor atom, acceptor molecule, acceptor atom, score
      L1  H    26    64       P1  7957  0.08
      P1  H  6896  6907       L1     9  1.00
      P1  H  6931  6943       L1    17  0.29

> <Gold.PLP.Chemscore.Internal.Correction>
1.3782

> <Gold.Rescore>
     Score         DG    S(hbond)    S(metal)    S(lipo)     H(rot)  DE(clash)    DE(int)     intcor
     18.84     -20.84       2.53        0.00     109.70       2.32       0.03       1.97       ----

> <Gold.Chemscore.Fitness>
18.8367

> <Gold.Chemscore.DG>
-20.8356

> <Gold.Chemscore.ZeroCoef>
-5.4800

> <Gold.Chemscore.Hbond>
2.5300

> <Gold.Chemscore.Metal>
0.0000

> <Gold.Chemscore.Lipo>
109.7024

> <Gold.Chemscore.Internal_Hbond>
0.0000

> <Gold.Chemscore.DEClash>
0.0272

> <Gold.Chemscore.DEInternal>
1.9717

> <Gold.Chemscore.Rot>
2.3163

> <Gold.Chemscore.Internal.Correction>
   9.000000E+99

> <Gold.Chemscore.Hbonds>
donor molecule, donor type, donor heavy atom, donor atom, acceptor molecule, acceptor atom, score
      L1  H    26    64       P1  7957  0.12
      P1  H  6896  6907       L1     9  0.84
      P1  H  6931  6943       L1    17  0.16

> <Gold.Chemscore.Hbond.Weighted>
-8.4502

> <Gold.Chemscore.Metal.Weighted>
-0.0000

> <Gold.Chemscore.Lipo.Weighted>
-12.8352

> <Gold.Chemscore.Internal_Hbond.Weighted>
0.0000

> <Gold.Chemscore.DEClash.Weighted>
0.0272

> <Gold.Chemscore.DEInternal.Weighted>
1.9717

> <Gold.Chemscore.Rot.Weighted>
5.9297

> <Gold.Chemscore.Internal.Correction.Weighted>
   9.000000E+99

> <Gold.Protein.RotatedTorsions>
[ 6907 6896 6895 6894 ] final  -12.69 input  -60.11 | X-H torsion
[ 7974 7965 7964 7962 ] final  142.28 input  175.53 | X-H torsion
[ 8008 7997 7996 7995 ] final  -37.01 input   59.86 | X-H torsion
[ 10167 10162 10161 10158 ] final -168.51 input  -65.29 | X-H torsion
[ 10718 10713 10712 10709 ] final -155.73 input   66.30 | X-H torsion
[ 10763 10752 10751 10750 ] final  -19.52 input  -60.55 | X-H torsion
[ 11005 11000 10999 10996 ] final   37.99 input  -57.11 | X-H torsion

> <Gold.Protein.ActiveResidues>
 VAL166  LYS551  ARG553  GLY616  TRP617  ASP618  TYR619  PRO620  LYS621  CYS622 
 ASP623  PHE694  ASN695  SER759  ASP760  ASP761  ALA762  ILE779  LEU786  VAL792 
 PHE793  MET794  SER795  GLU796  ALA797  LYS798  CYS799  TRP800  GLU811  SER814 

> <Gold.Protein.RotatedAtoms>
  151.3666  135.0914  159.9451 H   0  0  0  0  0  0  0  0  0  0  0  0  # atno 6907 bound_to 6896
  152.5147  133.9206  159.7543 H   0  0  0  0  0  0  0  0  0  0  0  0  # atno 6908 bound_to 6896
  150.9611  133.6390  159.2783 H   0  0  0  0  0  0  0  0  0  0  0  0  # atno 6909 bound_to 6896
  144.9021  139.5408  143.5749 H   0  0  0  0  0  0  0  0  0  0  0  0  # atno 7974 bound_to 7965
  154.4061  140.1615  156.2467 H   0  0  0  0  0  0  0  0  0  0  0  0  # atno 8008 bound_to 7997
  155.9154  140.3424  155.6109 H   0  0  0  0  0  0  0  0  0  0  0  0  # atno 8009 bound_to 7997
  155.7285  140.0777  157.2290 H   0  0  0  0  0  0  0  0  0  0  0  0  # atno 8010 bound_to 7997
  139.5981  144.1070  152.1711 H   0  0  0  0  0  0  0  0  0  0  0  0  # atno 10167 bound_to 10162
  156.5168  130.8460  151.2667 H   0  0  0  0  0  0  0  0  0  0  0  0  # atno 10718 bound_to 10713
  153.6060  135.6998  153.5365 H   0  0  0  0  0  0  0  0  0  0  0  0  # atno 10763 bound_to 10752
  153.3056  135.4116  155.1291 H   0  0  0  0  0  0  0  0  0  0  0  0  # atno 10764 bound_to 10752
  154.8573  135.3659  154.5597 H   0  0  0  0  0  0  0  0  0  0  0  0  # atno 10765 bound_to 10752
  140.2171  134.3686  155.8022 H   0  0  0  0  0  0  0  0  0  0  0  0  # atno 11005 bound_to 11000
  146.3114  139.7760  142.9017 LP  0  0  0  0  0  0  0  0  0  0  0  0  # atno 17320 bound_to 7965
  145.3598  141.0323  143.3291 LP  0  0  0  0  0  0  0  0  0  0  0  0  # atno 17321 bound_to 7965
  140.0659  144.5818  150.7227 LP  0  0  0  0  0  0  0  0  0  0  0  0  # atno 17342 bound_to 10162
  140.7228  143.2605  151.4223 LP  0  0  0  0  0  0  0  0  0  0  0  0  # atno 17343 bound_to 10162
  157.7442  130.9931  150.2659 LP  0  0  0  0  0  0  0  0  0  0  0  0  # atno 17370 bound_to 10713
  156.3187  130.3782  149.7595 LP  0  0  0  0  0  0  0  0  0  0  0  0  # atno 17371 bound_to 10713
  141.2224  133.7173  156.8514 LP  0  0  0  0  0  0  0  0  0  0  0  0  # atno 17394 bound_to 11000
  140.1889  134.8980  157.3037 LP  0  0  0  0  0  0  0  0  0  0  0  0  # atno 17395 bound_to 11000

$$$$
