AV-unprocessed.smi:368|AV-procd|sdf|2434|dock2
  -GOLD-   2262022373D 1   1.00000     0.00000
 Structure written by MMmdl.
 37 38  0  0  0  0  0  0  0  0  1 V2000
  151.3925  140.4355  156.3708 O   0  0  0  0  0  0  0  0  0  0  0  0
  150.6486  141.3416  155.9921 C   0  0  0  0  0  0  0  0  0  0  0  0
  149.5998  141.0981  154.8972 C   0  0  0  0  0  0  0  0  0  0  0  0
  148.2596  141.5983  155.2445 N   0  0  0  0  0  0  0  0  0  0  0  0
  147.5630  142.3218  154.2620 C   0  0  0  0  0  0  0  0  0  0  0  0
  146.3384  142.8106  154.5054 C   0  0  0  0  0  0  0  0  0  0  0  0
  145.7839  142.5462  155.8396 C   0  0  0  0  0  0  0  0  0  0  0  0
  146.4182  141.8915  156.7392 N   0  0  0  0  0  0  0  0  0  0  0  0
  147.7063  141.3840  156.4828 C   0  0  0  0  0  0  0  0  0  0  0  0
  148.3256  140.7615  157.3457 O   0  0  0  0  0  0  0  0  0  0  0  0
  150.6829  142.5830  156.5006 N   0  0  0  0  0  0  0  0  0  0  0  0
  151.5909  143.0512  157.5451 C   0  0  0  0  0  0  0  0  0  0  0  0
  151.3896  142.1805  158.8030 C   0  0  0  0  0  0  0  0  0  0  0  0
  152.5098  142.3490  159.8437 C   0  0  0  0  0  0  0  0  0  0  0  0
  152.3140  143.4941  160.8526 C   0  0  0  0  0  0  0  0  0  0  0  0
  151.7367  144.8077  160.2976 C   0  0  0  0  0  0  0  0  0  0  0  0
  152.2124  145.1933  158.8877 C   0  0  0  0  0  0  0  0  0  0  0  0
  151.3590  144.5590  157.7759 C   0  0  0  0  0  0  0  0  0  0  0  0
  149.9533  141.5672  153.9779 H   0  0  0  0  0  0  0  0  0  0  0  0
  149.5537  140.0304  154.6744 H   0  0  0  0  0  0  0  0  0  0  0  0
  148.0818  142.4538  153.3237 H   0  0  0  0  0  0  0  0  0  0  0  0
  145.7510  143.3759  153.7972 H   0  0  0  0  0  0  0  0  0  0  0  0
  144.7835  142.9490  156.0180 H   0  0  0  0  0  0  0  0  0  0  0  0
  150.0326  143.2606  156.1299 H   0  0  0  0  0  0  0  0  0  0  0  0
  152.6164  142.9054  157.2001 H   0  0  0  0  0  0  0  0  0  0  0  0
  150.4114  142.3564  159.2526 H   0  0  0  0  0  0  0  0  0  0  0  0
  151.3895  141.1342  158.4932 H   0  0  0  0  0  0  0  0  0  0  0  0
  152.6074  141.4216  160.4093 H   0  0  0  0  0  0  0  0  0  0  0  0
  153.4652  142.4709  159.3322 H   0  0  0  0  0  0  0  0  0  0  0  0
  151.6658  143.1528  161.6605 H   0  0  0  0  0  0  0  0  0  0  0  0
  153.2779  143.6988  161.3202 H   0  0  0  0  0  0  0  0  0  0  0  0
  150.6471  144.7621  160.3117 H   0  0  0  0  0  0  0  0  0  0  0  0
  151.9975  145.6075  160.9917 H   0  0  0  0  0  0  0  0  0  0  0  0
  152.1243  146.2757  158.7901 H   0  0  0  0  0  0  0  0  0  0  0  0
  153.2707  144.9679  158.7517 H   0  0  0  0  0  0  0  0  0  0  0  0
  151.5745  145.0864  156.8456 H   0  0  0  0  0  0  0  0  0  0  0  0
  150.3031  144.7460  157.9778 H   0  0  0  0  0  0  0  0  0  0  0  0
  1  2  2  0  0  0  0
  2  3  1  0  0  0  0
  2 11  1  0  0  0  0
  3  4  1  0  0  0  0
  3 19  1  0  0  0  0
  3 20  1  0  0  0  0
  4  9  1  0  0  0  0
  4  5  1  0  0  0  0
  5  6  2  0  0  0  0
  5 21  1  0  0  0  0
  6  7  1  0  0  0  0
  6 22  1  0  0  0  0
  7  8  2  0  0  0  0
  7 23  1  0  0  0  0
  8  9  1  0  0  0  0
  9 10  2  0  0  0  0
 11 12  1  0  0  0  0
 11 24  1  0  0  0  0
 12 18  1  0  0  0  0
 12 13  1  0  0  0  0
 12 25  1  0  0  0  0
 13 14  1  0  0  0  0
 13 26  1  0  0  0  0
 13 27  1  0  0  0  0
 14 15  1  0  0  0  0
 14 28  1  0  0  0  0
 14 29  1  0  0  0  0
 15 16  1  0  0  0  0
 15 30  1  0  0  0  0
 15 31  1  0  0  0  0
 16 17  1  0  0  0  0
 16 32  1  0  0  0  0
 16 33  1  0  0  0  0
 17 18  1  0  0  0  0
 17 34  1  0  0  0  0
 17 35  1  0  0  0  0
 18 36  1  0  0  0  0
 18 37  1  0  0  0  0
M  END
> <s_m_source_file>
AV-unprocessed.smi

> <i_m_source_file_index>
368

> <i_lp_mmshare_version>
43012

> <i_f3d_flags>
0

> <s_epik_input>
W0NIMl0xW0NIMl1bQ0gyXVtDSDJdW0NIMl1bQ0gyXVtDSF0xW05IXUMoPU8pW0NIMl1uMltjSF1bY0hdW2NIXW5jMj1P

> <s_epik_cmdline>
J2VwaWtfcHl0aG9uJywgJy1waCcsICc3LjAnLCAnLXRuJywgJzgnLCAnLW1hJywgJzIwMCcsICctbWV0YWxfYmluZGluZycsICctaW1hZScsICc8aW5maWxlLm1hZT4nLCAnLW9tYWUnLCAnPG91dGZpbGUubWFlPic=

> <r_lp_tautomer_probability>
1

> <r_epik_Ionization_Penalty>
7.18069e-06

> <r_epik_Ionization_Penalty_Charging>
1.77491e-08

> <r_epik_Ionization_Penalty_Neutral>
7.16294e-06

> <r_epik_State_Penalty>
-0

> <r_epik_Charging_Adjusted_Penalty>
1.77491e-08

> <i_epik_Tot_Q>
0

> <i_epik_Tot_abs_Q>
0

> <r_epik_Metal_State_Penalty>
-0

> <b_epik_Metal_Only>
0

> <s_lp_Force_Field>
OPLS_2005

> <r_lp_Energy>
17.0449

> <b_lp_Chiralities_Consistent>
1

> <s_lp_Variant>
AV-unprocessed.smi:368-1

> <Gold.Version>
5.8.1

> <Gold.Id.Protein>
6NUR|6NUR_protein|mol2

> <Gold.PLP.Fitness>
43.8162

> <Gold.PLP.PLP>
-41.4381

> <Gold.PLP.part.hbond>
-1.0000

> <Gold.PLP.part.metal>
0.0000

> <Gold.PLP.part.buried>
-3.7595

> <Gold.PLP.part.nonpolar>
-36.5553

> <Gold.PLP.part.repulsive>
0.1815

> <Gold.PLP.ligand.clash>
0.0000

> <Gold.PLP.ligand.torsion>
0.3180

> <Gold.PLP.Chemscore.Hbond>
1.0000

> <Gold.PLP.Chemscore.CHOScore>
0.0000

> <Gold.PLP.Chemscore.Metal>
0.0000

> <Gold.Chemscore.Hbonds>
donor molecule, donor type, donor heavy atom, donor atom, acceptor molecule, acceptor atom, score
      L1  H    11    24       P1  8028  1.00

> <Gold.PLP.Chemscore.Internal.Correction>
0.0142

> <Gold.Rescore>
     Score         DG    S(hbond)    S(metal)    S(lipo)     H(rot)  DE(clash)    DE(int)     intcor
     14.81     -17.12       1.00        0.00     103.76       1.50       0.08       2.24       ----

> <Gold.Chemscore.Fitness>
14.8052

> <Gold.Chemscore.DG>
-17.1245

> <Gold.Chemscore.ZeroCoef>
-5.4800

> <Gold.Chemscore.Hbond>
0.9997

> <Gold.Chemscore.Metal>
0.0000

> <Gold.Chemscore.Lipo>
103.7574

> <Gold.Chemscore.Internal_Hbond>
0.0000

> <Gold.Chemscore.DEClash>
0.0799

> <Gold.Chemscore.DEInternal>
2.2395

> <Gold.Chemscore.Rot>
1.4977

> <Gold.Chemscore.Internal.Correction>
   9.000000E+99

> <Gold.Chemscore.Hbonds>
donor molecule, donor type, donor heavy atom, donor atom, acceptor molecule, acceptor atom, score
      L1  H    11    24       P1  8028  1.00

> <Gold.Chemscore.Hbond.Weighted>
-3.3390

> <Gold.Chemscore.Metal.Weighted>
-0.0000

> <Gold.Chemscore.Lipo.Weighted>
-12.1396

> <Gold.Chemscore.Internal_Hbond.Weighted>
0.0000

> <Gold.Chemscore.DEClash.Weighted>
0.0799

> <Gold.Chemscore.DEInternal.Weighted>
2.2395

> <Gold.Chemscore.Rot.Weighted>
3.8341

> <Gold.Chemscore.Internal.Correction.Weighted>
   9.000000E+99

> <Gold.Protein.RotatedTorsions>
[ 6907 6896 6895 6894 ] final  135.73 input  -60.11 | X-H torsion
[ 7974 7965 7964 7962 ] final  -55.27 input  175.53 | X-H torsion
[ 8008 7997 7996 7995 ] final   56.97 input   59.86 | X-H torsion
[ 10167 10162 10161 10158 ] final   63.44 input  -65.29 | X-H torsion
[ 10718 10713 10712 10709 ] final   -0.09 input   66.30 | X-H torsion
[ 10763 10752 10751 10750 ] final   89.08 input  -60.55 | X-H torsion
[ 11005 11000 10999 10996 ] final   79.47 input  -57.11 | X-H torsion

> <Gold.Protein.ActiveResidues>
 VAL166  LYS551  ARG553  GLY616  TRP617  ASP618  TYR619  PRO620  LYS621  CYS622 
 ASP623  PHE694  ASN695  SER759  ASP760  ASP761  ALA762  ILE779  LEU786  VAL792 
 PHE793  MET794  SER795  GLU796  ALA797  LYS798  CYS799  TRP800  GLU811  SER814 

> <Gold.Protein.RotatedAtoms>
  152.2972  133.5619  159.5594 H   0  0  0  0  0  0  0  0  0  0  0  0  # atno 6907 bound_to 6896
  150.7261  134.0344  159.3753 H   0  0  0  0  0  0  0  0  0  0  0  0  # atno 6908 bound_to 6896
  151.8246  135.0641  160.0480 H   0  0  0  0  0  0  0  0  0  0  0  0  # atno 6909 bound_to 6896
  145.8761  140.8180  142.9863 H   0  0  0  0  0  0  0  0  0  0  0  0  # atno 7974 bound_to 7965
  155.5261  140.3481  155.4416 H   0  0  0  0  0  0  0  0  0  0  0  0  # atno 8008 bound_to 7997
  156.0751  140.1372  156.9809 H   0  0  0  0  0  0  0  0  0  0  0  0  # atno 8009 bound_to 7997
  154.4549  140.0957  156.6702 H   0  0  0  0  0  0  0  0  0  0  0  0  # atno 8010 bound_to 7997
  140.1330  144.4625  150.6854 H   0  0  0  0  0  0  0  0  0  0  0  0  # atno 10167 bound_to 10162
  156.8255  130.5471  149.5692 H   0  0  0  0  0  0  0  0  0  0  0  0  # atno 10718 bound_to 10713
  153.1834  135.4483  155.0057 H   0  0  0  0  0  0  0  0  0  0  0  0  # atno 10763 bound_to 10752
  154.8044  135.3268  154.7470 H   0  0  0  0  0  0  0  0  0  0  0  0  # atno 10764 bound_to 10752
  153.7932  135.6968  153.4923 H   0  0  0  0  0  0  0  0  0  0  0  0  # atno 10765 bound_to 10752
  139.9171  134.7845  156.1783 H   0  0  0  0  0  0  0  0  0  0  0  0  # atno 11005 bound_to 11000
  144.6726  140.1313  143.7443 LP  0  0  0  0  0  0  0  0  0  0  0  0  # atno 17320 bound_to 7965
  145.9079  139.2469  143.1455 LP  0  0  0  0  0  0  0  0  0  0  0  0  # atno 17321 bound_to 7965
  140.6806  143.2325  151.5395 LP  0  0  0  0  0  0  0  0  0  0  0  0  # atno 17342 bound_to 10162
  139.5510  144.2396  152.1530 LP  0  0  0  0  0  0  0  0  0  0  0  0  # atno 17343 bound_to 10162
  156.0964  130.5935  150.9820 LP  0  0  0  0  0  0  0  0  0  0  0  0  # atno 17370 bound_to 10713
  157.6434  131.0907  150.8203 LP  0  0  0  0  0  0  0  0  0  0  0  0  # atno 17371 bound_to 10713
  141.0658  133.6820  156.2041 LP  0  0  0  0  0  0  0  0  0  0  0  0  # atno 17394 bound_to 11000
  140.6588  134.4990  157.5582 LP  0  0  0  0  0  0  0  0  0  0  0  0  # atno 17395 bound_to 11000

$$$$
