AV-unprocessed.smi:2062|AV-procd|sdf|8402|dock4
  -GOLD-   2272011 83D 1   1.00000     0.00000
 Structure written by MMmdl.
 42 43  0  0  0  0  0  0  0  0  3 V2000
  145.8357  131.3118  150.8195 C   0  0  0  0  0  0  0  0  0  0  0  0
  145.5434  132.6767  151.4602 C   0  0  0  0  0  0  0  0  0  0  0  0
  144.4128  133.3941  150.7035 C   0  0  0  0  0  0  0  0  0  0  0  0
  146.8284  133.5307  151.5233 C   0  0  0  0  0  0  0  0  0  0  0  0
  146.8176  134.5282  152.6241 N   0  3  1  0  0  0  0  0  0  0  0  0
  145.6522  135.4461  152.5831 C   0  0  0  0  0  0  0  0  0  0  0  0
  145.7236  136.4568  153.7386 C   0  0  0  0  0  0  0  0  0  0  0  0
  145.8019  135.7560  154.9710 O   0  0  0  0  0  0  0  0  0  0  0  0
  146.9782  134.9598  155.0700 C   0  0  1  0  0  0  0  0  0  0  0  0
  147.0398  134.3251  156.4705 C   0  0  0  0  0  0  0  0  0  0  0  0
  147.3255  135.3209  157.4977 N   0  0  0  0  0  0  0  0  0  0  0  0
  148.1682  135.1689  158.5288 C   0  0  0  0  0  0  0  0  0  0  0  0
  148.8077  134.1219  158.6534 O   0  0  0  0  0  0  0  0  0  0  0  0
  148.2126  136.2383  159.3543 N   0  5  0  0  0  0  0  0  0  0  0  0
  147.8691  136.1038  160.6457 C   0  0  0  0  0  0  0  0  0  0  0  0
  147.6647  137.1473  161.4579 N   0  0  0  0  0  0  0  0  0  0  0  0
  147.3204  136.7785  162.7596 C   0  0  0  0  0  0  0  0  0  0  0  0
  147.2689  135.4223  162.9449 C   0  0  0  0  0  0  0  0  0  0  0  0
  147.6552  134.5629  161.4814 S   0  0  0  0  0  0  0  0  0  0  0  0
  146.9297  133.8930  153.9591 C   0  0  0  0  0  0  0  0  0  0  0  0
  146.1836  131.4207  149.7917 H   0  0  0  0  0  0  0  0  0  0  0  0
  144.9435  130.6850  150.8041 H   0  0  0  0  0  0  0  0  0  0  0  0
  146.6039  130.7727  151.3748 H   0  0  0  0  0  0  0  0  0  0  0  0
  145.1947  132.4765  152.4726 H   0  0  0  0  0  0  0  0  0  0  0  0
  144.7036  133.6210  149.6773 H   0  0  0  0  0  0  0  0  0  0  0  0
  144.1393  134.3317  151.1880 H   0  0  0  0  0  0  0  0  0  0  0  0
  143.5151  132.7765  150.6642 H   0  0  0  0  0  0  0  0  0  0  0  0
  147.7079  132.8938  151.6290 H   0  0  0  0  0  0  0  0  0  0  0  0
  146.9420  134.0471  150.5687 H   0  0  0  0  0  0  0  0  0  0  0  0
  145.6211  135.9870  151.6382 H   0  0  0  0  0  0  0  0  0  0  0  0
  144.7286  134.8694  152.6531 H   0  0  0  0  0  0  0  0  0  0  0  0
  146.5810  137.1224  153.6265 H   0  0  0  0  0  0  0  0  0  0  0  0
  144.8318  137.0836  153.7450 H   0  0  0  0  0  0  0  0  0  0  0  0
  147.8586  135.5904  154.9301 H   0  0  0  0  0  0  0  0  0  0  0  0
  146.1186  133.7848  156.6946 H   0  0  0  0  0  0  0  0  0  0  0  0
  147.8430  133.5887  156.5044 H   0  0  0  0  0  0  0  0  0  0  0  0
  146.8301  136.1982  157.4342 H   0  0  0  0  0  0  0  0  0  0  0  0
  147.1297  137.5488  163.4917 H   0  0  0  0  0  0  0  0  0  0  0  0
  147.0306  134.8788  163.8467 H   0  0  0  0  0  0  0  0  0  0  0  0
  146.0828  133.2225  154.1160 H   0  0  0  0  0  0  0  0  0  0  0  0
  147.8334  133.2833  153.9989 H   0  0  0  0  0  0  0  0  0  0  0  0
  147.6462  135.0948  152.5110 H   0  0  0  0  0  0  0  0  0  0  0  0
  1  2  1  0  0  0  0
  1 21  1  0  0  0  0
  1 22  1  0  0  0  0
  1 23  1  0  0  0  0
  2  3  1  0  0  0  0
  2  4  1  0  0  0  0
  2 24  1  0  0  0  0
  3 25  1  0  0  0  0
  3 26  1  0  0  0  0
  3 27  1  0  0  0  0
  4  5  1  0  0  0  0
  4 28  1  0  0  0  0
  4 29  1  0  0  0  0
  5 20  1  0  0  0  0
  5  6  1  0  0  0  0
  5 42  1  0  0  0  0
  6  7  1  0  0  0  0
  6 30  1  0  0  0  0
  6 31  1  0  0  0  0
  7  8  1  0  0  0  0
  7 32  1  0  0  0  0
  7 33  1  0  0  0  0
  8  9  1  0  0  0  0
  9 10  1  0  0  0  0
  9 20  1  0  0  0  0
  9 34  1  0  0  0  0
 10 11  1  0  0  0  0
 10 35  1  0  0  0  0
 10 36  1  0  0  0  0
 11 12  1  0  0  0  0
 11 37  1  0  0  0  0
 12 13  2  0  0  0  0
 12 14  1  0  0  0  0
 14 15  1  0  0  0  0
 15 19  1  0  0  0  0
 15 16  2  0  0  0  0
 16 17  1  0  0  0  0
 17 18  2  0  0  0  0
 17 38  1  0  0  0  0
 18 19  1  0  0  0  0
 18 39  1  0  0  0  0
 20 40  1  0  0  0  0
 20 41  1  0  0  0  0
M  CHG  1   5   1
M  CHG  1  14  -1
M  END
> <s_m_source_file>
AV-unprocessed.smi

> <i_m_source_file_index>
2062

> <i_lp_mmshare_version>
43012

> <i_f3d_flags>
0

> <s_epik_input>
W0NIM11bQ0hdKFtDSDNdKVtDSDJdTjFbQ0gyXVtDSDJdT1tDQEhdKFtDSDJdMSlbQ0gyXVtOSF1DKD1PKVtOSF1jMm5bY0hdW2NIXXMy

> <s_epik_cmdline>
J2VwaWtfcHl0aG9uJywgJy1waCcsICc3LjAnLCAnLXRuJywgJzgnLCAnLW1hJywgJzIwMCcsICctbWV0YWxfYmluZGluZycsICctaW1hZScsICc8aW5maWxlLm1hZT4nLCAnLW9tYWUnLCAnPG91dGZpbGUubWFlPic=

> <r_lp_tautomer_probability>
0.999

> <r_epik_Ionization_Penalty>
6.35835

> <r_epik_Ionization_Penalty_Charging>
5.49938

> <r_epik_Ionization_Penalty_Neutral>
0.858963

> <r_epik_State_Penalty>
5.49328

> <r_epik_Charging_Adjusted_Penalty>
10.9927

> <i_epik_Tot_Q>
0

> <i_epik_Tot_abs_Q>
2

> <r_epik_Metal_State_Penalty>
1.51523

> <b_epik_Metal_Only>
1

> <s_lp_Force_Field>
OPLS_2005

> <r_lp_Energy>
7.56536

> <b_lp_Chiralities_Consistent>
1

> <s_lp_Variant>
AV-unprocessed.smi:2062-7

> <Gold.Version>
5.8.1

> <Gold.Id.Protein>
6NUR|6NUR_protein|mol2

> <Gold.PLP.Fitness>
43.3132

> <Gold.PLP.PLP>
-31.3816

> <Gold.PLP.part.hbond>
-4.0000

> <Gold.PLP.part.metal>
0.0000

> <Gold.PLP.part.buried>
-3.9433

> <Gold.PLP.part.nonpolar>
-23.3844

> <Gold.PLP.part.repulsive>
0.0266

> <Gold.PLP.ligand.clash>
0.0000

> <Gold.PLP.ligand.torsion>
1.0859

> <Gold.PLP.Chemscore.Hbond>
4.6500

> <Gold.PLP.Chemscore.CHOScore>
0.0000

> <Gold.PLP.Chemscore.Metal>
0.0000

> <Gold.Chemscore.Hbonds>
donor molecule, donor type, donor heavy atom, donor atom, acceptor molecule, acceptor atom, score
      L1  H     5    42       P1  7948  2.00
      P1  H  6896  6908       L1    13  1.00
      P1  H  6931  6943       L1    16  0.85
      P1  H  6934  6947       L1    16  0.80

> <Gold.PLP.Chemscore.Internal.Correction>
0.1534

> <Gold.Rescore>
     Score         DG    S(hbond)    S(metal)    S(lipo)     H(rot)  DE(clash)    DE(int)     intcor
     17.73     -18.92       3.02        0.00      66.40       1.72       0.08       1.11       ----

> <Gold.Chemscore.Fitness>
17.7317

> <Gold.Chemscore.DG>
-18.9240

> <Gold.Chemscore.ZeroCoef>
-5.4800

> <Gold.Chemscore.Hbond>
3.0171

> <Gold.Chemscore.Metal>
0.0000

> <Gold.Chemscore.Lipo>
66.3985

> <Gold.Chemscore.Internal_Hbond>
0.0000

> <Gold.Chemscore.DEClash>
0.0830

> <Gold.Chemscore.DEInternal>
1.1093

> <Gold.Chemscore.Rot>
1.7194

> <Gold.Chemscore.Internal.Correction>
   9.000000E+99

> <Gold.Chemscore.Hbonds>
donor molecule, donor type, donor heavy atom, donor atom, acceptor molecule, acceptor atom, score
      L1  H     5    42       P1  7948  0.99
      P1  H  6896  6908       L1    13  0.97
      P1  H  6931  6943       L1    16  0.14
      P1  H  6934  6947       L1    16  0.69

> <Gold.Chemscore.Hbond.Weighted>
-10.0771

> <Gold.Chemscore.Metal.Weighted>
-0.0000

> <Gold.Chemscore.Lipo.Weighted>
-7.7686

> <Gold.Chemscore.Internal_Hbond.Weighted>
0.0000

> <Gold.Chemscore.DEClash.Weighted>
0.0830

> <Gold.Chemscore.DEInternal.Weighted>
1.1093

> <Gold.Chemscore.Rot.Weighted>
4.4017

> <Gold.Chemscore.Internal.Correction.Weighted>
   9.000000E+99

> <Gold.Protein.RotatedTorsions>
[ 6907 6896 6895 6894 ] final  135.74 input  -60.11 | X-H torsion
[ 7974 7965 7964 7962 ] final  -90.98 input  175.53 | X-H torsion
[ 8008 7997 7996 7995 ] final -177.10 input   59.86 | X-H torsion
[ 10167 10162 10161 10158 ] final -113.37 input  -65.29 | X-H torsion
[ 10718 10713 10712 10709 ] final -119.94 input   66.30 | X-H torsion
[ 10763 10752 10751 10750 ] final  120.18 input  -60.55 | X-H torsion
[ 11005 11000 10999 10996 ] final  -33.58 input  -57.11 | X-H torsion

> <Gold.Protein.ActiveResidues>
 VAL166  LYS551  ARG553  GLY616  TRP617  ASP618  TYR619  PRO620  LYS621  CYS622 
 ASP623  PHE694  ASN695  SER759  ASP760  ASP761  ALA762  ILE779  LEU786  VAL792 
 PHE793  MET794  SER795  GLU796  ALA797  LYS798  CYS799  TRP800  GLU811  SER814 

> <Gold.Protein.RotatedAtoms>
  152.2971  133.5618  159.5594 H   0  0  0  0  0  0  0  0  0  0  0  0  # atno 6907 bound_to 6896
  150.7261  134.0345  159.3753 H   0  0  0  0  0  0  0  0  0  0  0  0  # atno 6908 bound_to 6896
  151.8247  135.0641  160.0480 H   0  0  0  0  0  0  0  0  0  0  0  0  # atno 6909 bound_to 6896
  145.4193  140.9550  143.2190 H   0  0  0  0  0  0  0  0  0  0  0  0  # atno 7974 bound_to 7965
  156.0028  140.1224  157.0530 H   0  0  0  0  0  0  0  0  0  0  0  0  # atno 8008 bound_to 7997
  154.4248  140.1103  156.5790 H   0  0  0  0  0  0  0  0  0  0  0  0  # atno 8009 bound_to 7997
  155.6188  140.3472  155.4647 H   0  0  0  0  0  0  0  0  0  0  0  0  # atno 8010 bound_to 7997
  140.1126  143.4514  152.1743 H   0  0  0  0  0  0  0  0  0  0  0  0  # atno 10167 bound_to 10162
  156.1219  130.6330  150.9479 H   0  0  0  0  0  0  0  0  0  0  0  0  # atno 10718 bound_to 10713
  153.5946  135.3459  155.2923 H   0  0  0  0  0  0  0  0  0  0  0  0  # atno 10763 bound_to 10752
  154.8647  135.4213  154.2479 H   0  0  0  0  0  0  0  0  0  0  0  0  # atno 10764 bound_to 10752
  153.3294  135.7043  153.7032 H   0  0  0  0  0  0  0  0  0  0  0  0  # atno 10765 bound_to 10752
  140.9646  133.7144  156.1424 H   0  0  0  0  0  0  0  0  0  0  0  0  # atno 11005 bound_to 11000
  144.8256  139.5715  143.6967 LP  0  0  0  0  0  0  0  0  0  0  0  0  # atno 17320 bound_to 7965
  146.2665  139.6532  142.9326 LP  0  0  0  0  0  0  0  0  0  0  0  0  # atno 17321 bound_to 7965
  139.5611  144.7406  151.4152 LP  0  0  0  0  0  0  0  0  0  0  0  0  # atno 17342 bound_to 10162
  140.6917  143.7845  150.7266 LP  0  0  0  0  0  0  0  0  0  0  0  0  # atno 17343 bound_to 10162
  157.6403  131.0911  150.8266 LP  0  0  0  0  0  0  0  0  0  0  0  0  # atno 17370 bound_to 10713
  156.8361  130.5032  149.5326 LP  0  0  0  0  0  0  0  0  0  0  0  0  # atno 17371 bound_to 10713
  140.7418  134.4142  157.5554 LP  0  0  0  0  0  0  0  0  0  0  0  0  # atno 17394 bound_to 11000
  139.8890  134.8842  156.2444 LP  0  0  0  0  0  0  0  0  0  0  0  0  # atno 17395 bound_to 11000

$$$$
