#       Name:                AV-unprocessed.smi:997
#       Creating user name   scv26
#       Creation time:       Fri Mar 27 02:24:48 2020


#       File generated by GOLD software.
#

@<TRIPOS>MOLECULE
AV-unprocessed.smi:997
    41    43     1
SMALL
NO_CHARGES


@<TRIPOS>ATOM
      1 ****        -2.0534   3.4369   0.2132 C.3            1 S1                 0.0000
      2 ****        -0.9894   2.3832   0.1422 C.2            1 S1                 0.0000
      3 ****         0.2727   2.7469   0.1679 N.2            1 S1                 0.0000
      4 ****         1.0087   1.6104   0.1307 N.pl3          1 S1                 0.0000
      5 ****         2.4565   1.7128   0.1467 C.3            1 S1                 0.0000
      6 ****         3.0308   1.7460  -1.2757 C.3            1 S1                 0.0000
      7 ****         4.4381   1.8360  -1.2224 O.3            1 S1                 0.0000
      8 ****         0.2275   0.4711   0.0727 C.ar           1 S1                 0.0000
      9 ****         0.6612  -0.8209   0.0335 N.ar           1 S1                 0.0000
     10 ****        -0.3209  -1.7443  -0.0047 C.ar           1 S1                 0.0000
     11 ****         0.1536  -3.1638  -0.0470 C.3            1 S1                 0.0000
     12 ****        -0.5081  -4.2392   0.7864 C.3            1 S1                 0.0000
     13 ****         0.8848  -3.7723   1.1281 C.3            1 S1                 0.0000
     14 ****        -1.6943  -1.4271  -0.0297 C.ar           1 S1                 0.0000
     15 ****        -2.1146  -0.0752  -0.0072 C.ar           1 S1                 0.0000
     16 ****        -3.5893   0.2250  -0.0648 C.2            1 S1                 0.0000
     17 ****        -3.9789   1.3482  -0.4466 O.co2          1 S1                 0.0000
     18 ****        -4.3948  -0.6806   0.2474 O.co2          1 S1                -1.0000
     19 ****        -1.1162   0.9428   0.0617 C.ar           1 S1                 0.0000
     20 ****        -2.7918   3.2025   0.9800 H              1 S1                 0.0000
     21 ****        -2.5711   3.5402  -0.7403 H              1 S1                 0.0000
     22 ****        -1.6381   4.4146   0.4604 H              1 S1                 0.0000
     23 ****         2.7444   2.6101   0.6968 H              1 S1                 0.0000
     24 ****         2.8575   0.8629   0.7004 H              1 S1                 0.0000
     25 ****         2.7533   0.8449  -1.8237 H              1 S1                 0.0000
     26 ****         2.6398   2.6000  -1.8296 H              1 S1                 0.0000
     27 ****         4.7713   1.8548  -2.1065 H              1 S1                 0.0000
     28 ****         0.4876  -3.4342  -1.0469 H              1 S1                 0.0000
     29 ****        -1.3089  -3.9474   1.4633 H              1 S1                 0.0000
     30 ****        -0.6002  -5.2326   0.3528 H              1 S1                 0.0000
     31 ****         1.7000  -4.4612   0.9174 H              1 S1                 0.0000
     32 ****         1.0026  -3.1658   2.0240 H              1 S1                 0.0000
     33 ****        -2.4204  -2.2258  -0.0813 H              1 S1                 0.0000
     34 ****         0.6227   3.6828   0.2074 LP             1 S1                 0.0000
     35 ****         4.8087   1.0429  -0.7391 LP             1 S1                 0.0000
     36 ****         4.7047   2.6725  -0.7436 LP             1 S1                 0.0000
     37 ****         1.6311  -1.0645   0.0331 LP             1 S1                 0.0000
     38 ****        -4.9577   1.5432  -0.5093 LP             1 S1                 0.0000
     39 ****        -3.3121   2.0527  -0.6896 LP             1 S1                 0.0000
     40 ****        -5.3794  -0.5141   0.1944 LP             1 S1                 0.0000
     41 ****        -4.0538  -1.5706   0.5499 LP             1 S1                 0.0000
@<TRIPOS>BOND
    1    1    2 1     
    2    1   20 1     
    3    1   21 1     
    4    1   22 1     
    5    2   19 1     
    6    2    3 2     
    7    3    4 1     
    8    4    5 1     
    9    4    8 1     
   10    5    6 1     
   11    5   23 1     
   12    5   24 1     
   13    6    7 1     
   14    6   25 1     
   15    6   26 1     
   16    7   27 1     
   17    8   19 ar    
   18    8    9 ar    
   19    9   10 ar    
   20   10   11 1     
   21   10   14 ar    
   22   11   13 1     
   23   11   12 1     
   24   11   28 1     
   25   12   13 1     
   26   12   29 1     
   27   12   30 1     
   28   13   31 1     
   29   13   32 1     
   30   14   15 ar    
   31   14   33 1     
   32   15   16 1     
   33   15   19 ar    
   34   16   17 ar    
   35   16   18 ar    
   36    3   34 1     
   37    7   35 1     
   38    7   36 1     
   39    9   37 1     
   40   17   38 1     
   41   17   39 1     
   42   18   40 1     
   43   18   41 1     
@<TRIPOS>SUBSTRUCTURE
      1 S1             1
@<TRIPOS>SET
LONE_PAIRS      STATIC     ATOMS    <user>   **** ""
8 34 35 36 37 38 39 40 41
DONOR_HYDROGENS      STATIC     ATOMS    <user>   **** ""
1 27
ATOM$BLUE        STATIC     ATOMS    COLORGROUP SYSTEM
8 34 35 36 37 38 39 40 41
ATOM$RED        STATIC     ATOMS    COLORGROUP SYSTEM
1 27
