#       Name:                AV-unprocessed.smi:197
#       Creating user name   scv26
#       Creation time:       Thu Mar 26 19:40:59 2020


#       File generated by GOLD software.
#

@<TRIPOS>MOLECULE
AV-unprocessed.smi:197
    66    69     1
SMALL
NO_CHARGES


@<TRIPOS>ATOM
      1 ****        -2.8176  -1.0799  -6.3229 C.3            1 S1                 0.0000
      2 ****        -2.4483  -0.8790  -4.9702 O.3            1 S1                 0.0000
      3 ****        -2.9321  -1.9024  -4.1161 C.3            1 S1                 0.0000
      4 ****        -2.4805  -1.6179  -2.6755 C.3            1 S1                 0.0000
      5 ****        -3.0235  -0.2910  -2.0797 C.3            1 S1                 0.0000
      6 ****        -4.5633  -0.3479  -1.9286 C.3            1 S1                 0.0000
      7 ****        -5.0579   0.8377  -1.3179 O.3            1 S1                 0.0000
      8 ****        -4.5375   1.0104  -0.0080 C.3            1 S1                 0.0000
      9 ****        -3.0152   1.1658  -0.0999 C.3            1 S1                 0.0000
     10 ****        -2.4207   0.0153  -0.7734 N.3            1 S1                 0.0000
     11 ****        -1.0698   0.1003  -0.7080 C.ar           1 S1                 0.0000
     12 ****        -0.3666   0.6842  -1.7151 N.ar           1 S1                 0.0000
     13 ****         0.9633   0.7861  -1.6315 C.ar           1 S1                 0.0000
     14 ****         1.7708   0.3889  -0.6455 N.ar           1 S1                 0.0000
     15 ****         1.0659  -0.1856   0.3713 C.ar           1 S1                 0.0000
     16 ****        -0.3441  -0.3683   0.4193 C.ar           1 S1                 0.0000
     17 ****        -0.7055  -0.9898   1.6075 N.2            1 S1                 0.0000
     18 ****         0.4287  -1.1621   2.2304 C.2            1 S1                 0.0000
     19 ****         1.5423  -0.7012   1.5639 N.pl3          1 S1                 0.0000
     20 ****         2.9198  -0.7533   2.0284 C.3            1 S1                 0.0000
     21 ****         3.3028   0.4391   2.9369 C.3            1 S1                 0.0000
     22 ****         2.5145   0.3780   4.1157 O.3            1 S1                 0.0000
     23 ****         3.1020   1.8025   2.2919 C.3            1 S1                 0.0000
     24 ****         4.0562   2.6864   3.0852 C.3            1 S1                 0.0000
     25 ****         5.1782   1.8568   3.3585 O.3            1 S1                 0.0000
     26 ****         4.8068   0.4805   3.2863 C.3            1 S1                 0.0000
     27 ****         5.2401  -0.2737   4.5538 C.3            1 S1                 0.0000
     28 ****        -2.4195  -0.2709  -6.9352 H              1 S1                 0.0000
     29 ****        -3.9023  -1.0867  -6.4380 H              1 S1                 0.0000
     30 ****        -2.4181  -2.0199  -6.7057 H              1 S1                 0.0000
     31 ****        -4.0175  -1.9791  -4.1822 H              1 S1                 0.0000
     32 ****        -2.5281  -2.8639  -4.4367 H              1 S1                 0.0000
     33 ****        -2.7798  -2.4488  -2.0356 H              1 S1                 0.0000
     34 ****        -1.3909  -1.6263  -2.6757 H              1 S1                 0.0000
     35 ****        -2.7822   0.5287  -2.7581 H              1 S1                 0.0000
     36 ****        -5.0440  -0.4375  -2.9019 H              1 S1                 0.0000
     37 ****        -4.8673  -1.2175  -1.3433 H              1 S1                 0.0000
     38 ****        -4.9804   1.9014   0.4373 H              1 S1                 0.0000
     39 ****        -4.8091   0.1647   0.6260 H              1 S1                 0.0000
     40 ****        -2.7690   2.0754  -0.6502 H              1 S1                 0.0000
     41 ****        -2.6004   1.2755   0.9034 H              1 S1                 0.0000
     42 ****         1.4493   1.2565  -2.4734 H              1 S1                 0.0000
     43 ****         0.4841  -1.6264   3.2044 H              1 S1                 0.0000
     44 ****         3.0711  -1.6967   2.5550 H              1 S1                 0.0000
     45 ****         3.5701  -0.7856   1.1532 H              1 S1                 0.0000
     46 ****         2.7459  -0.4057   4.5901 H              1 S1                 0.0000
     47 ****         3.4235   1.7763   1.2500 H              1 S1                 0.0000
     48 ****         2.0696   2.1544   2.3154 H              1 S1                 0.0000
     49 ****         4.3457   3.5863   2.5425 H              1 S1                 0.0000
     50 ****         3.6018   2.9899   4.0293 H              1 S1                 0.0000
     51 ****         5.3693   0.0764   2.4436 H              1 S1                 0.0000
     52 ****         4.9514  -1.3238   4.5032 H              1 S1                 0.0000
     53 ****         4.7969   0.1575   5.4518 H              1 S1                 0.0000
     54 ****         6.3228  -0.2334   4.6739 H              1 S1                 0.0000
     55 ****        -2.8202  -0.0030  -4.6632 LP             1 S1                 0.0000
     56 ****        -1.4504  -0.8568  -4.9104 LP             1 S1                 0.0000
     57 ****        -6.0551   0.7837  -1.2659 LP             1 S1                 0.0000
     58 ****        -4.7954   1.6240  -1.8771 LP             1 S1                 0.0000
     59 ****        -2.6551  -0.8224  -0.2801 LP             1 S1                 0.0000
     60 ****        -0.8452   1.0376  -2.5189 LP             1 S1                 0.0000
     61 ****         2.7647   0.4984  -0.6515 LP             1 S1                 0.0000
     62 ****        -1.6221  -1.2459   1.9147 LP             1 S1                 0.0000
     63 ****         1.5449   0.3513   3.8723 LP             1 S1                 0.0000
     64 ****         2.6936   1.1814   4.6835 LP             1 S1                 0.0000
     65 ****         5.5214   2.0580   4.2759 LP             1 S1                 0.0000
     66 ****         5.8956   2.0404   2.6865 LP             1 S1                 0.0000
@<TRIPOS>BOND
    1    1    2 1     
    2    1   28 1     
    3    1   29 1     
    4    1   30 1     
    5    2    3 1     
    6    3    4 1     
    7    3   31 1     
    8    3   32 1     
    9    4    5 1     
   10    4   33 1     
   11    4   34 1     
   12    5   10 1     
   13    5    6 1     
   14    5   35 1     
   15    6    7 1     
   16    6   36 1     
   17    6   37 1     
   18    7    8 1     
   19    8    9 1     
   20    8   38 1     
   21    8   39 1     
   22    9   10 1     
   23    9   40 1     
   24    9   41 1     
   25   10   11 1     
   26   11   16 ar    
   27   11   12 ar    
   28   12   13 ar    
   29   13   14 ar    
   30   13   42 1     
   31   14   15 ar    
   32   15   19 1     
   33   15   16 ar    
   34   16   17 1     
   35   17   18 2     
   36   18   19 1     
   37   18   43 1     
   38   19   20 1     
   39   20   21 1     
   40   20   44 1     
   41   20   45 1     
   42   21   26 1     
   43   21   22 1     
   44   21   23 1     
   45   22   46 1     
   46   23   24 1     
   47   23   47 1     
   48   23   48 1     
   49   24   25 1     
   50   24   49 1     
   51   24   50 1     
   52   25   26 1     
   53   26   27 1     
   54   26   51 1     
   55   27   52 1     
   56   27   53 1     
   57   27   54 1     
   58    2   55 1     
   59    2   56 1     
   60    7   57 1     
   61    7   58 1     
   62   10   59 1     
   63   12   60 1     
   64   14   61 1     
   65   17   62 1     
   66   22   63 1     
   67   22   64 1     
   68   25   65 1     
   69   25   66 1     
@<TRIPOS>SUBSTRUCTURE
      1 S1             1
@<TRIPOS>SET
LONE_PAIRS      STATIC     ATOMS    <user>   **** ""
12 55 56 57 58 59 60 61 62 63 64 65 66
DONOR_HYDROGENS      STATIC     ATOMS    <user>   **** ""
1 46
ATOM$BLUE        STATIC     ATOMS    COLORGROUP SYSTEM
12 55 56 57 58 59 60 61 62 63 64 65 66
ATOM$RED        STATIC     ATOMS    COLORGROUP SYSTEM
1 46
