AV-unprocessed.smi:719|AV-procd|sdf|3494|dock4
  -GOLD-   22720 0493D 1   1.00000     0.00000
 Structure written by MMmdl.
 41 43  0  0  0  0  0  0  0  0  1 V2000
  155.8785  133.7284  160.2764 C   0  0  0  0  0  0  0  0  0  0  0  0
  155.2326  133.4307  161.6340 C   0  0  0  0  0  0  0  0  0  0  0  0
  154.7358  134.6732  162.3128 C   0  0  0  0  0  0  0  0  0  0  0  0
  154.9021  135.9109  161.6835 N   0  0  0  0  0  0  0  0  0  0  0  0
  154.4212  136.9251  162.4052 C   0  0  0  0  0  0  0  0  0  0  0  0
  154.4468  138.3455  161.9501 C   0  0  0  0  0  0  0  0  0  0  0  0
  153.8552  138.5187  160.5417 C   0  0  0  0  0  0  0  0  0  0  0  0
  153.5603  139.9159  160.2450 N   0  0  0  0  0  0  0  0  0  0  0  0
  154.3254  140.9593  160.6002 C   0  0  0  0  0  0  0  0  0  0  0  0
  155.3841  140.8354  161.2176 O   0  0  0  0  0  0  0  0  0  0  0  0
  153.7786  142.2834  160.1766 C   0  0  2  0  0  0  0  0  0  0  0  0
  152.3795  142.6421  160.6438 C   0  0  1  0  0  0  0  0  0  0  0  0
  151.8912  144.0710  160.7074 C   0  0  0  0  0  0  0  0  0  0  0  0
  152.1867  144.6757  159.3238 C   0  0  0  0  0  0  0  0  0  0  0  0
  152.2658  143.4832  158.3547 C   0  0  0  0  0  0  0  0  0  0  0  0
  152.6093  142.2832  159.2073 C   0  0  1  0  0  0  0  0  0  0  0  0
  153.6863  136.4101  163.9165 S   0  0  0  0  0  0  0  0  0  0  0  0
  154.0926  134.7584  163.5258 C   0  0  0  0  0  0  0  0  0  0  0  0
  153.7406  133.6445  164.4552 C   0  0  0  0  0  0  0  0  0  0  0  0
  156.2241  132.8103  159.8011 H   0  0  0  0  0  0  0  0  0  0  0  0
  156.7379  134.3906  160.3855 H   0  0  0  0  0  0  0  0  0  0  0  0
  155.1693  134.2070  159.6006 H   0  0  0  0  0  0  0  0  0  0  0  0
  154.4156  132.7222  161.4949 H   0  0  0  0  0  0  0  0  0  0  0  0
  155.9578  132.9230  162.2710 H   0  0  0  0  0  0  0  0  0  0  0  0
  153.8944  138.9465  162.6731 H   0  0  0  0  0  0  0  0  0  0  0  0
  155.4776  138.7012  161.9718 H   0  0  0  0  0  0  0  0  0  0  0  0
  154.5645  138.1589  159.7959 H   0  0  0  0  0  0  0  0  0  0  0  0
  152.9527  137.9154  160.4288 H   0  0  0  0  0  0  0  0  0  0  0  0
  152.7082  140.1041  159.7366 H   0  0  0  0  0  0  0  0  0  0  0  0
  154.4965  143.0980  160.0911 H   0  0  0  0  0  0  0  0  0  0  0  0
  151.8536  141.9303  161.2781 H   0  0  0  0  0  0  0  0  0  0  0  0
  150.8175  144.0661  160.8978 H   0  0  0  0  0  0  0  0  0  0  0  0
  152.3794  144.6163  161.5154 H   0  0  0  0  0  0  0  0  0  0  0  0
  151.4414  145.4119  159.0217 H   0  0  0  0  0  0  0  0  0  0  0  0
  153.1524  145.1821  159.3510 H   0  0  0  0  0  0  0  0  0  0  0  0
  151.2970  143.3123  157.8840 H   0  0  0  0  0  0  0  0  0  0  0  0
  153.0071  143.6302  157.5687 H   0  0  0  0  0  0  0  0  0  0  0  0
  152.2399  141.3240  158.8480 H   0  0  0  0  0  0  0  0  0  0  0  0
  153.1887  132.8636  163.9315 H   0  0  0  0  0  0  0  0  0  0  0  0
  153.1200  133.9976  165.2792 H   0  0  0  0  0  0  0  0  0  0  0  0
  154.6396  133.1973  164.8794 H   0  0  0  0  0  0  0  0  0  0  0  0
  1  2  1  0  0  0  0
  1 20  1  0  0  0  0
  1 21  1  0  0  0  0
  1 22  1  0  0  0  0
  2  3  1  0  0  0  0
  2 23  1  0  0  0  0
  2 24  1  0  0  0  0
  3 18  2  0  0  0  0
  3  4  1  0  0  0  0
  4  5  2  0  0  0  0
  5  6  1  0  0  0  0
  5 17  1  0  0  0  0
  6  7  1  0  0  0  0
  6 25  1  0  0  0  0
  6 26  1  0  0  0  0
  7  8  1  0  0  0  0
  7 27  1  0  0  0  0
  7 28  1  0  0  0  0
  8  9  1  0  0  0  0
  8 29  1  0  0  0  0
  9 10  2  0  0  0  0
  9 11  1  0  0  0  0
 11 16  1  0  0  0  0
 11 12  1  0  0  0  0
 11 30  1  0  0  0  0
 12 16  1  0  0  0  0
 12 13  1  0  0  0  0
 12 31  1  0  0  0  0
 13 14  1  0  0  0  0
 13 32  1  0  0  0  0
 13 33  1  0  0  0  0
 14 15  1  0  0  0  0
 14 34  1  0  0  0  0
 14 35  1  0  0  0  0
 15 16  1  0  0  0  0
 15 36  1  0  0  0  0
 15 37  1  0  0  0  0
 16 38  1  0  0  0  0
 17 18  1  0  0  0  0
 18 19  1  0  0  0  0
 19 39  1  0  0  0  0
 19 40  1  0  0  0  0
 19 41  1  0  0  0  0
M  END
> <s_m_source_file>
AV-unprocessed.smi

> <i_m_source_file_index>
719

> <i_lp_mmshare_version>
43012

> <i_f3d_flags>
0

> <s_epik_input>
W0NIM11bQ0gyXWMxbmMoc2MxW0NIM10pW0NIMl1bQ0gyXVtOSF1DKD1PKVtDQEhdMltDQEhdKFtDQEBIXTIzKVtDSDJdW0NIMl1bQ0gyXTM=

> <s_epik_cmdline>
J2VwaWtfcHl0aG9uJywgJy1waCcsICc3LjAnLCAnLXRuJywgJzgnLCAnLW1hJywgJzIwMCcsICctbWV0YWxfYmluZGluZycsICctaW1hZScsICc8aW5maWxlLm1hZT4nLCAnLW9tYWUnLCAnPG91dGZpbGUubWFlPic=

> <r_epik_Ionization_Penalty>
0.00247473

> <r_epik_Ionization_Penalty_Charging>
0

> <r_epik_Ionization_Penalty_Neutral>
0.00247473

> <r_epik_State_Penalty>
0.00171502

> <r_epik_Charging_Adjusted_Penalty>
0.00171502

> <i_epik_Tot_Q>
0

> <i_epik_Tot_abs_Q>
0

> <r_epik_Metal_State_Penalty>
-0

> <b_epik_Metal_Only>
0

> <s_lp_Force_Field>
OPLS_2005

> <r_lp_Energy>
19.4586

> <b_lp_Chiralities_Consistent>
1

> <s_lp_Variant>
AV-unprocessed.smi:719-2

> <Gold.Version>
5.8.1

> <Gold.Id.Protein>
6NUR|6NUR_protein|mol2

> <Gold.PLP.Fitness>
46.1713

> <Gold.PLP.PLP>
-46.8476

> <Gold.PLP.part.hbond>
-1.0000

> <Gold.PLP.part.metal>
0.0000

> <Gold.PLP.part.buried>
-4.9554

> <Gold.PLP.part.nonpolar>
-41.0985

> <Gold.PLP.part.repulsive>
0.0694

> <Gold.PLP.ligand.clash>
0.0000

> <Gold.PLP.ligand.torsion>
0.3805

> <Gold.PLP.Chemscore.Hbond>
0.0000

> <Gold.PLP.Chemscore.CHOScore>
0.0000

> <Gold.PLP.Chemscore.Metal>
0.0000

> <Gold.PLP.Chemscore.Internal.Correction>
0.0847

> <Gold.Rescore>
     Score         DG    S(hbond)    S(metal)    S(lipo)     H(rot)  DE(clash)    DE(int)     intcor
     15.39     -17.50       0.00        0.00     133.82       1.42       0.22       1.89       ----

> <Gold.Chemscore.Fitness>
15.3884

> <Gold.Chemscore.DG>
-17.4991

> <Gold.Chemscore.ZeroCoef>
-5.4800

> <Gold.Chemscore.Hbond>
0.0000

> <Gold.Chemscore.Metal>
0.0000

> <Gold.Chemscore.Lipo>
133.8173

> <Gold.Chemscore.Internal_Hbond>
0.0000

> <Gold.Chemscore.DEClash>
0.2238

> <Gold.Chemscore.DEInternal>
1.8868

> <Gold.Chemscore.Rot>
1.4209

> <Gold.Chemscore.Internal.Correction>
   9.000000E+99

> <Gold.Chemscore.Hbond.Weighted>
-0.0000

> <Gold.Chemscore.Metal.Weighted>
-0.0000

> <Gold.Chemscore.Lipo.Weighted>
-15.6566

> <Gold.Chemscore.Internal_Hbond.Weighted>
0.0000

> <Gold.Chemscore.DEClash.Weighted>
0.2238

> <Gold.Chemscore.DEInternal.Weighted>
1.8868

> <Gold.Chemscore.Rot.Weighted>
3.6376

> <Gold.Chemscore.Internal.Correction.Weighted>
   9.000000E+99

> <Gold.Protein.RotatedTorsions>
[ 6907 6896 6895 6894 ] final   38.37 input  -60.11 | X-H torsion
[ 7974 7965 7964 7962 ] final  161.82 input  175.53 | X-H torsion
[ 8008 7997 7996 7995 ] final  157.22 input   59.86 | X-H torsion
[ 10167 10162 10161 10158 ] final  -99.67 input  -65.29 | X-H torsion
[ 10718 10713 10712 10709 ] final   30.53 input   66.30 | X-H torsion
[ 10763 10752 10751 10750 ] final   73.52 input  -60.55 | X-H torsion
[ 11005 11000 10999 10996 ] final -105.70 input  -57.11 | X-H torsion

> <Gold.Protein.ActiveResidues>
 VAL166  LYS551  ARG553  GLY616  TRP617  ASP618  TYR619  PRO620  LYS621  CYS622 
 ASP623  PHE694  ASN695  SER759  ASP760  ASP761  ALA762  ILE779  LEU786  VAL792 
 PHE793  MET794  SER795  GLU796  ALA797  LYS798  CYS799  TRP800  GLU811  SER814 

> <Gold.Protein.RotatedAtoms>
  152.1556  134.8953  160.0544 H   0  0  0  0  0  0  0  0  0  0  0  0  # atno 6907 bound_to 6896
  151.9969  133.3806  159.4174 H   0  0  0  0  0  0  0  0  0  0  0  0  # atno 6908 bound_to 6896
  150.6881  134.3799  159.5073 H   0  0  0  0  0  0  0  0  0  0  0  0  # atno 6909 bound_to 6896
  144.7667  139.7952  143.6312 H   0  0  0  0  0  0  0  0  0  0  0  0  # atno 7974 bound_to 7965
  156.2377  140.1891  156.7075 H   0  0  0  0  0  0  0  0  0  0  0  0  # atno 8008 bound_to 7997
  154.6137  140.0618  156.9553 H   0  0  0  0  0  0  0  0  0  0  0  0  # atno 8009 bound_to 7997
  155.1975  140.3289  155.4351 H   0  0  0  0  0  0  0  0  0  0  0  0  # atno 8010 bound_to 7997
  140.2600  143.3414  152.0634 H   0  0  0  0  0  0  0  0  0  0  0  0  # atno 10167 bound_to 10162
  157.2608  130.7160  149.6453 H   0  0  0  0  0  0  0  0  0  0  0  0  # atno 10718 bound_to 10713
  153.0527  135.5060  154.7906 H   0  0  0  0  0  0  0  0  0  0  0  0  # atno 10763 bound_to 10752
  154.6756  135.2960  154.9685 H   0  0  0  0  0  0  0  0  0  0  0  0  # atno 10764 bound_to 10752
  154.0489  135.6707  153.4851 H   0  0  0  0  0  0  0  0  0  0  0  0  # atno 10765 bound_to 10752
  141.1041  133.8830  157.1766 H   0  0  0  0  0  0  0  0  0  0  0  0  # atno 11005 bound_to 11000
  146.1780  139.4959  142.9885 LP  0  0  0  0  0  0  0  0  0  0  0  0  # atno 17320 bound_to 7965
  145.6449  141.0276  143.1791 LP  0  0  0  0  0  0  0  0  0  0  0  0  # atno 17321 bound_to 7965
  139.5019  144.6725  151.6209 LP  0  0  0  0  0  0  0  0  0  0  0  0  # atno 17342 bound_to 10162
  140.5973  143.9673  150.6363 LP  0  0  0  0  0  0  0  0  0  0  0  0  # atno 17343 bound_to 10162
  155.9664  130.4398  150.5273 LP  0  0  0  0  0  0  0  0  0  0  0  0  # atno 17370 bound_to 10713
  157.3177  131.0676  151.1955 LP  0  0  0  0  0  0  0  0  0  0  0  0  # atno 17371 bound_to 10713
  139.9904  135.0067  156.9960 LP  0  0  0  0  0  0  0  0  0  0  0  0  # atno 17394 bound_to 11000
  140.4948  134.1157  155.7239 LP  0  0  0  0  0  0  0  0  0  0  0  0  # atno 17395 bound_to 11000

$$$$
