AV-unprocessed.smi:264|AV-procd|sdf|2009|dock5
  -GOLD-   2262021203D 1   1.00000     0.00000
 Structure written by MMmdl.
 52 56  0  0  0  0  0  0  0  0  1 V2000
  146.1173  138.0470  151.6971 C   0  0  0  0  0  0  0  0  0  0  0  0
  146.7793  138.0253  153.0847 C   0  0  2  0  0  0  0  0  0  0  0  0
  145.9447  137.3571  154.0304 O   0  0  0  0  0  0  0  0  0  0  0  0
  145.6667  138.2146  155.1285 C   0  0  0  0  0  0  0  0  0  0  0  0
  146.8549  139.1659  155.1728 C   0  0  0  0  0  0  0  0  0  0  0  0
  147.1481  139.3966  153.6971 C   0  0  2  0  0  0  0  0  0  0  0  0
  146.2788  140.4139  153.2227 O   0  0  0  0  0  0  0  0  0  0  0  0
  148.6081  139.8159  153.4012 C   0  0  0  0  0  0  0  0  0  0  0  0
  149.2963  140.3713  154.5563 N   0  0  0  0  0  0  0  0  0  0  0  0
  148.8768  141.4307  155.3291 C   0  0  0  0  0  0  0  0  0  0  0  0
  149.6610  141.7377  156.3257 N   0  0  0  0  0  0  0  0  0  0  0  0
  150.7087  140.8297  156.2255 C   0  0  0  0  0  0  0  0  0  0  0  0
  151.8882  140.5911  156.9850 C   0  0  0  0  0  0  0  0  0  0  0  0
  152.2185  141.3331  158.0712 N   0  0  0  0  0  0  0  0  0  0  0  0
  153.0227  140.6398  159.0689 C   0  0  0  0  0  0  0  0  0  0  0  0
  153.6310  141.6565  160.0453 C   0  0  0  0  0  0  0  0  0  0  0  0
  152.6047  142.4673  160.6172 O   0  0  0  0  0  0  0  0  0  0  0  0
  151.8157  143.1842  159.6624 C   0  0  1  0  0  0  0  0  0  0  0  0
  150.7350  143.9442  160.4242 C   0  0  0  0  0  0  0  0  0  0  0  0
  150.5783  145.2250  159.6186 C   0  0  0  0  0  0  0  0  0  0  0  0
  151.9175  145.5393  159.2858 O   0  0  0  0  0  0  0  0  0  0  0  0
  152.5957  144.3282  158.9718 C   0  0  0  0  0  0  0  0  0  0  0  0
  151.1905  142.1855  158.6607 C   0  0  0  0  0  0  0  0  0  0  0  0
  152.6934  139.5701  156.5863 N   0  0  0  0  0  0  0  0  0  0  0  0
  152.3758  138.8397  155.5134 C   0  0  0  0  0  0  0  0  0  0  0  0
  151.3150  138.9521  154.7119 N   0  0  0  0  0  0  0  0  0  0  0  0
  150.4965  139.9659  155.1139 C   0  0  0  0  0  0  0  0  0  0  0  0
  146.7409  138.5710  150.9726 H   0  0  0  0  0  0  0  0  0  0  0  0
  145.1436  138.5371  151.7235 H   0  0  0  0  0  0  0  0  0  0  0  0
  145.9619  137.0329  151.3285 H   0  0  0  0  0  0  0  0  0  0  0  0
  147.6835  137.4185  153.0182 H   0  0  0  0  0  0  0  0  0  0  0  0
  144.7428  138.7602  154.9314 H   0  0  0  0  0  0  0  0  0  0  0  0
  145.5405  137.6528  156.0540 H   0  0  0  0  0  0  0  0  0  0  0  0
  146.6545  140.0809  155.7321 H   0  0  0  0  0  0  0  0  0  0  0  0
  147.6945  138.6587  155.6496 H   0  0  0  0  0  0  0  0  0  0  0  0
  145.3993  140.0691  153.1998 H   0  0  0  0  0  0  0  0  0  0  0  0
  149.1832  138.9635  153.0368 H   0  0  0  0  0  0  0  0  0  0  0  0
  148.6274  140.5597  152.6034 H   0  0  0  0  0  0  0  0  0  0  0  0
  147.9580  141.9655  155.1349 H   0  0  0  0  0  0  0  0  0  0  0  0
  152.3865  139.9374  159.6094 H   0  0  0  0  0  0  0  0  0  0  0  0
  153.8186  140.0558  158.6079 H   0  0  0  0  0  0  0  0  0  0  0  0
  154.1532  141.1357  160.8480 H   0  0  0  0  0  0  0  0  0  0  0  0
  154.3740  142.2730  159.5392 H   0  0  0  0  0  0  0  0  0  0  0  0
  149.8013  143.3913  160.5324 H   0  0  0  0  0  0  0  0  0  0  0  0
  151.0872  144.1968  161.4257 H   0  0  0  0  0  0  0  0  0  0  0  0
  150.0007  145.0520  158.7092 H   0  0  0  0  0  0  0  0  0  0  0  0
  150.1047  146.0271  160.1849 H   0  0  0  0  0  0  0  0  0  0  0  0
  153.6258  144.4083  159.3182 H   0  0  0  0  0  0  0  0  0  0  0  0
  152.6204  144.1990  157.8891 H   0  0  0  0  0  0  0  0  0  0  0  0
  150.6512  142.7243  157.8800 H   0  0  0  0  0  0  0  0  0  0  0  0
  150.4654  141.5516  159.1733 H   0  0  0  0  0  0  0  0  0  0  0  0
  153.0705  138.0519  155.2618 H   0  0  0  0  0  0  0  0  0  0  0  0
  1  2  1  0  0  0  0
  1 28  1  0  0  0  0
  1 29  1  0  0  0  0
  1 30  1  0  0  0  0
  2  6  1  0  0  0  0
  2  3  1  0  0  0  0
  2 31  1  0  0  0  0
  3  4  1  0  0  0  0
  4  5  1  0  0  0  0
  4 32  1  0  0  0  0
  4 33  1  0  0  0  0
  5  6  1  0  0  0  0
  5 34  1  0  0  0  0
  5 35  1  0  0  0  0
  6  7  1  0  0  0  0
  6  8  1  0  0  0  0
  7 36  1  0  0  0  0
  8  9  1  0  0  0  0
  8 37  1  0  0  0  0
  8 38  1  0  0  0  0
  9 27  1  0  0  0  0
  9 10  1  0  0  0  0
 10 11  2  0  0  0  0
 10 39  1  0  0  0  0
 11 12  1  0  0  0  0
 12 27  2  0  0  0  0
 12 13  1  0  0  0  0
 13 14  1  0  0  0  0
 13 24  2  0  0  0  0
 14 23  1  0  0  0  0
 14 15  1  0  0  0  0
 15 16  1  0  0  0  0
 15 40  1  0  0  0  0
 15 41  1  0  0  0  0
 16 17  1  0  0  0  0
 16 42  1  0  0  0  0
 16 43  1  0  0  0  0
 17 18  1  0  0  0  0
 18 22  1  0  0  0  0
 18 19  1  0  0  0  0
 18 23  1  0  0  0  0
 19 20  1  0  0  0  0
 19 44  1  0  0  0  0
 19 45  1  0  0  0  0
 20 21  1  0  0  0  0
 20 46  1  0  0  0  0
 20 47  1  0  0  0  0
 21 22  1  0  0  0  0
 22 48  1  0  0  0  0
 22 49  1  0  0  0  0
 23 50  1  0  0  0  0
 23 51  1  0  0  0  0
 24 25  1  0  0  0  0
 25 26  2  0  0  0  0
 25 52  1  0  0  0  0
 26 27  1  0  0  0  0
M  END
> <s_m_source_file>
AV-unprocessed.smi

> <i_m_source_file_index>
264

> <i_lp_mmshare_version>
43012

> <i_f3d_flags>
0

> <s_epik_input>
W0NIMl0xW0NIMl1PW0NAQEhdKFtDSDNdKVtDQEBdMShbT0hdKVtDSDJdbihbY0hdbjIpYyhjMjMpbltjSF1uYzNOKFtDSDJdNClbQ0gyXVtDSDJdT1tDQF00NVtDSDJdW0NIMl1PW0NIMl01

> <s_epik_cmdline>
J2VwaWtfcHl0aG9uJywgJy1waCcsICc3LjAnLCAnLXRuJywgJzgnLCAnLW1hJywgJzIwMCcsICctbWV0YWxfYmluZGluZycsICctaW1hZScsICc8aW5maWxlLm1hZT4nLCAnLW9tYWUnLCAnPG91dGZpbGUubWFlPic=

> <r_lp_tautomer_probability>
1

> <r_epik_Ionization_Penalty>
0.00539389

> <r_epik_Ionization_Penalty_Charging>
0

> <r_epik_Ionization_Penalty_Neutral>
0.00539389

> <r_epik_State_Penalty>
0.00375441

> <r_epik_Charging_Adjusted_Penalty>
0.00375441

> <i_epik_Tot_Q>
0

> <i_epik_Tot_abs_Q>
0

> <r_epik_Metal_State_Penalty>
-0

> <b_epik_Metal_Only>
0

> <s_lp_Force_Field>
OPLS_2005

> <r_lp_Energy>
53.6529

> <b_lp_Chiralities_Consistent>
1

> <s_lp_Variant>
AV-unprocessed.smi:264-3

> <Gold.Version>
5.8.1

> <Gold.Id.Protein>
6NUR|6NUR_protein|mol2

> <Gold.PLP.Fitness>
47.7010

> <Gold.PLP.PLP>
-43.2990

> <Gold.PLP.part.hbond>
-2.7398

> <Gold.PLP.part.metal>
0.0000

> <Gold.PLP.part.buried>
5.4468

> <Gold.PLP.part.nonpolar>
-46.2274

> <Gold.PLP.part.repulsive>
1.3123

> <Gold.PLP.ligand.clash>
0.0000

> <Gold.PLP.ligand.torsion>
1.4475

> <Gold.PLP.Chemscore.Hbond>
2.0000

> <Gold.PLP.Chemscore.CHOScore>
0.3321

> <Gold.PLP.Chemscore.Metal>
0.0000

> <Gold.Chemscore.Hbonds>
donor molecule, donor type, donor heavy atom, donor atom, acceptor molecule, acceptor atom, score
      L1  H     7    36       P1 10175  0.80
      P1  H  7997  8009       L1    24  1.00

> <Gold.PLP.Chemscore.Internal.Correction>
0.3006

> <Gold.Rescore>
     Score         DG    S(hbond)    S(metal)    S(lipo)     H(rot)  DE(clash)    DE(int)     intcor
     11.30     -18.08       1.55        0.00     109.39       2.11       4.30       2.48       ----

> <Gold.Chemscore.Fitness>
11.2995

> <Gold.Chemscore.DG>
-18.0787

> <Gold.Chemscore.ZeroCoef>
-5.4800

> <Gold.Chemscore.Hbond>
1.5546

> <Gold.Chemscore.Metal>
0.0000

> <Gold.Chemscore.Lipo>
109.3893

> <Gold.Chemscore.Internal_Hbond>
0.0000

> <Gold.Chemscore.DEClash>
4.3030

> <Gold.Chemscore.DEInternal>
2.4762

> <Gold.Chemscore.Rot>
2.1063

> <Gold.Chemscore.Internal.Correction>
   9.000000E+99

> <Gold.Chemscore.Hbonds>
donor molecule, donor type, donor heavy atom, donor atom, acceptor molecule, acceptor atom, score
      L1  H     7    36       P1 10175  0.79
      P1  H  7997  8009       L1    24  0.64

> <Gold.Chemscore.Hbond.Weighted>
-5.1923

> <Gold.Chemscore.Metal.Weighted>
-0.0000

> <Gold.Chemscore.Lipo.Weighted>
-12.7985

> <Gold.Chemscore.Internal_Hbond.Weighted>
0.0000

> <Gold.Chemscore.DEClash.Weighted>
4.3030

> <Gold.Chemscore.DEInternal.Weighted>
2.4762

> <Gold.Chemscore.Rot.Weighted>
5.3921

> <Gold.Chemscore.Internal.Correction.Weighted>
   9.000000E+99

> <Gold.Protein.RotatedTorsions>
[ 6907 6896 6895 6894 ] final -130.08 input  -60.11 | X-H torsion
[ 7974 7965 7964 7962 ] final   82.44 input  175.53 | X-H torsion
[ 8008 7997 7996 7995 ] final -178.26 input   59.86 | X-H torsion
[ 10167 10162 10161 10158 ] final  114.03 input  -65.29 | X-H torsion
[ 10718 10713 10712 10709 ] final  -43.02 input   66.30 | X-H torsion
[ 10763 10752 10751 10750 ] final   66.84 input  -60.55 | X-H torsion
[ 11005 11000 10999 10996 ] final  137.70 input  -57.11 | X-H torsion

> <Gold.Protein.ActiveResidues>
 VAL166  LYS551  ARG553  GLY616  TRP617  ASP618  TYR619  PRO620  LYS621  CYS622 
 ASP623  PHE694  ASN695  SER759  ASP760  ASP761  ALA762  ILE779  LEU786  VAL792 
 PHE793  MET794  SER795  GLU796  ALA797  LYS798  CYS799  TRP800  GLU811  SER814 

> <Gold.Protein.RotatedAtoms>
  150.9358  133.6713  159.2800 H   0  0  0  0  0  0  0  0  0  0  0  0  # atno 6907 bound_to 6896
  151.4119  135.0985  159.9597 H   0  0  0  0  0  0  0  0  0  0  0  0  # atno 6908 bound_to 6896
  152.5047  133.8829  159.7410 H   0  0  0  0  0  0  0  0  0  0  0  0  # atno 6909 bound_to 6896
  145.6250  139.2393  143.2117 H   0  0  0  0  0  0  0  0  0  0  0  0  # atno 7974 bound_to 7965
  156.0167  140.1252  157.0399 H   0  0  0  0  0  0  0  0  0  0  0  0  # atno 8008 bound_to 7997
  154.4296  140.1077  156.5975 H   0  0  0  0  0  0  0  0  0  0  0  0  # atno 8009 bound_to 7997
  155.6003  140.3470  155.4594 H   0  0  0  0  0  0  0  0  0  0  0  0  # atno 8010 bound_to 7997
  139.6418  144.7124  151.2222 H   0  0  0  0  0  0  0  0  0  0  0  0  # atno 10167 bound_to 10162
  156.2534  130.4190  149.8624 H   0  0  0  0  0  0  0  0  0  0  0  0  # atno 10718 bound_to 10713
  153.0158  135.5306  154.6886 H   0  0  0  0  0  0  0  0  0  0  0  0  # atno 10763 bound_to 10752
  154.6027  135.2870  155.0520 H   0  0  0  0  0  0  0  0  0  0  0  0  # atno 10764 bound_to 10752
  154.1571  135.6553  153.5029 H   0  0  0  0  0  0  0  0  0  0  0  0  # atno 10765 bound_to 10752
  140.0132  134.9430  157.0321 H   0  0  0  0  0  0  0  0  0  0  0  0  # atno 11005 bound_to 11000
  146.1401  140.7069  142.9371 LP  0  0  0  0  0  0  0  0  0  0  0  0  # atno 17320 bound_to 7965
  144.7216  140.4391  143.7004 LP  0  0  0  0  0  0  0  0  0  0  0  0  # atno 17321 bound_to 7965
  140.7495  143.6299  150.8433 LP  0  0  0  0  0  0  0  0  0  0  0  0  # atno 17342 bound_to 10162
  139.9937  143.5819  152.2901 LP  0  0  0  0  0  0  0  0  0  0  0  0  # atno 17343 bound_to 10162
  156.6164  130.8608  151.3466 LP  0  0  0  0  0  0  0  0  0  0  0  0  # atno 17370 bound_to 10713
  157.7223  130.9575  150.1489 LP  0  0  0  0  0  0  0  0  0  0  0  0  # atno 17371 bound_to 10713
  140.4517  134.1575  155.7182 LP  0  0  0  0  0  0  0  0  0  0  0  0  # atno 17394 bound_to 11000
  141.1725  133.8580  157.1526 LP  0  0  0  0  0  0  0  0  0  0  0  0  # atno 17395 bound_to 11000

$$$$
