AV-unprocessed.smi:2061|AV-procd|sdf|8369|dock10
  -GOLD-   2272011 43D 1   1.00000     0.00000
 Structure written by MMmdl.
 46 47  0  0  0  0  0  0  0  0  2 V2000
  153.1218  142.1490  160.1847 C   0  0  0  0  0  0  0  0  0  0  0  0
  152.3414  142.4956  158.9635 C   0  0  0  0  0  0  0  0  0  0  0  0
  151.4960  141.7783  158.1645 C   0  0  0  0  0  0  0  0  0  0  0  0
  151.1090  142.7241  157.1784 C   0  0  0  0  0  0  0  0  0  0  0  0
  150.2198  142.3650  156.1334 N   0  0  0  0  0  0  0  0  0  0  0  0
  149.8518  141.1265  155.7628 C   0  0  0  0  0  0  0  0  0  0  0  0
  150.2562  140.0817  156.2738 O   0  0  0  0  0  0  0  0  0  0  0  0
  148.9698  141.1584  154.7534 N   0  0  0  0  0  0  0  0  0  0  0  0
  148.3715  139.9782  154.1362 C   0  0  0  0  0  0  0  0  0  0  0  0
  147.1620  140.3151  153.2243 C   0  0  1  0  0  0  0  0  0  0  0  0
  146.7436  139.0668  152.4099 C   0  0  0  0  0  0  0  0  0  0  0  0
  146.0521  140.9032  154.0431 N   0  3  1  0  0  0  0  0  0  0  0  0
  145.8779  140.2000  155.3427 C   0  0  0  0  0  0  0  0  0  0  0  0
  144.6577  140.7293  156.1193 C   0  0  2  0  0  0  0  0  0  0  0  0
  143.3086  140.2927  155.5209 C   0  0  0  0  0  0  0  0  0  0  0  0
  144.7543  142.1430  156.2741 O   0  0  0  0  0  0  0  0  0  0  0  0
  144.8847  142.8641  155.0540 C   0  0  1  0  0  0  0  0  0  0  0  0
  144.9802  144.3549  155.3980 C   0  0  0  0  0  0  0  0  0  0  0  0
  146.1233  142.3699  154.2834 C   0  0  0  0  0  0  0  0  0  0  0  0
  151.6657  143.9118  157.3600 N   0  0  0  0  0  0  0  0  0  0  0  0
  152.4582  143.7714  158.5053 O   0  0  0  0  0  0  0  0  0  0  0  0
  152.9433  141.1151  160.4810 H   0  0  0  0  0  0  0  0  0  0  0  0
  152.8419  142.7931  161.0184 H   0  0  0  0  0  0  0  0  0  0  0  0
  154.1905  142.2696  160.0069 H   0  0  0  0  0  0  0  0  0  0  0  0
  151.2061  140.7437  158.2707 H   0  0  0  0  0  0  0  0  0  0  0  0
  149.8124  143.1341  155.6224 H   0  0  0  0  0  0  0  0  0  0  0  0
  148.6907  142.0579  154.3896 H   0  0  0  0  0  0  0  0  0  0  0  0
  149.1449  139.4807  153.5501 H   0  0  0  0  0  0  0  0  0  0  0  0
  148.1030  139.2805  154.9288 H   0  0  0  0  0  0  0  0  0  0  0  0
  147.4663  141.0703  152.4977 H   0  0  0  0  0  0  0  0  0  0  0  0
  147.5799  138.6553  151.8453 H   0  0  0  0  0  0  0  0  0  0  0  0
  145.9766  139.2995  151.6710 H   0  0  0  0  0  0  0  0  0  0  0  0
  146.3673  138.2747  153.0579 H   0  0  0  0  0  0  0  0  0  0  0  0
  145.7729  139.1253  155.2045 H   0  0  0  0  0  0  0  0  0  0  0  0
  146.7768  140.3450  155.9442 H   0  0  0  0  0  0  0  0  0  0  0  0
  144.7022  140.3149  157.1270 H   0  0  0  0  0  0  0  0  0  0  0  0
  143.2089  139.2074  155.5451 H   0  0  0  0  0  0  0  0  0  0  0  0
  143.1941  140.6033  154.4828 H   0  0  0  0  0  0  0  0  0  0  0  0
  142.4778  140.7113  156.0896 H   0  0  0  0  0  0  0  0  0  0  0  0
  143.9932  142.7179  154.4436 H   0  0  0  0  0  0  0  0  0  0  0  0
  145.0724  144.9618  154.4970 H   0  0  0  0  0  0  0  0  0  0  0  0
  145.8449  144.5605  156.0297 H   0  0  0  0  0  0  0  0  0  0  0  0
  144.0910  144.6894  155.9328 H   0  0  0  0  0  0  0  0  0  0  0  0
  147.0357  142.6059  154.8336 H   0  0  0  0  0  0  0  0  0  0  0  0
  146.1567  142.9164  153.3414 H   0  0  0  0  0  0  0  0  0  0  0  0
  145.2058  140.7550  153.5122 H   0  0  0  0  0  0  0  0  0  0  0  0
  1  2  1  0  0  0  0
  1 22  1  0  0  0  0
  1 23  1  0  0  0  0
  1 24  1  0  0  0  0
  2 21  1  0  0  0  0
  2  3  2  0  0  0  0
  3  4  1  0  0  0  0
  3 25  1  0  0  0  0
  4  5  1  0  0  0  0
  4 20  2  0  0  0  0
  5  6  1  0  0  0  0
  5 26  1  0  0  0  0
  6  7  2  0  0  0  0
  6  8  1  0  0  0  0
  8  9  1  0  0  0  0
  8 27  1  0  0  0  0
  9 10  1  0  0  0  0
  9 28  1  0  0  0  0
  9 29  1  0  0  0  0
 10 11  1  0  0  0  0
 10 12  1  0  0  0  0
 10 30  1  0  0  0  0
 11 31  1  0  0  0  0
 11 32  1  0  0  0  0
 11 33  1  0  0  0  0
 12 19  1  0  0  0  0
 12 13  1  0  0  0  0
 12 46  1  0  0  0  0
 13 14  1  0  0  0  0
 13 34  1  0  0  0  0
 13 35  1  0  0  0  0
 14 15  1  0  0  0  0
 14 16  1  0  0  0  0
 14 36  1  0  0  0  0
 15 37  1  0  0  0  0
 15 38  1  0  0  0  0
 15 39  1  0  0  0  0
 16 17  1  0  0  0  0
 17 18  1  0  0  0  0
 17 19  1  0  0  0  0
 17 40  1  0  0  0  0
 18 41  1  0  0  0  0
 18 42  1  0  0  0  0
 18 43  1  0  0  0  0
 19 44  1  0  0  0  0
 19 45  1  0  0  0  0
 20 21  1  0  0  0  0
M  CHG  1  12   1
M  END
> <s_m_source_file>
AV-unprocessed.smi

> <i_m_source_file_index>
2061

> <i_lp_mmshare_version>
43012

> <i_f3d_flags>
0

> <s_epik_input>
W0NIM11jMVtjSF1jKG5vMSlbTkhdQyg9TylbTkhdW0NIMl1bQ0BIXShbQ0gzXSlOMltDSDJdW0NAQEhdKFtDSDNdKU9bQ0BASF0oW0NIM10pW0NIMl0y

> <s_epik_cmdline>
J2VwaWtfcHl0aG9uJywgJy1waCcsICc3LjAnLCAnLXRuJywgJzgnLCAnLW1hJywgJzIwMCcsICctbWV0YWxfYmluZGluZycsICctaW1hZScsICc8aW5maWxlLm1hZT4nLCAnLW9tYWUnLCAnPG91dGZpbGUubWFlPic=

> <r_epik_Ionization_Penalty>
0.707076

> <r_epik_Ionization_Penalty_Charging>
0.707039

> <r_epik_Ionization_Penalty_Neutral>
3.6548e-05

> <r_epik_State_Penalty>
0.730276

> <r_epik_Charging_Adjusted_Penalty>
1.43732

> <i_epik_Tot_Q>
1

> <i_epik_Tot_abs_Q>
1

> <r_epik_Metal_State_Penalty>
0.743132

> <b_epik_Metal_Only>
0

> <s_lp_Force_Field>
OPLS_2005

> <r_lp_Energy>
19.7872

> <b_lp_Chiralities_Consistent>
1

> <s_lp_Variant>
AV-unprocessed.smi:2061-10

> <Gold.Version>
5.8.1

> <Gold.Id.Protein>
6NUR|6NUR_protein|mol2

> <Gold.PLP.Fitness>
41.1785

> <Gold.PLP.PLP>
-33.4781

> <Gold.PLP.part.hbond>
-2.0000

> <Gold.PLP.part.metal>
0.0000

> <Gold.PLP.part.buried>
-4.7219

> <Gold.PLP.part.nonpolar>
-27.1304

> <Gold.PLP.part.repulsive>
0.4753

> <Gold.PLP.ligand.clash>
0.0000

> <Gold.PLP.ligand.torsion>
0.6730

> <Gold.PLP.Chemscore.Hbond>
3.0000

> <Gold.PLP.Chemscore.CHOScore>
0.0000

> <Gold.PLP.Chemscore.Metal>
0.0000

> <Gold.Chemscore.Hbonds>
donor molecule, donor type, donor heavy atom, donor atom, acceptor molecule, acceptor atom, score
      L1  H     5    26       P1  8028  0.98
      L1  H    12    46       P1 10175  2.00

> <Gold.PLP.Chemscore.Internal.Correction>
0.0465

> <Gold.Rescore>
     Score         DG    S(hbond)    S(metal)    S(lipo)     H(rot)  DE(clash)    DE(int)     intcor
     14.03     -16.11       1.94        0.00      70.11       1.58       0.03       2.05       ----

> <Gold.Chemscore.Fitness>
14.0323

> <Gold.Chemscore.DG>
-16.1142

> <Gold.Chemscore.ZeroCoef>
-5.4800

> <Gold.Chemscore.Hbond>
1.9417

> <Gold.Chemscore.Metal>
0.0000

> <Gold.Chemscore.Lipo>
70.1053

> <Gold.Chemscore.Internal_Hbond>
0.0000

> <Gold.Chemscore.DEClash>
0.0299

> <Gold.Chemscore.DEInternal>
2.0520

> <Gold.Chemscore.Rot>
1.5834

> <Gold.Chemscore.Internal.Correction>
   9.000000E+99

> <Gold.Chemscore.Hbonds>
donor molecule, donor type, donor heavy atom, donor atom, acceptor molecule, acceptor atom, score
      L1  H     5    26       P1  8028  0.93
      L1  H    12    46       P1 10175  0.91

> <Gold.Chemscore.Hbond.Weighted>
-6.4854

> <Gold.Chemscore.Metal.Weighted>
-0.0000

> <Gold.Chemscore.Lipo.Weighted>
-8.2023

> <Gold.Chemscore.Internal_Hbond.Weighted>
0.0000

> <Gold.Chemscore.DEClash.Weighted>
0.0299

> <Gold.Chemscore.DEInternal.Weighted>
2.0520

> <Gold.Chemscore.Rot.Weighted>
4.0535

> <Gold.Chemscore.Internal.Correction.Weighted>
   9.000000E+99

> <Gold.Protein.RotatedTorsions>
[ 6907 6896 6895 6894 ] final -130.94 input  -60.11 | X-H torsion
[ 7974 7965 7964 7962 ] final -175.37 input  175.53 | X-H torsion
[ 8008 7997 7996 7995 ] final -103.89 input   59.86 | X-H torsion
[ 10167 10162 10161 10158 ] final  113.35 input  -65.29 | X-H torsion
[ 10718 10713 10712 10709 ] final  -71.82 input   66.30 | X-H torsion
[ 10763 10752 10751 10750 ] final  124.65 input  -60.55 | X-H torsion
[ 11005 11000 10999 10996 ] final  -37.66 input  -57.11 | X-H torsion

> <Gold.Protein.ActiveResidues>
 VAL166  LYS551  ARG553  GLY616  TRP617  ASP618  TYR619  PRO620  LYS621  CYS622 
 ASP623  PHE694  ASN695  SER759  ASP760  ASP761  ALA762  ILE779  LEU786  VAL792 
 PHE793  MET794  SER795  GLU796  ALA797  LYS798  CYS799  TRP800  GLU811  SER814 

> <Gold.Protein.RotatedAtoms>
  150.9453  133.6610  159.2782 H   0  0  0  0  0  0  0  0  0  0  0  0  # atno 6907 bound_to 6896
  151.3985  135.0966  159.9558 H   0  0  0  0  0  0  0  0  0  0  0  0  # atno 6908 bound_to 6896
  152.5087  133.8952  159.7468 H   0  0  0  0  0  0  0  0  0  0  0  0  # atno 6909 bound_to 6896
  144.7128  140.1331  143.6397 H   0  0  0  0  0  0  0  0  0  0  0  0  # atno 7974 bound_to 7965
  154.8774  140.0420  157.1761 H   0  0  0  0  0  0  0  0  0  0  0  0  # atno 8008 bound_to 7997
  154.8675  140.2953  155.5480 H   0  0  0  0  0  0  0  0  0  0  0  0  # atno 8009 bound_to 7997
  156.2999  140.2435  156.3659 H   0  0  0  0  0  0  0  0  0  0  0  0  # atno 8010 bound_to 7997
  139.6468  144.7127  151.2127 H   0  0  0  0  0  0  0  0  0  0  0  0  # atno 10167 bound_to 10162
  156.0346  130.4359  150.2501 H   0  0  0  0  0  0  0  0  0  0  0  0  # atno 10718 bound_to 10713
  153.6648  135.3340  155.3137 H   0  0  0  0  0  0  0  0  0  0  0  0  # atno 10763 bound_to 10752
  154.8506  135.4372  154.1767 H   0  0  0  0  0  0  0  0  0  0  0  0  # atno 10764 bound_to 10752
  153.2743  135.7003  153.7525 H   0  0  0  0  0  0  0  0  0  0  0  0  # atno 10765 bound_to 10752
  140.9969  133.6975  156.1950 H   0  0  0  0  0  0  0  0  0  0  0  0  # atno 11005 bound_to 11000
  145.9269  139.2581  143.1348 LP  0  0  0  0  0  0  0  0  0  0  0  0  # atno 17320 bound_to 7965
  145.9563  140.8870  143.0233 LP  0  0  0  0  0  0  0  0  0  0  0  0  # atno 17321 bound_to 7965
  140.7518  143.6218  150.8506 LP  0  0  0  0  0  0  0  0  0  0  0  0  # atno 17342 bound_to 10162
  139.9861  143.5897  152.2926 LP  0  0  0  0  0  0  0  0  0  0  0  0  # atno 17343 bound_to 10162
  157.0601  131.0087  151.3225 LP  0  0  0  0  0  0  0  0  0  0  0  0  # atno 17370 bound_to 10713
  157.5077  130.7919  149.7671 LP  0  0  0  0  0  0  0  0  0  0  0  0  # atno 17371 bound_to 10713
  140.6952  134.4623  157.5588 LP  0  0  0  0  0  0  0  0  0  0  0  0  # atno 17394 bound_to 11000
  139.9019  134.8536  156.1861 LP  0  0  0  0  0  0  0  0  0  0  0  0  # atno 17395 bound_to 11000

$$$$
