AV-unprocessed.smi:1982|AV-procd|sdf|8023|dock3
  -GOLD-   2272010213D 1   1.00000     0.00000
 Structure written by MMmdl.
 36 37  0  0  0  0  0  0  0  0  1 V2000
  152.0536  143.6772  161.1352 C   0  0  0  0  0  0  0  0  0  0  0  0
  153.0839  143.3397  160.0378 C   0  0  1  0  0  0  0  0  0  0  0  0
  153.8205  142.0179  160.3374 C   0  0  0  0  0  0  0  0  0  0  0  0
  152.9242  140.7893  160.1162 C   0  0  0  0  0  0  0  0  0  0  0  0
  152.3463  140.7727  158.6943 C   0  0  0  0  0  0  0  0  0  0  0  0
  151.5971  142.0795  158.3640 C   0  0  2  0  0  0  0  0  0  0  0  0
  151.1437  142.0467  156.9763 N   0  0  0  0  0  0  0  0  0  0  0  0
  150.2943  141.1510  156.4497 C   0  0  0  0  0  0  0  0  0  0  0  0
  149.8393  140.1937  157.0747 O   0  0  0  0  0  0  0  0  0  0  0  0
  149.8882  141.3768  154.9930 C   0  0  0  0  0  0  0  0  0  0  0  0
  148.4436  141.4279  154.8602 N   0  0  0  0  0  0  0  0  0  0  0  0
  147.6558  141.2925  153.7915 C   0  0  0  0  0  0  0  0  0  0  0  0
  146.3748  141.3868  154.1140 N   0  0  0  0  0  0  0  0  0  0  0  0
  146.4089  141.5951  155.4828 N   0  0  0  0  0  0  0  0  0  0  0  0
  147.6337  141.6205  155.9314 N   0  0  0  0  0  0  0  0  0  0  0  0
  152.4984  143.3188  158.6004 C   0  0  1  0  0  0  0  0  0  0  0  0
  151.8069  144.6455  158.2255 C   0  0  0  0  0  0  0  0  0  0  0  0
  151.2247  142.9705  161.1543 H   0  0  0  0  0  0  0  0  0  0  0  0
  151.6349  144.6738  160.9991 H   0  0  0  0  0  0  0  0  0  0  0  0
  152.5188  143.6621  162.1210 H   0  0  0  0  0  0  0  0  0  0  0  0
  153.8338  144.1313  160.0718 H   0  0  0  0  0  0  0  0  0  0  0  0
  154.6946  141.9400  159.6893 H   0  0  0  0  0  0  0  0  0  0  0  0
  154.2035  142.0207  161.3585 H   0  0  0  0  0  0  0  0  0  0  0  0
  153.4973  139.8784  160.2914 H   0  0  0  0  0  0  0  0  0  0  0  0
  152.1120  140.7820  160.8433 H   0  0  0  0  0  0  0  0  0  0  0  0
  153.1576  140.6236  157.9801 H   0  0  0  0  0  0  0  0  0  0  0  0
  151.6779  139.9180  158.5832 H   0  0  0  0  0  0  0  0  0  0  0  0
  150.7265  142.1591  159.0172 H   0  0  0  0  0  0  0  0  0  0  0  0
  151.4658  142.7952  156.3796 H   0  0  0  0  0  0  0  0  0  0  0  0
  150.3225  142.3080  154.6250 H   0  0  0  0  0  0  0  0  0  0  0  0
  150.2692  140.5697  154.3660 H   0  0  0  0  0  0  0  0  0  0  0  0
  148.0174  141.1194  152.7887 H   0  0  0  0  0  0  0  0  0  0  0  0
  153.3510  143.2238  157.9258 H   0  0  0  0  0  0  0  0  0  0  0  0
  150.8660  144.7733  158.7611 H   0  0  0  0  0  0  0  0  0  0  0  0
  151.5830  144.6938  157.1593 H   0  0  0  0  0  0  0  0  0  0  0  0
  152.4435  145.4994  158.4579 H   0  0  0  0  0  0  0  0  0  0  0  0
  1  2  1  0  0  0  0
  1 18  1  0  0  0  0
  1 19  1  0  0  0  0
  1 20  1  0  0  0  0
  2 16  1  0  0  0  0
  2  3  1  0  0  0  0
  2 21  1  0  0  0  0
  3  4  1  0  0  0  0
  3 22  1  0  0  0  0
  3 23  1  0  0  0  0
  4  5  1  0  0  0  0
  4 24  1  0  0  0  0
  4 25  1  0  0  0  0
  5  6  1  0  0  0  0
  5 26  1  0  0  0  0
  5 27  1  0  0  0  0
  6  7  1  0  0  0  0
  6 16  1  0  0  0  0
  6 28  1  0  0  0  0
  7  8  1  0  0  0  0
  7 29  1  0  0  0  0
  8  9  2  0  0  0  0
  8 10  1  0  0  0  0
 10 11  1  0  0  0  0
 10 30  1  0  0  0  0
 10 31  1  0  0  0  0
 11 15  1  0  0  0  0
 11 12  1  0  0  0  0
 12 13  2  0  0  0  0
 12 32  1  0  0  0  0
 13 14  1  0  0  0  0
 14 15  2  0  0  0  0
 16 17  1  0  0  0  0
 16 33  1  0  0  0  0
 17 34  1  0  0  0  0
 17 35  1  0  0  0  0
 17 36  1  0  0  0  0
M  END
> <s_m_source_file>
AV-unprocessed.smi

> <i_m_source_file_index>
1982

> <i_lp_mmshare_version>
43012

> <i_f3d_flags>
0

> <s_epik_input>
W0NIM11bQ0BASF0xW0NIMl1bQ0gyXVtDSDJdW0NASF0oW0NASF0xW0NIM10pW05IXUMoPU8pW0NIMl1uMltjSF1ubm4y

> <s_epik_cmdline>
J2VwaWtfcHl0aG9uJywgJy1waCcsICc3LjAnLCAnLXRuJywgJzgnLCAnLW1hJywgJzIwMCcsICctbWV0YWxfYmluZGluZycsICctaW1hZScsICc8aW5maWxlLm1hZT4nLCAnLW9tYWUnLCAnPG91dGZpbGUubWFlPic=

> <r_lp_tautomer_probability>
1

> <r_epik_Ionization_Penalty>
5.03816e-07

> <r_epik_Ionization_Penalty_Charging>
0

> <r_epik_Ionization_Penalty_Neutral>
5.03816e-07

> <r_epik_State_Penalty>
-0

> <r_epik_Charging_Adjusted_Penalty>
0

> <i_epik_Tot_Q>
0

> <i_epik_Tot_abs_Q>
0

> <r_epik_Metal_State_Penalty>
-0

> <b_epik_Metal_Only>
0

> <s_lp_Force_Field>
OPLS_2005

> <r_lp_Energy>
15.2513

> <b_lp_Chiralities_Consistent>
1

> <s_lp_Variant>
AV-unprocessed.smi:1982-4

> <Gold.Version>
5.8.1

> <Gold.Id.Protein>
6NUR|6NUR_protein|mol2

> <Gold.PLP.Fitness>
38.5372

> <Gold.PLP.PLP>
-36.0788

> <Gold.PLP.part.hbond>
0.0000

> <Gold.PLP.part.metal>
0.0000

> <Gold.PLP.part.buried>
-3.8409

> <Gold.PLP.part.nonpolar>
-32.5685

> <Gold.PLP.part.repulsive>
0.4692

> <Gold.PLP.ligand.clash>
0.0000

> <Gold.PLP.ligand.torsion>
0.2684

> <Gold.PLP.Chemscore.Hbond>
0.0000

> <Gold.PLP.Chemscore.CHOScore>
0.9953

> <Gold.PLP.Chemscore.Metal>
0.0000

> <Gold.Chemscore.Hbonds>
donor molecule, donor type, donor heavy atom, donor atom, acceptor molecule, acceptor atom, score
      L1  C    12    32       P1  7957  1.00

> <Gold.PLP.Chemscore.Internal.Correction>
0.0092

> <Gold.Rescore>
     Score         DG    S(hbond)    S(metal)    S(lipo)     H(rot)  DE(clash)    DE(int)     intcor
     10.28     -11.82       0.00        0.00      95.90       1.91       0.01       1.53       ----

> <Gold.Chemscore.Fitness>
10.2835

> <Gold.Chemscore.DG>
-11.8219

> <Gold.Chemscore.ZeroCoef>
-5.4800

> <Gold.Chemscore.Hbond>
0.0000

> <Gold.Chemscore.Metal>
0.0000

> <Gold.Chemscore.Lipo>
95.9037

> <Gold.Chemscore.Internal_Hbond>
0.0000

> <Gold.Chemscore.DEClash>
0.0104

> <Gold.Chemscore.DEInternal>
1.5281

> <Gold.Chemscore.Rot>
1.9058

> <Gold.Chemscore.Internal.Correction>
   9.000000E+99

> <Gold.Chemscore.Hbond.Weighted>
-0.0000

> <Gold.Chemscore.Metal.Weighted>
-0.0000

> <Gold.Chemscore.Lipo.Weighted>
-11.2207

> <Gold.Chemscore.Internal_Hbond.Weighted>
0.0000

> <Gold.Chemscore.DEClash.Weighted>
0.0104

> <Gold.Chemscore.DEInternal.Weighted>
1.5281

> <Gold.Chemscore.Rot.Weighted>
4.8788

> <Gold.Chemscore.Internal.Correction.Weighted>
   9.000000E+99

> <Gold.Protein.RotatedTorsions>
[ 6907 6896 6895 6894 ] final   22.03 input  -60.11 | X-H torsion
[ 7974 7965 7964 7962 ] final -166.90 input  175.53 | X-H torsion
[ 8008 7997 7996 7995 ] final -159.36 input   59.86 | X-H torsion
[ 10167 10162 10161 10158 ] final  -22.74 input  -65.29 | X-H torsion
[ 10718 10713 10712 10709 ] final    9.53 input   66.30 | X-H torsion
[ 10763 10752 10751 10750 ] final -169.99 input  -60.55 | X-H torsion
[ 11005 11000 10999 10996 ] final   35.61 input  -57.11 | X-H torsion

> <Gold.Protein.ActiveResidues>
 VAL166  LYS551  ARG553  GLY616  TRP617  ASP618  TYR619  PRO620  LYS621  CYS622 
 ASP623  PHE694  ASN695  SER759  ASP760  ASP761  ALA762  ILE779  LEU786  VAL792 
 PHE793  MET794  SER795  GLU796  ALA797  LYS798  CYS799  TRP800  GLU811  SER814 

> <Gold.Protein.RotatedAtoms>
  151.9209  135.0298  160.0521 H   0  0  0  0  0  0  0  0  0  0  0  0  # atno 6907 bound_to 6896
  152.2200  133.4971  159.5165 H   0  0  0  0  0  0  0  0  0  0  0  0  # atno 6908 bound_to 6896
  150.6997  134.1272  159.4099 H   0  0  0  0  0  0  0  0  0  0  0  0  # atno 6909 bound_to 6896
  144.7235  140.2599  143.6266 H   0  0  0  0  0  0  0  0  0  0  0  0  # atno 7974 bound_to 7965
  155.7613  140.0839  157.2153 H   0  0  0  0  0  0  0  0  0  0  0  0  # atno 8008 bound_to 7997
  154.4003  140.1542  156.2893 H   0  0  0  0  0  0  0  0  0  0  0  0  # atno 8009 bound_to 7997
  155.8836  140.3419  155.5908 H   0  0  0  0  0  0  0  0  0  0  0  0  # atno 8010 bound_to 7997
  140.7286  143.4507  151.0521 H   0  0  0  0  0  0  0  0  0  0  0  0  # atno 10167 bound_to 10162
  156.9677  130.5957  149.5666 H   0  0  0  0  0  0  0  0  0  0  0  0  # atno 10718 bound_to 10713
  154.6463  135.2905  155.0042 H   0  0  0  0  0  0  0  0  0  0  0  0  # atno 10763 bound_to 10752
  154.1150  135.6556  153.4896 H   0  0  0  0  0  0  0  0  0  0  0  0  # atno 10764 bound_to 10752
  153.0353  135.5274  154.7352 H   0  0  0  0  0  0  0  0  0  0  0  0  # atno 10765 bound_to 10752
  140.2410  134.3415  155.7926 H   0  0  0  0  0  0  0  0  0  0  0  0  # atno 11005 bound_to 11000
  145.8146  139.2018  143.1973 LP  0  0  0  0  0  0  0  0  0  0  0  0  # atno 17320 bound_to 7965
  146.0566  140.8014  142.9755 LP  0  0  0  0  0  0  0  0  0  0  0  0  # atno 17321 bound_to 7965
  139.8183  143.7856  152.3175 LP  0  0  0  0  0  0  0  0  0  0  0  0  # atno 17342 bound_to 10162
  139.7929  144.7403  150.9930 LP  0  0  0  0  0  0  0  0  0  0  0  0  # atno 17343 bound_to 10162
  156.0296  130.5388  150.8498 LP  0  0  0  0  0  0  0  0  0  0  0  0  # atno 17370 bound_to 10713
  157.5614  131.0946  150.9553 LP  0  0  0  0  0  0  0  0  0  0  0  0  # atno 17371 bound_to 10713
  141.2210  133.7298  156.8885 LP  0  0  0  0  0  0  0  0  0  0  0  0  # atno 17394 bound_to 11000
  140.1654  134.9137  157.2767 LP  0  0  0  0  0  0  0  0  0  0  0  0  # atno 17395 bound_to 11000

$$$$
