#       Name:                AV-unprocessed.smi:1748
#       Creating user name   scv26
#       Creation time:       Fri Mar 27 08:25:32 2020


#       File generated by GOLD software.
#

@<TRIPOS>MOLECULE
AV-unprocessed.smi:1748
    44    45     1
SMALL
NO_CHARGES


@<TRIPOS>ATOM
      1 ****        -3.7912  -2.0058  -2.3362 C.3            1 S1                 0.0000
      2 ****        -3.4468  -1.5815  -0.9622 N.4            1 S1                 1.0000
      3 ****        -4.0236  -2.4798   0.0691 C.3            1 S1                 0.0000
      4 ****        -3.7556  -1.9385   1.4833 C.3            1 S1                 0.0000
      5 ****        -2.2539  -1.7205   1.7157 C.3            1 S1                 0.0000
      6 ****        -1.6739  -0.8138   0.6179 C.3            1 S1                 0.0000
      7 ****        -0.2346  -0.6623   0.8082 N.am           1 S1                 0.0000
      8 ****         0.5072   0.3405   0.3169 C.2            1 S1                 0.0000
      9 ****         0.0394   1.2481  -0.3702 O.2            1 S1                 0.0000
     10 ****         1.8001   0.1947   0.6598 N.am           1 S1                 0.0000
     11 ****         2.8948   1.0295   0.3779 C.2            1 S1                 0.0000
     12 ****         2.8018   2.3224  -0.0299 C.2            1 S1                 0.0000
     13 ****         3.9784   3.1351  -0.2918 C.2            1 S1                 0.0000
     14 ****         3.8683   4.5988  -0.6905 C.3            1 S1                 0.0000
     15 ****         4.8693   5.3134  -0.1745 F              1 S1                 0.0000
     16 ****         3.9195   4.7118  -2.0169 F              1 S1                 0.0000
     17 ****         2.7182   5.1277  -0.2722 F              1 S1                 0.0000
     18 ****         5.1714   2.5490  -0.0815 C.2            1 S1                 0.0000
     19 ****         5.2758   1.2203   0.3358 N.am           1 S1                 0.0000
     20 ****         4.2176   0.4166   0.5842 C.2            1 S1                 0.0000
     21 ****         4.3921  -0.7436   0.9556 O.2            1 S1                 0.0000
     22 ****        -1.9865  -1.3911  -0.7793 C.3            1 S1                 0.0000
     23 ****         6.2071   0.8505   0.4620 H              1 S1                 0.0000
     24 ****        -3.3639  -2.9834  -2.5629 H              1 S1                 0.0000
     25 ****        -3.4137  -1.2894  -3.0665 H              1 S1                 0.0000
     26 ****        -4.8728  -2.0673  -2.4606 H              1 S1                 0.0000
     27 ****        -5.0991  -2.5730  -0.0870 H              1 S1                 0.0000
     28 ****        -3.5994  -3.4795  -0.0377 H              1 S1                 0.0000
     29 ****        -4.2878  -0.9963   1.6219 H              1 S1                 0.0000
     30 ****        -4.1512  -2.6293   2.2283 H              1 S1                 0.0000
     31 ****        -2.0901  -1.2781   2.6993 H              1 S1                 0.0000
     32 ****        -1.7410  -2.6836   1.7161 H              1 S1                 0.0000
     33 ****        -2.1426   0.1685   0.7074 H              1 S1                 0.0000
     34 ****         0.2295  -1.3694   1.3599 H              1 S1                 0.0000
     35 ****         2.0375  -0.6456   1.1670 H              1 S1                 0.0000
     36 ****         1.8423   2.7956  -0.1582 H              1 S1                 0.0000
     37 ****         6.1227   3.0444  -0.2093 H              1 S1                 0.0000
     38 ****        -1.4741  -2.3444  -0.9214 H              1 S1                 0.0000
     39 ****        -1.6171  -0.7148  -1.5516 H              1 S1                 0.0000
     40 ****        -3.8731  -0.6757  -0.8271 H              1 S1                 0.0000
     41 ****        -0.9371   1.2598  -0.5855 LP             1 S1                 0.0000
     42 ****         0.6357   1.9739  -0.7131 LP             1 S1                 0.0000
     43 ****         3.6057  -1.3340   1.1375 LP             1 S1                 0.0000
     44 ****         5.3202  -1.0960   1.0756 LP             1 S1                 0.0000
@<TRIPOS>BOND
    1    1    2 1     
    2    1   24 1     
    3    1   25 1     
    4    1   26 1     
    5    2   22 1     
    6    2    3 1     
    7    2   40 1     
    8    3    4 1     
    9    3   27 1     
   10    3   28 1     
   11    4    5 1     
   12    4   29 1     
   13    4   30 1     
   14    5    6 1     
   15    5   31 1     
   16    5   32 1     
   17    6    7 1     
   18    6   22 1     
   19    6   33 1     
   20    7    8 am    
   21    7   34 1     
   22    8    9 2     
   23    8   10 am    
   24   10   11 1     
   25   10   35 1     
   26   11   20 1     
   27   11   12 2     
   28   12   13 1     
   29   12   36 1     
   30   13   14 1     
   31   13   18 2     
   32   14   15 1     
   33   14   16 1     
   34   14   17 1     
   35   18   19 1     
   36   18   37 1     
   37   19   23 1     
   38   19   20 am    
   39   20   21 2     
   40   22   38 1     
   41   22   39 1     
   42    9   41 1     
   43    9   42 1     
   44   21   43 1     
   45   21   44 1     
@<TRIPOS>SUBSTRUCTURE
      1 S1             1
@<TRIPOS>SET
LONE_PAIRS      STATIC     ATOMS    <user>   **** ""
4 41 42 43 44
DONOR_HYDROGENS      STATIC     ATOMS    <user>   **** ""
4 40 34 35 23
ATOM$BLUE        STATIC     ATOMS    COLORGROUP SYSTEM
4 41 42 43 44
ATOM$RED        STATIC     ATOMS    COLORGROUP SYSTEM
4 40 34 35 23
