AV-unprocessed.smi:258|AV-procd|sdf|1967|dock2
  -GOLD-   2262021123D 1   1.00000     0.00000
 Structure written by MMmdl.
 57 60  0  0  0  0  0  0  0  0  1 V2000
  149.9747  144.3735  161.8482 O   0  0  0  0  0  0  0  0  0  0  0  0
  149.7780  144.9913  160.5940 C   0  0  0  0  0  0  0  0  0  0  0  0
  151.1288  145.3020  159.9376 C   0  0  0  0  0  0  0  0  0  0  0  0
  151.4036  144.3113  158.9576 O   0  0  0  0  0  0  0  0  0  0  0  0
  151.7783  143.0449  159.4837 C   0  0  2  0  0  0  0  0  0  0  0  0
  153.1282  143.1230  160.2239 C   0  0  0  0  0  0  0  0  0  0  0  0
  153.5777  141.7188  160.6538 C   0  0  0  0  0  0  0  0  0  0  0  0
  153.6348  140.7621  159.4521 C   0  0  0  0  0  0  0  0  0  0  0  0
  152.3647  140.7598  158.7237 N   0  0  0  0  0  0  0  0  0  0  0  0
  152.1393  139.6843  157.9240 C   0  0  0  0  0  0  0  0  0  0  0  0
  152.7121  139.6963  156.6917 N   0  0  0  0  0  0  0  0  0  0  0  0
  152.5440  138.6706  155.8533 C   0  0  0  0  0  0  0  0  0  0  0  0
  151.8516  137.5466  156.0399 N   0  0  0  0  0  0  0  0  0  0  0  0
  151.2687  137.5240  157.2719 C   0  0  0  0  0  0  0  0  0  0  0  0
  151.3576  138.5393  158.2688 C   0  0  0  0  0  0  0  0  0  0  0  0
  150.6167  138.1577  159.3837 N   0  0  0  0  0  0  0  0  0  0  0  0
  150.1319  136.9884  159.0699 C   0  0  0  0  0  0  0  0  0  0  0  0
  150.4805  136.5280  157.8224 N   0  0  0  0  0  0  0  0  0  0  0  0
  150.0817  135.2641  157.2268 C   0  0  0  0  0  0  0  0  0  0  0  0
  149.0370  135.4268  156.0955 C   0  0  1  0  0  0  0  0  0  0  0  0
  149.5397  136.4308  155.0315 C   0  0  0  0  0  0  0  0  0  0  0  0
  150.7388  135.9712  154.4431 O   0  0  0  0  0  0  0  0  0  0  0  0
  148.5873  134.0628  155.4997 C   0  0  2  0  0  0  0  0  0  0  0  0
  149.6964  133.1855  154.9270 C   0  0  0  0  0  0  0  0  0  0  0  0
  148.9632  132.3903  153.8566 C   0  0  0  0  0  0  0  0  0  0  0  0
  148.0943  133.3585  153.2937 O   0  0  0  0  0  0  0  0  0  0  0  0
  147.5639  134.1477  154.3528 C   0  0  0  0  0  0  0  0  0  0  0  0
  151.8769  142.0704  158.2968 C   0  0  0  0  0  0  0  0  0  0  0  0
  149.1543  144.3780  162.3173 H   0  0  0  0  0  0  0  0  0  0  0  0
  149.2161  144.2962  159.9697 H   0  0  0  0  0  0  0  0  0  0  0  0
  149.1718  145.8915  160.7015 H   0  0  0  0  0  0  0  0  0  0  0  0
  151.1350  146.3093  159.5203 H   0  0  0  0  0  0  0  0  0  0  0  0
  151.9086  145.2629  160.6995 H   0  0  0  0  0  0  0  0  0  0  0  0
  151.0051  142.6797  160.1626 H   0  0  0  0  0  0  0  0  0  0  0  0
  153.8817  143.5669  159.5722 H   0  0  0  0  0  0  0  0  0  0  0  0
  153.0569  143.7643  161.1018 H   0  0  0  0  0  0  0  0  0  0  0  0
  154.5538  141.7689  161.1369 H   0  0  0  0  0  0  0  0  0  0  0  0
  152.8831  141.3260  161.3974 H   0  0  0  0  0  0  0  0  0  0  0  0
  154.4266  141.0713  158.7686 H   0  0  0  0  0  0  0  0  0  0  0  0
  153.8988  139.7653  159.8057 H   0  0  0  0  0  0  0  0  0  0  0  0
  153.0362  138.7634  154.8964 H   0  0  0  0  0  0  0  0  0  0  0  0
  149.5056  136.4237  159.7453 H   0  0  0  0  0  0  0  0  0  0  0  0
  150.9833  134.7825  156.8470 H   0  0  0  0  0  0  0  0  0  0  0  0
  149.6936  134.6114  158.0094 H   0  0  0  0  0  0  0  0  0  0  0  0
  148.1431  135.8632  156.5448 H   0  0  0  0  0  0  0  0  0  0  0  0
  148.7993  136.5768  154.2454 H   0  0  0  0  0  0  0  0  0  0  0  0
  149.7399  137.4099  155.4645 H   0  0  0  0  0  0  0  0  0  0  0  0
  150.7117  136.1615  153.5176 H   0  0  0  0  0  0  0  0  0  0  0  0
  148.0961  133.4860  156.2840 H   0  0  0  0  0  0  0  0  0  0  0  0
  150.4778  133.7794  154.4551 H   0  0  0  0  0  0  0  0  0  0  0  0
  150.1661  132.5481  155.6761 H   0  0  0  0  0  0  0  0  0  0  0  0
  149.6350  131.9674  153.1095 H   0  0  0  0  0  0  0  0  0  0  0  0
  148.3793  131.5811  154.2984 H   0  0  0  0  0  0  0  0  0  0  0  0
  146.6063  133.7305  154.6676 H   0  0  0  0  0  0  0  0  0  0  0  0
  147.3751  135.1633  154.0065 H   0  0  0  0  0  0  0  0  0  0  0  0
  150.8936  141.9730  157.8349 H   0  0  0  0  0  0  0  0  0  0  0  0
  152.5545  142.4731  157.5430 H   0  0  0  0  0  0  0  0  0  0  0  0
  1  2  1  0  0  0  0
  1 29  1  0  0  0  0
  2  3  1  0  0  0  0
  2 30  1  0  0  0  0
  2 31  1  0  0  0  0
  3  4  1  0  0  0  0
  3 32  1  0  0  0  0
  3 33  1  0  0  0  0
  4  5  1  0  0  0  0
  5 28  1  0  0  0  0
  5  6  1  0  0  0  0
  5 34  1  0  0  0  0
  6  7  1  0  0  0  0
  6 35  1  0  0  0  0
  6 36  1  0  0  0  0
  7  8  1  0  0  0  0
  7 37  1  0  0  0  0
  7 38  1  0  0  0  0
  8  9  1  0  0  0  0
  8 39  1  0  0  0  0
  8 40  1  0  0  0  0
  9 10  1  0  0  0  0
  9 28  1  0  0  0  0
 10 15  1  0  0  0  0
 10 11  2  0  0  0  0
 11 12  1  0  0  0  0
 12 13  2  0  0  0  0
 12 41  1  0  0  0  0
 13 14  1  0  0  0  0
 14 18  1  0  0  0  0
 14 15  2  0  0  0  0
 15 16  1  0  0  0  0
 16 17  2  0  0  0  0
 17 18  1  0  0  0  0
 17 42  1  0  0  0  0
 18 19  1  0  0  0  0
 19 20  1  0  0  0  0
 19 43  1  0  0  0  0
 19 44  1  0  0  0  0
 20 21  1  0  0  0  0
 20 23  1  0  0  0  0
 20 45  1  0  0  0  0
 21 22  1  0  0  0  0
 21 46  1  0  0  0  0
 21 47  1  0  0  0  0
 22 48  1  0  0  0  0
 23 27  1  0  0  0  0
 23 24  1  0  0  0  0
 23 49  1  0  0  0  0
 24 25  1  0  0  0  0
 24 50  1  0  0  0  0
 24 51  1  0  0  0  0
 25 26  1  0  0  0  0
 25 52  1  0  0  0  0
 25 53  1  0  0  0  0
 26 27  1  0  0  0  0
 27 54  1  0  0  0  0
 27 55  1  0  0  0  0
 28 56  1  0  0  0  0
 28 57  1  0  0  0  0
M  END
> <s_m_source_file>
AV-unprocessed.smi

> <i_m_source_file_index>
258

> <i_lp_mmshare_version>
43012

> <i_f3d_flags>
0

> <s_epik_input>
W09IXVtDSDJdW0NIMl1PW0NAQEhdMVtDSDJdW0NIMl1bQ0gyXU4oW0NIMl0xKWMobltjSF1uMiljKGMyMyluW2NIXW4zW0NIMl1bQ0BIXShbQ0gyXVtPSF0pW0NAQEhdNFtDSDJdW0NIMl1PW0NIMl00

> <s_epik_cmdline>
J2VwaWtfcHl0aG9uJywgJy1waCcsICc3LjAnLCAnLXRuJywgJzgnLCAnLW1hJywgJzIwMCcsICctbWV0YWxfYmluZGluZycsICctaW1hZScsICc8aW5maWxlLm1hZT4nLCAnLW9tYWUnLCAnPG91dGZpbGUubWFlPic=

> <r_lp_tautomer_probability>
1

> <r_epik_Ionization_Penalty>
0.00349036

> <r_epik_Ionization_Penalty_Charging>
0

> <r_epik_Ionization_Penalty_Neutral>
0.00349036

> <r_epik_State_Penalty>
0.00229798

> <r_epik_Charging_Adjusted_Penalty>
0.00229798

> <i_epik_Tot_Q>
0

> <i_epik_Tot_abs_Q>
0

> <r_epik_Metal_State_Penalty>
-0

> <b_epik_Metal_Only>
0

> <s_lp_Force_Field>
OPLS_2005

> <r_lp_Energy>
47.4534

> <b_lp_Chiralities_Consistent>
1

> <s_lp_Variant>
AV-unprocessed.smi:258-3

> <Gold.Version>
5.8.1

> <Gold.Id.Protein>
6NUR|6NUR_protein|mol2

> <Gold.PLP.Fitness>
53.2125

> <Gold.PLP.PLP>
-47.5189

> <Gold.PLP.part.hbond>
-7.4079

> <Gold.PLP.part.metal>
0.0000

> <Gold.PLP.part.buried>
-5.3550

> <Gold.PLP.part.nonpolar>
-35.3578

> <Gold.PLP.part.repulsive>
0.7229

> <Gold.PLP.ligand.clash>
0.0000

> <Gold.PLP.ligand.torsion>
1.8746

> <Gold.PLP.Chemscore.Hbond>
2.9000

> <Gold.PLP.Chemscore.CHOScore>
0.0000

> <Gold.PLP.Chemscore.Metal>
0.0000

> <Gold.Chemscore.Hbonds>
donor molecule, donor type, donor heavy atom, donor atom, acceptor molecule, acceptor atom, score
      L1  H    22    48       P1  7949  0.48
      P1  H  7997  8009       L1    11  1.00
      P1  H 10752 10764       L1    22  0.45

> <Gold.PLP.Chemscore.Internal.Correction>
0.7428

> <Gold.Rescore>
     Score         DG    S(hbond)    S(metal)    S(lipo)     H(rot)  DE(clash)    DE(int)     intcor
      5.25     -10.68       0.96        0.00     103.18       3.94       2.00       3.43       ----

> <Gold.Chemscore.Fitness>
5.2483

> <Gold.Chemscore.DG>
-10.6791

> <Gold.Chemscore.ZeroCoef>
-5.4800

> <Gold.Chemscore.Hbond>
0.9586

> <Gold.Chemscore.Metal>
0.0000

> <Gold.Chemscore.Lipo>
103.1844

> <Gold.Chemscore.Internal_Hbond>
0.0000

> <Gold.Chemscore.DEClash>
1.9980

> <Gold.Chemscore.DEInternal>
3.4327

> <Gold.Chemscore.Rot>
3.9356

> <Gold.Chemscore.Internal.Correction>
   9.000000E+99

> <Gold.Chemscore.Hbonds>
donor molecule, donor type, donor heavy atom, donor atom, acceptor molecule, acceptor atom, score
      L1  H    22    48       P1  7949  0.03
      P1  H  7997  8009       L1    11  0.44
      P1  H 10752 10764       L1    22  0.10

> <Gold.Chemscore.Hbond.Weighted>
-3.2016

> <Gold.Chemscore.Metal.Weighted>
-0.0000

> <Gold.Chemscore.Lipo.Weighted>
-12.0726

> <Gold.Chemscore.Internal_Hbond.Weighted>
0.0000

> <Gold.Chemscore.DEClash.Weighted>
1.9980

> <Gold.Chemscore.DEInternal.Weighted>
3.4327

> <Gold.Chemscore.Rot.Weighted>
10.0751

> <Gold.Chemscore.Internal.Correction.Weighted>
   9.000000E+99

> <Gold.Protein.RotatedTorsions>
[ 6907 6896 6895 6894 ] final  177.05 input  -60.11 | X-H torsion
[ 7974 7965 7964 7962 ] final -116.86 input  175.53 | X-H torsion
[ 8008 7997 7996 7995 ] final -173.17 input   59.86 | X-H torsion
[ 10167 10162 10161 10158 ] final  126.11 input  -65.29 | X-H torsion
[ 10718 10713 10712 10709 ] final  104.05 input   66.30 | X-H torsion
[ 10763 10752 10751 10750 ] final  -55.22 input  -60.55 | X-H torsion
[ 11005 11000 10999 10996 ] final -161.50 input  -57.11 | X-H torsion

> <Gold.Protein.ActiveResidues>
 VAL166  LYS551  ARG553  GLY616  TRP617  ASP618  TYR619  PRO620  LYS621  CYS622 
 ASP623  PHE694  ASN695  SER759  ASP760  ASP761  ALA762  ILE779  LEU786  VAL792 
 PHE793  MET794  SER795  GLU796  ALA797  LYS798  CYS799  TRP800  GLU811  SER814 

> <Gold.Protein.RotatedAtoms>
  151.7102  133.3312  159.3288 H   0  0  0  0  0  0  0  0  0  0  0  0  # atno 6907 bound_to 6896
  150.7697  134.6539  159.6312 H   0  0  0  0  0  0  0  0  0  0  0  0  # atno 6908 bound_to 6896
  152.3716  134.6728  160.0226 H   0  0  0  0  0  0  0  0  0  0  0  0  # atno 6909 bound_to 6896
  145.0918  140.8495  143.3978 H   0  0  0  0  0  0  0  0  0  0  0  0  # atno 7974 bound_to 7965
  155.9540  140.1131  157.0953 H   0  0  0  0  0  0  0  0  0  0  0  0  # atno 8008 bound_to 7997
  154.4116  140.1195  156.5156 H   0  0  0  0  0  0  0  0  0  0  0  0  # atno 8009 bound_to 7997
  155.6806  140.3473  155.4856 H   0  0  0  0  0  0  0  0  0  0  0  0  # atno 8010 bound_to 7997
  139.5649  144.6905  151.3938 H   0  0  0  0  0  0  0  0  0  0  0  0  # atno 10167 bound_to 10162
  157.6753  131.0794  150.5648 H   0  0  0  0  0  0  0  0  0  0  0  0  # atno 10718 bound_to 10713
  154.1874  135.6433  153.5050 H   0  0  0  0  0  0  0  0  0  0  0  0  # atno 10763 bound_to 10752
  153.0044  135.5420  154.6451 H   0  0  0  0  0  0  0  0  0  0  0  0  # atno 10764 bound_to 10752
  154.5831  135.2927  155.0685 H   0  0  0  0  0  0  0  0  0  0  0  0  # atno 10765 bound_to 10752
  140.6197  134.4763  157.5222 H   0  0  0  0  0  0  0  0  0  0  0  0  # atno 11005 bound_to 11000
  145.1056  139.2792  143.5663 LP  0  0  0  0  0  0  0  0  0  0  0  0  # atno 17320 bound_to 7965
  146.3531  140.0637  142.8627 LP  0  0  0  0  0  0  0  0  0  0  0  0  # atno 17321 bound_to 7965
  140.6932  143.7812  150.7286 LP  0  0  0  0  0  0  0  0  0  0  0  0  # atno 17342 bound_to 10162
  140.1301  143.4534  152.2260 LP  0  0  0  0  0  0  0  0  0  0  0  0  # atno 17343 bound_to 10162
  156.5950  130.4339  149.5920 LP  0  0  0  0  0  0  0  0  0  0  0  0  # atno 17370 bound_to 10713
  156.2552  130.6930  151.1681 LP  0  0  0  0  0  0  0  0  0  0  0  0  # atno 17371 bound_to 10713
  139.9158  134.8249  156.1371 LP  0  0  0  0  0  0  0  0  0  0  0  0  # atno 17394 bound_to 11000
  141.0751  133.6779  156.2219 LP  0  0  0  0  0  0  0  0  0  0  0  0  # atno 17395 bound_to 11000

$$$$
