AV-unprocessed.smi:384|AV-procd|sdf|2470|dock2
  -GOLD-   2262022413D 1   1.00000     0.00000
 Structure written by MMmdl.
 33 34  0  0  0  0  0  0  0  0  3 V2000
  146.4524  131.4991  149.7996 C   0  0  0  0  0  0  0  0  0  0  0  0
  145.7193  131.7638  151.1266 C   0  0  1  0  0  0  0  0  0  0  0  0
  146.6580  131.8292  152.3478 C   0  0  0  0  0  0  0  0  0  0  0  0
  147.3991  133.0833  152.3627 N   0  0  0  0  0  0  0  0  0  0  0  0
  148.3434  133.1475  153.3949 C   0  0  0  0  0  0  0  0  0  0  0  0
  148.7096  132.0352  154.1868 C   0  0  0  0  0  0  0  0  0  0  0  0
  149.6699  132.1988  155.2061 C   0  0  0  0  0  0  0  0  0  0  0  0
  150.2527  133.4695  155.4220 C   0  0  0  0  0  0  0  0  0  0  0  0
  151.2761  133.6765  156.5019 C   0  0  0  0  0  0  0  0  0  0  0  0
  151.8876  134.7668  156.5483 O   0  0  0  0  0  0  0  0  0  0  0  0
  151.4830  132.7525  157.3194 O   0  5  0  0  0  0  0  0  0  0  0  0
  149.8471  134.5420  154.5953 C   0  0  0  0  0  0  0  0  0  0  0  0
  148.9237  134.3444  153.6287 N   0  3  0  0  0  0  0  0  0  0  0  0
  146.5249  134.2463  152.3075 C   0  0  0  0  0  0  0  0  0  0  0  0
  145.6314  134.1715  151.0572 C   0  0  2  0  0  0  0  0  0  0  0  0
  144.6173  135.3189  151.0076 C   0  0  0  0  0  0  0  0  0  0  0  0
  144.9078  132.9402  151.0680 O   0  0  0  0  0  0  0  0  0  0  0  0
  146.9632  130.5362  149.8257 H   0  0  0  0  0  0  0  0  0  0  0  0
  147.2037  132.2574  149.5815 H   0  0  0  0  0  0  0  0  0  0  0  0
  145.7494  131.4753  148.9666 H   0  0  0  0  0  0  0  0  0  0  0  0
  145.0346  130.9292  151.2793 H   0  0  0  0  0  0  0  0  0  0  0  0
  146.0680  131.7512  153.2623 H   0  0  0  0  0  0  0  0  0  0  0  0
  147.3481  130.9843  152.3424 H   0  0  0  0  0  0  0  0  0  0  0  0
  148.2643  131.0652  154.0206 H   0  0  0  0  0  0  0  0  0  0  0  0
  149.9500  131.3499  155.8129 H   0  0  0  0  0  0  0  0  0  0  0  0
  150.2293  135.5496  154.6761 H   0  0  0  0  0  0  0  0  0  0  0  0
  145.9063  134.2863  153.2051 H   0  0  0  0  0  0  0  0  0  0  0  0
  147.1244  135.1575  152.2869 H   0  0  0  0  0  0  0  0  0  0  0  0
  146.2495  134.2279  150.1609 H   0  0  0  0  0  0  0  0  0  0  0  0
  145.1196  136.2865  150.9916 H   0  0  0  0  0  0  0  0  0  0  0  0
  143.9545  135.2995  151.8732 H   0  0  0  0  0  0  0  0  0  0  0  0
  143.9980  135.2520  150.1128 H   0  0  0  0  0  0  0  0  0  0  0  0
  148.6513  135.1393  153.0503 H   0  0  0  0  0  0  0  0  0  0  0  0
  1  2  1  0  0  0  0
  1 18  1  0  0  0  0
  1 19  1  0  0  0  0
  1 20  1  0  0  0  0
  2 17  1  0  0  0  0
  2  3  1  0  0  0  0
  2 21  1  0  0  0  0
  3  4  1  0  0  0  0
  3 22  1  0  0  0  0
  3 23  1  0  0  0  0
  4  5  1  0  0  0  0
  4 14  1  0  0  0  0
  5 13  1  0  0  0  0
  5  6  2  0  0  0  0
  6  7  1  0  0  0  0
  6 24  1  0  0  0  0
  7  8  2  0  0  0  0
  7 25  1  0  0  0  0
  8  9  1  0  0  0  0
  8 12  1  0  0  0  0
  9 10  2  0  0  0  0
  9 11  1  0  0  0  0
 12 13  2  0  0  0  0
 12 26  1  0  0  0  0
 13 33  1  0  0  0  0
 14 15  1  0  0  0  0
 14 27  1  0  0  0  0
 14 28  1  0  0  0  0
 15 16  1  0  0  0  0
 15 17  1  0  0  0  0
 15 29  1  0  0  0  0
 16 30  1  0  0  0  0
 16 31  1  0  0  0  0
 16 32  1  0  0  0  0
M  CHG  1  11  -1
M  CHG  1  13   1
M  END
> <s_m_source_file>
AV-unprocessed.smi

> <i_m_source_file_index>
384

> <i_lp_mmshare_version>
43012

> <i_f3d_flags>
0

> <s_epik_input>
W0NIM11bQ0BASF0xW0NIMl1OKFtDSDJdW0NASF0oTzEpW0NIM10pYzJbY0hdW2NIXWMoW2NIXW4yKUMoPU8pW09IXQ==

> <s_epik_cmdline>
J2VwaWtfcHl0aG9uJywgJy1waCcsICc3LjAnLCAnLXRuJywgJzgnLCAnLW1hJywgJzIwMCcsICctbWV0YWxfYmluZGluZycsICctaW1hZScsICc8aW5maWxlLm1hZT4nLCAnLW9tYWUnLCAnPG91dGZpbGUubWFlPic=

> <r_epik_Ionization_Penalty>
2.35185

> <r_epik_Ionization_Penalty_Charging>
2.35185

> <r_epik_Ionization_Penalty_Neutral>
3.18713e-12

> <r_epik_State_Penalty>
2.50619

> <r_epik_Charging_Adjusted_Penalty>
4.85804

> <i_epik_Tot_Q>
0

> <i_epik_Tot_abs_Q>
2

> <r_epik_Metal_State_Penalty>
6.59026

> <b_epik_Metal_Only>
0

> <s_lp_Force_Field>
OPLS_2005

> <r_lp_Energy>
19.8992

> <b_lp_Chiralities_Consistent>
1

> <s_lp_Variant>
AV-unprocessed.smi:384-6

> <Gold.Version>
5.8.1

> <Gold.Id.Protein>
6NUR|6NUR_protein|mol2

> <Gold.PLP.Fitness>
42.9806

> <Gold.PLP.PLP>
-26.7545

> <Gold.PLP.part.hbond>
-3.0000

> <Gold.PLP.part.metal>
0.0000

> <Gold.PLP.part.buried>
3.0529

> <Gold.PLP.part.nonpolar>
-25.8755

> <Gold.PLP.part.repulsive>
0.2889

> <Gold.PLP.ligand.clash>
0.3480

> <Gold.PLP.ligand.torsion>
0.4214

> <Gold.PLP.Chemscore.Hbond>
5.7760

> <Gold.PLP.Chemscore.CHOScore>
0.0000

> <Gold.PLP.Chemscore.Metal>
0.0000

> <Gold.Chemscore.Hbonds>
donor molecule, donor type, donor heavy atom, donor atom, acceptor molecule, acceptor atom, score
      L1  H    13    33       P1  7948  1.98
      P1  H  6896  6908       L1    11  1.89
      P1  H 10752 10764       L1    10  1.84

> <Gold.PLP.Chemscore.Internal.Correction>
0.0889

> <Gold.Rescore>
     Score         DG    S(hbond)    S(metal)    S(lipo)     H(rot)  DE(clash)    DE(int)     intcor
     15.83     -18.10       2.33        0.00      63.23       1.00       1.82       0.45       ----

> <Gold.Chemscore.Fitness>
15.8345

> <Gold.Chemscore.DG>
-18.1032

> <Gold.Chemscore.ZeroCoef>
-5.4800

> <Gold.Chemscore.Hbond>
2.3309

> <Gold.Chemscore.Metal>
0.0000

> <Gold.Chemscore.Lipo>
63.2294

> <Gold.Chemscore.Internal_Hbond>
0.0000

> <Gold.Chemscore.DEClash>
1.8212

> <Gold.Chemscore.DEInternal>
0.4475

> <Gold.Chemscore.Rot>
1.0000

> <Gold.Chemscore.Internal.Correction>
   9.000000E+99

> <Gold.Chemscore.Hbonds>
donor molecule, donor type, donor heavy atom, donor atom, acceptor molecule, acceptor atom, score
      L1  H    13    33       P1  7948  0.61
      P1  H  6896  6908       L1    11  0.79
      P1  H 10752 10764       L1    10  0.84

> <Gold.Chemscore.Hbond.Weighted>
-7.7853

> <Gold.Chemscore.Metal.Weighted>
-0.0000

> <Gold.Chemscore.Lipo.Weighted>
-7.3978

> <Gold.Chemscore.Internal_Hbond.Weighted>
0.0000

> <Gold.Chemscore.DEClash.Weighted>
1.8212

> <Gold.Chemscore.DEInternal.Weighted>
0.4475

> <Gold.Chemscore.Rot.Weighted>
2.5600

> <Gold.Chemscore.Internal.Correction.Weighted>
   9.000000E+99

> <Gold.Protein.RotatedTorsions>
[ 6907 6896 6895 6894 ] final   64.02 input  -60.11 | X-H torsion
[ 7974 7965 7964 7962 ] final  125.93 input  175.53 | X-H torsion
[ 8008 7997 7996 7995 ] final    4.56 input   59.86 | X-H torsion
[ 10167 10162 10161 10158 ] final  -62.03 input  -65.29 | X-H torsion
[ 10718 10713 10712 10709 ] final  152.52 input   66.30 | X-H torsion
[ 10763 10752 10751 10750 ] final  -18.61 input  -60.55 | X-H torsion
[ 11005 11000 10999 10996 ] final   89.46 input  -57.11 | X-H torsion

> <Gold.Protein.ActiveResidues>
 VAL166  LYS551  ARG553  GLY616  TRP617  ASP618  TYR619  PRO620  LYS621  CYS622 
 ASP623  PHE694  ASN695  SER759  ASP760  ASP761  ALA762  ILE779  LEU786  VAL792 
 PHE793  MET794  SER795  GLU796  ALA797  LYS798  CYS799  TRP800  GLU811  SER814 

> <Gold.Protein.RotatedAtoms>
  152.4299  134.5798  159.9944 H   0  0  0  0  0  0  0  0  0  0  0  0  # atno 6907 bound_to 6896
  151.5924  133.3359  159.3038 H   0  0  0  0  0  0  0  0  0  0  0  0  # atno 6908 bound_to 6896
  150.8191  134.7425  159.6821 H   0  0  0  0  0  0  0  0  0  0  0  0  # atno 6909 bound_to 6896
  145.0674  139.3757  143.4975 H   0  0  0  0  0  0  0  0  0  0  0  0  # atno 7974 bound_to 7965
  154.7175  140.2705  155.6572 H   0  0  0  0  0  0  0  0  0  0  0  0  # atno 8008 bound_to 7997
  156.2814  140.2741  156.1760 H   0  0  0  0  0  0  0  0  0  0  0  0  # atno 8009 bound_to 7997
  155.0552  140.0371  157.2547 H   0  0  0  0  0  0  0  0  0  0  0  0  # atno 8010 bound_to 7997
  140.5966  143.2352  151.6022 H   0  0  0  0  0  0  0  0  0  0  0  0  # atno 10167 bound_to 10162
  157.2566  131.0790  151.1694 H   0  0  0  0  0  0  0  0  0  0  0  0  # atno 10718 bound_to 10713
  153.5919  135.7002  153.5419 H   0  0  0  0  0  0  0  0  0  0  0  0  # atno 10763 bound_to 10752
  153.3171  135.4084  155.1385 H   0  0  0  0  0  0  0  0  0  0  0  0  # atno 10764 bound_to 10752
  154.8599  135.3686  154.5452 H   0  0  0  0  0  0  0  0  0  0  0  0  # atno 10765 bound_to 10752
  139.8875  134.8552  156.3145 H   0  0  0  0  0  0  0  0  0  0  0  0  # atno 11005 bound_to 11000
  146.3527  140.0402  142.8643 LP  0  0  0  0  0  0  0  0  0  0  0  0  # atno 17320 bound_to 7965
  145.1334  140.9531  143.4531 LP  0  0  0  0  0  0  0  0  0  0  0  0  # atno 17321 bound_to 7965
  139.5262  144.3051  152.1040 LP  0  0  0  0  0  0  0  0  0  0  0  0  # atno 17342 bound_to 10162
  140.2225  144.4452  150.6336 LP  0  0  0  0  0  0  0  0  0  0  0  0  # atno 17343 bound_to 10162
  157.3220  130.6942  149.6274 LP  0  0  0  0  0  0  0  0  0  0  0  0  # atno 17370 bound_to 10713
  155.9665  130.4332  150.4998 LP  0  0  0  0  0  0  0  0  0  0  0  0  # atno 17371 bound_to 10713
  140.9828  133.7257  156.0697 LP  0  0  0  0  0  0  0  0  0  0  0  0  # atno 17394 bound_to 11000
  140.7727  134.3814  157.5504 LP  0  0  0  0  0  0  0  0  0  0  0  0  # atno 17395 bound_to 11000

$$$$
