#       Name:                AV-unprocessed.smi:2609
#       Creating user name   scv26
#       Creation time:       Fri Mar 27 14:21:26 2020


#       File generated by GOLD software.
#

@<TRIPOS>MOLECULE
AV-unprocessed.smi:2609
    30    31     1
SMALL
NO_CHARGES


@<TRIPOS>ATOM
      1 ****        -3.8713  -1.7173   0.8842 O.2            1 S1                 0.0000
      2 ****        -3.1493  -0.7681   0.5864 C.2            1 S1                 0.0000
      3 ****        -3.7270   0.5316   0.2125 C.2            1 S1                 0.0000
      4 ****        -2.9010   1.5463  -0.1055 C.2            1 S1                 0.0000
      5 ****        -1.5275   1.4001  -0.0900 N.pl3          1 S1                 0.0000
      6 ****        -1.0227   0.1546   0.2686 C.2            1 S1                 0.0000
      7 ****         0.5075   0.0911   0.2497 C.3            1 S1                 0.0000
      8 ****         1.0883   0.3329  -1.1578 C.3            1 S1                 0.0000
      9 ****         2.6239   0.2478  -1.1383 C.3            1 S1                 0.0000
     10 ****         3.0398  -1.0102  -0.6191 O.3            1 S1                 0.0000
     11 ****         2.6242  -1.2194   0.7258 C.3            1 S1                 0.0000
     12 ****         1.0893  -1.2269   0.8037 C.3            1 S1                 0.0000
     13 ****        -1.7471  -0.8808   0.5890 N.2            1 S1                 0.0000
     14 ****        -0.9490   2.1904  -0.3368 H              1 S1                 0.0000
     15 ****        -4.7984   0.6688   0.1935 H              1 S1                 0.0000
     16 ****        -3.2479   2.5287  -0.3902 H              1 S1                 0.0000
     17 ****         0.8632   0.8949   0.8965 H              1 S1                 0.0000
     18 ****         0.6954  -0.4094  -1.8543 H              1 S1                 0.0000
     19 ****         0.7886   1.3089  -1.5413 H              1 S1                 0.0000
     20 ****         3.0168   0.3561  -2.1494 H              1 S1                 0.0000
     21 ****         3.0507   1.0569  -0.5434 H              1 S1                 0.0000
     22 ****         3.0208  -2.1741   1.0714 H              1 S1                 0.0000
     23 ****         3.0439  -0.4478   1.3731 H              1 S1                 0.0000
     24 ****         0.7767  -1.3778   1.8380 H              1 S1                 0.0000
     25 ****         0.7121  -2.0770   0.2328 H              1 S1                 0.0000
     26 ****        -3.4643  -2.5954   1.1360 LP             1 S1                 0.0000
     27 ****        -4.8656  -1.6115   0.8747 LP             1 S1                 0.0000
     28 ****         4.0381  -1.0560  -0.6553 LP             1 S1                 0.0000
     29 ****         2.6520  -1.7346  -1.1891 LP             1 S1                 0.0000
     30 ****        -1.3104  -1.7464   0.8342 LP             1 S1                 0.0000
@<TRIPOS>BOND
    1    1    2 2     
    2    2   13 1     
    3    2    3 1     
    4    3    4 2     
    5    3   15 1     
    6    4    5 1     
    7    4   16 1     
    8    5   14 1     
    9    5    6 1     
   10    6    7 1     
   11    6   13 2     
   12    7   12 1     
   13    7    8 1     
   14    7   17 1     
   15    8    9 1     
   16    8   18 1     
   17    8   19 1     
   18    9   10 1     
   19    9   20 1     
   20    9   21 1     
   21   10   11 1     
   22   11   12 1     
   23   11   22 1     
   24   11   23 1     
   25   12   24 1     
   26   12   25 1     
   27    1   26 1     
   28    1   27 1     
   29   10   28 1     
   30   10   29 1     
   31   13   30 1     
@<TRIPOS>SUBSTRUCTURE
      1 S1             1
@<TRIPOS>SET
LONE_PAIRS      STATIC     ATOMS    <user>   **** ""
5 26 27 28 29 30
DONOR_HYDROGENS      STATIC     ATOMS    <user>   **** ""
1 14
ATOM$BLUE        STATIC     ATOMS    COLORGROUP SYSTEM
5 26 27 28 29 30
ATOM$RED        STATIC     ATOMS    COLORGROUP SYSTEM
1 14
