AV-unprocessed.smi:1044|AV-procd|sdf|4542|dock4
  -GOLD-   22720 2563D 1   1.00000     0.00000
 Structure written by MMmdl.
 45 46  0  0  0  0  0  0  0  0  1 V2000
  143.4993  133.9498  151.7486 C   0  0  0  0  0  0  0  0  0  0  0  0
  144.6674  134.2933  150.8215 C   0  0  0  0  0  0  0  0  0  0  0  0
  145.8854  134.1032  151.5352 O   0  0  0  0  0  0  0  0  0  0  0  0
  146.1947  132.8378  151.9967 C   0  0  0  0  0  0  0  0  0  0  0  0
  145.4265  131.7962  151.5898 N   0  0  0  0  0  0  0  0  0  0  0  0
  145.7255  130.5613  152.0426 C   0  0  0  0  0  0  0  0  0  0  0  0
  146.7917  130.3006  152.9227 C   0  0  0  0  0  0  0  0  0  0  0  0
  147.5901  131.3790  153.3460 C   0  0  0  0  0  0  0  0  0  0  0  0
  147.2984  132.6790  152.8666 C   0  0  0  0  0  0  0  0  0  0  0  0
  148.0286  133.8369  153.2506 N   0  0  0  0  0  0  0  0  0  0  0  0
  148.5804  134.1137  154.4440 C   0  0  0  0  0  0  0  0  0  0  0  0
  148.5601  133.3684  155.4234 O   0  0  0  0  0  0  0  0  0  0  0  0
  149.1862  135.3096  154.4292 N   0  0  0  0  0  0  0  0  0  0  0  0
  149.9188  135.9115  155.5399 C   0  0  2  0  0  0  0  0  0  0  0  0
  149.0310  135.9651  156.7894 C   0  0  0  0  0  0  0  0  0  0  0  0
  149.8020  136.6419  157.9260 C   0  0  0  0  0  0  0  0  0  0  0  0
  150.2924  138.0411  157.5173 C   0  0  0  0  0  0  0  0  0  0  0  0
  151.0759  137.9974  156.2655 N   0  0  0  0  0  0  0  0  0  0  0  0
  152.0632  139.3708  155.8829 S   0  0  0  0  0  0  0  0  0  0  0  0
  153.2571  138.6992  154.6536 C   0  0  0  0  0  0  0  0  0  0  0  0
  151.2063  140.3709  155.2277 O   0  0  0  0  0  0  0  0  0  0  0  0
  152.8231  139.7322  157.0894 O   0  0  0  0  0  0  0  0  0  0  0  0
  150.3913  137.3220  155.1456 C   0  0  0  0  0  0  0  0  0  0  0  0
  142.5456  134.0770  151.2360 H   0  0  0  0  0  0  0  0  0  0  0  0
  143.4953  134.5944  152.6281 H   0  0  0  0  0  0  0  0  0  0  0  0
  143.5611  132.9162  152.0899 H   0  0  0  0  0  0  0  0  0  0  0  0
  144.6375  133.6503  149.9402 H   0  0  0  0  0  0  0  0  0  0  0  0
  144.5764  135.3283  150.4883 H   0  0  0  0  0  0  0  0  0  0  0  0
  145.0910  129.7580  151.6986 H   0  0  0  0  0  0  0  0  0  0  0  0
  146.9893  129.2973  153.2700 H   0  0  0  0  0  0  0  0  0  0  0  0
  148.3967  131.1927  154.0381 H   0  0  0  0  0  0  0  0  0  0  0  0
  148.2122  134.4971  152.5092 H   0  0  0  0  0  0  0  0  0  0  0  0
  149.1482  135.8449  153.5741 H   0  0  0  0  0  0  0  0  0  0  0  0
  150.8022  135.3154  155.7770 H   0  0  0  0  0  0  0  0  0  0  0  0
  148.1143  136.5192  156.5817 H   0  0  0  0  0  0  0  0  0  0  0  0
  148.7327  134.9593  157.0876 H   0  0  0  0  0  0  0  0  0  0  0  0
  149.1716  136.7141  158.8126 H   0  0  0  0  0  0  0  0  0  0  0  0
  150.6568  136.0246  158.2060 H   0  0  0  0  0  0  0  0  0  0  0  0
  149.4473  138.7168  157.3814 H   0  0  0  0  0  0  0  0  0  0  0  0
  150.9011  138.4521  158.3224 H   0  0  0  0  0  0  0  0  0  0  0  0
  153.9832  139.4713  154.4007 H   0  0  0  0  0  0  0  0  0  0  0  0
  152.7343  138.3948  153.7482 H   0  0  0  0  0  0  0  0  0  0  0  0
  153.7766  137.8420  155.0812 H   0  0  0  0  0  0  0  0  0  0  0  0
  151.0642  137.2535  154.2917 H   0  0  0  0  0  0  0  0  0  0  0  0
  149.5466  137.9360  154.8299 H   0  0  0  0  0  0  0  0  0  0  0  0
  1  2  1  0  0  0  0
  1 24  1  0  0  0  0
  1 25  1  0  0  0  0
  1 26  1  0  0  0  0
  2  3  1  0  0  0  0
  2 27  1  0  0  0  0
  2 28  1  0  0  0  0
  3  4  1  0  0  0  0
  4  9  1  0  0  0  0
  4  5  2  0  0  0  0
  5  6  1  0  0  0  0
  6  7  2  0  0  0  0
  6 29  1  0  0  0  0
  7  8  1  0  0  0  0
  7 30  1  0  0  0  0
  8  9  2  0  0  0  0
  8 31  1  0  0  0  0
  9 10  1  0  0  0  0
 10 11  1  0  0  0  0
 10 32  1  0  0  0  0
 11 12  2  0  0  0  0
 11 13  1  0  0  0  0
 13 14  1  0  0  0  0
 13 33  1  0  0  0  0
 14 23  1  0  0  0  0
 14 15  1  0  0  0  0
 14 34  1  0  0  0  0
 15 16  1  0  0  0  0
 15 35  1  0  0  0  0
 15 36  1  0  0  0  0
 16 17  1  0  0  0  0
 16 37  1  0  0  0  0
 16 38  1  0  0  0  0
 17 18  1  0  0  0  0
 17 39  1  0  0  0  0
 17 40  1  0  0  0  0
 18 19  1  0  0  0  0
 18 23  1  0  0  0  0
 19 20  1  0  0  0  0
 19 21  2  0  0  0  0
 19 22  2  0  0  0  0
 20 41  1  0  0  0  0
 20 42  1  0  0  0  0
 20 43  1  0  0  0  0
 23 44  1  0  0  0  0
 23 45  1  0  0  0  0
M  END
> <s_m_source_file>
AV-unprocessed.smi

> <i_m_source_file_index>
1044

> <i_lp_mmshare_version>
43012

> <i_f3d_flags>
0

> <s_epik_input>
W0NIM11bQ0gyXU9jMW5bY0hdW2NIXVtjSF1jMVtOSF1DKD1PKVtOSF1bQ0BASF0yW0NIMl1bQ0gyXVtDSDJdTihbQ0gyXTIpUyg9TykoPU8pW0NIM10=

> <s_epik_cmdline>
J2VwaWtfcHl0aG9uJywgJy1waCcsICc3LjAnLCAnLXRuJywgJzgnLCAnLW1hJywgJzIwMCcsICctbWV0YWxfYmluZGluZycsICctaW1hZScsICc8aW5maWxlLm1hZT4nLCAnLW9tYWUnLCAnPG91dGZpbGUubWFlPic=

> <r_lp_tautomer_probability>
1

> <r_epik_Ionization_Penalty>
0.000106941

> <r_epik_Ionization_Penalty_Charging>
0

> <r_epik_Ionization_Penalty_Neutral>
0.000106941

> <r_epik_State_Penalty>
-0

> <r_epik_Charging_Adjusted_Penalty>
0

> <i_epik_Tot_Q>
0

> <i_epik_Tot_abs_Q>
0

> <r_epik_Metal_State_Penalty>
-0

> <b_epik_Metal_Only>
0

> <s_lp_Force_Field>
OPLS_2005

> <r_lp_Energy>
2.99573

> <b_lp_Chiralities_Consistent>
1

> <s_lp_Variant>
AV-unprocessed.smi:1044-1

> <Gold.Version>
5.8.1

> <Gold.Id.Protein>
6NUR|6NUR_protein|mol2

> <Gold.PLP.Fitness>
44.3036

> <Gold.PLP.PLP>
-33.2560

> <Gold.PLP.part.hbond>
-4.0000

> <Gold.PLP.part.metal>
0.0000

> <Gold.PLP.part.buried>
-6.0231

> <Gold.PLP.part.nonpolar>
-24.0443

> <Gold.PLP.part.repulsive>
0.3362

> <Gold.PLP.ligand.clash>
0.0000

> <Gold.PLP.ligand.torsion>
0.7864

> <Gold.PLP.Chemscore.Hbond>
3.9500

> <Gold.PLP.Chemscore.CHOScore>
0.0000

> <Gold.PLP.Chemscore.Metal>
0.0000

> <Gold.Chemscore.Hbonds>
donor molecule, donor type, donor heavy atom, donor atom, acceptor molecule, acceptor atom, score
      L1  H    10    32       P1  7948  1.00
      L1  H    13    33       P1  7948  1.00
      P1  H  7989  7998       L1    21  1.00
      P1  H  7997  8010       L1    22  1.00

> <Gold.PLP.Chemscore.Internal.Correction>
0.7704

> <Gold.Rescore>
     Score         DG    S(hbond)    S(metal)    S(lipo)     H(rot)  DE(clash)    DE(int)     intcor
     17.28     -19.88       3.57        0.00      59.96       1.77       0.00       2.59       ----

> <Gold.Chemscore.Fitness>
17.2793

> <Gold.Chemscore.DG>
-19.8753

> <Gold.Chemscore.ZeroCoef>
-5.4800

> <Gold.Chemscore.Hbond>
3.5669

> <Gold.Chemscore.Metal>
0.0000

> <Gold.Chemscore.Lipo>
59.9644

> <Gold.Chemscore.Internal_Hbond>
0.0000

> <Gold.Chemscore.DEClash>
0.0025

> <Gold.Chemscore.DEInternal>
2.5935

> <Gold.Chemscore.Rot>
1.7711

> <Gold.Chemscore.Internal.Correction>
   9.000000E+99

> <Gold.Chemscore.Hbonds>
donor molecule, donor type, donor heavy atom, donor atom, acceptor molecule, acceptor atom, score
      L1  H    10    32       P1  7948  0.24
      L1  H    13    33       P1  7948  0.78
      P1  H  7989  7998       L1    21  0.90
      P1  H  7997  8010       L1    22  0.70

> <Gold.Chemscore.Hbond.Weighted>
-11.9135

> <Gold.Chemscore.Metal.Weighted>
-0.0000

> <Gold.Chemscore.Lipo.Weighted>
-7.0158

> <Gold.Chemscore.Internal_Hbond.Weighted>
0.0000

> <Gold.Chemscore.DEClash.Weighted>
0.0025

> <Gold.Chemscore.DEInternal.Weighted>
2.5935

> <Gold.Chemscore.Rot.Weighted>
4.5340

> <Gold.Chemscore.Internal.Correction.Weighted>
   9.000000E+99

> <Gold.Protein.RotatedTorsions>
[ 6907 6896 6895 6894 ] final  -55.34 input  -60.11 | X-H torsion
[ 7974 7965 7964 7962 ] final  -54.55 input  175.53 | X-H torsion
[ 8008 7997 7996 7995 ] final   58.97 input   59.86 | X-H torsion
[ 10167 10162 10161 10158 ] final  -82.21 input  -65.29 | X-H torsion
[ 10718 10713 10712 10709 ] final  -92.72 input   66.30 | X-H torsion
[ 10763 10752 10751 10750 ] final  169.15 input  -60.55 | X-H torsion
[ 11005 11000 10999 10996 ] final   99.00 input  -57.11 | X-H torsion

> <Gold.Protein.ActiveResidues>
 VAL166  LYS551  ARG553  GLY616  TRP617  ASP618  TYR619  PRO620  LYS621  CYS622 
 ASP623  PHE694  ASN695  SER759  ASP760  ASP761  ALA762  ILE779  LEU786  VAL792 
 PHE793  MET794  SER795  GLU796  ALA797  LYS798  CYS799  TRP800  GLU811  SER814 

> <Gold.Protein.RotatedAtoms>
  150.8260  134.7491  159.6812 H   0  0  0  0  0  0  0  0  0  0  0  0  # atno 6907 bound_to 6896
  152.4371  134.5662  159.9918 H   0  0  0  0  0  0  0  0  0  0  0  0  # atno 6908 bound_to 6896
  151.5834  133.3337  159.3049 H   0  0  0  0  0  0  0  0  0  0  0  0  # atno 6909 bound_to 6896
  145.8843  140.8120  142.9824 H   0  0  0  0  0  0  0  0  0  0  0  0  # atno 7974 bound_to 7965
  155.5586  140.3488  155.4486 H   0  0  0  0  0  0  0  0  0  0  0  0  # atno 8008 bound_to 7997
  156.0531  140.1322  157.0053 H   0  0  0  0  0  0  0  0  0  0  0  0  # atno 8009 bound_to 7997
  154.4443  140.1000  156.6390 H   0  0  0  0  0  0  0  0  0  0  0  0  # atno 8010 bound_to 7997
  140.4340  143.2538  151.8719 H   0  0  0  0  0  0  0  0  0  0  0  0  # atno 10167 bound_to 10162
  156.0005  130.4998  150.5668 H   0  0  0  0  0  0  0  0  0  0  0  0  # atno 10718 bound_to 10713
  154.3790  135.2753  155.2222 H   0  0  0  0  0  0  0  0  0  0  0  0  # atno 10763 bound_to 10752
  154.4337  135.5971  153.6088 H   0  0  0  0  0  0  0  0  0  0  0  0  # atno 10764 bound_to 10752
  152.9835  135.6002  154.4031 H   0  0  0  0  0  0  0  0  0  0  0  0  # atno 10765 bound_to 10752
  139.8771  134.9075  156.4540 H   0  0  0  0  0  0  0  0  0  0  0  0  # atno 11005 bound_to 11000
  144.6728  140.1431  143.7435 LP  0  0  0  0  0  0  0  0  0  0  0  0  # atno 17320 bound_to 7965
  145.8986  139.2417  143.1507 LP  0  0  0  0  0  0  0  0  0  0  0  0  # atno 17321 bound_to 7965
  139.4786  144.5303  151.8676 LP  0  0  0  0  0  0  0  0  0  0  0  0  # atno 17342 bound_to 10162
  140.4394  144.2007  150.5890 LP  0  0  0  0  0  0  0  0  0  0  0  0  # atno 17343 bound_to 10162
  157.3569  131.0743  151.1668 LP  0  0  0  0  0  0  0  0  0  0  0  0  # atno 17370 bound_to 10713
  157.2466  130.6594  149.5913 LP  0  0  0  0  0  0  0  0  0  0  0  0  # atno 17371 bound_to 10713
  140.8911  133.7847  155.9573 LP  0  0  0  0  0  0  0  0  0  0  0  0  # atno 17394 bound_to 11000
  140.8752  134.2678  157.5171 LP  0  0  0  0  0  0  0  0  0  0  0  0  # atno 17395 bound_to 11000

$$$$
