AV-unprocessed.smi:2961|AV-procd|sdf|11314|dock9
  -GOLD-   2272016213D 1   1.00000     0.00000
 Structure written by MMmdl.
 49 51  0  0  0  0  0  0  0  0  2 V2000
  148.4235  141.4156  154.1834 C   0  0  0  0  0  0  0  0  0  0  0  0
  147.3278  140.4566  153.7310 C   0  0  0  0  0  0  0  0  0  0  0  0
  146.3055  140.3245  154.4025 O   0  0  0  0  0  0  0  0  0  0  0  0
  147.5500  139.8005  152.5826 N   0  0  0  0  0  0  0  0  0  0  0  0
  146.6381  138.8347  151.9754 C   0  0  0  0  0  0  0  0  0  0  0  0
  145.9512  137.9103  153.0020 C   0  0  0  0  0  0  0  0  0  0  0  0
  145.5913  136.5708  152.4393 C   0  0  0  0  0  0  0  0  0  0  0  0
  146.4648  135.6740  151.8998 N   0  3  0  0  0  0  0  0  0  0  0  0
  145.7762  134.5345  151.4834 C   0  0  0  0  0  0  0  0  0  0  0  0
  146.2304  133.3664  150.8788 C   0  0  0  0  0  0  0  0  0  0  0  0
  145.2570  132.3929  150.5724 C   0  0  0  0  0  0  0  0  0  0  0  0
  143.8938  132.5995  150.8676 C   0  0  0  0  0  0  0  0  0  0  0  0
  143.4464  133.7865  151.4843 C   0  0  0  0  0  0  0  0  0  0  0  0
  144.4148  134.7445  151.7847 C   0  0  0  0  0  0  0  0  0  0  0  0
  144.3484  136.0118  152.3773 N   0  0  0  0  0  0  0  0  0  0  0  0
  143.0461  136.5443  152.8070 C   0  0  0  0  0  0  0  0  0  0  0  0
  143.0970  137.1275  154.2263 C   0  0  0  0  0  0  0  0  0  0  0  0
  142.3087  138.3089  154.2814 O   0  0  0  0  0  0  0  0  0  0  0  0
  140.9515  138.2021  154.0707 C   0  0  0  0  0  0  0  0  0  0  0  0
  140.2282  136.9844  154.1313 C   0  0  0  0  0  0  0  0  0  0  0  0
  138.8383  136.9710  153.9045 C   0  0  0  0  0  0  0  0  0  0  0  0
  138.1568  138.1673  153.6140 C   0  0  0  0  0  0  0  0  0  0  0  0
  138.8656  139.3827  153.5477 C   0  0  0  0  0  0  0  0  0  0  0  0
  138.1308  140.6704  153.2372 C   0  0  0  0  0  0  0  0  0  0  0  0
  140.2570  139.3934  153.7762 C   0  0  0  0  0  0  0  0  0  0  0  0
  149.4006  140.9331  154.1375 H   0  0  0  0  0  0  0  0  0  0  0  0
  148.2528  141.7417  155.2100 H   0  0  0  0  0  0  0  0  0  0  0  0
  148.4423  142.2974  153.5425 H   0  0  0  0  0  0  0  0  0  0  0  0
  148.4216  139.9704  152.1011 H   0  0  0  0  0  0  0  0  0  0  0  0
  145.8822  139.4027  151.4332 H   0  0  0  0  0  0  0  0  0  0  0  0
  147.1670  138.2411  151.2282 H   0  0  0  0  0  0  0  0  0  0  0  0
  146.6011  137.7703  153.8660 H   0  0  0  0  0  0  0  0  0  0  0  0
  145.0445  138.3834  153.3804 H   0  0  0  0  0  0  0  0  0  0  0  0
  147.2739  133.2073  150.6495 H   0  0  0  0  0  0  0  0  0  0  0  0
  145.5613  131.4705  150.0993 H   0  0  0  0  0  0  0  0  0  0  0  0
  143.1760  131.8326  150.6150 H   0  0  0  0  0  0  0  0  0  0  0  0
  142.3988  133.9358  151.7005 H   0  0  0  0  0  0  0  0  0  0  0  0
  142.7073  137.2902  152.0881 H   0  0  0  0  0  0  0  0  0  0  0  0
  142.3222  135.7308  152.7664 H   0  0  0  0  0  0  0  0  0  0  0  0
  142.7210  136.3910  154.9377 H   0  0  0  0  0  0  0  0  0  0  0  0
  144.1325  137.3518  154.4877 H   0  0  0  0  0  0  0  0  0  0  0  0
  140.7160  136.0466  154.3491 H   0  0  0  0  0  0  0  0  0  0  0  0
  138.2938  136.0395  153.9535 H   0  0  0  0  0  0  0  0  0  0  0  0
  137.0904  138.1492  153.4419 H   0  0  0  0  0  0  0  0  0  0  0  0
  138.8240  141.4626  152.9522 H   0  0  0  0  0  0  0  0  0  0  0  0
  137.5702  141.0033  154.1109 H   0  0  0  0  0  0  0  0  0  0  0  0
  137.4300  140.5223  152.4151 H   0  0  0  0  0  0  0  0  0  0  0  0
  140.8023  140.3247  153.7282 H   0  0  0  0  0  0  0  0  0  0  0  0
  147.4608  135.8353  151.8215 H   0  0  0  0  0  0  0  0  0  0  0  0
  1  2  1  0  0  0  0
  1 26  1  0  0  0  0
  1 27  1  0  0  0  0
  1 28  1  0  0  0  0
  2  3  2  0  0  0  0
  2  4  1  0  0  0  0
  4  5  1  0  0  0  0
  4 29  1  0  0  0  0
  5  6  1  0  0  0  0
  5 30  1  0  0  0  0
  5 31  1  0  0  0  0
  6  7  1  0  0  0  0
  6 32  1  0  0  0  0
  6 33  1  0  0  0  0
  7 15  1  0  0  0  0
  7  8  2  0  0  0  0
  8  9  1  0  0  0  0
  8 49  1  0  0  0  0
  9 14  2  0  0  0  0
  9 10  1  0  0  0  0
 10 11  2  0  0  0  0
 10 34  1  0  0  0  0
 11 12  1  0  0  0  0
 11 35  1  0  0  0  0
 12 13  2  0  0  0  0
 12 36  1  0  0  0  0
 13 14  1  0  0  0  0
 13 37  1  0  0  0  0
 14 15  1  0  0  0  0
 15 16  1  0  0  0  0
 16 17  1  0  0  0  0
 16 38  1  0  0  0  0
 16 39  1  0  0  0  0
 17 18  1  0  0  0  0
 17 40  1  0  0  0  0
 17 41  1  0  0  0  0
 18 19  1  0  0  0  0
 19 25  1  0  0  0  0
 19 20  2  0  0  0  0
 20 21  1  0  0  0  0
 20 42  1  0  0  0  0
 21 22  2  0  0  0  0
 21 43  1  0  0  0  0
 22 23  1  0  0  0  0
 22 44  1  0  0  0  0
 23 24  1  0  0  0  0
 23 25  2  0  0  0  0
 24 45  1  0  0  0  0
 24 46  1  0  0  0  0
 24 47  1  0  0  0  0
 25 48  1  0  0  0  0
M  CHG  1   8   1
M  END
> <s_m_source_file>
AV-unprocessed.smi

> <i_m_source_file_index>
2961

> <i_lp_mmshare_version>
43012

> <i_f3d_flags>
0

> <s_epik_input>
W0NIM11DKD1PKVtOSF1bQ0gyXVtDSDJdYyhuMSluKGMoYzEyKVtjSF1bY0hdW2NIXVtjSF0yKVtDSDJdW0NIMl1PYzNbY0hdW2NIXVtjSF1jKFtDSDNdKVtjSF0z

> <s_epik_cmdline>
J2VwaWtfcHl0aG9uJywgJy1waCcsICc3LjAnLCAnLXRuJywgJzgnLCAnLW1hJywgJzIwMCcsICctbWV0YWxfYmluZGluZycsICctaW1hZScsICc8aW5maWxlLm1hZT4nLCAnLW9tYWUnLCAnPG91dGZpbGUubWFlPic=

> <r_lp_tautomer_probability>
1

> <r_epik_Ionization_Penalty>
1.11168

> <r_epik_Ionization_Penalty_Charging>
1.11168

> <r_epik_Ionization_Penalty_Neutral>
3.05925e-07

> <r_epik_State_Penalty>
1.16973

> <r_epik_Charging_Adjusted_Penalty>
2.28141

> <i_epik_Tot_Q>
1

> <i_epik_Tot_abs_Q>
1

> <r_epik_Metal_State_Penalty>
1.2554

> <b_epik_Metal_Only>
0

> <s_lp_Force_Field>
OPLS_2005

> <r_lp_Energy>
19.5135

> <b_lp_Chiralities_Consistent>
1

> <s_lp_Variant>
AV-unprocessed.smi:2961-2

> <Gold.Version>
5.8.1

> <Gold.Id.Protein>
6NUR|6NUR_protein|mol2

> <Gold.PLP.Fitness>
56.7798

> <Gold.PLP.PLP>
-49.6154

> <Gold.PLP.part.hbond>
-1.9976

> <Gold.PLP.part.metal>
0.0000

> <Gold.PLP.part.buried>
-8.0238

> <Gold.PLP.part.nonpolar>
-42.2243

> <Gold.PLP.part.repulsive>
0.4819

> <Gold.PLP.ligand.clash>
0.0000

> <Gold.PLP.ligand.torsion>
0.9477

> <Gold.PLP.Chemscore.Hbond>
3.0000

> <Gold.PLP.Chemscore.CHOScore>
0.0000

> <Gold.PLP.Chemscore.Metal>
0.0000

> <Gold.Chemscore.Hbonds>
donor molecule, donor type, donor heavy atom, donor atom, acceptor molecule, acceptor atom, score
      L1  H     4    29       P1  7957  0.93
      L1  H     8    49       P1  7948  1.92

> <Gold.PLP.Chemscore.Internal.Correction>
0.0597

> <Gold.Rescore>
     Score         DG    S(hbond)    S(metal)    S(lipo)     H(rot)  DE(clash)    DE(int)     intcor
     18.15     -20.53       1.98        0.00     119.86       2.18       0.12       2.26       ----

> <Gold.Chemscore.Fitness>
18.1488

> <Gold.Chemscore.DG>
-20.5308

> <Gold.Chemscore.ZeroCoef>
-5.4800

> <Gold.Chemscore.Hbond>
1.9780

> <Gold.Chemscore.Metal>
0.0000

> <Gold.Chemscore.Lipo>
119.8595

> <Gold.Chemscore.Internal_Hbond>
0.0000

> <Gold.Chemscore.DEClash>
0.1194

> <Gold.Chemscore.DEInternal>
2.2627

> <Gold.Chemscore.Rot>
2.1793

> <Gold.Chemscore.Internal.Correction>
   9.000000E+99

> <Gold.Chemscore.Hbonds>
donor molecule, donor type, donor heavy atom, donor atom, acceptor molecule, acceptor atom, score
      L1  H     4    29       P1  7957  0.89
      L1  H     8    49       P1  7948  0.90

> <Gold.Chemscore.Hbond.Weighted>
-6.6064

> <Gold.Chemscore.Metal.Weighted>
-0.0000

> <Gold.Chemscore.Lipo.Weighted>
-14.0236

> <Gold.Chemscore.Internal_Hbond.Weighted>
0.0000

> <Gold.Chemscore.DEClash.Weighted>
0.1194

> <Gold.Chemscore.DEInternal.Weighted>
2.2627

> <Gold.Chemscore.Rot.Weighted>
5.5791

> <Gold.Chemscore.Internal.Correction.Weighted>
   9.000000E+99

> <Gold.Protein.RotatedTorsions>
[ 6907 6896 6895 6894 ] final -152.06 input  -60.11 | X-H torsion
[ 7974 7965 7964 7962 ] final -139.28 input  175.53 | X-H torsion
[ 8008 7997 7996 7995 ] final  115.38 input   59.86 | X-H torsion
[ 10167 10162 10161 10158 ] final -112.99 input  -65.29 | X-H torsion
[ 10718 10713 10712 10709 ] final  -98.53 input   66.30 | X-H torsion
[ 10763 10752 10751 10750 ] final   -4.03 input  -60.55 | X-H torsion
[ 11005 11000 10999 10996 ] final -168.19 input  -57.11 | X-H torsion

> <Gold.Protein.ActiveResidues>
 VAL166  LYS551  ARG553  GLY616  TRP617  ASP618  TYR619  PRO620  LYS621  CYS622 
 ASP623  PHE694  ASN695  SER759  ASP760  ASP761  ALA762  ILE779  LEU786  VAL792 
 PHE793  MET794  SER795  GLU796  ALA797  LYS798  CYS799  TRP800  GLU811  SER814 

> <Gold.Protein.RotatedAtoms>
  151.2222  133.4496  159.2600 H   0  0  0  0  0  0  0  0  0  0  0  0  # atno 6907 bound_to 6896
  151.0874  134.9895  159.8396 H   0  0  0  0  0  0  0  0  0  0  0  0  # atno 6908 bound_to 6896
  152.5431  134.2157  159.8821 H   0  0  0  0  0  0  0  0  0  0  0  0  # atno 6909 bound_to 6896
  144.8689  140.6337  143.5279 H   0  0  0  0  0  0  0  0  0  0  0  0  # atno 7974 bound_to 7965
  156.2378  140.2940  156.0359 H   0  0  0  0  0  0  0  0  0  0  0  0  # atno 8008 bound_to 7997
  155.2041  140.0410  157.2939 H   0  0  0  0  0  0  0  0  0  0  0  0  # atno 8009 bound_to 7997
  154.6111  140.2452  155.7676 H   0  0  0  0  0  0  0  0  0  0  0  0  # atno 8010 bound_to 7997
  140.1168  143.4479  152.1717 H   0  0  0  0  0  0  0  0  0  0  0  0  # atno 10167 bound_to 10162
  156.0110  130.5242  150.6536 H   0  0  0  0  0  0  0  0  0  0  0  0  # atno 10718 bound_to 10713
  153.3793  135.6998  153.6577 H   0  0  0  0  0  0  0  0  0  0  0  0  # atno 10763 bound_to 10752
  153.5195  135.3615  155.2626 H   0  0  0  0  0  0  0  0  0  0  0  0  # atno 10764 bound_to 10752
  154.8691  135.4154  154.3088 H   0  0  0  0  0  0  0  0  0  0  0  0  # atno 10765 bound_to 10752
  140.5448  134.5487  157.5108 H   0  0  0  0  0  0  0  0  0  0  0  0  # atno 11005 bound_to 11000
  145.4167  139.1570  143.4096 LP  0  0  0  0  0  0  0  0  0  0  0  0  # atno 17320 bound_to 7965
  146.2916  140.4275  142.8737 LP  0  0  0  0  0  0  0  0  0  0  0  0  # atno 17321 bound_to 7965
  139.5590  144.7393  151.4210 LP  0  0  0  0  0  0  0  0  0  0  0  0  # atno 17342 bound_to 10162
  140.6895  143.7895  150.7234 LP  0  0  0  0  0  0  0  0  0  0  0  0  # atno 17343 bound_to 10162
  157.4293  131.0847  151.1054 LP  0  0  0  0  0  0  0  0  0  0  0  0  # atno 17370 bound_to 10713
  157.1632  130.6235  149.5617 LP  0  0  0  0  0  0  0  0  0  0  0  0  # atno 17371 bound_to 10713
  139.9485  134.7659  156.0504 LP  0  0  0  0  0  0  0  0  0  0  0  0  # atno 17394 bound_to 11000
  141.1206  133.6614  156.3205 LP  0  0  0  0  0  0  0  0  0  0  0  0  # atno 17395 bound_to 11000

$$$$
