AV-unprocessed.smi:443|AV-procd|sdf|2586|dock5
  -GOLD-   2262022573D 1   1.00000     0.00000
 Structure written by MMmdl.
 48 49  0  0  0  0  0  0  0  0  1 V2000
  156.0473  137.5377  155.6225 C   0  0  0  0  0  0  0  0  0  0  0  0
  155.1988  137.2244  156.8249 C   0  0  0  0  0  0  0  0  0  0  0  0
  154.4919  138.1952  157.3032 N   0  0  0  0  0  0  0  0  0  0  0  0
  153.6793  138.0167  158.4051 N   0  0  0  0  0  0  0  0  0  0  0  0
  152.9050  139.2057  158.7773 C   0  0  0  0  0  0  0  0  0  0  0  0
  151.9597  139.6436  157.6327 C   0  0  1  0  0  0  0  0  0  0  0  0
  150.8194  138.8085  157.6279 O   0  0  0  0  0  0  0  0  0  0  0  0
  151.4723  141.0922  157.7831 C   0  0  0  0  0  0  0  0  0  0  0  0
  151.8006  141.5496  159.0883 O   0  0  0  0  0  0  0  0  0  0  0  0
  151.7223  142.9004  159.3597 C   0  0  0  0  0  0  0  0  0  0  0  0
  151.2691  143.8532  158.4104 C   0  0  0  0  0  0  0  0  0  0  0  0
  151.2183  145.2220  158.7309 C   0  0  0  0  0  0  0  0  0  0  0  0
  151.6197  145.6610  160.0033 C   0  0  0  0  0  0  0  0  0  0  0  0
  152.0674  144.7279  160.9545 C   0  0  0  0  0  0  0  0  0  0  0  0
  152.1197  143.3492  160.6467 C   0  0  0  0  0  0  0  0  0  0  0  0
  152.5973  142.3666  161.7175 C   0  0  0  0  0  0  0  0  0  0  0  0
  152.9939  143.0951  163.0123 C   0  0  0  0  0  0  0  0  0  0  0  0
  153.7356  141.4731  161.2004 C   0  0  0  0  0  0  0  0  0  0  0  0
  153.5408  136.8453  159.0885 C   0  0  0  0  0  0  0  0  0  0  0  0
  152.7983  136.7300  160.0645 O   0  0  0  0  0  0  0  0  0  0  0  0
  154.3449  135.7499  158.5420 C   0  0  0  0  0  0  0  0  0  0  0  0
  154.2308  134.5032  159.2278 C   0  0  0  0  0  0  0  0  0  0  0  0
  154.1271  133.4839  159.7667 N   0  0  0  0  0  0  0  0  0  0  0  0
  155.1391  135.9083  157.4539 C   0  0  0  0  0  0  0  0  0  0  0  0
  155.9865  134.7985  156.8468 C   0  0  0  0  0  0  0  0  0  0  0  0
  157.0580  137.1477  155.7423 H   0  0  0  0  0  0  0  0  0  0  0  0
  156.1334  138.6118  155.4596 H   0  0  0  0  0  0  0  0  0  0  0  0
  155.6174  137.0979  154.7225 H   0  0  0  0  0  0  0  0  0  0  0  0
  152.3564  139.0359  159.7062 H   0  0  0  0  0  0  0  0  0  0  0  0
  153.5973  140.0137  159.0223 H   0  0  0  0  0  0  0  0  0  0  0  0
  152.4498  139.5395  156.6632 H   0  0  0  0  0  0  0  0  0  0  0  0
  150.5295  138.6902  158.5195 H   0  0  0  0  0  0  0  0  0  0  0  0
  151.9676  141.7186  157.0392 H   0  0  0  0  0  0  0  0  0  0  0  0
  150.3951  141.1492  157.6159 H   0  0  0  0  0  0  0  0  0  0  0  0
  150.9544  143.5610  157.4203 H   0  0  0  0  0  0  0  0  0  0  0  0
  150.8726  145.9358  157.9980 H   0  0  0  0  0  0  0  0  0  0  0  0
  151.5829  146.7116  160.2509 H   0  0  0  0  0  0  0  0  0  0  0  0
  152.3703  145.0795  161.9296 H   0  0  0  0  0  0  0  0  0  0  0  0
  151.7799  141.6974  161.9817 H   0  0  0  0  0  0  0  0  0  0  0  0
  152.1564  143.6710  163.4073 H   0  0  0  0  0  0  0  0  0  0  0  0
  153.8253  143.7820  162.8539 H   0  0  0  0  0  0  0  0  0  0  0  0
  153.3001  142.3891  163.7842 H   0  0  0  0  0  0  0  0  0  0  0  0
  153.4264  140.9216  160.3122 H   0  0  0  0  0  0  0  0  0  0  0  0
  154.0316  140.7428  161.9538 H   0  0  0  0  0  0  0  0  0  0  0  0
  154.6205  142.0546  160.9404 H   0  0  0  0  0  0  0  0  0  0  0  0
  155.7316  133.8202  157.2530 H   0  0  0  0  0  0  0  0  0  0  0  0
  157.0434  134.9774  157.0470 H   0  0  0  0  0  0  0  0  0  0  0  0
  155.8442  134.7442  155.7671 H   0  0  0  0  0  0  0  0  0  0  0  0
  1  2  1  0  0  0  0
  1 26  1  0  0  0  0
  1 27  1  0  0  0  0
  1 28  1  0  0  0  0
  2 24  1  0  0  0  0
  2  3  2  0  0  0  0
  3  4  1  0  0  0  0
  4  5  1  0  0  0  0
  4 19  1  0  0  0  0
  5  6  1  0  0  0  0
  5 29  1  0  0  0  0
  5 30  1  0  0  0  0
  6  7  1  0  0  0  0
  6  8  1  0  0  0  0
  6 31  1  0  0  0  0
  7 32  1  0  0  0  0
  8  9  1  0  0  0  0
  8 33  1  0  0  0  0
  8 34  1  0  0  0  0
  9 10  1  0  0  0  0
 10 15  1  0  0  0  0
 10 11  2  0  0  0  0
 11 12  1  0  0  0  0
 11 35  1  0  0  0  0
 12 13  2  0  0  0  0
 12 36  1  0  0  0  0
 13 14  1  0  0  0  0
 13 37  1  0  0  0  0
 14 15  2  0  0  0  0
 14 38  1  0  0  0  0
 15 16  1  0  0  0  0
 16 17  1  0  0  0  0
 16 18  1  0  0  0  0
 16 39  1  0  0  0  0
 17 40  1  0  0  0  0
 17 41  1  0  0  0  0
 17 42  1  0  0  0  0
 18 43  1  0  0  0  0
 18 44  1  0  0  0  0
 18 45  1  0  0  0  0
 19 20  2  0  0  0  0
 19 21  1  0  0  0  0
 21 22  1  0  0  0  0
 21 24  2  0  0  0  0
 22 23  3  0  0  0  0
 24 25  1  0  0  0  0
 25 46  1  0  0  0  0
 25 47  1  0  0  0  0
 25 48  1  0  0  0  0
M  END
> <s_m_source_file>
AV-unprocessed.smi

> <i_m_source_file_index>
443

> <i_lp_mmshare_version>
43012

> <i_f3d_flags>
0

> <s_epik_input>
TiNDYyhjMVtDSDNdKWMoPU8pbihuYzFbQ0gzXSlbQ0gyXVtDQEhdKFtPSF0pW0NIMl1PYzJbY0hdW2NIXVtjSF1bY0hdYzJbQ0hdKFtDSDNdKVtDSDNd

> <s_epik_cmdline>
J2VwaWtfcHl0aG9uJywgJy1waCcsICc3LjAnLCAnLXRuJywgJzgnLCAnLW1hJywgJzIwMCcsICctbWV0YWxfYmluZGluZycsICctaW1hZScsICc8aW5maWxlLm1hZT4nLCAnLW9tYWUnLCAnPG91dGZpbGUubWFlPic=

> <r_lp_tautomer_probability>
1

> <r_epik_Ionization_Penalty>
1.17331e-07

> <r_epik_Ionization_Penalty_Charging>
1.57223e-10

> <r_epik_Ionization_Penalty_Neutral>
1.17174e-07

> <r_epik_State_Penalty>
-0

> <r_epik_Charging_Adjusted_Penalty>
1.57223e-10

> <i_epik_Tot_Q>
0

> <i_epik_Tot_abs_Q>
0

> <r_epik_Metal_State_Penalty>
-0

> <b_epik_Metal_Only>
0

> <s_lp_Force_Field>
OPLS_2005

> <r_lp_Energy>
30.2937

> <b_lp_Chiralities_Consistent>
1

> <s_lp_Variant>
AV-unprocessed.smi:443-2

> <Gold.Version>
5.8.1

> <Gold.Id.Protein>
6NUR|6NUR_protein|mol2

> <Gold.PLP.Fitness>
49.3177

> <Gold.PLP.PLP>
-46.6551

> <Gold.PLP.part.hbond>
-2.2606

> <Gold.PLP.part.metal>
0.0000

> <Gold.PLP.part.buried>
-6.1297

> <Gold.PLP.part.nonpolar>
-38.1778

> <Gold.PLP.part.repulsive>
0.0000

> <Gold.PLP.ligand.clash>
0.0000

> <Gold.PLP.ligand.torsion>
0.9482

> <Gold.PLP.Chemscore.Hbond>
1.4640

> <Gold.PLP.Chemscore.CHOScore>
0.0000

> <Gold.PLP.Chemscore.Metal>
0.0000

> <Gold.Chemscore.Hbonds>
donor molecule, donor type, donor heavy atom, donor atom, acceptor molecule, acceptor atom, score
      P1  H  6896  6907       L1    20  1.00
      P1  H  6896  6908       L1    23  0.30
      P1  H  7997  8010       L1     3  0.46

> <Gold.PLP.Chemscore.Internal.Correction>
0.1669

> <Gold.Rescore>
     Score         DG    S(hbond)    S(metal)    S(lipo)     H(rot)  DE(clash)    DE(int)     intcor
     17.63     -19.94       1.30        0.00     139.18       2.41       0.06       2.26       ----

> <Gold.Chemscore.Fitness>
17.6285

> <Gold.Chemscore.DG>
-19.9443

> <Gold.Chemscore.ZeroCoef>
-5.4800

> <Gold.Chemscore.Hbond>
1.3011

> <Gold.Chemscore.Metal>
0.0000

> <Gold.Chemscore.Lipo>
139.1797

> <Gold.Chemscore.Internal_Hbond>
0.0000

> <Gold.Chemscore.DEClash>
0.0584

> <Gold.Chemscore.DEInternal>
2.2573

> <Gold.Chemscore.Rot>
2.4084

> <Gold.Chemscore.Internal.Correction>
   9.000000E+99

> <Gold.Chemscore.Hbonds>
donor molecule, donor type, donor heavy atom, donor atom, acceptor molecule, acceptor atom, score
      P1  H  6896  6907       L1    20  0.74
      P1  H  6896  6908       L1    23  0.02
      P1  H  7997  8010       L1     3  0.33

> <Gold.Chemscore.Hbond.Weighted>
-4.3457

> <Gold.Chemscore.Metal.Weighted>
-0.0000

> <Gold.Chemscore.Lipo.Weighted>
-16.2840

> <Gold.Chemscore.Internal_Hbond.Weighted>
0.0000

> <Gold.Chemscore.DEClash.Weighted>
0.0584

> <Gold.Chemscore.DEInternal.Weighted>
2.2573

> <Gold.Chemscore.Rot.Weighted>
6.1655

> <Gold.Chemscore.Internal.Correction.Weighted>
   9.000000E+99

> <Gold.Protein.RotatedTorsions>
[ 6907 6896 6895 6894 ] final   24.46 input  -60.11 | X-H torsion
[ 7974 7965 7964 7962 ] final   84.70 input  175.53 | X-H torsion
[ 8008 7997 7996 7995 ] final    2.57 input   59.86 | X-H torsion
[ 10167 10162 10161 10158 ] final -114.71 input  -65.29 | X-H torsion
[ 10718 10713 10712 10709 ] final   31.63 input   66.30 | X-H torsion
[ 10763 10752 10751 10750 ] final  149.44 input  -60.55 | X-H torsion
[ 11005 11000 10999 10996 ] final   50.06 input  -57.11 | X-H torsion

> <Gold.Protein.ActiveResidues>
 VAL166  LYS551  ARG553  GLY616  TRP617  ASP618  TYR619  PRO620  LYS621  CYS622 
 ASP623  PHE694  ASN695  SER759  ASP760  ASP761  ALA762  ILE779  LEU786  VAL792 
 PHE793  MET794  SER795  GLU796  ALA797  LYS798  CYS799  TRP800  GLU811  SER814 

> <Gold.Protein.RotatedAtoms>
  151.9578  135.0138  160.0545 H   0  0  0  0  0  0  0  0  0  0  0  0  # atno 6907 bound_to 6896
  152.1895  133.4759  159.5009 H   0  0  0  0  0  0  0  0  0  0  0  0  # atno 6908 bound_to 6896
  150.6932  134.1647  159.4232 H   0  0  0  0  0  0  0  0  0  0  0  0  # atno 6909 bound_to 6896
  145.5953  139.2344  143.2276 H   0  0  0  0  0  0  0  0  0  0  0  0  # atno 7974 bound_to 7965
  154.6932  140.2657  155.6792 H   0  0  0  0  0  0  0  0  0  0  0  0  # atno 8008 bound_to 7997
  156.2739  140.2787  156.1441 H   0  0  0  0  0  0  0  0  0  0  0  0  # atno 8009 bound_to 7997
  155.0867  140.0373  157.2646 H   0  0  0  0  0  0  0  0  0  0  0  0  # atno 8010 bound_to 7997
  140.0980  143.4639  152.1829 H   0  0  0  0  0  0  0  0  0  0  0  0  # atno 10167 bound_to 10162
  157.2749  130.7226  149.6524 H   0  0  0  0  0  0  0  0  0  0  0  0  # atno 10718 bound_to 10713
  154.0713  135.2866  155.3307 H   0  0  0  0  0  0  0  0  0  0  0  0  # atno 10763 bound_to 10752
  154.6745  135.5287  153.8184 H   0  0  0  0  0  0  0  0  0  0  0  0  # atno 10764 bound_to 10752
  153.0484  135.6566  154.0894 H   0  0  0  0  0  0  0  0  0  0  0  0  # atno 10765 bound_to 10752
  140.1049  134.5031  155.8729 H   0  0  0  0  0  0  0  0  0  0  0  0  # atno 11005 bound_to 11000
  146.1617  140.6779  142.9274 LP  0  0  0  0  0  0  0  0  0  0  0  0  # atno 17320 bound_to 7965
  144.7333  140.4736  143.6922 LP  0  0  0  0  0  0  0  0  0  0  0  0  # atno 17321 bound_to 7965
  139.5687  144.7450  151.3951 LP  0  0  0  0  0  0  0  0  0  0  0  0  # atno 17342 bound_to 10162
  140.6993  143.7671  150.7377 LP  0  0  0  0  0  0  0  0  0  0  0  0  # atno 17343 bound_to 10162
  155.9663  130.4356  150.5098 LP  0  0  0  0  0  0  0  0  0  0  0  0  # atno 17370 bound_to 10713
  157.3030  131.0649  151.2055 LP  0  0  0  0  0  0  0  0  0  0  0  0  # atno 17371 bound_to 10713
  141.2115  133.6708  156.6592 LP  0  0  0  0  0  0  0  0  0  0  0  0  # atno 17394 bound_to 11000
  140.3169  134.8040  157.4221 LP  0  0  0  0  0  0  0  0  0  0  0  0  # atno 17395 bound_to 11000

$$$$
