#       Name:                AV-unprocessed.smi:72
#       Creating user name   scv26
#       Creation time:       Thu Mar 26 17:05:34 2020


#       File generated by GOLD software.
#

@<TRIPOS>MOLECULE
AV-unprocessed.smi:72
    41    42     1
SMALL
NO_CHARGES


@<TRIPOS>ATOM
      1 ****        -4.1775   2.8181   1.7877 N.2            1 S1                 0.0000
      2 ****        -3.1919   2.2818   1.2127 C.2            1 S1                 0.0000
      3 ****        -2.0745   1.7974   1.9936 N.2            1 S1                 0.0000
      4 ****        -1.0809   1.2565   1.3577 C.2            1 S1                 0.0000
      5 ****        -1.0717   1.1371  -0.0948 N.am           1 S1                 0.0000
      6 ****         0.0859   0.5022  -0.8456 C.3            1 S1                 0.0000
      7 ****         1.2401   0.5270  -0.0516 O.3            1 S1                 0.0000
      8 ****         1.6080  -0.8009   0.3010 C.3            1 S1                 0.0000
      9 ****         3.0993  -0.8745   0.6744 C.3            1 S1                 0.0000
     10 ****         3.9389  -0.7525  -0.4554 O.3            1 S1                 0.0000
     11 ****         1.1431  -1.6401  -0.8891 C.3            1 S1                 0.0000
     12 ****         1.0217  -3.0169  -0.5823 O.3            1 S1                 0.0000
     13 ****        -0.1824  -0.9722  -1.2441 C.3            1 S1                 0.0000
     14 ****        -1.2778  -1.5566  -0.5543 O.3            1 S1                 0.0000
     15 ****        -2.1868   1.6124  -0.8343 C.2            1 S1                 0.0000
     16 ****        -2.1679   1.4811  -2.0585 O.2            1 S1                 0.0000
     17 ****        -3.2264   2.1786  -0.1604 N.pl3          1 S1                -1.0000
     18 ****         0.2736   1.1515  -1.7023 H              1 S1                 0.0000
     19 ****         1.0180  -1.0707   1.1788 H              1 S1                 0.0000
     20 ****         1.8261  -1.5228  -1.7309 H              1 S1                 0.0000
     21 ****        -0.3851  -1.0275  -2.3141 H              1 S1                 0.0000
     22 ****        -4.8937   3.1146   1.1411 H              1 S1                 0.0000
     23 ****        -0.2036   0.8609   1.8693 H              1 S1                 0.0000
     24 ****         3.3502  -0.1017   1.4013 H              1 S1                 0.0000
     25 ****         3.3115  -1.8350   1.1445 H              1 S1                 0.0000
     26 ****         4.8375  -0.8079  -0.1684 H              1 S1                 0.0000
     27 ****         0.5928  -3.4459  -1.3066 H              1 S1                 0.0000
     28 ****        -2.0471  -1.0322  -0.7196 H              1 S1                 0.0000
     29 ****        -4.2428   2.9370   2.7785 LP             1 S1                 0.0000
     30 ****        -2.0680   1.8767   2.9904 LP             1 S1                 0.0000
     31 ****         1.0608   1.0539   0.7792 LP             1 S1                 0.0000
     32 ****         1.9861   0.9540  -0.5627 LP             1 S1                 0.0000
     33 ****         3.7804   0.1292  -0.8998 LP             1 S1                 0.0000
     34 ****         3.7449  -1.4910  -1.1012 LP             1 S1                 0.0000
     35 ****         0.4774  -3.1314   0.2488 LP             1 S1                 0.0000
     36 ****         1.9291  -3.4137  -0.4437 LP             1 S1                 0.0000
     37 ****        -1.0871  -1.5771   0.4271 LP             1 S1                 0.0000
     38 ****        -1.4267  -2.4887  -0.8844 LP             1 S1                 0.0000
     39 ****        -1.3826   1.0502  -2.5031 LP             1 S1                 0.0000
     40 ****        -2.9378   1.8054  -2.6081 LP             1 S1                 0.0000
     41 ****        -4.0188   2.5211  -0.6652 LP             1 S1                 0.0000
@<TRIPOS>BOND
    1    1    2 2     
    2    1   22 1     
    3    2   17 1     
    4    2    3 1     
    5    3    4 2     
    6    4    5 1     
    7    4   23 1     
    8    5    6 1     
    9    5   15 am    
   10    6   18 1     
   11    6   13 1     
   12    6    7 1     
   13    7    8 1     
   14    8   19 1     
   15    8    9 1     
   16    8   11 1     
   17    9   10 1     
   18    9   24 1     
   19    9   25 1     
   20   10   26 1     
   21   11   20 1     
   22   11   12 1     
   23   11   13 1     
   24   12   27 1     
   25   13   21 1     
   26   13   14 1     
   27   14   28 1     
   28   15   16 2     
   29   15   17 1     
   30    1   29 1     
   31    3   30 1     
   32    7   31 1     
   33    7   32 1     
   34   10   33 1     
   35   10   34 1     
   36   12   35 1     
   37   12   36 1     
   38   14   37 1     
   39   14   38 1     
   40   16   39 1     
   41   16   40 1     
   42   17   41 1     
@<TRIPOS>SUBSTRUCTURE
      1 S1             1
@<TRIPOS>SET
LONE_PAIRS      STATIC     ATOMS    <user>   **** ""
13 29 30 31 32 33 34 35 36 37 38 39 40 41
DONOR_HYDROGENS      STATIC     ATOMS    <user>   **** ""
4 22 26 27 28
ATOM$BLUE        STATIC     ATOMS    COLORGROUP SYSTEM
13 29 30 31 32 33 34 35 36 37 38 39 40 41
ATOM$RED        STATIC     ATOMS    COLORGROUP SYSTEM
4 22 26 27 28
