AV-unprocessed.smi:3181|AV-procd|sdf|12144|dock6
  -GOLD-   2272017583D 1   1.00000     0.00000
 Structure written by MMmdl.
 42 43  0  0  0  0  0  0  0  0  2 V2000
  147.9823  141.1790  156.3416 C   0  0  0  0  0  0  0  0  0  0  0  0
  149.4809  140.8903  156.1555 C   0  0  1  0  0  0  0  0  0  0  0  0
  149.8112  140.3925  154.7315 C   0  0  0  0  0  0  0  0  0  0  0  0
  150.8140  139.3440  154.7187 N   0  0  0  0  0  0  0  0  0  0  0  0
  150.7603  138.0938  154.2557 C   0  0  0  0  0  0  0  0  0  0  0  0
  151.8897  137.4175  154.4110 N   0  0  0  0  0  0  0  0  0  0  0  0
  152.6527  138.3801  155.0096 C   0  0  0  0  0  0  0  0  0  0  0  0
  152.0559  139.5549  155.2135 N   0  0  0  0  0  0  0  0  0  0  0  0
  150.2610  142.1108  156.4630 N   0  3  0  0  0  0  0  0  0  0  0  0
  150.5478  142.3603  157.8950 C   0  0  2  0  0  0  0  0  0  0  0  0
  150.7031  143.8701  158.1338 C   0  0  0  0  0  0  0  0  0  0  0  0
  151.0065  144.1705  159.6073 C   0  0  0  0  0  0  0  0  0  0  0  0
  152.2732  143.4395  160.0954 C   0  0  1  0  0  0  0  0  0  0  0  0
  152.5420  143.7893  161.5699 C   0  0  0  0  0  0  0  0  0  0  0  0
  152.1491  141.9126  159.8483 C   0  0  2  0  0  0  0  0  0  0  0  0
  153.4111  141.1339  160.2613 C   0  0  0  0  0  0  0  0  0  0  0  0
  151.8142  141.6195  158.3705 C   0  0  0  0  0  0  0  0  0  0  0  0
  147.3811  140.2796  156.2051 H   0  0  0  0  0  0  0  0  0  0  0  0
  147.6297  141.9256  155.6292 H   0  0  0  0  0  0  0  0  0  0  0  0
  147.7773  141.5532  157.3452 H   0  0  0  0  0  0  0  0  0  0  0  0
  149.7476  140.1107  156.8709 H   0  0  0  0  0  0  0  0  0  0  0  0
  148.9105  140.0113  154.2481 H   0  0  0  0  0  0  0  0  0  0  0  0
  150.1735  141.2096  154.1073 H   0  0  0  0  0  0  0  0  0  0  0  0
  149.8782  137.6684  153.7995 H   0  0  0  0  0  0  0  0  0  0  0  0
  153.6786  138.2106  155.3021 H   0  0  0  0  0  0  0  0  0  0  0  0
  151.1286  142.0899  155.9462 H   0  0  0  0  0  0  0  0  0  0  0  0
  149.6911  142.0136  158.4755 H   0  0  0  0  0  0  0  0  0  0  0  0
  151.5061  144.2662  157.5100 H   0  0  0  0  0  0  0  0  0  0  0  0
  149.7931  144.3922  157.8357 H   0  0  0  0  0  0  0  0  0  0  0  0
  151.1238  145.2470  159.7382 H   0  0  0  0  0  0  0  0  0  0  0  0
  150.1524  143.8792  160.2204 H   0  0  0  0  0  0  0  0  0  0  0  0
  153.1166  143.8114  159.5115 H   0  0  0  0  0  0  0  0  0  0  0  0
  151.7722  143.3770  162.2230 H   0  0  0  0  0  0  0  0  0  0  0  0
  152.5579  144.8692  161.7192 H   0  0  0  0  0  0  0  0  0  0  0  0
  153.5066  143.4105  161.9068 H   0  0  0  0  0  0  0  0  0  0  0  0
  151.3222  141.5387  160.4541 H   0  0  0  0  0  0  0  0  0  0  0  0
  154.2951  141.5063  159.7429 H   0  0  0  0  0  0  0  0  0  0  0  0
  153.3116  140.0738  160.0257 H   0  0  0  0  0  0  0  0  0  0  0  0
  153.5970  141.2009  161.3329 H   0  0  0  0  0  0  0  0  0  0  0  0
  151.6820  140.5441  158.2493 H   0  0  0  0  0  0  0  0  0  0  0  0
  152.6608  141.8995  157.7414 H   0  0  0  0  0  0  0  0  0  0  0  0
  149.7181  142.8966  156.1339 H   0  0  0  0  0  0  0  0  0  0  0  0
  1  2  1  0  0  0  0
  1 18  1  0  0  0  0
  1 19  1  0  0  0  0
  1 20  1  0  0  0  0
  2  3  1  0  0  0  0
  2  9  1  0  0  0  0
  2 21  1  0  0  0  0
  3  4  1  0  0  0  0
  3 22  1  0  0  0  0
  3 23  1  0  0  0  0
  4  8  1  0  0  0  0
  4  5  1  0  0  0  0
  5  6  2  0  0  0  0
  5 24  1  0  0  0  0
  6  7  1  0  0  0  0
  7  8  2  0  0  0  0
  7 25  1  0  0  0  0
  9 10  1  0  0  0  0
  9 26  1  0  0  0  0
  9 42  1  0  0  0  0
 10 17  1  0  0  0  0
 10 11  1  0  0  0  0
 10 27  1  0  0  0  0
 11 12  1  0  0  0  0
 11 28  1  0  0  0  0
 11 29  1  0  0  0  0
 12 13  1  0  0  0  0
 12 30  1  0  0  0  0
 12 31  1  0  0  0  0
 13 14  1  0  0  0  0
 13 15  1  0  0  0  0
 13 32  1  0  0  0  0
 14 33  1  0  0  0  0
 14 34  1  0  0  0  0
 14 35  1  0  0  0  0
 15 16  1  0  0  0  0
 15 17  1  0  0  0  0
 15 36  1  0  0  0  0
 16 37  1  0  0  0  0
 16 38  1  0  0  0  0
 16 39  1  0  0  0  0
 17 40  1  0  0  0  0
 17 41  1  0  0  0  0
M  CHG  1   9   1
M  END
> <s_m_source_file>
AV-unprocessed.smi

> <i_m_source_file_index>
3181

> <i_lp_mmshare_version>
43012

> <i_f3d_flags>
0

> <s_epik_input>
bjFbY0hdbltjSF1uMVtDSDJdW0NAQEhdKFtDSDNdKVtOSF1bQ0BASF0yW0NIMl1bQ0gyXVtDQEBIXShbQ0gzXSlbQ0BASF0oW0NIM10pW0NIMl0y

> <s_epik_cmdline>
J2VwaWtfcHl0aG9uJywgJy1waCcsICc3LjAnLCAnLXRuJywgJzgnLCAnLW1hJywgJzIwMCcsICctbWV0YWxfYmluZGluZycsICctaW1hZScsICc8aW5maWxlLm1hZT4nLCAnLW9tYWUnLCAnPG91dGZpbGUubWFlPic=

> <r_lp_tautomer_probability>
1

> <r_epik_Ionization_Penalty>
0.000617007

> <r_epik_Ionization_Penalty_Charging>
0.000616215

> <r_epik_Ionization_Penalty_Neutral>
7.92544e-07

> <r_epik_State_Penalty>
0.000388807

> <r_epik_Charging_Adjusted_Penalty>
0.00100502

> <i_epik_Tot_Q>
1

> <i_epik_Tot_abs_Q>
1

> <r_epik_Metal_State_Penalty>
-0

> <b_epik_Metal_Only>
0

> <s_lp_Force_Field>
OPLS_2005

> <r_lp_Energy>
19.3641

> <b_lp_Chiralities_Consistent>
1

> <s_lp_Variant>
AV-unprocessed.smi:3181-10

> <Gold.Version>
5.8.1

> <Gold.Id.Protein>
6NUR|6NUR_protein|mol2

> <Gold.PLP.Fitness>
48.1762

> <Gold.PLP.PLP>
-38.9376

> <Gold.PLP.part.hbond>
-3.0000

> <Gold.PLP.part.metal>
0.0000

> <Gold.PLP.part.buried>
-3.4843

> <Gold.PLP.part.nonpolar>
-32.9781

> <Gold.PLP.part.repulsive>
0.2473

> <Gold.PLP.ligand.clash>
0.0000

> <Gold.PLP.ligand.torsion>
1.1089

> <Gold.PLP.Chemscore.Hbond>
2.8130

> <Gold.PLP.Chemscore.CHOScore>
1.0000

> <Gold.PLP.Chemscore.Metal>
0.0000

> <Gold.Chemscore.Hbonds>
donor molecule, donor type, donor heavy atom, donor atom, acceptor molecule, acceptor atom, score
      L1  H     9    42       P1  8028  1.85
      P1  H 10752 10765       L1     6  0.94
      L1  C     5    24       P1  7948  0.96

> <Gold.PLP.Chemscore.Internal.Correction>
0.0175

> <Gold.Rescore>
     Score         DG    S(hbond)    S(metal)    S(lipo)     H(rot)  DE(clash)    DE(int)     intcor
     15.28     -16.45       1.71        0.00      91.17       2.11       0.02       1.15       ----

> <Gold.Chemscore.Fitness>
15.2777

> <Gold.Chemscore.DG>
-16.4488

> <Gold.Chemscore.ZeroCoef>
-5.4800

> <Gold.Chemscore.Hbond>
1.7074

> <Gold.Chemscore.Metal>
0.0000

> <Gold.Chemscore.Lipo>
91.1666

> <Gold.Chemscore.Internal_Hbond>
0.0000

> <Gold.Chemscore.DEClash>
0.0174

> <Gold.Chemscore.DEInternal>
1.1538

> <Gold.Chemscore.Rot>
2.1095

> <Gold.Chemscore.Internal.Correction>
   9.000000E+99

> <Gold.Chemscore.Hbonds>
donor molecule, donor type, donor heavy atom, donor atom, acceptor molecule, acceptor atom, score
      L1  H     9    42       P1  8028  0.89
      P1  H 10752 10765       L1     6  0.59

> <Gold.Chemscore.Hbond.Weighted>
-5.7027

> <Gold.Chemscore.Metal.Weighted>
-0.0000

> <Gold.Chemscore.Lipo.Weighted>
-10.6665

> <Gold.Chemscore.Internal_Hbond.Weighted>
0.0000

> <Gold.Chemscore.DEClash.Weighted>
0.0174

> <Gold.Chemscore.DEInternal.Weighted>
1.1538

> <Gold.Chemscore.Rot.Weighted>
5.4003

> <Gold.Chemscore.Internal.Correction.Weighted>
   9.000000E+99

> <Gold.Protein.RotatedTorsions>
[ 6907 6896 6895 6894 ] final  175.51 input  -60.11 | X-H torsion
[ 7974 7965 7964 7962 ] final -146.72 input  175.53 | X-H torsion
[ 8008 7997 7996 7995 ] final -154.56 input   59.86 | X-H torsion
[ 10167 10162 10161 10158 ] final  140.13 input  -65.29 | X-H torsion
[ 10718 10713 10712 10709 ] final    6.17 input   66.30 | X-H torsion
[ 10763 10752 10751 10750 ] final  162.15 input  -60.55 | X-H torsion
[ 11005 11000 10999 10996 ] final -156.38 input  -57.11 | X-H torsion

> <Gold.Protein.ActiveResidues>
 VAL166  LYS551  ARG553  GLY616  TRP617  ASP618  TYR619  PRO620  LYS621  CYS622 
 ASP623  PHE694  ASN695  SER759  ASP760  ASP761  ALA762  ILE779  LEU786  VAL792 
 PHE793  MET794  SER795  GLU796  ALA797  LYS798  CYS799  TRP800  GLU811  SER814 

> <Gold.Protein.RotatedAtoms>
  151.7351  133.3319  159.3350 H   0  0  0  0  0  0  0  0  0  0  0  0  # atno 6907 bound_to 6896
  150.7596  134.6328  159.6205 H   0  0  0  0  0  0  0  0  0  0  0  0  # atno 6908 bound_to 6896
  152.3566  134.6933  160.0271 H   0  0  0  0  0  0  0  0  0  0  0  0  # atno 6909 bound_to 6896
  144.8140  140.5419  143.5623 H   0  0  0  0  0  0  0  0  0  0  0  0  # atno 7974 bound_to 7965
  155.6883  140.0752  157.2458 H   0  0  0  0  0  0  0  0  0  0  0  0  # atno 8008 bound_to 7997
  154.4093  140.1669  156.2110 H   0  0  0  0  0  0  0  0  0  0  0  0  # atno 8009 bound_to 7997
  155.9475  140.3380  155.6382 H   0  0  0  0  0  0  0  0  0  0  0  0  # atno 8010 bound_to 7997
  139.5058  144.6253  151.5952 H   0  0  0  0  0  0  0  0  0  0  0  0  # atno 10167 bound_to 10162
  156.9181  130.5781  149.5647 H   0  0  0  0  0  0  0  0  0  0  0  0  # atno 10718 bound_to 10713
  154.2740  135.2765  155.2726 H   0  0  0  0  0  0  0  0  0  0  0  0  # atno 10763 bound_to 10752
  154.5276  135.5738  153.6736 H   0  0  0  0  0  0  0  0  0  0  0  0  # atno 10764 bound_to 10752
  152.9940  135.6220  154.2896 H   0  0  0  0  0  0  0  0  0  0  0  0  # atno 10765 bound_to 10752
  140.6762  134.4194  157.5229 H   0  0  0  0  0  0  0  0  0  0  0  0  # atno 11005 bound_to 11000
  145.5257  139.1476  143.3528 LP  0  0  0  0  0  0  0  0  0  0  0  0  # atno 17320 bound_to 7965
  146.2442  140.5397  142.8921 LP  0  0  0  0  0  0  0  0  0  0  0  0  # atno 17321 bound_to 7965
  140.5968  143.9682  150.6359 LP  0  0  0  0  0  0  0  0  0  0  0  0  # atno 17342 bound_to 10162
  140.2880  143.3343  152.1089 LP  0  0  0  0  0  0  0  0  0  0  0  0  # atno 17343 bound_to 10162
  156.0504  130.5574  150.8975 LP  0  0  0  0  0  0  0  0  0  0  0  0  # atno 17370 bound_to 10713
  157.5925  131.0944  150.9096 LP  0  0  0  0  0  0  0  0  0  0  0  0  # atno 17371 bound_to 10713
  139.8966  134.8656  156.2081 LP  0  0  0  0  0  0  0  0  0  0  0  0  # atno 17394 bound_to 11000
  141.0353  133.6966  156.1502 LP  0  0  0  0  0  0  0  0  0  0  0  0  # atno 17395 bound_to 11000

$$$$
