#       Name:                AV-unprocessed.smi:480
#       Creating user name   scv26
#       Creation time:       Thu Mar 26 23:09:41 2020


#       File generated by GOLD software.
#

@<TRIPOS>MOLECULE
AV-unprocessed.smi:480
    52    54     1
SMALL
NO_CHARGES


@<TRIPOS>ATOM
      1 ****        -3.2808   2.2190   3.1410 C.3            1 S1                 0.0000
      2 ****        -3.0122   2.9374   1.8127 C.3            1 S1                 0.0000
      3 ****        -3.4463   2.1372   0.6175 C.2            1 S1                 0.0000
      4 ****        -4.7426   1.9886   0.3378 N.2            1 S1                 0.0000
      5 ****        -4.7269   1.2079  -0.7996 C.ar           1 S1                 0.0000
      6 ****        -5.7900   0.7037  -1.5827 C.ar           1 S1                 0.0000
      7 ****        -5.5258  -0.0843  -2.7221 C.ar           1 S1                 0.0000
      8 ****        -4.1978  -0.3778  -3.0940 C.ar           1 S1                 0.0000
      9 ****        -3.1247   0.1165  -2.3278 C.ar           1 S1                 0.0000
     10 ****        -3.3939   0.9022  -1.1905 C.ar           1 S1                 0.0000
     11 ****        -2.5864   1.5296  -0.2456 N.pl3          1 S1                 0.0000
     12 ****        -1.1272   1.5075  -0.2544 C.3            1 S1                 0.0000
     13 ****        -0.5417   0.1911   0.2935 C.3            1 S1                 0.0000
     14 ****        -0.9055   0.0517   1.6516 O.3            1 S1                 0.0000
     15 ****         0.9920   0.1676   0.1939 C.3            1 S1                 0.0000
     16 ****         1.4391  -1.1818   0.2189 O.3            1 S1                 0.0000
     17 ****         2.7896  -1.4235   0.0818 C.ar           1 S1                 0.0000
     18 ****         3.7719  -0.4095  -0.0531 C.ar           1 S1                 0.0000
     19 ****         5.1323  -0.7471  -0.1919 C.ar           1 S1                 0.0000
     20 ****         5.5313  -2.0979  -0.1982 C.ar           1 S1                 0.0000
     21 ****         6.9944  -2.4598  -0.3448 C.3            1 S1                 0.0000
     22 ****         7.6476  -2.6455   0.9597 C.1            1 S1                 0.0000
     23 ****         8.1612  -2.7915   1.9862 N.1            1 S1                 0.0000
     24 ****         4.5618  -3.1104  -0.0625 C.ar           1 S1                 0.0000
     25 ****         3.2021  -2.7719   0.0768 C.ar           1 S1                 0.0000
     26 ****        -2.9613   2.8313   3.9843 H              1 S1                 0.0000
     27 ****        -2.7463   1.2718   3.1975 H              1 S1                 0.0000
     28 ****        -4.3434   2.0100   3.2674 H              1 S1                 0.0000
     29 ****        -3.5558   3.8827   1.8015 H              1 S1                 0.0000
     30 ****        -1.9609   3.2058   1.7518 H              1 S1                 0.0000
     31 ****        -6.8101   0.9244  -1.3060 H              1 S1                 0.0000
     32 ****        -6.3456  -0.4647  -3.3136 H              1 S1                 0.0000
     33 ****        -4.0032  -0.9819  -3.9681 H              1 S1                 0.0000
     34 ****        -2.1066  -0.1059  -2.6108 H              1 S1                 0.0000
     35 ****        -0.8080   1.6406  -1.2887 H              1 S1                 0.0000
     36 ****        -0.7240   2.3646   0.2802 H              1 S1                 0.0000
     37 ****        -0.9562  -0.6453  -0.2710 H              1 S1                 0.0000
     38 ****        -0.5615  -0.7689   1.9704 H              1 S1                 0.0000
     39 ****         1.2948   0.6099  -0.7565 H              1 S1                 0.0000
     40 ****         1.4435   0.7568   0.9944 H              1 S1                 0.0000
     41 ****         3.5084   0.6371  -0.0529 H              1 S1                 0.0000
     42 ****         5.8697   0.0356  -0.2933 H              1 S1                 0.0000
     43 ****         7.0957  -3.3824  -0.9170 H              1 S1                 0.0000
     44 ****         7.5238  -1.6769  -0.8882 H              1 S1                 0.0000
     45 ****         4.8589  -4.1489  -0.0636 H              1 S1                 0.0000
     46 ****         2.4670  -3.5568   0.1795 H              1 S1                 0.0000
     47 ****        -5.5319   2.3537   0.8315 LP             1 S1                 0.0000
     48 ****        -1.9019   0.0558   1.7363 LP             1 S1                 0.0000
     49 ****        -0.5227   0.8075   2.1829 LP             1 S1                 0.0000
     50 ****         0.9749  -1.6617  -0.5256 LP             1 S1                 0.0000
     51 ****         1.1555  -1.5718   1.0949 LP             1 S1                 0.0000
     52 ****         8.6051  -2.9176   2.8733 LP             1 S1                 0.0000
@<TRIPOS>BOND
    1    1    2 1     
    2    1   26 1     
    3    1   27 1     
    4    1   28 1     
    5    2    3 1     
    6    2   29 1     
    7    2   30 1     
    8    3   11 1     
    9    3    4 2     
   10    4    5 1     
   11    5   10 ar    
   12    5    6 ar    
   13    6    7 ar    
   14    6   31 1     
   15    7    8 ar    
   16    7   32 1     
   17    8    9 ar    
   18    8   33 1     
   19    9   10 ar    
   20    9   34 1     
   21   10   11 1     
   22   11   12 1     
   23   12   13 1     
   24   12   35 1     
   25   12   36 1     
   26   13   14 1     
   27   13   15 1     
   28   13   37 1     
   29   14   38 1     
   30   15   16 1     
   31   15   39 1     
   32   15   40 1     
   33   16   17 1     
   34   17   25 ar    
   35   17   18 ar    
   36   18   19 ar    
   37   18   41 1     
   38   19   20 ar    
   39   19   42 1     
   40   20   21 1     
   41   20   24 ar    
   42   21   22 1     
   43   21   43 1     
   44   21   44 1     
   45   22   23 3     
   46   24   25 ar    
   47   24   45 1     
   48   25   46 1     
   49    4   47 1     
   50   14   48 1     
   51   14   49 1     
   52   16   50 1     
   53   16   51 1     
   54   23   52 1     
@<TRIPOS>SUBSTRUCTURE
      1 S1             1
@<TRIPOS>SET
LONE_PAIRS      STATIC     ATOMS    <user>   **** ""
6 47 48 49 50 51 52
DONOR_HYDROGENS      STATIC     ATOMS    <user>   **** ""
1 38
ATOM$BLUE        STATIC     ATOMS    COLORGROUP SYSTEM
6 47 48 49 50 51 52
ATOM$RED        STATIC     ATOMS    COLORGROUP SYSTEM
1 38
