AV-unprocessed.smi:53|AV-procd|sdf|526|dock1
  -GOLD-   2262016403D 1   1.00000     0.00000
 Structure written by MMmdl.
 30 31  0  0  0  0  0  0  0  0  1 V2000
  152.3428  143.4212  159.5971 N   0  0  0  0  0  0  0  0  0  0  0  0
  152.1010  142.3245  158.8650 C   0  0  0  0  0  0  0  0  0  0  0  0
  150.9285  142.2535  158.0227 C   0  0  0  0  0  0  0  0  0  0  0  0
  150.7516  141.1158  157.3153 C   0  0  0  0  0  0  0  0  0  0  0  0
  151.6460  140.0548  157.3844 N   0  0  0  0  0  0  0  0  0  0  0  0
  151.4454  138.7714  156.5970 C   0  0  1  0  0  0  0  0  0  0  0  0
  150.1370  138.7156  156.1071 O   0  0  0  0  0  0  0  0  0  0  0  0
  150.1302  138.9315  154.6993 C   0  0  2  0  0  0  0  0  0  0  0  0
  148.8540  138.3642  154.0542 C   0  0  0  0  0  0  0  0  0  0  0  0
  148.7530  136.9806  154.3157 O   0  0  0  0  0  0  0  0  0  0  0  0
  151.4453  138.2843  154.2494 C   0  0  2  0  0  0  0  0  0  0  0  0
  151.3127  136.8784  154.1371 O   0  0  0  0  0  0  0  0  0  0  0  0
  152.3986  138.6425  155.3818 C   0  0  1  0  0  0  0  0  0  0  0  0
  153.0850  139.8408  155.0607 O   0  0  0  0  0  0  0  0  0  0  0  0
  152.7861  140.1566  158.2176 C   0  0  0  0  0  0  0  0  0  0  0  0
  153.6097  139.2459  158.2981 O   0  0  0  0  0  0  0  0  0  0  0  0
  152.9488  141.3162  158.9271 N   0  0  0  0  0  0  0  0  0  0  0  0
  151.5545  137.9604  157.3199 H   0  0  0  0  0  0  0  0  0  0  0  0
  150.2021  140.0026  154.5016 H   0  0  0  0  0  0  0  0  0  0  0  0
  151.7776  138.6678  153.2835 H   0  0  0  0  0  0  0  0  0  0  0  0
  153.1373  137.8623  155.5710 H   0  0  0  0  0  0  0  0  0  0  0  0
  153.1628  143.4677  160.1844 H   0  0  0  0  0  0  0  0  0  0  0  0
  151.7027  144.2013  159.5582 H   0  0  0  0  0  0  0  0  0  0  0  0
  150.2068  143.0537  157.9403 H   0  0  0  0  0  0  0  0  0  0  0  0
  149.8766  141.0588  156.6862 H   0  0  0  0  0  0  0  0  0  0  0  0
  147.9729  138.8415  154.4838 H   0  0  0  0  0  0  0  0  0  0  0  0
  148.8347  138.5474  152.9793 H   0  0  0  0  0  0  0  0  0  0  0  0
  149.0314  136.5076  153.5463 H   0  0  0  0  0  0  0  0  0  0  0  0
  151.0566  136.6700  153.2518 H   0  0  0  0  0  0  0  0  0  0  0  0
  152.4531  140.5433  155.0279 H   0  0  0  0  0  0  0  0  0  0  0  0
  1  2  1  0  0  0  0
  1 22  1  0  0  0  0
  1 23  1  0  0  0  0
  2 17  2  0  0  0  0
  2  3  1  0  0  0  0
  3  4  2  0  0  0  0
  3 24  1  0  0  0  0
  4  5  1  0  0  0  0
  4 25  1  0  0  0  0
  5  6  1  0  0  0  0
  5 15  1  0  0  0  0
  6 18  1  0  0  0  0
  6 13  1  0  0  0  0
  6  7  1  0  0  0  0
  7  8  1  0  0  0  0
  8 19  1  0  0  0  0
  8  9  1  0  0  0  0
  8 11  1  0  0  0  0
  9 10  1  0  0  0  0
  9 26  1  0  0  0  0
  9 27  1  0  0  0  0
 10 28  1  0  0  0  0
 11 20  1  0  0  0  0
 11 12  1  0  0  0  0
 11 13  1  0  0  0  0
 12 29  1  0  0  0  0
 13 21  1  0  0  0  0
 13 14  1  0  0  0  0
 14 30  1  0  0  0  0
 15 16  2  0  0  0  0
 15 17  1  0  0  0  0
M  END
> <s_m_source_file>
AV-unprocessed.smi

> <i_m_source_file_index>
53

> <i_lp_mmshare_version>
43012

> <i_f3d_flags>
0

> <s_epik_input>
W05IMl1jMVtjSF1bY0hdbihjKD1PKW4xKVtDQEBIXTJPW0NASF0oW0NIMl1bT0hdKVtDQEBIXShbT0hdKVtDQEBIXTJbT0hd

> <s_epik_cmdline>
J2VwaWtfcHl0aG9uJywgJy1waCcsICc3LjAnLCAnLXRuJywgJzgnLCAnLW1hJywgJzIwMCcsICctbWV0YWxfYmluZGluZycsICctaW1hZScsICc8aW5maWxlLm1hZT4nLCAnLW9tYWUnLCAnPG91dGZpbGUubWFlPic=

> <r_lp_tautomer_probability>
0.99996

> <r_epik_Ionization_Penalty>
0.00069087

> <r_epik_Ionization_Penalty_Charging>
2.61959e-08

> <r_epik_Ionization_Penalty_Neutral>
0.000690844

> <r_epik_State_Penalty>
1.15523e-05

> <r_epik_Charging_Adjusted_Penalty>
1.15785e-05

> <i_epik_Tot_Q>
0

> <i_epik_Tot_abs_Q>
0

> <r_epik_Metal_State_Penalty>
-0

> <b_epik_Metal_Only>
0

> <s_epik_Chemistry_Notes>
This compound contains an acetal/aminal-like group ( X-CH(R)-Y where X, Y are N, S, or O) that may be acid/base labile, releasing an aldehyde.

> <s_lp_Force_Field>
OPLS_2005

> <r_lp_Energy>
36.7572

> <b_lp_Chiralities_Consistent>
1

> <s_lp_Variant>
AV-unprocessed.smi:53-14

> <Gold.Version>
5.8.1

> <Gold.Id.Protein>
6NUR|6NUR_protein|mol2

> <Gold.PLP.Fitness>
38.8391

> <Gold.PLP.PLP>
-24.6291

> <Gold.PLP.part.hbond>
-6.1411

> <Gold.PLP.part.metal>
0.0000

> <Gold.PLP.part.buried>
0.2501

> <Gold.PLP.part.nonpolar>
-17.2139

> <Gold.PLP.part.repulsive>
0.0365

> <Gold.PLP.ligand.clash>
0.0000

> <Gold.PLP.ligand.torsion>
0.3523

> <Gold.PLP.Chemscore.Hbond>
4.9513

> <Gold.PLP.Chemscore.CHOScore>
0.0000

> <Gold.PLP.Chemscore.Metal>
0.0000

> <Gold.Chemscore.Hbonds>
donor molecule, donor type, donor heavy atom, donor atom, acceptor molecule, acceptor atom, score
      L1  H    10    28       P1  7948  1.00
      L1  H    12    29       P1  7949  1.00
      P1  H  7997  8008       L1    14  1.00
      P1  H  7997  8010       L1    16  0.90
      P1  H 10752 10763       L1    12  0.98

> <Gold.PLP.Chemscore.Internal.Correction>
0.0610

> <Gold.Rescore>
     Score         DG    S(hbond)    S(metal)    S(lipo)     H(rot)  DE(clash)    DE(int)     intcor
     10.05     -11.46       3.20        0.00      41.05       3.71       1.23       0.18       ----

> <Gold.Chemscore.Fitness>
10.0464

> <Gold.Chemscore.DG>
-11.4617

> <Gold.Chemscore.ZeroCoef>
-5.4800

> <Gold.Chemscore.Hbond>
3.1962

> <Gold.Chemscore.Metal>
0.0000

> <Gold.Chemscore.Lipo>
41.0495

> <Gold.Chemscore.Internal_Hbond>
0.0000

> <Gold.Chemscore.DEClash>
1.2335

> <Gold.Chemscore.DEInternal>
0.1817

> <Gold.Chemscore.Rot>
3.7095

> <Gold.Chemscore.Internal.Correction>
   9.000000E+99

> <Gold.Chemscore.Hbonds>
donor molecule, donor type, donor heavy atom, donor atom, acceptor molecule, acceptor atom, score
      L1  H    10    28       P1  7948  0.96
      L1  H    12    29       P1  7949  0.34
      P1  H  7997  8008       L1    14  0.87
      P1  H  7997  8010       L1    16  0.20
      P1  H 10752 10763       L1    12  0.23

> <Gold.Chemscore.Hbond.Weighted>
-10.6753

> <Gold.Chemscore.Metal.Weighted>
-0.0000

> <Gold.Chemscore.Lipo.Weighted>
-4.8028

> <Gold.Chemscore.Internal_Hbond.Weighted>
0.0000

> <Gold.Chemscore.DEClash.Weighted>
1.2335

> <Gold.Chemscore.DEInternal.Weighted>
0.1817

> <Gold.Chemscore.Rot.Weighted>
9.4964

> <Gold.Chemscore.Internal.Correction.Weighted>
   9.000000E+99

> <Gold.Protein.RotatedTorsions>
[ 6907 6896 6895 6894 ] final  123.08 input  -60.11 | X-H torsion
[ 7974 7965 7964 7962 ] final  -78.89 input  175.53 | X-H torsion
[ 8008 7997 7996 7995 ] final    4.50 input   59.86 | X-H torsion
[ 10167 10162 10161 10158 ] final   82.19 input  -65.29 | X-H torsion
[ 10718 10713 10712 10709 ] final   85.16 input   66.30 | X-H torsion
[ 10763 10752 10751 10750 ] final   46.18 input  -60.55 | X-H torsion
[ 11005 11000 10999 10996 ] final   21.14 input  -57.11 | X-H torsion

> <Gold.Protein.ActiveResidues>
 VAL166  LYS551  ARG553  GLY616  TRP617  ASP618  TYR619  PRO620  LYS621  CYS622 
 ASP623  PHE694  ASN695  SER759  ASP760  ASP761  ALA762  ILE779  LEU786  VAL792 
 PHE793  MET794  SER795  GLU796  ALA797  LYS798  CYS799  TRP800  GLU811  SER814 

> <Gold.Protein.RotatedAtoms>
  152.4191  133.7087  159.6465 H   0  0  0  0  0  0  0  0  0  0  0  0  # atno 6907 bound_to 6896
  150.8067  133.8485  159.3207 H   0  0  0  0  0  0  0  0  0  0  0  0  # atno 6908 bound_to 6896
  151.6207  135.1034  160.0152 H   0  0  0  0  0  0  0  0  0  0  0  0  # atno 6909 bound_to 6896
  145.5804  140.9449  143.1347 H   0  0  0  0  0  0  0  0  0  0  0  0  # atno 7974 bound_to 7965
  154.7167  140.2703  155.6579 H   0  0  0  0  0  0  0  0  0  0  0  0  # atno 8008 bound_to 7997
  156.2812  140.2742  156.1751 H   0  0  0  0  0  0  0  0  0  0  0  0  # atno 8009 bound_to 7997
  155.0561  140.0371  157.2551 H   0  0  0  0  0  0  0  0  0  0  0  0  # atno 8010 bound_to 7997
  139.9314  144.6149  150.8341 H   0  0  0  0  0  0  0  0  0  0  0  0  # atno 10167 bound_to 10162
  157.6910  131.0163  150.2780 H   0  0  0  0  0  0  0  0  0  0  0  0  # atno 10718 bound_to 10713
  152.9814  135.6016  154.3557 H   0  0  0  0  0  0  0  0  0  0  0  0  # atno 10763 bound_to 10752
  154.3243  135.2769  155.2506 H   0  0  0  0  0  0  0  0  0  0  0  0  # atno 10764 bound_to 10752
  154.4658  135.5954  153.6343 H   0  0  0  0  0  0  0  0  0  0  0  0  # atno 10765 bound_to 10752
  140.3948  134.1780  155.7663 H   0  0  0  0  0  0  0  0  0  0  0  0  # atno 11005 bound_to 11000
  144.7396  139.7486  143.7316 LP  0  0  0  0  0  0  0  0  0  0  0  0  # atno 17320 bound_to 7965
  146.1720  139.4874  142.9921 LP  0  0  0  0  0  0  0  0  0  0  0  0  # atno 17321 bound_to 7965
  140.7636  143.3228  151.2584 LP  0  0  0  0  0  0  0  0  0  0  0  0  # atno 17342 bound_to 10162
  139.6779  143.9905  152.2792 LP  0  0  0  0  0  0  0  0  0  0  0  0  # atno 17343 bound_to 10162
  156.3332  130.3803  149.7473 LP  0  0  0  0  0  0  0  0  0  0  0  0  # atno 17370 bound_to 10713
  156.5006  130.8127  151.3131 LP  0  0  0  0  0  0  0  0  0  0  0  0  # atno 17371 bound_to 10713
  141.1878  133.8274  157.1019 LP  0  0  0  0  0  0  0  0  0  0  0  0  # atno 17394 bound_to 11000
  140.0380  134.9869  157.0907 LP  0  0  0  0  0  0  0  0  0  0  0  0  # atno 17395 bound_to 11000

$$$$
