AV-unprocessed.smi:2037|AV-procd|sdf|8279|dock10
  -GOLD-   2272010543D 1   1.00000     0.00000
 Structure written by MMmdl.
 38 39  0  0  0  0  0  0  0  0  3 V2000
  143.5911  135.0325  152.2237 C   0  0  0  0  0  0  0  0  0  0  0  0
  144.8833  135.7660  151.8244 C   0  0  2  0  0  0  0  0  0  0  0  0
  145.7437  134.9615  150.8336 C   0  0  0  0  0  0  0  0  0  0  0  0
  146.4620  133.7803  151.5105 C   0  0  0  0  0  0  0  0  0  0  0  0
  147.2826  134.2345  152.6629 N   0  3  2  0  0  0  0  0  0  0  0  0
  148.0859  133.1299  153.2446 C   0  0  0  0  0  0  0  0  0  0  0  0
  148.7771  133.5346  154.5600 C   0  0  0  0  0  0  0  0  0  0  0  0
  149.8624  134.4780  154.3202 N   0  0  0  0  0  0  0  0  0  0  0  0
  150.0249  135.6563  154.9383 C   0  0  0  0  0  0  0  0  0  0  0  0
  149.2089  136.0219  155.7878 O   0  0  0  0  0  0  0  0  0  0  0  0
  151.1198  136.3364  154.5313 N   0  5  0  0  0  0  0  0  0  0  0  0
  151.2707  137.6287  154.8644 C   0  0  0  0  0  0  0  0  0  0  0  0
  150.2584  138.3950  155.2866 N   0  0  0  0  0  0  0  0  0  0  0  0
  150.6396  139.7044  155.5841 C   0  0  0  0  0  0  0  0  0  0  0  0
  151.9755  139.9383  155.3927 C   0  0  0  0  0  0  0  0  0  0  0  0
  152.7994  138.5122  154.8296 S   0  0  0  0  0  0  0  0  0  0  0  0
  146.4597  134.9577  153.6688 C   0  0  0  0  0  0  0  0  0  0  0  0
  145.7411  136.1647  153.0387 C   0  0  0  0  0  0  0  0  0  0  0  0
  143.7918  134.0961  152.7436 H   0  0  0  0  0  0  0  0  0  0  0  0
  142.9879  134.7986  151.3460 H   0  0  0  0  0  0  0  0  0  0  0  0
  142.9803  135.6505  152.8822 H   0  0  0  0  0  0  0  0  0  0  0  0
  144.5739  136.6839  151.3227 H   0  0  0  0  0  0  0  0  0  0  0  0
  145.1317  134.6028  150.0053 H   0  0  0  0  0  0  0  0  0  0  0  0
  146.4909  135.6221  150.3917 H   0  0  0  0  0  0  0  0  0  0  0  0
  145.7413  133.0331  151.8452 H   0  0  0  0  0  0  0  0  0  0  0  0
  147.1018  133.2903  150.7756 H   0  0  0  0  0  0  0  0  0  0  0  0
  147.4572  132.2503  153.3907 H   0  0  0  0  0  0  0  0  0  0  0  0
  148.8563  132.8405  152.5282 H   0  0  0  0  0  0  0  0  0  0  0  0
  148.0557  133.9630  155.2578 H   0  0  0  0  0  0  0  0  0  0  0  0
  149.2118  132.6678  155.0557 H   0  0  0  0  0  0  0  0  0  0  0  0
  150.5560  134.2161  153.6347 H   0  0  0  0  0  0  0  0  0  0  0  0
  149.8928  140.4043  155.9282 H   0  0  0  0  0  0  0  0  0  0  0  0
  152.5227  140.8557  155.5485 H   0  0  0  0  0  0  0  0  0  0  0  0
  145.7370  134.2722  154.1134 H   0  0  0  0  0  0  0  0  0  0  0  0
  147.0867  135.3175  154.4832 H   0  0  0  0  0  0  0  0  0  0  0  0
  146.4888  136.8941  152.7239 H   0  0  0  0  0  0  0  0  0  0  0  0
  145.1267  136.6673  153.7866 H   0  0  0  0  0  0  0  0  0  0  0  0
  147.9455  134.8992  152.2902 H   0  0  0  0  0  0  0  0  0  0  0  0
  1  2  1  0  0  0  0
  1 19  1  0  0  0  0
  1 20  1  0  0  0  0
  1 21  1  0  0  0  0
  2 18  1  0  0  0  0
  2  3  1  0  0  0  0
  2 22  1  0  0  0  0
  3  4  1  0  0  0  0
  3 23  1  0  0  0  0
  3 24  1  0  0  0  0
  4  5  1  0  0  0  0
  4 25  1  0  0  0  0
  4 26  1  0  0  0  0
  5  6  1  0  0  0  0
  5 17  1  0  0  0  0
  5 38  1  0  0  0  0
  6  7  1  0  0  0  0
  6 27  1  0  0  0  0
  6 28  1  0  0  0  0
  7  8  1  0  0  0  0
  7 29  1  0  0  0  0
  7 30  1  0  0  0  0
  8  9  1  0  0  0  0
  8 31  1  0  0  0  0
  9 10  2  0  0  0  0
  9 11  1  0  0  0  0
 11 12  1  0  0  0  0
 12 16  1  0  0  0  0
 12 13  2  0  0  0  0
 13 14  1  0  0  0  0
 14 15  2  0  0  0  0
 14 32  1  0  0  0  0
 15 16  1  0  0  0  0
 15 33  1  0  0  0  0
 17 18  1  0  0  0  0
 17 34  1  0  0  0  0
 17 35  1  0  0  0  0
 18 36  1  0  0  0  0
 18 37  1  0  0  0  0
M  CHG  1   5   1
M  CHG  1  11  -1
M  END
> <s_m_source_file>
AV-unprocessed.smi

> <i_m_source_file_index>
2037

> <i_lp_mmshare_version>
43012

> <i_f3d_flags>
0

> <s_epik_input>
W0NIM11bQ0hdMVtDSDJdW0NIMl1OKFtDSDJdW0NIMl0xKVtDSDJdW0NIMl1bTkhdQyg9TylbTkhdYzJuW2NIXVtjSF1zMg==

> <s_epik_cmdline>
J2VwaWtfcHl0aG9uJywgJy1waCcsICc3LjAnLCAnLXRuJywgJzgnLCAnLW1hJywgJzIwMCcsICctbWV0YWxfYmluZGluZycsICctaW1hZScsICc8aW5maWxlLm1hZT4nLCAnLW9tYWUnLCAnPG91dGZpbGUubWFlPic=

> <r_lp_tautomer_probability>
0.999

> <r_epik_Ionization_Penalty>
6.22113

> <r_epik_Ionization_Penalty_Charging>
5.39005

> <r_epik_Ionization_Penalty_Neutral>
0.831074

> <r_epik_State_Penalty>
5.38997

> <r_epik_Charging_Adjusted_Penalty>
10.78

> <i_epik_Tot_Q>
0

> <i_epik_Tot_abs_Q>
2

> <r_epik_Metal_State_Penalty>
1.41601

> <b_epik_Metal_Only>
1

> <s_lp_Force_Field>
OPLS_2005

> <r_lp_Energy>
7.28937

> <b_lp_Chiralities_Consistent>
1

> <s_lp_Variant>
AV-unprocessed.smi:2037-4

> <Gold.Version>
5.8.1

> <Gold.Id.Protein>
6NUR|6NUR_protein|mol2

> <Gold.PLP.Fitness>
41.4698

> <Gold.PLP.PLP>
-29.9316

> <Gold.PLP.part.hbond>
-2.6733

> <Gold.PLP.part.metal>
0.0000

> <Gold.PLP.part.buried>
-3.5965

> <Gold.PLP.part.nonpolar>
-25.4081

> <Gold.PLP.part.repulsive>
0.4415

> <Gold.PLP.ligand.clash>
0.0000

> <Gold.PLP.ligand.torsion>
0.2519

> <Gold.PLP.Chemscore.Hbond>
4.0000

> <Gold.PLP.Chemscore.CHOScore>
0.0000

> <Gold.PLP.Chemscore.Metal>
0.0000

> <Gold.Chemscore.Hbonds>
donor molecule, donor type, donor heavy atom, donor atom, acceptor molecule, acceptor atom, score
      L1  H     5    38       P1  7948  2.00
      P1  H 10752 10765       L1    11  2.00

> <Gold.PLP.Chemscore.Internal.Correction>
0.0419

> <Gold.Rescore>
     Score         DG    S(hbond)    S(metal)    S(lipo)     H(rot)  DE(clash)    DE(int)     intcor
     12.12     -13.92       1.81        0.00      54.71       1.57       0.01       1.79       ----

> <Gold.Chemscore.Fitness>
12.1218

> <Gold.Chemscore.DG>
-13.9215

> <Gold.Chemscore.ZeroCoef>
-5.4800

> <Gold.Chemscore.Hbond>
1.8123

> <Gold.Chemscore.Metal>
0.0000

> <Gold.Chemscore.Lipo>
54.7116

> <Gold.Chemscore.Internal_Hbond>
0.0000

> <Gold.Chemscore.DEClash>
0.0104

> <Gold.Chemscore.DEInternal>
1.7893

> <Gold.Chemscore.Rot>
1.5676

> <Gold.Chemscore.Internal.Correction>
   9.000000E+99

> <Gold.Chemscore.Hbonds>
donor molecule, donor type, donor heavy atom, donor atom, acceptor molecule, acceptor atom, score
      L1  H     5    38       P1  7948  0.70
      P1  H 10752 10765       L1    11  0.50

> <Gold.Chemscore.Hbond.Weighted>
-6.0532

> <Gold.Chemscore.Metal.Weighted>
-0.0000

> <Gold.Chemscore.Lipo.Weighted>
-6.4013

> <Gold.Chemscore.Internal_Hbond.Weighted>
0.0000

> <Gold.Chemscore.DEClash.Weighted>
0.0104

> <Gold.Chemscore.DEInternal.Weighted>
1.7893

> <Gold.Chemscore.Rot.Weighted>
4.0130

> <Gold.Chemscore.Internal.Correction.Weighted>
   9.000000E+99

> <Gold.Protein.RotatedTorsions>
[ 6907 6896 6895 6894 ] final   82.92 input  -60.11 | X-H torsion
[ 7974 7965 7964 7962 ] final  -99.86 input  175.53 | X-H torsion
[ 8008 7997 7996 7995 ] final  -91.88 input   59.86 | X-H torsion
[ 10167 10162 10161 10158 ] final  138.54 input  -65.29 | X-H torsion
[ 10718 10713 10712 10709 ] final  -69.06 input   66.30 | X-H torsion
[ 10763 10752 10751 10750 ] final  168.21 input  -60.55 | X-H torsion
[ 11005 11000 10999 10996 ] final  -46.08 input  -57.11 | X-H torsion

> <Gold.Protein.ActiveResidues>
 VAL166  LYS551  ARG553  GLY616  TRP617  ASP618  TYR619  PRO620  LYS621  CYS622 
 ASP623  PHE694  ASN695  SER759  ASP760  ASP761  ALA762  ILE779  LEU786  VAL792 
 PHE793  MET794  SER795  GLU796  ALA797  LYS798  CYS799  TRP800  GLU811  SER814 

> <Gold.Protein.RotatedAtoms>
  152.5313  134.2976  159.9066 H   0  0  0  0  0  0  0  0  0  0  0  0  # atno 6907 bound_to 6896
  151.2927  133.4151  159.2642 H   0  0  0  0  0  0  0  0  0  0  0  0  # atno 6908 bound_to 6896
  151.0187  134.9468  159.8104 H   0  0  0  0  0  0  0  0  0  0  0  0  # atno 6909 bound_to 6896
  145.3020  140.9380  143.2818 H   0  0  0  0  0  0  0  0  0  0  0  0  # atno 7974 bound_to 7965
  154.7162  140.0515  157.0596 H   0  0  0  0  0  0  0  0  0  0  0  0  # atno 8008 bound_to 7997
  155.0489  140.3177  155.4680 H   0  0  0  0  0  0  0  0  0  0  0  0  # atno 8009 bound_to 7997
  156.2803  140.2119  156.5614 H   0  0  0  0  0  0  0  0  0  0  0  0  # atno 8010 bound_to 7997
  139.5107  144.6347  151.5726 H   0  0  0  0  0  0  0  0  0  0  0  0  # atno 10167 bound_to 10162
  156.0474  130.4306  150.2092 H   0  0  0  0  0  0  0  0  0  0  0  0  # atno 10718 bound_to 10713
  154.3652  135.2753  155.2297 H   0  0  0  0  0  0  0  0  0  0  0  0  # atno 10763 bound_to 10752
  154.4468  135.5940  153.6169 H   0  0  0  0  0  0  0  0  0  0  0  0  # atno 10764 bound_to 10752
  152.9841  135.6032  154.3877 H   0  0  0  0  0  0  0  0  0  0  0  0  # atno 10765 bound_to 10752
  141.0557  133.6727  156.3105 H   0  0  0  0  0  0  0  0  0  0  0  0  # atno 11005 bound_to 11000
  144.9085  139.4558  143.6598 LP  0  0  0  0  0  0  0  0  0  0  0  0  # atno 17320 bound_to 7965
  146.3148  139.7880  142.8992 LP  0  0  0  0  0  0  0  0  0  0  0  0  # atno 17321 bound_to 7965
  140.6092  143.9467  150.6441 LP  0  0  0  0  0  0  0  0  0  0  0  0  # atno 17342 bound_to 10162
  140.2704  143.3460  152.1243 LP  0  0  0  0  0  0  0  0  0  0  0  0  # atno 17343 bound_to 10162
  157.0180  130.9971  151.3347 LP  0  0  0  0  0  0  0  0  0  0  0  0  # atno 17370 bound_to 10713
  157.5364  130.8091  149.7977 LP  0  0  0  0  0  0  0  0  0  0  0  0  # atno 17371 bound_to 10713
  140.5969  134.5594  157.5510 LP  0  0  0  0  0  0  0  0  0  0  0  0  # atno 17394 bound_to 11000
  139.9388  134.7826  156.0733 LP  0  0  0  0  0  0  0  0  0  0  0  0  # atno 17395 bound_to 11000

$$$$
