AV-unprocessed.smi:1555|AV-procd|sdf|6264|dock9
  -GOLD-   22720 6453D 1   1.00000     0.00000
 Structure written by MMmdl.
 42 43  0  0  0  0  0  0  0  0  2 V2000
  142.2406  137.6282  153.5962 C   0  0  0  0  0  0  0  0  0  0  0  0
  143.0956  136.8521  152.5813 C   0  0  2  0  0  0  0  0  0  0  0  0
  143.1694  135.3396  152.8842 C   0  0  0  0  0  0  0  0  0  0  0  0
  143.7498  134.5658  151.7830 N   0  0  0  0  0  0  0  0  0  0  0  0
  143.9404  133.2085  151.7359 C   0  0  0  0  0  0  0  0  0  0  0  0
  144.5027  132.9354  150.5155 C   0  0  0  0  0  0  0  0  0  0  0  0
  144.6275  134.1359  149.8686 N   0  3  0  0  0  0  0  0  0  0  0  0
  144.1658  135.1257  150.6397 C   0  0  0  0  0  0  0  0  0  0  0  0
  144.4376  137.4258  152.5479 N   0  0  0  0  0  0  0  0  0  0  0  0
  145.3029  137.4516  153.5766 C   0  0  0  0  0  0  0  0  0  0  0  0
  145.0247  136.9672  154.6747 O   0  0  0  0  0  0  0  0  0  0  0  0
  146.4950  138.0396  153.3025 N   0  0  0  0  0  0  0  0  0  0  0  0
  146.7917  138.9233  152.1623 C   0  0  0  0  0  0  0  0  0  0  0  0
  146.9095  140.3702  152.6743 C   0  0  0  0  0  0  0  0  0  0  0  0
  147.9909  140.4901  153.7739 C   0  0  0  0  0  0  0  0  0  0  0  0
  148.0529  141.9030  154.3819 C   0  0  0  0  0  0  0  0  0  0  0  0
  149.0563  141.9783  155.3731 O   0  0  0  0  0  0  0  0  0  0  0  0
  147.7716  139.4211  154.8674 C   0  0  0  0  0  0  0  0  0  0  0  0
  147.6105  138.0168  154.2566 C   0  0  0  0  0  0  0  0  0  0  0  0
  141.2038  137.2913  153.5871 H   0  0  0  0  0  0  0  0  0  0  0  0
  142.2345  138.6949  153.3692 H   0  0  0  0  0  0  0  0  0  0  0  0
  142.6221  137.5067  154.6106 H   0  0  0  0  0  0  0  0  0  0  0  0
  142.6399  136.9908  151.5989 H   0  0  0  0  0  0  0  0  0  0  0  0
  143.7821  135.1497  153.7666 H   0  0  0  0  0  0  0  0  0  0  0  0
  142.1759  134.9427  153.1000 H   0  0  0  0  0  0  0  0  0  0  0  0
  143.6699  132.5562  152.5539 H   0  0  0  0  0  0  0  0  0  0  0  0
  144.8140  132.0014  150.0705 H   0  0  0  0  0  0  0  0  0  0  0  0
  144.1384  136.1712  150.3886 H   0  0  0  0  0  0  0  0  0  0  0  0
  144.7357  137.8368  151.6751 H   0  0  0  0  0  0  0  0  0  0  0  0
  147.7334  138.6139  151.7066 H   0  0  0  0  0  0  0  0  0  0  0  0
  146.0565  138.8744  151.3593 H   0  0  0  0  0  0  0  0  0  0  0  0
  147.1439  141.0335  151.8412 H   0  0  0  0  0  0  0  0  0  0  0  0
  145.9445  140.6953  153.0658 H   0  0  0  0  0  0  0  0  0  0  0  0
  148.9575  140.2817  153.3122 H   0  0  0  0  0  0  0  0  0  0  0  0
  148.2466  142.6505  153.6121 H   0  0  0  0  0  0  0  0  0  0  0  0
  147.0995  142.1583  154.8456 H   0  0  0  0  0  0  0  0  0  0  0  0
  149.2999  142.8845  155.4866 H   0  0  0  0  0  0  0  0  0  0  0  0
  148.6090  139.4246  155.5660 H   0  0  0  0  0  0  0  0  0  0  0  0
  146.8823  139.6648  155.4505 H   0  0  0  0  0  0  0  0  0  0  0  0
  147.4733  137.2807  155.0501 H   0  0  0  0  0  0  0  0  0  0  0  0
  148.5252  137.7240  153.7390 H   0  0  0  0  0  0  0  0  0  0  0  0
  145.0113  134.2590  148.9399 H   0  0  0  0  0  0  0  0  0  0  0  0
  1  2  1  0  0  0  0
  1 20  1  0  0  0  0
  1 21  1  0  0  0  0
  1 22  1  0  0  0  0
  2  3  1  0  0  0  0
  2  9  1  0  0  0  0
  2 23  1  0  0  0  0
  3  4  1  0  0  0  0
  3 24  1  0  0  0  0
  3 25  1  0  0  0  0
  4  8  1  0  0  0  0
  4  5  1  0  0  0  0
  5  6  2  0  0  0  0
  5 26  1  0  0  0  0
  6  7  1  0  0  0  0
  6 27  1  0  0  0  0
  7  8  2  0  0  0  0
  7 42  1  0  0  0  0
  8 28  1  0  0  0  0
  9 10  1  0  0  0  0
  9 29  1  0  0  0  0
 10 11  2  0  0  0  0
 10 12  1  0  0  0  0
 12 19  1  0  0  0  0
 12 13  1  0  0  0  0
 13 14  1  0  0  0  0
 13 30  1  0  0  0  0
 13 31  1  0  0  0  0
 14 15  1  0  0  0  0
 14 32  1  0  0  0  0
 14 33  1  0  0  0  0
 15 16  1  0  0  0  0
 15 18  1  0  0  0  0
 15 34  1  0  0  0  0
 16 17  1  0  0  0  0
 16 35  1  0  0  0  0
 16 36  1  0  0  0  0
 17 37  1  0  0  0  0
 18 19  1  0  0  0  0
 18 38  1  0  0  0  0
 18 39  1  0  0  0  0
 19 40  1  0  0  0  0
 19 41  1  0  0  0  0
M  CHG  1   7   1
M  END
> <s_m_source_file>
AV-unprocessed.smi

> <i_m_source_file_index>
1555

> <i_lp_mmshare_version>
43012

> <i_f3d_flags>
0

> <s_epik_input>
W2NIXTFuW2NIXVtjSF1uMVtDSDJdW0NAQEhdKFtDSDNdKVtOSF1DKD1PKU4yW0NIMl1bQ0gyXVtDSF0oW0NIMl1bT0hdKVtDSDJdW0NIMl0y

> <s_epik_cmdline>
J2VwaWtfcHl0aG9uJywgJy1waCcsICc3LjAnLCAnLXRuJywgJzgnLCAnLW1hJywgJzIwMCcsICctbWV0YWxfYmluZGluZycsICctaW1hZScsICc8aW5maWxlLm1hZT4nLCAnLW9tYWUnLCAnPG91dGZpbGUubWFlPic=

> <r_lp_tautomer_probability>
1

> <r_epik_Ionization_Penalty>
0.253261

> <r_epik_Ionization_Penalty_Charging>
0

> <r_epik_Ionization_Penalty_Neutral>
0.253261

> <r_epik_State_Penalty>
0.244619

> <r_epik_Charging_Adjusted_Penalty>
0.244619

> <i_epik_Tot_Q>
1

> <i_epik_Tot_abs_Q>
1

> <r_epik_Metal_State_Penalty>
0.535039

> <b_epik_Metal_Only>
0

> <s_lp_Force_Field>
OPLS_2005

> <r_lp_Energy>
34.4969

> <b_lp_Chiralities_Consistent>
1

> <s_lp_Variant>
AV-unprocessed.smi:1555-1

> <Gold.Version>
5.8.1

> <Gold.Id.Protein>
6NUR|6NUR_protein|mol2

> <Gold.PLP.Fitness>
45.4757

> <Gold.PLP.PLP>
-32.2627

> <Gold.PLP.part.hbond>
-4.0000

> <Gold.PLP.part.metal>
0.0000

> <Gold.PLP.part.buried>
0.4701

> <Gold.PLP.part.nonpolar>
-28.4232

> <Gold.PLP.part.repulsive>
0.1365

> <Gold.PLP.ligand.clash>
0.0000

> <Gold.PLP.ligand.torsion>
0.1364

> <Gold.PLP.Chemscore.Hbond>
2.8000

> <Gold.PLP.Chemscore.CHOScore>
1.6710

> <Gold.PLP.Chemscore.Metal>
0.0000

> <Gold.Chemscore.Hbonds>
donor molecule, donor type, donor heavy atom, donor atom, acceptor molecule, acceptor atom, score
      L1  H     7    42       P1  7921  1.00
      L1  H     9    29       P1 10171  0.48
      L1  H    17    37       P1  8028  1.00
      L1  C     5    26       P1 10957  0.56
      L1  C     8    28       P1 10171  1.00

> <Gold.PLP.Chemscore.Internal.Correction>
0.0729

> <Gold.Rescore>
     Score         DG    S(hbond)    S(metal)    S(lipo)     H(rot)  DE(clash)    DE(int)     intcor
     13.68     -15.23       2.55        0.00      66.64       2.56       0.27       1.28       ----

> <Gold.Chemscore.Fitness>
13.6822

> <Gold.Chemscore.DG>
-15.2318

> <Gold.Chemscore.ZeroCoef>
-5.4800

> <Gold.Chemscore.Hbond>
2.5499

> <Gold.Chemscore.Metal>
0.0000

> <Gold.Chemscore.Lipo>
66.6351

> <Gold.Chemscore.Internal_Hbond>
0.0000

> <Gold.Chemscore.DEClash>
0.2675

> <Gold.Chemscore.DEInternal>
1.2820

> <Gold.Chemscore.Rot>
2.5630

> <Gold.Chemscore.Internal.Correction>
   9.000000E+99

> <Gold.Chemscore.Hbonds>
donor molecule, donor type, donor heavy atom, donor atom, acceptor molecule, acceptor atom, score
      L1  H     7    42       P1  7921  0.99
      L1  H     9    29       P1 10171  0.47
      L1  H    17    37       P1  8028  0.96

> <Gold.Chemscore.Hbond.Weighted>
-8.5166

> <Gold.Chemscore.Metal.Weighted>
-0.0000

> <Gold.Chemscore.Lipo.Weighted>
-7.7963

> <Gold.Chemscore.Internal_Hbond.Weighted>
0.0000

> <Gold.Chemscore.DEClash.Weighted>
0.2675

> <Gold.Chemscore.DEInternal.Weighted>
1.2820

> <Gold.Chemscore.Rot.Weighted>
6.5612

> <Gold.Chemscore.Internal.Correction.Weighted>
   9.000000E+99

> <Gold.Protein.RotatedTorsions>
[ 6907 6896 6895 6894 ] final  -59.07 input  -60.11 | X-H torsion
[ 7974 7965 7964 7962 ] final  174.55 input  175.53 | X-H torsion
[ 8008 7997 7996 7995 ] final  110.47 input   59.86 | X-H torsion
[ 10167 10162 10161 10158 ] final  -94.89 input  -65.29 | X-H torsion
[ 10718 10713 10712 10709 ] final  -19.92 input   66.30 | X-H torsion
[ 10763 10752 10751 10750 ] final   76.25 input  -60.55 | X-H torsion
[ 11005 11000 10999 10996 ] final  -30.11 input  -57.11 | X-H torsion

> <Gold.Protein.ActiveResidues>
 VAL166  LYS551  ARG553  GLY616  TRP617  ASP618  TYR619  PRO620  LYS621  CYS622 
 ASP623  PHE694  ASN695  SER759  ASP760  ASP761  ALA762  ILE779  LEU786  VAL792 
 PHE793  MET794  SER795  GLU796  ALA797  LYS798  CYS799  TRP800  GLU811  SER814 

> <Gold.Protein.RotatedAtoms>
  150.7958  134.7016  159.6552 H   0  0  0  0  0  0  0  0  0  0  0  0  # atno 6907 bound_to 6896
  152.4070  134.6187  160.0055 H   0  0  0  0  0  0  0  0  0  0  0  0  # atno 6908 bound_to 6896
  151.6441  133.3287  159.3173 H   0  0  0  0  0  0  0  0  0  0  0  0  # atno 6909 bound_to 6896
  144.7219  139.9813  143.6439 H   0  0  0  0  0  0  0  0  0  0  0  0  # atno 7974 bound_to 7965
  156.2055  140.3038  155.9617 H   0  0  0  0  0  0  0  0  0  0  0  0  # atno 8008 bound_to 7997
  155.2852  140.0439  157.3036 H   0  0  0  0  0  0  0  0  0  0  0  0  # atno 8009 bound_to 7997
  154.5627  140.2325  155.8319 H   0  0  0  0  0  0  0  0  0  0  0  0  # atno 8010 bound_to 7997
  140.3098  143.3112  152.0160 H   0  0  0  0  0  0  0  0  0  0  0  0  # atno 10167 bound_to 10162
  156.5390  130.4673  149.6508 H   0  0  0  0  0  0  0  0  0  0  0  0  # atno 10718 bound_to 10713
  153.0712  135.4958  154.8309 H   0  0  0  0  0  0  0  0  0  0  0  0  # atno 10763 bound_to 10752
  154.7025  135.3004  154.9322 H   0  0  0  0  0  0  0  0  0  0  0  0  # atno 10764 bound_to 10752
  154.0041  135.6762  153.4814 H   0  0  0  0  0  0  0  0  0  0  0  0  # atno 10765 bound_to 10752
  140.9354  133.7312  156.0998 H   0  0  0  0  0  0  0  0  0  0  0  0  # atno 11005 bound_to 11000
  146.0485  139.3488  143.0654 LP  0  0  0  0  0  0  0  0  0  0  0  0  # atno 17320 bound_to 7965
  145.8245  140.9662  143.0881 LP  0  0  0  0  0  0  0  0  0  0  0  0  # atno 17321 bound_to 7965
  139.4896  144.6393  151.6910 LP  0  0  0  0  0  0  0  0  0  0  0  0  # atno 17342 bound_to 10162
  140.5578  144.0319  150.6155 LP  0  0  0  0  0  0  0  0  0  0  0  0  # atno 17343 bound_to 10162
  156.2989  130.7165  151.2032 LP  0  0  0  0  0  0  0  0  0  0  0  0  # atno 17370 bound_to 10713
  157.7408  131.0511  150.5138 LP  0  0  0  0  0  0  0  0  0  0  0  0  # atno 17371 bound_to 10713
  140.7806  134.3730  157.5488 LP  0  0  0  0  0  0  0  0  0  0  0  0  # atno 17394 bound_to 11000
  139.8806  134.9079  156.2956 LP  0  0  0  0  0  0  0  0  0  0  0  0  # atno 17395 bound_to 11000

$$$$
