AV-unprocessed.smi:2104|AV-procd|sdf|8589|dock1
  -GOLD-   2272011323D 1   1.00000     0.00000
 Structure written by MMmdl.
 42 43  0  0  0  0  0  0  0  0  2 V2000
  146.1998  134.2053  162.6764 C   0  0  0  0  0  0  0  0  0  0  0  0
  147.0990  135.0543  161.8452 C   0  0  0  0  0  0  0  0  0  0  0  0
  148.0346  134.7628  160.8934 C   0  0  0  0  0  0  0  0  0  0  0  0
  148.5215  136.0434  160.5147 C   0  0  0  0  0  0  0  0  0  0  0  0
  149.4645  136.2906  159.5930 N   0  5  0  0  0  0  0  0  0  0  0  0
  149.4959  137.4867  158.9618 C   0  0  0  0  0  0  0  0  0  0  0  0
  148.5229  138.1956  158.6938 O   0  0  0  0  0  0  0  0  0  0  0  0
  150.7278  137.8743  158.6007 N   0  0  0  0  0  0  0  0  0  0  0  0
  151.0544  139.0480  157.7965 C   0  0  0  0  0  0  0  0  0  0  0  0
  152.4773  139.5431  158.0965 C   0  0  0  0  0  0  0  0  0  0  0  0
  152.5023  140.9599  158.0164 O   0  0  0  0  0  0  0  0  0  0  0  0
  151.7227  141.6347  158.9954 C   0  0  2  0  0  0  0  0  0  0  0  0
  150.7737  142.5887  158.2466 C   0  0  0  0  0  0  0  0  0  0  0  0
  151.5412  143.7068  157.5197 C   0  0  0  0  0  0  0  0  0  0  0  0
  152.4493  144.4808  158.4865 C   0  0  0  0  0  0  0  0  0  0  0  0
  153.4058  143.5360  159.2308 C   0  0  0  0  0  0  0  0  0  0  0  0
  152.6395  142.4189  159.9670 C   0  0  2  0  0  0  0  0  0  0  0  0
  153.5910  141.5118  160.7618 C   0  0  0  0  0  0  0  0  0  0  0  0
  147.9219  137.0260  161.1667 N   0  0  0  0  0  0  0  0  0  0  0  0
  147.0121  136.3995  162.0264 O   0  0  0  0  0  0  0  0  0  0  0  0
  145.2133  134.1275  162.2194 H   0  0  0  0  0  0  0  0  0  0  0  0
  146.0794  134.6269  163.6746 H   0  0  0  0  0  0  0  0  0  0  0  0
  146.6052  133.1988  162.7816 H   0  0  0  0  0  0  0  0  0  0  0  0
  148.3297  133.7901  160.5295 H   0  0  0  0  0  0  0  0  0  0  0  0
  151.4935  137.2653  158.8489 H   0  0  0  0  0  0  0  0  0  0  0  0
  150.9289  138.8454  156.7317 H   0  0  0  0  0  0  0  0  0  0  0  0
  150.3378  139.8293  158.0493 H   0  0  0  0  0  0  0  0  0  0  0  0
  152.7792  139.2393  159.0995 H   0  0  0  0  0  0  0  0  0  0  0  0
  153.1819  139.0937  157.3957 H   0  0  0  0  0  0  0  0  0  0  0  0
  151.1129  140.9258  159.5590 H   0  0  0  0  0  0  0  0  0  0  0  0
  150.1695  142.0281  157.5327 H   0  0  0  0  0  0  0  0  0  0  0  0
  150.0754  143.0338  158.9562 H   0  0  0  0  0  0  0  0  0  0  0  0
  152.1445  143.2771  156.7188 H   0  0  0  0  0  0  0  0  0  0  0  0
  150.8383  144.3901  157.0428 H   0  0  0  0  0  0  0  0  0  0  0  0
  153.0209  145.2309  157.9392 H   0  0  0  0  0  0  0  0  0  0  0  0
  151.8371  145.0235  159.2078 H   0  0  0  0  0  0  0  0  0  0  0  0
  154.1113  143.0988  158.5232 H   0  0  0  0  0  0  0  0  0  0  0  0
  154.0037  144.1091  159.9402 H   0  0  0  0  0  0  0  0  0  0  0  0
  151.9895  142.9013  160.6986 H   0  0  0  0  0  0  0  0  0  0  0  0
  154.3207  141.0303  160.1111 H   0  0  0  0  0  0  0  0  0  0  0  0
  153.0429  140.7308  161.2889 H   0  0  0  0  0  0  0  0  0  0  0  0
  154.1458  142.0843  161.5054 H   0  0  0  0  0  0  0  0  0  0  0  0
  1  2  1  0  0  0  0
  1 21  1  0  0  0  0
  1 22  1  0  0  0  0
  1 23  1  0  0  0  0
  2 20  1  0  0  0  0
  2  3  2  0  0  0  0
  3  4  1  0  0  0  0
  3 24  1  0  0  0  0
  4  5  1  0  0  0  0
  4 19  2  0  0  0  0
  5  6  1  0  0  0  0
  6  7  2  0  0  0  0
  6  8  1  0  0  0  0
  8  9  1  0  0  0  0
  8 25  1  0  0  0  0
  9 10  1  0  0  0  0
  9 26  1  0  0  0  0
  9 27  1  0  0  0  0
 10 11  1  0  0  0  0
 10 28  1  0  0  0  0
 10 29  1  0  0  0  0
 11 12  1  0  0  0  0
 12 17  1  0  0  0  0
 12 13  1  0  0  0  0
 12 30  1  0  0  0  0
 13 14  1  0  0  0  0
 13 31  1  0  0  0  0
 13 32  1  0  0  0  0
 14 15  1  0  0  0  0
 14 33  1  0  0  0  0
 14 34  1  0  0  0  0
 15 16  1  0  0  0  0
 15 35  1  0  0  0  0
 15 36  1  0  0  0  0
 16 17  1  0  0  0  0
 16 37  1  0  0  0  0
 16 38  1  0  0  0  0
 17 18  1  0  0  0  0
 17 39  1  0  0  0  0
 18 40  1  0  0  0  0
 18 41  1  0  0  0  0
 18 42  1  0  0  0  0
 19 20  1  0  0  0  0
M  CHG  1   5  -1
M  END
> <s_m_source_file>
AV-unprocessed.smi

> <i_m_source_file_index>
2104

> <i_lp_mmshare_version>
43012

> <i_f3d_flags>
0

> <s_epik_input>
W0NIM11jMVtjSF1jKG5vMSlbTkhdQyg9TylbTkhdW0NIMl1bQ0gyXU9bQ0BASF0yW0NIMl1bQ0gyXVtDSDJdW0NIMl1bQ0BIXTJbQ0gzXQ==

> <s_epik_cmdline>
J2VwaWtfcHl0aG9uJywgJy1waCcsICc3LjAnLCAnLXRuJywgJzgnLCAnLW1hJywgJzIwMCcsICctbWV0YWxfYmluZGluZycsICctaW1hZScsICc8aW5maWxlLm1hZT4nLCAnLW9tYWUnLCAnPG91dGZpbGUubWFlPic=

> <r_lp_tautomer_probability>
1

> <r_epik_Ionization_Penalty>
6.47137

> <r_epik_Ionization_Penalty_Charging>
6.47125

> <r_epik_Ionization_Penalty_Neutral>
0.000118933

> <r_epik_State_Penalty>
6.47124

> <r_epik_Charging_Adjusted_Penalty>
12.9425

> <i_epik_Tot_Q>
-1

> <i_epik_Tot_abs_Q>
1

> <r_epik_Metal_State_Penalty>
2.3995

> <b_epik_Metal_Only>
1

> <s_lp_Force_Field>
OPLS_2005

> <r_lp_Energy>
3.94735

> <b_lp_Chiralities_Consistent>
1

> <s_lp_Variant>
AV-unprocessed.smi:2104-7

> <Gold.Version>
5.8.1

> <Gold.Id.Protein>
6NUR|6NUR_protein|mol2

> <Gold.PLP.Fitness>
50.7663

> <Gold.PLP.PLP>
-41.8517

> <Gold.PLP.part.hbond>
-3.8609

> <Gold.PLP.part.metal>
0.0000

> <Gold.PLP.part.buried>
-4.5352

> <Gold.PLP.part.nonpolar>
-32.8895

> <Gold.PLP.part.repulsive>
0.1354

> <Gold.PLP.ligand.clash>
0.0000

> <Gold.PLP.ligand.torsion>
1.4792

> <Gold.PLP.Chemscore.Hbond>
3.8149

> <Gold.PLP.Chemscore.CHOScore>
0.0000

> <Gold.PLP.Chemscore.Metal>
0.0000

> <Gold.Chemscore.Hbonds>
donor molecule, donor type, donor heavy atom, donor atom, acceptor molecule, acceptor atom, score
      P1  H  6896  6909       L1     5  2.00
      P1  H  6931  6943       L1    19  1.00
      P1  H  6934  6947       L1    19  0.57

> <Gold.PLP.Chemscore.Internal.Correction>
0.4283

> <Gold.Rescore>
     Score         DG    S(hbond)    S(metal)    S(lipo)     H(rot)  DE(clash)    DE(int)     intcor
     17.97     -20.81       2.06        0.00     109.69       1.71       0.01       2.84       ----

> <Gold.Chemscore.Fitness>
17.9708

> <Gold.Chemscore.DG>
-20.8141

> <Gold.Chemscore.ZeroCoef>
-5.4800

> <Gold.Chemscore.Hbond>
2.0595

> <Gold.Chemscore.Metal>
0.0000

> <Gold.Chemscore.Lipo>
109.6908

> <Gold.Chemscore.Internal_Hbond>
0.0000

> <Gold.Chemscore.DEClash>
0.0052

> <Gold.Chemscore.DEInternal>
2.8381

> <Gold.Chemscore.Rot>
1.7103

> <Gold.Chemscore.Internal.Correction>
   9.000000E+99

> <Gold.Chemscore.Hbonds>
donor molecule, donor type, donor heavy atom, donor atom, acceptor molecule, acceptor atom, score
      P1  H  6896  6909       L1     5  0.59
      P1  H  6931  6943       L1    19  0.83
      P1  H  6934  6947       L1    19  0.28

> <Gold.Chemscore.Hbond.Weighted>
-6.8787

> <Gold.Chemscore.Metal.Weighted>
-0.0000

> <Gold.Chemscore.Lipo.Weighted>
-12.8338

> <Gold.Chemscore.Internal_Hbond.Weighted>
0.0000

> <Gold.Chemscore.DEClash.Weighted>
0.0052

> <Gold.Chemscore.DEInternal.Weighted>
2.8381

> <Gold.Chemscore.Rot.Weighted>
4.3784

> <Gold.Chemscore.Internal.Correction.Weighted>
   9.000000E+99

> <Gold.Protein.RotatedTorsions>
[ 6907 6896 6895 6894 ] final   66.77 input  -60.11 | X-H torsion
[ 7974 7965 7964 7962 ] final -133.37 input  175.53 | X-H torsion
[ 8008 7997 7996 7995 ] final -165.73 input   59.86 | X-H torsion
[ 10167 10162 10161 10158 ] final   54.34 input  -65.29 | X-H torsion
[ 10718 10713 10712 10709 ] final -174.81 input   66.30 | X-H torsion
[ 10763 10752 10751 10750 ] final   90.29 input  -60.55 | X-H torsion
[ 11005 11000 10999 10996 ] final  145.18 input  -57.11 | X-H torsion

> <Gold.Protein.ActiveResidues>
 VAL166  LYS551  ARG553  GLY616  TRP617  ASP618  TYR619  PRO620  LYS621  CYS622 
 ASP623  PHE694  ASN695  SER759  ASP760  ASP761  ALA762  ILE779  LEU786  VAL792 
 PHE793  MET794  SER795  GLU796  ALA797  LYS798  CYS799  TRP800  GLU811  SER814 

> <Gold.Protein.RotatedAtoms>
  152.4505  134.5404  159.9837 H   0  0  0  0  0  0  0  0  0  0  0  0  # atno 6907 bound_to 6896
  151.5478  133.3416  159.2955 H   0  0  0  0  0  0  0  0  0  0  0  0  # atno 6908 bound_to 6896
  150.8432  134.7764  159.7012 H   0  0  0  0  0  0  0  0  0  0  0  0  # atno 6909 bound_to 6896
  144.9199  140.7001  143.4972 H   0  0  0  0  0  0  0  0  0  0  0  0  # atno 7974 bound_to 7965
  155.8539  140.0967  157.1657 H   0  0  0  0  0  0  0  0  0  0  0  0  # atno 8008 bound_to 7997
  154.3987  140.1378  156.3940 H   0  0  0  0  0  0  0  0  0  0  0  0  # atno 8009 bound_to 7997
  155.7931  140.3455  155.5363 H   0  0  0  0  0  0  0  0  0  0  0  0  # atno 8010 bound_to 7997
  140.2311  144.3685  150.6414 H   0  0  0  0  0  0  0  0  0  0  0  0  # atno 10167 bound_to 10162
  156.7906  130.9516  151.3120 H   0  0  0  0  0  0  0  0  0  0  0  0  # atno 10718 bound_to 10713
  153.1961  135.4439  155.0209 H   0  0  0  0  0  0  0  0  0  0  0  0  # atno 10763 bound_to 10752
  154.8119  135.3298  154.7284 H   0  0  0  0  0  0  0  0  0  0  0  0  # atno 10764 bound_to 10752
  153.7733  135.6983  153.4957 H   0  0  0  0  0  0  0  0  0  0  0  0  # atno 10765 bound_to 10752
  140.0691  134.9162  157.1315 H   0  0  0  0  0  0  0  0  0  0  0  0  # atno 11005 bound_to 11000
  145.3313  139.1759  143.4535 LP  0  0  0  0  0  0  0  0  0  0  0  0  # atno 17320 bound_to 7965
  146.3200  140.3343  142.8643 LP  0  0  0  0  0  0  0  0  0  0  0  0  # atno 17321 bound_to 7965
  140.6184  143.2174  151.6744 LP  0  0  0  0  0  0  0  0  0  0  0  0  # atno 17342 bound_to 10162
  139.5109  144.3525  152.0638 LP  0  0  0  0  0  0  0  0  0  0  0  0  # atno 17343 bound_to 10162
  157.6602  130.8960  149.9814 LP  0  0  0  0  0  0  0  0  0  0  0  0  # atno 17370 bound_to 10713
  156.1161  130.3648  149.9965 LP  0  0  0  0  0  0  0  0  0  0  0  0  # atno 17371 bound_to 10713
  140.3654  134.2448  155.7183 LP  0  0  0  0  0  0  0  0  0  0  0  0  # atno 17394 bound_to 11000
  141.2005  133.7986  157.0487 LP  0  0  0  0  0  0  0  0  0  0  0  0  # atno 17395 bound_to 11000

$$$$
