AV-unprocessed.smi:2881|AV-procd|sdf|11069|dock4
  -GOLD-   2272015543D 1   1.00000     0.00000
 Structure written by MMmdl.
 40 42  0  0  0  0  0  0  0  0  1 V2000
  151.2248  129.2377  155.5722 C   0  0  0  0  0  0  0  0  0  0  0  0
  150.6677  130.5876  155.2283 C   0  0  0  0  0  0  0  0  0  0  0  0
  149.8010  130.9340  154.1505 C   0  0  0  0  0  0  0  0  0  0  0  0
  149.5955  132.2773  154.2995 C   0  0  0  0  0  0  0  0  0  0  0  0
  148.7830  133.2471  153.5007 C   0  0  0  0  0  0  0  0  0  0  0  0
  147.3324  132.7812  153.3411 C   0  0  0  0  0  0  0  0  0  0  0  0
  146.9392  131.7564  153.8995 O   0  0  0  0  0  0  0  0  0  0  0  0
  146.5457  133.5407  152.5637 N   0  0  0  0  0  0  0  0  0  0  0  0
  145.1369  133.2670  152.2767 C   0  0  2  0  0  0  0  0  0  0  0  0
  144.8952  131.8743  151.6374 C   0  0  2  0  0  0  0  0  0  0  0  0
  145.8318  131.6401  150.4331 C   0  0  0  0  0  0  0  0  0  0  0  0
  145.2707  132.6110  149.3789 C   0  0  0  0  0  0  0  0  0  0  0  0
  144.0696  133.2538  150.1042 C   0  0  1  0  0  0  0  0  0  0  0  0
  143.5599  132.0776  150.9287 C   0  0  0  0  0  0  0  0  0  0  0  0
  144.5146  134.2271  151.2238 C   0  0  2  0  0  0  0  0  0  0  0  0
  145.3688  135.4345  150.7759 C   0  0  0  0  0  0  0  0  0  0  0  0
  144.7964  136.0420  149.6372 O   0  0  0  0  0  0  0  0  0  0  0  0
  150.3230  132.6551  155.4056 N   0  0  0  0  0  0  0  0  0  0  0  0
  150.9803  131.6315  155.9816 N   0  0  0  0  0  0  0  0  0  0  0  0
  150.3773  133.5935  155.7754 H   0  0  0  0  0  0  0  0  0  0  0  0
  150.9458  128.4945  154.8251 H   0  0  0  0  0  0  0  0  0  0  0  0
  150.8521  128.8940  156.5374 H   0  0  0  0  0  0  0  0  0  0  0  0
  152.3136  129.2625  155.6238 H   0  0  0  0  0  0  0  0  0  0  0  0
  149.3883  130.2914  153.3868 H   0  0  0  0  0  0  0  0  0  0  0  0
  149.2185  133.3652  152.5083 H   0  0  0  0  0  0  0  0  0  0  0  0
  148.8112  134.2303  153.9728 H   0  0  0  0  0  0  0  0  0  0  0  0
  146.9489  134.3606  152.1342 H   0  0  0  0  0  0  0  0  0  0  0  0
  144.5673  133.3500  153.2047 H   0  0  0  0  0  0  0  0  0  0  0  0
  144.9070  131.0566  152.3589 H   0  0  0  0  0  0  0  0  0  0  0  0
  146.8841  131.8191  150.6530 H   0  0  0  0  0  0  0  0  0  0  0  0
  145.7480  130.6112  150.0809 H   0  0  0  0  0  0  0  0  0  0  0  0
  146.0084  133.3355  149.0377 H   0  0  0  0  0  0  0  0  0  0  0  0
  144.9335  132.0577  148.5015 H   0  0  0  0  0  0  0  0  0  0  0  0
  143.3308  133.6813  149.4256 H   0  0  0  0  0  0  0  0  0  0  0  0
  143.2547  131.2224  150.3230 H   0  0  0  0  0  0  0  0  0  0  0  0
  142.7458  132.3406  151.6066 H   0  0  0  0  0  0  0  0  0  0  0  0
  143.6075  134.6411  151.6685 H   0  0  0  0  0  0  0  0  0  0  0  0
  145.4091  136.1789  151.5716 H   0  0  0  0  0  0  0  0  0  0  0  0
  146.3977  135.1544  150.5538 H   0  0  0  0  0  0  0  0  0  0  0  0
  144.7135  136.9690  149.8001 H   0  0  0  0  0  0  0  0  0  0  0  0
  1 21  1  0  0  0  0
  1 22  1  0  0  0  0
  1 23  1  0  0  0  0
  1  2  1  0  0  0  0
  2 19  2  0  0  0  0
  2  3  1  0  0  0  0
  3  4  2  0  0  0  0
  3 24  1  0  0  0  0
  4 18  1  0  0  0  0
  4  5  1  0  0  0  0
  5  6  1  0  0  0  0
  5 25  1  0  0  0  0
  5 26  1  0  0  0  0
  6  7  2  0  0  0  0
  6  8  1  0  0  0  0
  8  9  1  0  0  0  0
  8 27  1  0  0  0  0
  9 15  1  0  0  0  0
  9 10  1  0  0  0  0
  9 28  1  0  0  0  0
 10 14  1  0  0  0  0
 10 11  1  0  0  0  0
 10 29  1  0  0  0  0
 11 12  1  0  0  0  0
 11 30  1  0  0  0  0
 11 31  1  0  0  0  0
 12 13  1  0  0  0  0
 12 32  1  0  0  0  0
 12 33  1  0  0  0  0
 13 14  1  0  0  0  0
 13 15  1  0  0  0  0
 13 34  1  0  0  0  0
 14 35  1  0  0  0  0
 14 36  1  0  0  0  0
 15 16  1  0  0  0  0
 15 37  1  0  0  0  0
 16 17  1  0  0  0  0
 16 38  1  0  0  0  0
 16 39  1  0  0  0  0
 17 40  1  0  0  0  0
 18 19  1  0  0  0  0
 18 20  1  0  0  0  0
M  END
> <s_m_source_file>
AV-unprocessed.smi

> <i_m_source_file_index>
2881

> <i_lp_mmshare_version>
43012

> <i_f3d_flags>
0

> <s_epik_input>
W0NIM11jMVtjSF1jKG5bbkhdMSlbQ0gyXUMoPU8pW05IXVtDQEhdKFtDQEBIXTIzKVtDQEhdKFtDSDJdW09IXSlbQ0BASF0oW0NIMl0zKVtDSDJdW0NIMl0y

> <s_epik_cmdline>
J2VwaWtfcHl0aG9uJywgJy1waCcsICc3LjAnLCAnLXRuJywgJzgnLCAnLW1hJywgJzIwMCcsICctbWV0YWxfYmluZGluZycsICctaW1hZScsICc8aW5maWxlLm1hZT4nLCAnLW9tYWUnLCAnPG91dGZpbGUubWFlPic=

> <r_lp_tautomer_probability>
0.5

> <r_epik_Ionization_Penalty>
0.00013396

> <r_epik_Ionization_Penalty_Charging>
0

> <r_epik_Ionization_Penalty_Neutral>
0.00013396

> <r_epik_State_Penalty>
0.41068

> <r_epik_Charging_Adjusted_Penalty>
0.41068

> <i_epik_Tot_Q>
0

> <i_epik_Tot_abs_Q>
0

> <r_epik_Metal_State_Penalty>
0.41066

> <b_epik_Metal_Only>
0

> <s_lp_Force_Field>
OPLS_2005

> <r_lp_Energy>
50.1234

> <b_lp_Chiralities_Consistent>
1

> <s_lp_Variant>
AV-unprocessed.smi:2881-15

> <Gold.Version>
5.8.1

> <Gold.Id.Protein>
6NUR|6NUR_protein|mol2

> <Gold.PLP.Fitness>
38.6736

> <Gold.PLP.PLP>
-35.9928

> <Gold.PLP.part.hbond>
-2.0000

> <Gold.PLP.part.metal>
0.0000

> <Gold.PLP.part.buried>
-4.6426

> <Gold.PLP.part.nonpolar>
-29.2778

> <Gold.PLP.part.repulsive>
0.1331

> <Gold.PLP.ligand.clash>
0.0000

> <Gold.PLP.ligand.torsion>
0.1658

> <Gold.PLP.Chemscore.Hbond>
1.0000

> <Gold.PLP.Chemscore.CHOScore>
0.0000

> <Gold.PLP.Chemscore.Metal>
0.0000

> <Gold.Chemscore.Hbonds>
donor molecule, donor type, donor heavy atom, donor atom, acceptor molecule, acceptor atom, score
      L1  H    17    40       P1 10171  1.00

> <Gold.PLP.Chemscore.Internal.Correction>
0.0123

> <Gold.Rescore>
     Score         DG    S(hbond)    S(metal)    S(lipo)     H(rot)  DE(clash)    DE(int)     intcor
     13.81     -14.10       1.00        0.00      94.92       2.28       0.22       0.07       ----

> <Gold.Chemscore.Fitness>
13.8073

> <Gold.Chemscore.DG>
-14.0951

> <Gold.Chemscore.ZeroCoef>
-5.4800

> <Gold.Chemscore.Hbond>
0.9985

> <Gold.Chemscore.Metal>
0.0000

> <Gold.Chemscore.Lipo>
94.9158

> <Gold.Chemscore.Internal_Hbond>
0.0000

> <Gold.Chemscore.DEClash>
0.2173

> <Gold.Chemscore.DEInternal>
0.0704

> <Gold.Chemscore.Rot>
2.2755

> <Gold.Chemscore.Internal.Correction>
   9.000000E+99

> <Gold.Chemscore.Hbonds>
donor molecule, donor type, donor heavy atom, donor atom, acceptor molecule, acceptor atom, score
      L1  H    17    40       P1 10171  0.98

> <Gold.Chemscore.Hbond.Weighted>
-3.3351

> <Gold.Chemscore.Metal.Weighted>
-0.0000

> <Gold.Chemscore.Lipo.Weighted>
-11.1051

> <Gold.Chemscore.Internal_Hbond.Weighted>
0.0000

> <Gold.Chemscore.DEClash.Weighted>
0.2173

> <Gold.Chemscore.DEInternal.Weighted>
0.0704

> <Gold.Chemscore.Rot.Weighted>
5.8252

> <Gold.Chemscore.Internal.Correction.Weighted>
   9.000000E+99

> <Gold.Protein.RotatedTorsions>
[ 6907 6896 6895 6894 ] final  139.42 input  -60.11 | X-H torsion
[ 7974 7965 7964 7962 ] final -113.48 input  175.53 | X-H torsion
[ 8008 7997 7996 7995 ] final -139.43 input   59.86 | X-H torsion
[ 10167 10162 10161 10158 ] final  -61.22 input  -65.29 | X-H torsion
[ 10718 10713 10712 10709 ] final   55.42 input   66.30 | X-H torsion
[ 10763 10752 10751 10750 ] final  -11.02 input  -60.55 | X-H torsion
[ 11005 11000 10999 10996 ] final  -91.75 input  -57.11 | X-H torsion

> <Gold.Protein.ActiveResidues>
 VAL166  LYS551  ARG553  GLY616  TRP617  ASP618  TYR619  PRO620  LYS621  CYS622 
 ASP623  PHE694  ASN695  SER759  ASP760  ASP761  ALA762  ILE779  LEU786  VAL792 
 PHE793  MET794  SER795  GLU796  ALA797  LYS798  CYS799  TRP800  GLU811  SER814 

> <Gold.Protein.RotatedAtoms>
  152.2551  133.5248  159.5348 H   0  0  0  0  0  0  0  0  0  0  0  0  # atno 6907 bound_to 6896
  150.7106  134.0907  159.3939 H   0  0  0  0  0  0  0  0  0  0  0  0  # atno 6908 bound_to 6896
  151.8825  135.0448  160.0541 H   0  0  0  0  0  0  0  0  0  0  0  0  # atno 6909 bound_to 6896
  145.1315  140.8727  143.3755 H   0  0  0  0  0  0  0  0  0  0  0  0  # atno 7974 bound_to 7965
  155.4447  140.0534  157.3007 H   0  0  0  0  0  0  0  0  0  0  0  0  # atno 8008 bound_to 7997
  154.4803  140.2078  155.9737 H   0  0  0  0  0  0  0  0  0  0  0  0  # atno 8009 bound_to 7997
  156.1195  140.3190  155.8192 H   0  0  0  0  0  0  0  0  0  0  0  0  # atno 8010 bound_to 7997
  140.6020  143.2364  151.5906 H   0  0  0  0  0  0  0  0  0  0  0  0  # atno 10167 bound_to 10162
  157.5344  130.8653  149.8732 H   0  0  0  0  0  0  0  0  0  0  0  0  # atno 10718 bound_to 10713
  153.4777  135.7017  153.5956 H   0  0  0  0  0  0  0  0  0  0  0  0  # atno 10763 bound_to 10752
  153.4183  135.3832  155.2095 H   0  0  0  0  0  0  0  0  0  0  0  0  # atno 10764 bound_to 10752
  154.8723  135.3921  154.4223 H   0  0  0  0  0  0  0  0  0  0  0  0  # atno 10765 bound_to 10752
  141.1538  133.7776  156.9923 H   0  0  0  0  0  0  0  0  0  0  0  0  # atno 11005 bound_to 11000
  145.0630  139.3091  143.5871 LP  0  0  0  0  0  0  0  0  0  0  0  0  # atno 17320 bound_to 7965
  146.3513  140.0078  142.8670 LP  0  0  0  0  0  0  0  0  0  0  0  0  # atno 17321 bound_to 7965
  139.5298  144.2950  152.1121 LP  0  0  0  0  0  0  0  0  0  0  0  0  # atno 17342 bound_to 10162
  140.2133  144.4541  150.6376 LP  0  0  0  0  0  0  0  0  0  0  0  0  # atno 17343 bound_to 10162
  156.0447  130.3730  150.1348 LP  0  0  0  0  0  0  0  0  0  0  0  0  # atno 17370 bound_to 10713
  156.9531  130.9781  151.3494 LP  0  0  0  0  0  0  0  0  0  0  0  0  # atno 17371 bound_to 10713
  140.0995  134.9544  157.1901 LP  0  0  0  0  0  0  0  0  0  0  0  0  # atno 17394 bound_to 11000
  140.3338  134.2780  155.7223 LP  0  0  0  0  0  0  0  0  0  0  0  0  # atno 17395 bound_to 11000

$$$$
