AV-unprocessed.smi:1633|AV-procd|sdf|6535|dock6
  -GOLD-   22720 7213D 1   1.00000     0.00000
 Structure written by MMmdl.
 52 54  0  0  0  0  0  0  0  0  3 V2000
  147.7775  142.4154  157.3782 C   0  0  0  0  0  0  0  0  0  0  0  0
  146.7914  141.2528  157.2457 C   0  0  0  0  0  0  0  0  0  0  0  0
  146.6227  140.5236  158.2227 O   0  0  0  0  0  0  0  0  0  0  0  0
  146.1418  141.0634  156.0719 N   0  0  0  0  0  0  0  0  0  0  0  0
  145.2338  139.9528  155.7686 C   0  0  0  0  0  0  0  0  0  0  0  0
  145.8675  139.0624  154.6833 C   0  0  0  0  0  0  0  0  0  0  0  0
  146.2234  139.8508  153.4705 N   0  3  0  0  0  0  0  0  0  0  0  0
  146.8413  139.0386  152.3904 C   0  0  0  0  0  0  0  0  0  0  0  0
  145.8991  137.9515  151.8246 C   0  0  1  0  0  0  0  0  0  0  0  0
  146.2866  137.6424  150.5011 O   0  0  0  0  0  0  0  0  0  0  0  0
  145.9269  136.6321  152.6229 C   0  0  0  0  0  0  0  0  0  0  0  0
  145.0886  135.5794  152.0318 N   0  0  0  0  0  0  0  0  0  0  0  0
  143.8770  135.6798  151.4198 C   0  0  0  0  0  0  0  0  0  0  0  0
  143.5079  134.4285  151.0306 N   0  3  0  0  0  0  0  0  0  0  0  0
  144.5002  133.5154  151.3930 C   0  0  0  0  0  0  0  0  0  0  0  0
  144.5791  132.1396  151.2130 C   0  0  0  0  0  0  0  0  0  0  0  0
  145.7348  131.4901  151.7023 C   0  0  0  0  0  0  0  0  0  0  0  0
  145.8519  129.9860  151.5236 C   0  0  0  0  0  0  0  0  0  0  0  0
  146.7646  132.2216  152.3482 C   0  0  0  0  0  0  0  0  0  0  0  0
  148.0021  131.5129  152.8730 C   0  0  0  0  0  0  0  0  0  0  0  0
  146.6662  133.6209  152.5201 C   0  0  0  0  0  0  0  0  0  0  0  0
  145.5202  134.2466  152.0331 C   0  0  0  0  0  0  0  0  0  0  0  0
  147.0322  141.0574  153.7912 C   0  0  0  0  0  0  0  0  0  0  0  0
  146.3705  141.9038  154.8932 C   0  0  0  0  0  0  0  0  0  0  0  0
  147.2755  143.3701  157.2190 H   0  0  0  0  0  0  0  0  0  0  0  0
  148.5910  142.3166  156.6588 H   0  0  0  0  0  0  0  0  0  0  0  0
  148.2177  142.4340  158.3758 H   0  0  0  0  0  0  0  0  0  0  0  0
  144.9787  139.3456  156.6358 H   0  0  0  0  0  0  0  0  0  0  0  0
  144.2872  140.3592  155.4095 H   0  0  0  0  0  0  0  0  0  0  0  0
  146.7639  138.5823  155.0794 H   0  0  0  0  0  0  0  0  0  0  0  0
  145.1689  138.2669  154.4278 H   0  0  0  0  0  0  0  0  0  0  0  0
  147.1377  139.6945  151.5701 H   0  0  0  0  0  0  0  0  0  0  0  0
  147.7610  138.5958  152.7742 H   0  0  0  0  0  0  0  0  0  0  0  0
  144.8707  138.3107  151.8015 H   0  0  0  0  0  0  0  0  0  0  0  0
  145.6252  137.9559  149.9036 H   0  0  0  0  0  0  0  0  0  0  0  0
  146.9456  136.2427  152.6574 H   0  0  0  0  0  0  0  0  0  0  0  0
  145.6311  136.7905  153.6600 H   0  0  0  0  0  0  0  0  0  0  0  0
  143.3114  136.5880  151.2675 H   0  0  0  0  0  0  0  0  0  0  0  0
  143.7911  131.5890  150.7202 H   0  0  0  0  0  0  0  0  0  0  0  0
  146.7566  129.7333  150.9710 H   0  0  0  0  0  0  0  0  0  0  0  0
  145.0026  129.5817  150.9724 H   0  0  0  0  0  0  0  0  0  0  0  0
  145.8875  129.4886  152.4929 H   0  0  0  0  0  0  0  0  0  0  0  0
  148.6885  132.2100  153.3543 H   0  0  0  0  0  0  0  0  0  0  0  0
  148.5394  131.0266  152.0585 H   0  0  0  0  0  0  0  0  0  0  0  0
  147.7274  130.7560  153.6080 H   0  0  0  0  0  0  0  0  0  0  0  0
  147.4534  134.1724  153.0122 H   0  0  0  0  0  0  0  0  0  0  0  0
  148.0293  140.7491  154.1101 H   0  0  0  0  0  0  0  0  0  0  0  0
  147.1583  141.6642  152.8938 H   0  0  0  0  0  0  0  0  0  0  0  0
  145.4146  142.2956  154.5427 H   0  0  0  0  0  0  0  0  0  0  0  0
  146.9886  142.7772  155.1063 H   0  0  0  0  0  0  0  0  0  0  0  0
  145.3546  140.2042  153.0956 H   0  0  0  0  0  0  0  0  0  0  0  0
  142.6444  134.2167  150.5468 H   0  0  0  0  0  0  0  0  0  0  0  0
  1  2  1  0  0  0  0
  1 25  1  0  0  0  0
  1 26  1  0  0  0  0
  1 27  1  0  0  0  0
  2  3  2  0  0  0  0
  2  4  1  0  0  0  0
  4 24  1  0  0  0  0
  4  5  1  0  0  0  0
  5  6  1  0  0  0  0
  5 28  1  0  0  0  0
  5 29  1  0  0  0  0
  6  7  1  0  0  0  0
  6 30  1  0  0  0  0
  6 31  1  0  0  0  0
  7  8  1  0  0  0  0
  7 23  1  0  0  0  0
  7 51  1  0  0  0  0
  8  9  1  0  0  0  0
  8 32  1  0  0  0  0
  8 33  1  0  0  0  0
  9 10  1  0  0  0  0
  9 11  1  0  0  0  0
  9 34  1  0  0  0  0
 10 35  1  0  0  0  0
 11 12  1  0  0  0  0
 11 36  1  0  0  0  0
 11 37  1  0  0  0  0
 12 22  1  0  0  0  0
 12 13  1  0  0  0  0
 13 14  2  0  0  0  0
 13 38  1  0  0  0  0
 14 15  1  0  0  0  0
 14 52  1  0  0  0  0
 15 22  2  0  0  0  0
 15 16  1  0  0  0  0
 16 17  2  0  0  0  0
 16 39  1  0  0  0  0
 17 18  1  0  0  0  0
 17 19  1  0  0  0  0
 18 40  1  0  0  0  0
 18 41  1  0  0  0  0
 18 42  1  0  0  0  0
 19 20  1  0  0  0  0
 19 21  2  0  0  0  0
 20 43  1  0  0  0  0
 20 44  1  0  0  0  0
 20 45  1  0  0  0  0
 21 22  1  0  0  0  0
 21 46  1  0  0  0  0
 23 24  1  0  0  0  0
 23 47  1  0  0  0  0
 23 48  1  0  0  0  0
 24 49  1  0  0  0  0
 24 50  1  0  0  0  0
M  CHG  1   7   1
M  CHG  1  14   1
M  END
> <s_m_source_file>
AV-unprocessed.smi

> <i_m_source_file_index>
1633

> <i_lp_mmshare_version>
43012

> <i_f3d_flags>
0

> <s_epik_input>
W0NIM11DKD1PKU4xW0NIMl1bQ0gyXU4oW0NIMl1bQ0gyXTEpW0NIMl1bQ0BIXShbT0hdKVtDSDJdbihbY0hdbjIpYyhjMjMpW2NIXWMoW0NIM10pYyhbY0hdMylbQ0gzXQ==

> <s_epik_cmdline>
J2VwaWtfcHl0aG9uJywgJy1waCcsICc3LjAnLCAnLXRuJywgJzgnLCAnLW1hJywgJzIwMCcsICctbWV0YWxfYmluZGluZycsICctaW1hZScsICc8aW5maWxlLm1hZT4nLCAnLW9tYWUnLCAnPG91dGZpbGUubWFlPic=

> <r_epik_Ionization_Penalty>
1.18448

> <r_epik_Ionization_Penalty_Charging>
1.18447

> <r_epik_Ionization_Penalty_Neutral>
4.53746e-06

> <r_epik_State_Penalty>
1.28566

> <r_epik_Charging_Adjusted_Penalty>
2.47013

> <i_epik_Tot_Q>
2

> <i_epik_Tot_abs_Q>
2

> <r_epik_Metal_State_Penalty>
5.30076

> <b_epik_Metal_Only>
0

> <s_lp_Force_Field>
OPLS_2005

> <r_lp_Energy>
59.1266

> <b_lp_Chiralities_Consistent>
1

> <s_lp_Variant>
AV-unprocessed.smi:1633-4

> <Gold.Version>
5.8.1

> <Gold.Id.Protein>
6NUR|6NUR_protein|mol2

> <Gold.PLP.Fitness>
58.7686

> <Gold.PLP.PLP>
-39.5059

> <Gold.PLP.part.hbond>
-5.8214

> <Gold.PLP.part.metal>
0.0000

> <Gold.PLP.part.buried>
-3.9736

> <Gold.PLP.part.nonpolar>
-30.7812

> <Gold.PLP.part.repulsive>
0.0000

> <Gold.PLP.ligand.clash>
0.0000

> <Gold.PLP.ligand.torsion>
0.6520

> <Gold.PLP.Chemscore.Hbond>
5.8406

> <Gold.PLP.Chemscore.CHOScore>
1.0000

> <Gold.PLP.Chemscore.Metal>
0.0000

> <Gold.Chemscore.Hbonds>
donor molecule, donor type, donor heavy atom, donor atom, acceptor molecule, acceptor atom, score
      L1  H     7    51       P1 10175  2.00
      L1  H    10    35       P1 10171  0.90
      L1  H    14    52       P1 10186  2.00
      P1  H  7954  7966       L1    10  0.91
      L1  C    13    38       P1 10171  0.99

> <Gold.PLP.Chemscore.Internal.Correction>
0.0451

> <Gold.Rescore>
     Score         DG    S(hbond)    S(metal)    S(lipo)     H(rot)  DE(clash)    DE(int)     intcor
     20.82     -21.61       3.48        0.00      86.97       2.22       0.17       0.61       ----

> <Gold.Chemscore.Fitness>
20.8237

> <Gold.Chemscore.DG>
-21.6093

> <Gold.Chemscore.ZeroCoef>
-5.4800

> <Gold.Chemscore.Hbond>
3.4823

> <Gold.Chemscore.Metal>
0.0000

> <Gold.Chemscore.Lipo>
86.9749

> <Gold.Chemscore.Internal_Hbond>
0.0000

> <Gold.Chemscore.DEClash>
0.1746

> <Gold.Chemscore.DEInternal>
0.6110

> <Gold.Chemscore.Rot>
2.2178

> <Gold.Chemscore.Internal.Correction>
   9.000000E+99

> <Gold.Chemscore.Hbonds>
donor molecule, donor type, donor heavy atom, donor atom, acceptor molecule, acceptor atom, score
      L1  H     7    51       P1 10175  0.99
      L1  H    10    35       P1 10171  0.88
      L1  H    14    52       P1 10186  0.65
      P1  H  7954  7966       L1    10  0.77

> <Gold.Chemscore.Hbond.Weighted>
-11.6307

> <Gold.Chemscore.Metal.Weighted>
-0.0000

> <Gold.Chemscore.Lipo.Weighted>
-10.1761

> <Gold.Chemscore.Internal_Hbond.Weighted>
0.0000

> <Gold.Chemscore.DEClash.Weighted>
0.1746

> <Gold.Chemscore.DEInternal.Weighted>
0.6110

> <Gold.Chemscore.Rot.Weighted>
5.6775

> <Gold.Chemscore.Internal.Correction.Weighted>
   9.000000E+99

> <Gold.Protein.RotatedTorsions>
[ 6907 6896 6895 6894 ] final   39.79 input  -60.11 | X-H torsion
[ 7974 7965 7964 7962 ] final -158.17 input  175.53 | X-H torsion
[ 8008 7997 7996 7995 ] final -163.95 input   59.86 | X-H torsion
[ 10167 10162 10161 10158 ] final   88.71 input  -65.29 | X-H torsion
[ 10718 10713 10712 10709 ] final   39.86 input   66.30 | X-H torsion
[ 10763 10752 10751 10750 ] final   29.29 input  -60.55 | X-H torsion
[ 11005 11000 10999 10996 ] final  134.84 input  -57.11 | X-H torsion

> <Gold.Protein.ActiveResidues>
 VAL166  LYS551  ARG553  GLY616  TRP617  ASP618  TYR619  PRO620  LYS621  CYS622 
 ASP623  PHE694  ASN695  SER759  ASP760  ASP761  ALA762  ILE779  LEU786  VAL792 
 PHE793  MET794  SER795  GLU796  ALA797  LYS798  CYS799  TRP800  GLU811  SER814 

> <Gold.Protein.RotatedAtoms>
  152.1742  134.8809  160.0531 H   0  0  0  0  0  0  0  0  0  0  0  0  # atno 6907 bound_to 6896
  151.9757  133.3736  159.4096 H   0  0  0  0  0  0  0  0  0  0  0  0  # atno 6908 bound_to 6896
  150.6906  134.4015  159.5165 H   0  0  0  0  0  0  0  0  0  0  0  0  # atno 6909 bound_to 6896
  144.7517  140.3865  143.6043 H   0  0  0  0  0  0  0  0  0  0  0  0  # atno 7974 bound_to 7965
  155.8286  140.0930  157.1806 H   0  0  0  0  0  0  0  0  0  0  0  0  # atno 8008 bound_to 7997
  154.3979  140.1423  156.3647 H   0  0  0  0  0  0  0  0  0  0  0  0  # atno 8009 bound_to 7997
  155.8190  140.3447  155.5505 H   0  0  0  0  0  0  0  0  0  0  0  0  # atno 8010 bound_to 7997
  139.8645  144.6526  150.9019 H   0  0  0  0  0  0  0  0  0  0  0  0  # atno 10167 bound_to 10162
  157.3755  130.7725  149.7152 H   0  0  0  0  0  0  0  0  0  0  0  0  # atno 10718 bound_to 10713
  153.0439  135.6492  154.0868 H   0  0  0  0  0  0  0  0  0  0  0  0  # atno 10763 bound_to 10752
  154.0569  135.2891  155.3333 H   0  0  0  0  0  0  0  0  0  0  0  0  # atno 10764 bound_to 10752
  154.6683  135.5366  153.8171 H   0  0  0  0  0  0  0  0  0  0  0  0  # atno 10765 bound_to 10752
  139.9941  134.9504  156.9923 H   0  0  0  0  0  0  0  0  0  0  0  0  # atno 11005 bound_to 11000
  145.6922  139.1641  143.2640 LP  0  0  0  0  0  0  0  0  0  0  0  0  # atno 17320 bound_to 7965
  146.1475  140.6972  142.9338 LP  0  0  0  0  0  0  0  0  0  0  0  0  # atno 17321 bound_to 7965
  140.7770  143.3715  151.1640 LP  0  0  0  0  0  0  0  0  0  0  0  0  # atno 17342 bound_to 10162
  139.7342  143.9025  152.3029 LP  0  0  0  0  0  0  0  0  0  0  0  0  # atno 17343 bound_to 10162
  155.9764  130.4076  150.3780 LP  0  0  0  0  0  0  0  0  0  0  0  0  # atno 17370 bound_to 10713
  157.1876  131.0407  151.2716 LP  0  0  0  0  0  0  0  0  0  0  0  0  # atno 17371 bound_to 10713
  140.4853  134.1248  155.7223 LP  0  0  0  0  0  0  0  0  0  0  0  0  # atno 17394 bound_to 11000
  141.1590  133.8829  157.1900 LP  0  0  0  0  0  0  0  0  0  0  0  0  # atno 17395 bound_to 11000

$$$$
