AV-unprocessed.smi:2346|AV-procd|sdf|9368|dock8
  -GOLD-   2272012593D 1   1.00000     0.00000
 Structure written by MMmdl.
 45 47  0  0  0  0  0  0  0  0  2 V2000
  153.0054  133.5391  157.1871 C   0  0  0  0  0  0  0  0  0  0  0  0
  152.4030  134.7784  156.8439 O   0  0  0  0  0  0  0  0  0  0  0  0
  151.1906  134.7583  156.1852 C   0  0  0  0  0  0  0  0  0  0  0  0
  150.6788  133.6164  155.5180 C   0  0  0  0  0  0  0  0  0  0  0  0
  149.4334  133.6683  154.8622 C   0  0  0  0  0  0  0  0  0  0  0  0
  148.9188  132.4918  154.1814 C   0  0  0  0  0  0  0  0  0  0  0  0
  148.5094  131.5552  153.6396 N   0  0  0  0  0  0  0  0  0  0  0  0
  148.6889  134.8620  154.8678 C   0  0  0  0  0  0  0  0  0  0  0  0
  149.1872  135.9992  155.5285 C   0  0  0  0  0  0  0  0  0  0  0  0
  150.4398  135.9566  156.1915 C   0  0  0  0  0  0  0  0  0  0  0  0
  150.9895  137.0327  156.8574 O   0  0  0  0  0  0  0  0  0  0  0  0
  150.4365  138.3216  156.6366 C   0  0  0  0  0  0  0  0  0  0  0  0
  151.5866  139.3305  156.5396 C   0  0  0  0  0  0  0  0  0  0  0  0
  151.1148  140.7154  156.6810 N   0  0  0  0  0  0  0  0  0  0  0  0
  150.1544  141.4030  155.9949 C   0  0  0  0  0  0  0  0  0  0  0  0
  149.2836  140.8933  154.8876 C   0  0  1  0  0  0  0  0  0  0  0  0
  148.3324  141.9910  154.3933 C   0  0  0  0  0  0  0  0  0  0  0  0
  150.0414  140.4278  153.7904 O   0  0  0  0  0  0  0  0  0  0  0  0
  150.1025  142.6574  156.5278 N   0  3  0  0  0  0  0  0  0  0  0  0
  151.0317  142.7744  157.5609 C   0  0  0  0  0  0  0  0  0  0  0  0
  151.3410  143.8480  158.3901 C   0  0  0  0  0  0  0  0  0  0  0  0
  152.3428  143.6309  159.3586 C   0  0  0  0  0  0  0  0  0  0  0  0
  152.9930  142.3852  159.4754 C   0  0  0  0  0  0  0  0  0  0  0  0
  152.6712  141.3043  158.6277 C   0  0  0  0  0  0  0  0  0  0  0  0
  151.6818  141.5283  157.6701 C   0  0  0  0  0  0  0  0  0  0  0  0
  153.9611  133.7277  157.6754 H   0  0  0  0  0  0  0  0  0  0  0  0
  153.2033  132.9329  156.3019 H   0  0  0  0  0  0  0  0  0  0  0  0
  152.3856  132.9726  157.8834 H   0  0  0  0  0  0  0  0  0  0  0  0
  151.2297  132.6878  155.4987 H   0  0  0  0  0  0  0  0  0  0  0  0
  147.7328  134.9133  154.3666 H   0  0  0  0  0  0  0  0  0  0  0  0
  148.5858  136.8951  155.5111 H   0  0  0  0  0  0  0  0  0  0  0  0
  149.8615  138.3293  155.7098 H   0  0  0  0  0  0  0  0  0  0  0  0
  149.7704  138.5935  157.4569 H   0  0  0  0  0  0  0  0  0  0  0  0
  152.3465  139.1319  157.2956 H   0  0  0  0  0  0  0  0  0  0  0  0
  152.0891  139.2391  155.5771 H   0  0  0  0  0  0  0  0  0  0  0  0
  148.6942  140.0521  155.2501 H   0  0  0  0  0  0  0  0  0  0  0  0
  147.6977  142.3544  155.2016 H   0  0  0  0  0  0  0  0  0  0  0  0
  147.6776  141.6178  153.6052 H   0  0  0  0  0  0  0  0  0  0  0  0
  148.8815  142.8443  153.9935 H   0  0  0  0  0  0  0  0  0  0  0  0
  149.4812  140.3977  153.0297 H   0  0  0  0  0  0  0  0  0  0  0  0
  150.8422  144.8023  158.3035 H   0  0  0  0  0  0  0  0  0  0  0  0
  152.6165  144.4350  160.0262 H   0  0  0  0  0  0  0  0  0  0  0  0
  153.7545  142.2556  160.2308 H   0  0  0  0  0  0  0  0  0  0  0  0
  153.1744  140.3541  158.7291 H   0  0  0  0  0  0  0  0  0  0  0  0
  149.4697  143.3776  156.2036 H   0  0  0  0  0  0  0  0  0  0  0  0
  1  2  1  0  0  0  0
  1 26  1  0  0  0  0
  1 27  1  0  0  0  0
  1 28  1  0  0  0  0
  2  3  1  0  0  0  0
  3 10  1  0  0  0  0
  3  4  2  0  0  0  0
  4  5  1  0  0  0  0
  4 29  1  0  0  0  0
  5  6  1  0  0  0  0
  5  8  2  0  0  0  0
  6  7  3  0  0  0  0
  8  9  1  0  0  0  0
  8 30  1  0  0  0  0
  9 10  2  0  0  0  0
  9 31  1  0  0  0  0
 10 11  1  0  0  0  0
 11 12  1  0  0  0  0
 12 13  1  0  0  0  0
 12 32  1  0  0  0  0
 12 33  1  0  0  0  0
 13 14  1  0  0  0  0
 13 34  1  0  0  0  0
 13 35  1  0  0  0  0
 14 25  1  0  0  0  0
 14 15  1  0  0  0  0
 15 16  1  0  0  0  0
 15 19  2  0  0  0  0
 16 17  1  0  0  0  0
 16 18  1  0  0  0  0
 16 36  1  0  0  0  0
 17 37  1  0  0  0  0
 17 38  1  0  0  0  0
 17 39  1  0  0  0  0
 18 40  1  0  0  0  0
 19 20  1  0  0  0  0
 19 45  1  0  0  0  0
 20 25  2  0  0  0  0
 20 21  1  0  0  0  0
 21 22  2  0  0  0  0
 21 41  1  0  0  0  0
 22 23  1  0  0  0  0
 22 42  1  0  0  0  0
 23 24  2  0  0  0  0
 23 43  1  0  0  0  0
 24 25  1  0  0  0  0
 24 44  1  0  0  0  0
M  CHG  1  19   1
M  END
> <s_m_source_file>
AV-unprocessed.smi

> <i_m_source_file_index>
2346

> <i_lp_mmshare_version>
43012

> <i_f3d_flags>
0

> <s_epik_input>
W0NIM11PYzFbY0hdYyhDI04pW2NIXVtjSF1jMU9bQ0gyXVtDSDJdbihjKG4yKVtDQEhdKFtDSDNdKVtPSF0pYyhjMjMpW2NIXVtjSF1bY0hdW2NIXTM=

> <s_epik_cmdline>
J2VwaWtfcHl0aG9uJywgJy1waCcsICc3LjAnLCAnLXRuJywgJzgnLCAnLW1hJywgJzIwMCcsICctbWV0YWxfYmluZGluZycsICctaW1hZScsICc8aW5maWxlLm1hZT4nLCAnLW9tYWUnLCAnPG91dGZpbGUubWFlPic=

> <r_epik_Ionization_Penalty>
1.58928

> <r_epik_Ionization_Penalty_Charging>
1.58925

> <r_epik_Ionization_Penalty_Neutral>
2.92192e-05

> <r_epik_State_Penalty>
1.68649

> <r_epik_Charging_Adjusted_Penalty>
3.27574

> <i_epik_Tot_Q>
1

> <i_epik_Tot_abs_Q>
1

> <r_epik_Metal_State_Penalty>
5.74385

> <b_epik_Metal_Only>
0

> <s_lp_Force_Field>
OPLS_2005

> <r_lp_Energy>
24.4742

> <b_lp_Chiralities_Consistent>
1

> <s_lp_Variant>
AV-unprocessed.smi:2346-4

> <Gold.Version>
5.8.1

> <Gold.Id.Protein>
6NUR|6NUR_protein|mol2

> <Gold.PLP.Fitness>
54.4711

> <Gold.PLP.PLP>
-42.7516

> <Gold.PLP.part.hbond>
-4.1389

> <Gold.PLP.part.metal>
0.0000

> <Gold.PLP.part.buried>
-1.2640

> <Gold.PLP.part.nonpolar>
-36.0296

> <Gold.PLP.part.repulsive>
0.1485

> <Gold.PLP.ligand.clash>
0.0000

> <Gold.PLP.ligand.torsion>
0.7845

> <Gold.PLP.Chemscore.Hbond>
4.4000

> <Gold.PLP.Chemscore.CHOScore>
0.0000

> <Gold.PLP.Chemscore.Metal>
0.0000

> <Gold.Chemscore.Hbonds>
donor molecule, donor type, donor heavy atom, donor atom, acceptor molecule, acceptor atom, score
      L1  H    18    40       P1  7957  0.78
      L1  H    19    45       P1  8028  2.00
      P1  H  7989  7998       L1    18  0.67
      P1  H 10752 10763       L1     2  0.85

> <Gold.PLP.Chemscore.Internal.Correction>
0.0885

> <Gold.Rescore>
     Score         DG    S(hbond)    S(metal)    S(lipo)     H(rot)  DE(clash)    DE(int)     intcor
     19.58     -20.41       2.55        0.00     112.65       2.65       0.10       0.72       ----

> <Gold.Chemscore.Fitness>
19.5839

> <Gold.Chemscore.DG>
-20.4078

> <Gold.Chemscore.ZeroCoef>
-5.4800

> <Gold.Chemscore.Hbond>
2.5518

> <Gold.Chemscore.Metal>
0.0000

> <Gold.Chemscore.Lipo>
112.6546

> <Gold.Chemscore.Internal_Hbond>
0.0000

> <Gold.Chemscore.DEClash>
0.1024

> <Gold.Chemscore.DEInternal>
0.7216

> <Gold.Chemscore.Rot>
2.6467

> <Gold.Chemscore.Internal.Correction>
   9.000000E+99

> <Gold.Chemscore.Hbonds>
donor molecule, donor type, donor heavy atom, donor atom, acceptor molecule, acceptor atom, score
      L1  H    18    40       P1  7957  0.77
      L1  H    19    45       P1  8028  0.96
      P1  H  7989  7998       L1    18  0.60
      P1  H 10752 10763       L1     2  0.05

> <Gold.Chemscore.Hbond.Weighted>
-8.5229

> <Gold.Chemscore.Metal.Weighted>
-0.0000

> <Gold.Chemscore.Lipo.Weighted>
-13.1806

> <Gold.Chemscore.Internal_Hbond.Weighted>
0.0000

> <Gold.Chemscore.DEClash.Weighted>
0.1024

> <Gold.Chemscore.DEInternal.Weighted>
0.7216

> <Gold.Chemscore.Rot.Weighted>
6.7756

> <Gold.Chemscore.Internal.Correction.Weighted>
   9.000000E+99

> <Gold.Protein.RotatedTorsions>
[ 6907 6896 6895 6894 ] final  -77.71 input  -60.11 | X-H torsion
[ 7974 7965 7964 7962 ] final  173.95 input  175.53 | X-H torsion
[ 8008 7997 7996 7995 ] final  146.38 input   59.86 | X-H torsion
[ 10167 10162 10161 10158 ] final   77.63 input  -65.29 | X-H torsion
[ 10718 10713 10712 10709 ] final   89.21 input   66.30 | X-H torsion
[ 10763 10752 10751 10750 ] final  122.86 input  -60.55 | X-H torsion
[ 11005 11000 10999 10996 ] final  139.68 input  -57.11 | X-H torsion

> <Gold.Protein.ActiveResidues>
 VAL166  LYS551  ARG553  GLY616  TRP617  ASP618  TYR619  PRO620  LYS621  CYS622 
 ASP623  PHE694  ASN695  SER759  ASP760  ASP761  ALA762  ILE779  LEU786  VAL792 
 PHE793  MET794  SER795  GLU796  ALA797  LYS798  CYS799  TRP800  GLU811  SER814 

> <Gold.Protein.RotatedAtoms>
  150.6991  134.4381  159.5279 H   0  0  0  0  0  0  0  0  0  0  0  0  # atno 6907 bound_to 6896
  152.2096  134.8511  160.0508 H   0  0  0  0  0  0  0  0  0  0  0  0  # atno 6908 bound_to 6896
  151.9401  133.3600  159.3999 H   0  0  0  0  0  0  0  0  0  0  0  0  # atno 6909 bound_to 6896
  144.7232  139.9724  143.6437 H   0  0  0  0  0  0  0  0  0  0  0  0  # atno 7974 bound_to 7965
  156.2857  140.2184  156.5367 H   0  0  0  0  0  0  0  0  0  0  0  0  # atno 8008 bound_to 7997
  154.7403  140.0488  157.0827 H   0  0  0  0  0  0  0  0  0  0  0  0  # atno 8009 bound_to 7997
  155.0239  140.3127  155.4786 H   0  0  0  0  0  0  0  0  0  0  0  0  # atno 8010 bound_to 7997
  139.9796  144.5836  150.7913 H   0  0  0  0  0  0  0  0  0  0  0  0  # atno 10167 bound_to 10162
  157.6954  131.0324  150.3391 H   0  0  0  0  0  0  0  0  0  0  0  0  # atno 10718 bound_to 10713
  153.6364  135.3387  155.3058 H   0  0  0  0  0  0  0  0  0  0  0  0  # atno 10763 bound_to 10752
  154.8569  135.4308  154.2051 H   0  0  0  0  0  0  0  0  0  0  0  0  # atno 10764 bound_to 10752
  153.2959  135.7021  153.7322 H   0  0  0  0  0  0  0  0  0  0  0  0  # atno 10765 bound_to 10752
  140.0272  134.9369  157.0592 H   0  0  0  0  0  0  0  0  0  0  0  0  # atno 11005 bound_to 11000
  146.0553  139.3550  143.0615 LP  0  0  0  0  0  0  0  0  0  0  0  0  # atno 17320 bound_to 7965
  145.8163  140.9701  143.0922 LP  0  0  0  0  0  0  0  0  0  0  0  0  # atno 17321 bound_to 7965
  140.7494  143.2938  151.3260 LP  0  0  0  0  0  0  0  0  0  0  0  0  # atno 17342 bound_to 10162
  139.6420  144.0522  152.2562 LP  0  0  0  0  0  0  0  0  0  0  0  0  # atno 17343 bound_to 10162
  156.3854  130.3888  149.7070 LP  0  0  0  0  0  0  0  0  0  0  0  0  # atno 17370 bound_to 10713
  156.4438  130.7873  151.2895 LP  0  0  0  0  0  0  0  0  0  0  0  0  # atno 17371 bound_to 10713
  140.4286  134.1804  155.7167 LP  0  0  0  0  0  0  0  0  0  0  0  0  # atno 17394 bound_to 11000
  141.1810  133.8414  157.1258 LP  0  0  0  0  0  0  0  0  0  0  0  0  # atno 17395 bound_to 11000

$$$$
