AV-unprocessed.smi:2276|AV-procd|sdf|9174|dock4
  -GOLD-   2272012393D 1   1.00000     0.00000
 Structure written by MMmdl.
 53 54  0  0  0  0  0  0  0  0  2 V2000
  152.0270  145.9397  160.2981 C   0  0  0  0  0  0  0  0  0  0  0  0
  152.1137  144.5932  159.6110 C   0  0  0  0  0  0  0  0  0  0  0  0
  152.9778  143.5905  160.0911 C   0  0  0  0  0  0  0  0  0  0  0  0
  153.0136  142.3601  159.4066 C   0  0  0  0  0  0  0  0  0  0  0  0
  153.9204  141.2385  159.8680 C   0  0  0  0  0  0  0  0  0  0  0  0
  152.2620  142.1022  158.3147 N   0  0  0  0  0  0  0  0  0  0  0  0
  151.4266  143.0607  157.8428 C   0  0  0  0  0  0  0  0  0  0  0  0
  150.5934  142.8887  156.7055 N   0  0  0  0  0  0  0  0  0  0  0  0
  150.3932  141.7714  155.9846 C   0  0  0  0  0  0  0  0  0  0  0  0
  150.9356  140.6841  156.1852 O   0  0  0  0  0  0  0  0  0  0  0  0
  149.5150  141.9805  154.9945 N   0  0  0  0  0  0  0  0  0  0  0  0
  149.0842  140.9542  154.0533 C   0  0  0  0  0  0  0  0  0  0  0  0
  147.5859  140.6193  154.2125 C   0  0  2  0  0  0  0  0  0  0  0  0
  147.0541  139.8168  153.0109 C   0  0  0  0  0  0  0  0  0  0  0  0
  146.7414  141.8986  154.4061 C   0  0  0  0  0  0  0  0  0  0  0  0
  145.3368  141.6227  154.8044 N   0  3  0  0  0  0  0  0  0  0  0  0
  144.6028  142.8251  155.2740 C   0  0  0  0  0  0  0  0  0  0  0  0
  143.1363  142.4742  155.6030 C   0  0  0  0  0  0  0  0  0  0  0  0
  143.0320  141.4040  156.5960 N   0  0  0  0  0  0  0  0  0  0  0  0
  143.4151  141.8276  157.9385 C   0  0  0  0  0  0  0  0  0  0  0  0
  143.7630  140.2234  156.1334 C   0  0  0  0  0  0  0  0  0  0  0  0
  145.2390  140.5407  155.8139 C   0  0  0  0  0  0  0  0  0  0  0  0
  151.3283  144.3217  158.4724 C   0  0  0  0  0  0  0  0  0  0  0  0
  152.6040  145.9507  161.2235 H   0  0  0  0  0  0  0  0  0  0  0  0
  150.9905  146.1754  160.5404 H   0  0  0  0  0  0  0  0  0  0  0  0
  152.4142  146.7216  159.6444 H   0  0  0  0  0  0  0  0  0  0  0  0
  153.5966  143.7597  160.9603 H   0  0  0  0  0  0  0  0  0  0  0  0
  154.3676  141.4653  160.8362 H   0  0  0  0  0  0  0  0  0  0  0  0
  154.7243  141.0830  159.1482 H   0  0  0  0  0  0  0  0  0  0  0  0
  153.3591  140.3085  159.9638 H   0  0  0  0  0  0  0  0  0  0  0  0
  150.0866  143.7107  156.4123 H   0  0  0  0  0  0  0  0  0  0  0  0
  149.1115  142.9005  154.8933 H   0  0  0  0  0  0  0  0  0  0  0  0
  149.2889  141.3120  153.0432 H   0  0  0  0  0  0  0  0  0  0  0  0
  149.6848  140.0543  154.1982 H   0  0  0  0  0  0  0  0  0  0  0  0
  147.4707  139.9826  155.0893 H   0  0  0  0  0  0  0  0  0  0  0  0
  147.1714  140.3726  152.0800 H   0  0  0  0  0  0  0  0  0  0  0  0
  145.9945  139.5890  153.1291 H   0  0  0  0  0  0  0  0  0  0  0  0
  147.5749  138.8657  152.8975 H   0  0  0  0  0  0  0  0  0  0  0  0
  147.2214  142.5099  155.1721 H   0  0  0  0  0  0  0  0  0  0  0  0
  146.7399  142.5017  153.4967 H   0  0  0  0  0  0  0  0  0  0  0  0
  145.1056  143.2577  156.1399 H   0  0  0  0  0  0  0  0  0  0  0  0
  144.6078  143.5919  154.5007 H   0  0  0  0  0  0  0  0  0  0  0  0
  142.6046  143.3573  155.9594 H   0  0  0  0  0  0  0  0  0  0  0  0
  142.6258  142.1542  154.6934 H   0  0  0  0  0  0  0  0  0  0  0  0
  143.2597  141.0156  158.6495 H   0  0  0  0  0  0  0  0  0  0  0  0
  142.7978  142.6678  158.2586 H   0  0  0  0  0  0  0  0  0  0  0  0
  144.4586  142.1342  158.0004 H   0  0  0  0  0  0  0  0  0  0  0  0
  143.6968  139.4338  156.8830 H   0  0  0  0  0  0  0  0  0  0  0  0
  143.2713  139.8403  155.2381 H   0  0  0  0  0  0  0  0  0  0  0  0
  145.7162  139.6405  155.4247 H   0  0  0  0  0  0  0  0  0  0  0  0
  145.7873  140.8181  156.7152 H   0  0  0  0  0  0  0  0  0  0  0  0
  150.6587  145.0774  158.0872 H   0  0  0  0  0  0  0  0  0  0  0  0
  144.8597  141.2839  153.9811 H   0  0  0  0  0  0  0  0  0  0  0  0
  1  2  1  0  0  0  0
  1 24  1  0  0  0  0
  1 25  1  0  0  0  0
  1 26  1  0  0  0  0
  2 23  1  0  0  0  0
  2  3  2  0  0  0  0
  3  4  1  0  0  0  0
  3 27  1  0  0  0  0
  4  5  1  0  0  0  0
  4  6  2  0  0  0  0
  5 28  1  0  0  0  0
  5 29  1  0  0  0  0
  5 30  1  0  0  0  0
  6  7  1  0  0  0  0
  7  8  1  0  0  0  0
  7 23  2  0  0  0  0
  8  9  1  0  0  0  0
  8 31  1  0  0  0  0
  9 10  2  0  0  0  0
  9 11  1  0  0  0  0
 11 12  1  0  0  0  0
 11 32  1  0  0  0  0
 12 13  1  0  0  0  0
 12 33  1  0  0  0  0
 12 34  1  0  0  0  0
 13 14  1  0  0  0  0
 13 15  1  0  0  0  0
 13 35  1  0  0  0  0
 14 36  1  0  0  0  0
 14 37  1  0  0  0  0
 14 38  1  0  0  0  0
 15 16  1  0  0  0  0
 15 39  1  0  0  0  0
 15 40  1  0  0  0  0
 16 22  1  0  0  0  0
 16 17  1  0  0  0  0
 16 53  1  0  0  0  0
 17 18  1  0  0  0  0
 17 41  1  0  0  0  0
 17 42  1  0  0  0  0
 18 19  1  0  0  0  0
 18 43  1  0  0  0  0
 18 44  1  0  0  0  0
 19 20  1  0  0  0  0
 19 21  1  0  0  0  0
 20 45  1  0  0  0  0
 20 46  1  0  0  0  0
 20 47  1  0  0  0  0
 21 22  1  0  0  0  0
 21 48  1  0  0  0  0
 21 49  1  0  0  0  0
 22 50  1  0  0  0  0
 22 51  1  0  0  0  0
 23 52  1  0  0  0  0
M  CHG  1  16   1
M  END
> <s_m_source_file>
AV-unprocessed.smi

> <i_m_source_file_index>
2276

> <i_lp_mmshare_version>
43012

> <i_f3d_flags>
0

> <s_epik_input>
W0NIM11jMVtjSF1jKFtDSDNdKW5jKFtjSF0xKVtOSF1DKD1PKVtOSF1bQ0gyXVtDQEhdKFtDSDNdKVtDSDJdTjJbQ0gyXVtDSDJdTihbQ0gzXSlbQ0gyXVtDSDJdMg==

> <s_epik_cmdline>
J2VwaWtfcHl0aG9uJywgJy1waCcsICc3LjAnLCAnLXRuJywgJzgnLCAnLW1hJywgJzIwMCcsICctbWV0YWxfYmluZGluZycsICctaW1hZScsICc8aW5maWxlLm1hZT4nLCAnLW9tYWUnLCAnPG91dGZpbGUubWFlPic=

> <r_epik_Ionization_Penalty>
0.0485334

> <r_epik_Ionization_Penalty_Charging>
0.0462531

> <r_epik_Ionization_Penalty_Neutral>
0.00228028

> <r_epik_State_Penalty>
0.692588

> <r_epik_Charging_Adjusted_Penalty>
0.738841

> <i_epik_Tot_Q>
1

> <i_epik_Tot_abs_Q>
1

> <r_epik_Metal_State_Penalty>
0.692605

> <b_epik_Metal_Only>
0

> <s_lp_Force_Field>
OPLS_2005

> <r_lp_Energy>
23.0257

> <b_lp_Chiralities_Consistent>
1

> <s_lp_Variant>
AV-unprocessed.smi:2276-3

> <Gold.Version>
5.8.1

> <Gold.Id.Protein>
6NUR|6NUR_protein|mol2

> <Gold.PLP.Fitness>
55.9340

> <Gold.PLP.PLP>
-44.5431

> <Gold.PLP.part.hbond>
-3.0000

> <Gold.PLP.part.metal>
0.0000

> <Gold.PLP.part.buried>
-3.4988

> <Gold.PLP.part.nonpolar>
-38.6416

> <Gold.PLP.part.repulsive>
0.3645

> <Gold.PLP.ligand.clash>
0.0000

> <Gold.PLP.ligand.torsion>
0.3025

> <Gold.PLP.Chemscore.Hbond>
3.9760

> <Gold.PLP.Chemscore.CHOScore>
0.0000

> <Gold.PLP.Chemscore.Metal>
0.0000

> <Gold.Chemscore.Hbonds>
donor molecule, donor type, donor heavy atom, donor atom, acceptor molecule, acceptor atom, score
      L1  H     8    31       P1  8028  1.00
      L1  H    11    32       P1  8028  0.98
      L1  H    16    53       P1 10175  1.89

> <Gold.PLP.Chemscore.Internal.Correction>
0.0679

> <Gold.Rescore>
     Score         DG    S(hbond)    S(metal)    S(lipo)     H(rot)  DE(clash)    DE(int)     intcor
     20.78     -22.30       2.69        0.00     102.54       1.63       0.03       1.49       ----

> <Gold.Chemscore.Fitness>
20.7765

> <Gold.Chemscore.DG>
-22.2975

> <Gold.Chemscore.ZeroCoef>
-5.4800

> <Gold.Chemscore.Hbond>
2.6912

> <Gold.Chemscore.Metal>
0.0000

> <Gold.Chemscore.Lipo>
102.5385

> <Gold.Chemscore.Internal_Hbond>
0.0000

> <Gold.Chemscore.DEClash>
0.0300

> <Gold.Chemscore.DEInternal>
1.4909

> <Gold.Chemscore.Rot>
1.6282

> <Gold.Chemscore.Internal.Correction>
   9.000000E+99

> <Gold.Chemscore.Hbonds>
donor molecule, donor type, donor heavy atom, donor atom, acceptor molecule, acceptor atom, score
      L1  H     8    31       P1  8028  1.00
      L1  H    11    32       P1  8028  0.90
      L1  H    16    53       P1 10175  0.50

> <Gold.Chemscore.Hbond.Weighted>
-8.9886

> <Gold.Chemscore.Metal.Weighted>
-0.0000

> <Gold.Chemscore.Lipo.Weighted>
-11.9970

> <Gold.Chemscore.Internal_Hbond.Weighted>
0.0000

> <Gold.Chemscore.DEClash.Weighted>
0.0300

> <Gold.Chemscore.DEInternal.Weighted>
1.4909

> <Gold.Chemscore.Rot.Weighted>
4.1682

> <Gold.Chemscore.Internal.Correction.Weighted>
   9.000000E+99

> <Gold.Protein.RotatedTorsions>
[ 6907 6896 6895 6894 ] final   80.75 input  -60.11 | X-H torsion
[ 7974 7965 7964 7962 ] final  -17.61 input  175.53 | X-H torsion
[ 8008 7997 7996 7995 ] final   47.94 input   59.86 | X-H torsion
[ 10167 10162 10161 10158 ] final   34.73 input  -65.29 | X-H torsion
[ 10718 10713 10712 10709 ] final   37.36 input   66.30 | X-H torsion
[ 10763 10752 10751 10750 ] final  -69.57 input  -60.55 | X-H torsion
[ 11005 11000 10999 10996 ] final -162.26 input  -57.11 | X-H torsion

> <Gold.Protein.ActiveResidues>
 VAL166  LYS551  ARG553  GLY616  TRP617  ASP618  TYR619  PRO620  LYS621  CYS622 
 ASP623  PHE694  ASN695  SER759  ASP760  ASP761  ALA762  ILE779  LEU786  VAL792 
 PHE793  MET794  SER795  GLU796  ALA797  LYS798  CYS799  TRP800  GLU811  SER814 

> <Gold.Protein.RotatedAtoms>
  152.5245  134.3310  159.9182 H   0  0  0  0  0  0  0  0  0  0  0  0  # atno 6907 bound_to 6896
  151.3259  133.4014  159.2666 H   0  0  0  0  0  0  0  0  0  0  0  0  # atno 6908 bound_to 6896
  150.9921  134.9270  159.7963 H   0  0  0  0  0  0  0  0  0  0  0  0  # atno 6909 bound_to 6896
  146.1933  140.3803  142.8450 H   0  0  0  0  0  0  0  0  0  0  0  0  # atno 7974 bound_to 7965
  155.3774  140.3427  155.4245 H   0  0  0  0  0  0  0  0  0  0  0  0  # atno 8008 bound_to 7997
  156.1629  140.1606  156.8614 H   0  0  0  0  0  0  0  0  0  0  0  0  # atno 8009 bound_to 7997
  154.5157  140.0779  156.8058 H   0  0  0  0  0  0  0  0  0  0  0  0  # atno 8010 bound_to 7997
  140.4287  144.1355  150.6156 H   0  0  0  0  0  0  0  0  0  0  0  0  # atno 10167 bound_to 10162
  157.3460  130.7573  149.6944 H   0  0  0  0  0  0  0  0  0  0  0  0  # atno 10718 bound_to 10713
  154.4054  135.6021  153.5921 H   0  0  0  0  0  0  0  0  0  0  0  0  # atno 10763 bound_to 10752
  152.9789  135.5916  154.4134 H   0  0  0  0  0  0  0  0  0  0  0  0  # atno 10764 bound_to 10752
  154.3939  135.2842  155.2116 H   0  0  0  0  0  0  0  0  0  0  0  0  # atno 10765 bound_to 10752
  140.6112  134.4847  157.5215 H   0  0  0  0  0  0  0  0  0  0  0  0  # atno 11005 bound_to 11000
  144.8529  140.7028  143.6156 LP  0  0  0  0  0  0  0  0  0  0  0  0  # atno 17320 bound_to 7965
  145.3725  139.1655  143.4324 LP  0  0  0  0  0  0  0  0  0  0  0  0  # atno 17321 bound_to 7965
  140.4451  143.2510  151.9421 LP  0  0  0  0  0  0  0  0  0  0  0  0  # atno 17342 bound_to 10162
  139.4784  144.5616  151.8230 LP  0  0  0  0  0  0  0  0  0  0  0  0  # atno 17343 bound_to 10162
  155.9714  130.4154  150.4180 LP  0  0  0  0  0  0  0  0  0  0  0  0  # atno 17370 bound_to 10713
  157.2236  131.0488  151.2533 LP  0  0  0  0  0  0  0  0  0  0  0  0  # atno 17371 bound_to 10713
  139.9191  134.8185  156.1268 LP  0  0  0  0  0  0  0  0  0  0  0  0  # atno 17394 bound_to 11000
  141.0806  133.6756  156.2329 LP  0  0  0  0  0  0  0  0  0  0  0  0  # atno 17395 bound_to 11000

$$$$
