AV-unprocessed.smi:37|AV-procd|sdf|332|dock7
  -GOLD-   2262016163D 1   1.00000     0.00000
 Structure written by MMmdl.
 43 44  0  0  0  0  0  0  0  0  2 V2000
  147.4863  133.8288  162.5340 C   0  0  0  0  0  0  0  0  0  0  0  0
  146.7734  135.1631  162.2692 C   0  0  0  0  0  0  0  0  0  0  0  0
  147.4846  136.0450  161.2406 C   0  0  0  0  0  0  0  0  0  0  0  0
  147.9097  137.1691  161.5133 O   0  0  0  0  0  0  0  0  0  0  0  0
  147.5765  135.4430  160.0466 O   0  0  0  0  0  0  0  0  0  0  0  0
  148.3685  136.0210  159.0215 C   0  0  0  0  0  0  0  0  0  0  0  0
  147.6639  137.2762  158.4927 C   0  0  1  0  0  0  0  0  0  0  0  0
  148.4845  138.4337  158.6537 O   0  0  0  0  0  0  0  0  0  0  0  0
  148.3801  139.2717  157.5355 C   0  0  1  0  0  0  0  0  0  0  0  0
  149.6988  139.2900  156.7870 N   0  0  0  0  0  0  0  0  0  0  0  0
  150.8079  138.6024  157.2531 C   0  0  0  0  0  0  0  0  0  0  0  0
  151.9774  138.6221  156.5816 C   0  0  0  0  0  0  0  0  0  0  0  0
  153.0350  137.9441  157.0598 F   0  0  0  0  0  0  0  0  0  0  0  0
  152.0854  139.3822  155.3379 C   0  0  0  0  0  0  0  0  0  0  0  0
  153.1556  139.3995  154.7317 O   0  0  0  0  0  0  0  0  0  0  0  0
  150.9776  140.0472  154.8997 N   0  5  0  0  0  0  0  0  0  0  0  0
  149.7909  140.0276  155.5741 C   0  0  0  0  0  0  0  0  0  0  0  0
  148.7841  140.6163  155.1800 O   0  0  0  0  0  0  0  0  0  0  0  0
  147.2747  138.6978  156.6432 C   0  0  2  0  0  0  0  0  0  0  0  0
  145.5256  139.4968  157.1792 Br  0  0  0  0  0  0  0  0  0  0  0  0
  147.3322  137.2224  157.0019 C   0  0  2  0  0  0  0  0  0  0  0  0
  146.1044  136.5490  156.7590 O   0  0  0  0  0  0  0  0  0  0  0  0
  145.6399  136.4182  155.5048 C   0  0  0  0  0  0  0  0  0  0  0  0
  146.1988  136.8131  154.4816 O   0  0  0  0  0  0  0  0  0  0  0  0
  144.2952  135.6978  155.4499 C   0  0  0  0  0  0  0  0  0  0  0  0
  143.7816  135.5403  154.0125 C   0  0  0  0  0  0  0  0  0  0  0  0
  146.9355  133.2396  163.2674 H   0  0  0  0  0  0  0  0  0  0  0  0
  148.4921  133.9856  162.9254 H   0  0  0  0  0  0  0  0  0  0  0  0
  147.5653  133.2319  161.6247 H   0  0  0  0  0  0  0  0  0  0  0  0
  145.7589  134.9726  161.9180 H   0  0  0  0  0  0  0  0  0  0  0  0
  146.6839  135.7223  163.2008 H   0  0  0  0  0  0  0  0  0  0  0  0
  149.3436  136.2851  159.4325 H   0  0  0  0  0  0  0  0  0  0  0  0
  148.5334  135.3059  158.2146 H   0  0  0  0  0  0  0  0  0  0  0  0
  146.7547  137.4588  159.0682 H   0  0  0  0  0  0  0  0  0  0  0  0
  148.2130  140.3026  157.8516 H   0  0  0  0  0  0  0  0  0  0  0  0
  150.7539  138.0344  158.1679 H   0  0  0  0  0  0  0  0  0  0  0  0
  147.4350  138.9032  155.5843 H   0  0  0  0  0  0  0  0  0  0  0  0
  148.1607  136.7468  156.4741 H   0  0  0  0  0  0  0  0  0  0  0  0
  144.4010  134.7177  155.9157 H   0  0  0  0  0  0  0  0  0  0  0  0
  143.5729  136.2553  156.0465 H   0  0  0  0  0  0  0  0  0  0  0  0
  142.8416  134.9886  153.9994 H   0  0  0  0  0  0  0  0  0  0  0  0
  144.4943  134.9941  153.3937 H   0  0  0  0  0  0  0  0  0  0  0  0
  143.6016  136.5083  153.5436 H   0  0  0  0  0  0  0  0  0  0  0  0
  1  2  1  0  0  0  0
  1 27  1  0  0  0  0
  1 28  1  0  0  0  0
  1 29  1  0  0  0  0
  2  3  1  0  0  0  0
  2 30  1  0  0  0  0
  2 31  1  0  0  0  0
  3  4  2  0  0  0  0
  3  5  1  0  0  0  0
  5  6  1  0  0  0  0
  6  7  1  0  0  0  0
  6 32  1  0  0  0  0
  6 33  1  0  0  0  0
  7 21  1  0  0  0  0
  7  8  1  0  0  0  0
  7 34  1  0  0  0  0
  8  9  1  0  0  0  0
  9 10  1  0  0  0  0
  9 19  1  0  0  0  0
  9 35  1  0  0  0  0
 10 17  1  0  0  0  0
 10 11  1  0  0  0  0
 11 12  2  0  0  0  0
 11 36  1  0  0  0  0
 12 13  1  0  0  0  0
 12 14  1  0  0  0  0
 14 15  2  0  0  0  0
 14 16  1  0  0  0  0
 16 17  1  0  0  0  0
 17 18  2  0  0  0  0
 19 20  1  0  0  0  0
 19 21  1  0  0  0  0
 19 37  1  0  0  0  0
 21 22  1  0  0  0  0
 21 38  1  0  0  0  0
 22 23  1  0  0  0  0
 23 24  2  0  0  0  0
 23 25  1  0  0  0  0
 25 26  1  0  0  0  0
 25 39  1  0  0  0  0
 25 40  1  0  0  0  0
 26 41  1  0  0  0  0
 26 42  1  0  0  0  0
 26 43  1  0  0  0  0
M  CHG  1  16  -1
M  END
> <s_m_source_file>
AV-unprocessed.smi

> <i_m_source_file_index>
37

> <i_lp_mmshare_version>
43012

> <i_f3d_flags>
0

> <s_epik_input>
W0NIM11bQ0gyXUMoPU8pT1tDSDJdW0NAQEhdMU9bQ0BASF0objJbY0hdYyhGKWMoPU8pW25IXWMyPU8pW0NAQEhdKEJyKVtDQEhdMU9DKD1PKVtDSDJdW0NIM10=

> <s_epik_cmdline>
J2VwaWtfcHl0aG9uJywgJy1waCcsICc3LjAnLCAnLXRuJywgJzgnLCAnLW1hJywgJzIwMCcsICctbWV0YWxfYmluZGluZycsICctaW1hZScsICc8aW5maWxlLm1hZT4nLCAnLW9tYWUnLCAnPG91dGZpbGUubWFlPic=

> <r_epik_Ionization_Penalty>
1.08158

> <r_epik_Ionization_Penalty_Charging>
9.05154e-09

> <r_epik_Ionization_Penalty_Neutral>
1.08158

> <r_epik_State_Penalty>
1.13706

> <r_epik_Charging_Adjusted_Penalty>
1.13706

> <i_epik_Tot_Q>
-1

> <i_epik_Tot_abs_Q>
1

> <r_epik_Metal_State_Penalty>
0.00343535

> <b_epik_Metal_Only>
0

> <s_epik_Chemistry_Notes>
This compound has an ester and may undergo hydrolysis at high or low pH. This compound contains an acetal/aminal-like group ( X-CH(R)-Y where X, Y are N, S, or O) that may be acid/base labile, releasing an aldehyde.

> <s_lp_Force_Field>
OPLS_2005

> <r_lp_Energy>
34.595

> <b_lp_Chiralities_Consistent>
1

> <s_lp_Variant>
AV-unprocessed.smi:37-30

> <Gold.Version>
5.8.1

> <Gold.Id.Protein>
6NUR|6NUR_protein|mol2

> <Gold.PLP.Fitness>
38.0713

> <Gold.PLP.PLP>
-28.5068

> <Gold.PLP.part.hbond>
-6.0000

> <Gold.PLP.part.metal>
0.0000

> <Gold.PLP.part.buried>
-5.1931

> <Gold.PLP.part.nonpolar>
-17.7603

> <Gold.PLP.part.repulsive>
0.2398

> <Gold.PLP.ligand.clash>
0.0000

> <Gold.PLP.ligand.torsion>
0.8837

> <Gold.PLP.Chemscore.Hbond>
3.7200

> <Gold.PLP.Chemscore.CHOScore>
0.0000

> <Gold.PLP.Chemscore.Metal>
0.0000

> <Gold.Chemscore.Hbonds>
donor molecule, donor type, donor heavy atom, donor atom, acceptor molecule, acceptor atom, score
      P1  H  6931  6943       L1     4  1.00
      P1  H  6934  6947       L1     4  0.63
      P1  H  7989  7998       L1    16  1.00
      P1  H  7997  8008       L1    15  1.00

> <Gold.PLP.Chemscore.Internal.Correction>
0.1719

> <Gold.Rescore>
     Score         DG    S(hbond)    S(metal)    S(lipo)     H(rot)  DE(clash)    DE(int)     intcor
     11.51     -12.75       3.49        0.00      34.13       3.27       0.00       1.24       ----

> <Gold.Chemscore.Fitness>
11.5074

> <Gold.Chemscore.DG>
-12.7529

> <Gold.Chemscore.ZeroCoef>
-5.4800

> <Gold.Chemscore.Hbond>
3.4860

> <Gold.Chemscore.Metal>
0.0000

> <Gold.Chemscore.Lipo>
34.1282

> <Gold.Chemscore.Internal_Hbond>
0.0000

> <Gold.Chemscore.DEClash>
0.0048

> <Gold.Chemscore.DEInternal>
1.2407

> <Gold.Chemscore.Rot>
3.2669

> <Gold.Chemscore.Internal.Correction>
   9.000000E+99

> <Gold.Chemscore.Hbonds>
donor molecule, donor type, donor heavy atom, donor atom, acceptor molecule, acceptor atom, score
      P1  H  6931  6943       L1     4  0.97
      P1  H  6934  6947       L1     4  0.59
      P1  H  7989  7998       L1    16  0.26
      P1  H  7997  8008       L1    15  0.50

> <Gold.Chemscore.Hbond.Weighted>
-11.6432

> <Gold.Chemscore.Metal.Weighted>
-0.0000

> <Gold.Chemscore.Lipo.Weighted>
-3.9930

> <Gold.Chemscore.Internal_Hbond.Weighted>
0.0000

> <Gold.Chemscore.DEClash.Weighted>
0.0048

> <Gold.Chemscore.DEInternal.Weighted>
1.2407

> <Gold.Chemscore.Rot.Weighted>
8.3634

> <Gold.Chemscore.Internal.Correction.Weighted>
   9.000000E+99

> <Gold.Protein.RotatedTorsions>
[ 6907 6896 6895 6894 ] final  -63.89 input  -60.11 | X-H torsion
[ 7974 7965 7964 7962 ] final    0.76 input  175.53 | X-H torsion
[ 8008 7997 7996 7995 ] final  -22.39 input   59.86 | X-H torsion
[ 10167 10162 10161 10158 ] final -140.70 input  -65.29 | X-H torsion
[ 10718 10713 10712 10709 ] final   77.66 input   66.30 | X-H torsion
[ 10763 10752 10751 10750 ] final   58.05 input  -60.55 | X-H torsion
[ 11005 11000 10999 10996 ] final  -99.11 input  -57.11 | X-H torsion

> <Gold.Protein.ActiveResidues>
 VAL166  LYS551  ARG553  GLY616  TRP617  ASP618  TYR619  PRO620  LYS621  CYS622 
 ASP623  PHE694  ASN695  SER759  ASP760  ASP761  ALA762  ILE779  LEU786  VAL792 
 PHE793  MET794  SER795  GLU796  ALA797  LYS798  CYS799  TRP800  GLU811  SER814 

> <Gold.Protein.RotatedAtoms>
  150.7620  134.6373  159.6218 H   0  0  0  0  0  0  0  0  0  0  0  0  # atno 6907 bound_to 6896
  152.3632  134.6838  160.0209 H   0  0  0  0  0  0  0  0  0  0  0  0  # atno 6908 bound_to 6896
  151.7222  133.3278  159.3354 H   0  0  0  0  0  0  0  0  0  0  0  0  # atno 6909 bound_to 6896
  146.2436  140.1089  142.8344 H   0  0  0  0  0  0  0  0  0  0  0  0  # atno 7974 bound_to 7965
  154.4647  140.2009  156.0150 H   0  0  0  0  0  0  0  0  0  0  0  0  # atno 8008 bound_to 7997
  156.0905  140.3259  155.7780 H   0  0  0  0  0  0  0  0  0  0  0  0  # atno 8009 bound_to 7997
  155.4965  140.0550  157.2936 H   0  0  0  0  0  0  0  0  0  0  0  0  # atno 8010 bound_to 7997
  139.8256  143.7515  152.2666 H   0  0  0  0  0  0  0  0  0  0  0  0  # atno 10167 bound_to 10162
  157.6718  130.9832  150.1673 H   0  0  0  0  0  0  0  0  0  0  0  0  # atno 10718 bound_to 10713
  152.9862  135.5620  154.5489 H   0  0  0  0  0  0  0  0  0  0  0  0  # atno 10763 bound_to 10752
  154.4930  135.2793  155.1483 H   0  0  0  0  0  0  0  0  0  0  0  0  # atno 10764 bound_to 10752
  154.2945  135.6319  153.5452 H   0  0  0  0  0  0  0  0  0  0  0  0  # atno 10765 bound_to 10752
  141.1320  133.8297  157.0929 H   0  0  0  0  0  0  0  0  0  0  0  0  # atno 11005 bound_to 11000
  145.0504  140.9013  143.4999 LP  0  0  0  0  0  0  0  0  0  0  0  0  # atno 17320 bound_to 7965
  145.1185  139.2709  143.5600 LP  0  0  0  0  0  0  0  0  0  0  0  0  # atno 17321 bound_to 7965
  139.7707  144.7477  151.0229 LP  0  0  0  0  0  0  0  0  0  0  0  0  # atno 17342 bound_to 10162
  140.7810  143.4648  151.0227 LP  0  0  0  0  0  0  0  0  0  0  0  0  # atno 17343 bound_to 10162
  156.2436  130.3693  149.8310 LP  0  0  0  0  0  0  0  0  0  0  0  0  # atno 17370 bound_to 10713
  156.6103  130.8584  151.3452 LP  0  0  0  0  0  0  0  0  0  0  0  0  # atno 17371 bound_to 10713
  140.0381  134.9868  157.0909 LP  0  0  0  0  0  0  0  0  0  0  0  0  # atno 17394 bound_to 11000
  140.4178  134.1912  155.7164 LP  0  0  0  0  0  0  0  0  0  0  0  0  # atno 17395 bound_to 11000

$$$$
