AV-unprocessed.smi:1295|AV-procd|sdf|5411|dock2
  -GOLD-   22720 4573D 1   1.00000     0.00000
 Structure written by MMmdl.
 42 43  0  0  0  0  0  0  0  0  2 V2000
  152.9687  143.1605  162.8392 C   0  0  0  0  0  0  0  0  0  0  0  0
  152.5368  143.1105  161.3894 C   0  0  0  0  0  0  0  0  0  0  0  0
  151.9075  144.1049  160.8899 N   0  0  0  0  0  0  0  0  0  0  0  0
  151.5030  144.0628  159.5451 C   0  0  0  0  0  0  0  0  0  0  0  0
  150.7816  145.2954  159.0296 C   0  0  0  0  0  0  0  0  0  0  0  0
  151.7626  142.9755  158.7640 C   0  0  0  0  0  0  0  0  0  0  0  0
  151.3621  142.8891  157.2894 C   0  0  0  0  0  0  0  0  0  0  0  0
  150.5502  141.6536  156.8916 C   0  0  0  0  0  0  0  0  0  0  0  0
  151.0748  140.5404  156.9047 O   0  0  0  0  0  0  0  0  0  0  0  0
  149.2729  141.8687  156.5436 N   0  0  0  0  0  0  0  0  0  0  0  0
  148.2789  140.8557  156.1992 C   0  0  2  0  0  0  0  0  0  0  0  0
  148.6035  140.2295  154.8274 C   0  0  0  0  0  0  0  0  0  0  0  0
  148.3923  141.2240  153.6724 C   0  0  0  0  0  0  0  0  0  0  0  0
  146.9721  141.8084  153.6947 C   0  0  0  0  0  0  0  0  0  0  0  0
  146.6538  142.4560  155.0519 C   0  0  0  0  0  0  0  0  0  0  0  0
  146.8540  141.4632  156.2166 C   0  0  2  0  0  0  0  0  0  0  0  0
  146.4973  142.1041  157.5699 C   0  0  0  0  0  0  0  0  0  0  0  0
  152.4965  141.8533  159.3759 C   0  0  0  0  0  0  0  0  0  0  0  0
  152.7805  140.8600  158.7076 O   0  0  0  0  0  0  0  0  0  0  0  0
  152.8548  141.9705  160.6860 N   0  5  0  0  0  0  0  0  0  0  0  0
  152.8042  144.1515  163.2644 H   0  0  0  0  0  0  0  0  0  0  0  0
  154.0294  142.9236  162.9292 H   0  0  0  0  0  0  0  0  0  0  0  0
  152.4013  142.4376  163.4261 H   0  0  0  0  0  0  0  0  0  0  0  0
  149.7645  145.0448  158.7276 H   0  0  0  0  0  0  0  0  0  0  0  0
  151.3065  145.7156  158.1715 H   0  0  0  0  0  0  0  0  0  0  0  0
  150.7233  146.0687  159.7963 H   0  0  0  0  0  0  0  0  0  0  0  0
  150.8073  143.7775  156.9866 H   0  0  0  0  0  0  0  0  0  0  0  0
  152.2680  142.9094  156.6831 H   0  0  0  0  0  0  0  0  0  0  0  0
  148.9477  142.8252  156.5555 H   0  0  0  0  0  0  0  0  0  0  0  0
  148.3099  140.0625  156.9483 H   0  0  0  0  0  0  0  0  0  0  0  0
  149.6280  139.8556  154.8156 H   0  0  0  0  0  0  0  0  0  0  0  0
  147.9633  139.3608  154.6705 H   0  0  0  0  0  0  0  0  0  0  0  0
  149.1216  142.0321  153.7421 H   0  0  0  0  0  0  0  0  0  0  0  0
  148.5742  140.7280  152.7188 H   0  0  0  0  0  0  0  0  0  0  0  0
  146.8611  142.5440  152.8976 H   0  0  0  0  0  0  0  0  0  0  0  0
  146.2493  141.0179  153.4893 H   0  0  0  0  0  0  0  0  0  0  0  0
  147.2870  143.3332  155.1952 H   0  0  0  0  0  0  0  0  0  0  0  0
  145.6260  142.8201  155.0470 H   0  0  0  0  0  0  0  0  0  0  0  0
  146.1536  140.6406  156.0638 H   0  0  0  0  0  0  0  0  0  0  0  0
  147.1141  142.9789  157.7799 H   0  0  0  0  0  0  0  0  0  0  0  0
  146.6356  141.3960  158.3873 H   0  0  0  0  0  0  0  0  0  0  0  0
  145.4562  142.4271  157.5862 H   0  0  0  0  0  0  0  0  0  0  0  0
  1  2  1  0  0  0  0
  1 21  1  0  0  0  0
  1 22  1  0  0  0  0
  1 23  1  0  0  0  0
  2 20  1  0  0  0  0
  2  3  2  0  0  0  0
  3  4  1  0  0  0  0
  4  5  1  0  0  0  0
  4  6  2  0  0  0  0
  5 24  1  0  0  0  0
  5 25  1  0  0  0  0
  5 26  1  0  0  0  0
  6  7  1  0  0  0  0
  6 18  1  0  0  0  0
  7  8  1  0  0  0  0
  7 27  1  0  0  0  0
  7 28  1  0  0  0  0
  8  9  2  0  0  0  0
  8 10  1  0  0  0  0
 10 11  1  0  0  0  0
 10 29  1  0  0  0  0
 11 16  1  0  0  0  0
 11 12  1  0  0  0  0
 11 30  1  0  0  0  0
 12 13  1  0  0  0  0
 12 31  1  0  0  0  0
 12 32  1  0  0  0  0
 13 14  1  0  0  0  0
 13 33  1  0  0  0  0
 13 34  1  0  0  0  0
 14 15  1  0  0  0  0
 14 35  1  0  0  0  0
 14 36  1  0  0  0  0
 15 16  1  0  0  0  0
 15 37  1  0  0  0  0
 15 38  1  0  0  0  0
 16 17  1  0  0  0  0
 16 39  1  0  0  0  0
 17 40  1  0  0  0  0
 17 41  1  0  0  0  0
 17 42  1  0  0  0  0
 18 19  2  0  0  0  0
 18 20  1  0  0  0  0
M  CHG  1  20  -1
M  END
> <s_m_source_file>
AV-unprocessed.smi

> <i_m_source_file_index>
1295

> <i_lp_mmshare_version>
43012

> <i_f3d_flags>
0

> <s_epik_input>
W0NIM11jMW5jKFtDSDNdKWMoYyg9TylbbkhdMSlbQ0gyXUMoPU8pW05IXVtDQEBIXTJbQ0gyXVtDSDJdW0NIMl1bQ0gyXVtDQEhdMltDSDNd

> <s_epik_cmdline>
J2VwaWtfcHl0aG9uJywgJy1waCcsICc3LjAnLCAnLXRuJywgJzgnLCAnLW1hJywgJzIwMCcsICctbWV0YWxfYmluZGluZycsICctaW1hZScsICc8aW5maWxlLm1hZT4nLCAnLW9tYWUnLCAnPG91dGZpbGUubWFlPic=

> <r_lp_tautomer_probability>
0.839158

> <r_epik_Ionization_Penalty>
6.67742

> <r_epik_Ionization_Penalty_Charging>
7.78154e-08

> <r_epik_Ionization_Penalty_Neutral>
6.67742

> <r_epik_State_Penalty>
4.51991

> <r_epik_Charging_Adjusted_Penalty>
4.51991

> <i_epik_Tot_Q>
-1

> <i_epik_Tot_abs_Q>
1

> <r_epik_Metal_State_Penalty>
0.853272

> <b_epik_Metal_Only>
1

> <s_lp_Force_Field>
OPLS_2005

> <r_lp_Energy>
12.2009

> <b_lp_Chiralities_Consistent>
1

> <s_lp_Variant>
AV-unprocessed.smi:1295-11

> <Gold.Version>
5.8.1

> <Gold.Id.Protein>
6NUR|6NUR_protein|mol2

> <Gold.PLP.Fitness>
42.6488

> <Gold.PLP.PLP>
-40.3599

> <Gold.PLP.part.hbond>
-1.0000

> <Gold.PLP.part.metal>
0.0000

> <Gold.PLP.part.buried>
-6.4314

> <Gold.PLP.part.nonpolar>
-32.3947

> <Gold.PLP.part.repulsive>
0.1418

> <Gold.PLP.ligand.clash>
0.0000

> <Gold.PLP.ligand.torsion>
0.2520

> <Gold.PLP.Chemscore.Hbond>
0.9280

> <Gold.PLP.Chemscore.CHOScore>
0.0000

> <Gold.PLP.Chemscore.Metal>
0.0000

> <Gold.Chemscore.Hbonds>
donor molecule, donor type, donor heavy atom, donor atom, acceptor molecule, acceptor atom, score
      L1  H    10    29       P1  8028  0.84

> <Gold.PLP.Chemscore.Internal.Correction>
0.0089

> <Gold.Rescore>
     Score         DG    S(hbond)    S(metal)    S(lipo)     H(rot)  DE(clash)    DE(int)     intcor
     11.31     -15.32       0.93        0.00      89.27       1.45       0.40       3.61       ----

> <Gold.Chemscore.Fitness>
11.3051

> <Gold.Chemscore.DG>
-15.3191

> <Gold.Chemscore.ZeroCoef>
-5.4800

> <Gold.Chemscore.Hbond>
0.9263

> <Gold.Chemscore.Metal>
0.0000

> <Gold.Chemscore.Lipo>
89.2678

> <Gold.Chemscore.Internal_Hbond>
0.0000

> <Gold.Chemscore.DEClash>
0.4029

> <Gold.Chemscore.DEInternal>
3.6111

> <Gold.Chemscore.Rot>
1.4450

> <Gold.Chemscore.Internal.Correction>
   9.000000E+99

> <Gold.Chemscore.Hbonds>
donor molecule, donor type, donor heavy atom, donor atom, acceptor molecule, acceptor atom, score
      L1  H    10    29       P1  8028  0.77

> <Gold.Chemscore.Hbond.Weighted>
-3.0940

> <Gold.Chemscore.Metal.Weighted>
-0.0000

> <Gold.Chemscore.Lipo.Weighted>
-10.4443

> <Gold.Chemscore.Internal_Hbond.Weighted>
0.0000

> <Gold.Chemscore.DEClash.Weighted>
0.4029

> <Gold.Chemscore.DEInternal.Weighted>
3.6111

> <Gold.Chemscore.Rot.Weighted>
3.6992

> <Gold.Chemscore.Internal.Correction.Weighted>
   9.000000E+99

> <Gold.Protein.RotatedTorsions>
[ 6907 6896 6895 6894 ] final    4.15 input  -60.11 | X-H torsion
[ 7974 7965 7964 7962 ] final  153.62 input  175.53 | X-H torsion
[ 8008 7997 7996 7995 ] final -146.27 input   59.86 | X-H torsion
[ 10167 10162 10161 10158 ] final  148.07 input  -65.29 | X-H torsion
[ 10718 10713 10712 10709 ] final  129.52 input   66.30 | X-H torsion
[ 10763 10752 10751 10750 ] final  -46.35 input  -60.55 | X-H torsion
[ 11005 11000 10999 10996 ] final  106.57 input  -57.11 | X-H torsion

> <Gold.Protein.ActiveResidues>
 VAL166  LYS551  ARG553  GLY616  TRP617  ASP618  TYR619  PRO620  LYS621  CYS622 
 ASP623  PHE694  ASN695  SER759  ASP760  ASP761  ALA762  ILE779  LEU786  VAL792 
 PHE793  MET794  SER795  GLU796  ALA797  LYS798  CYS799  TRP800  GLU811  SER814 

> <Gold.Protein.RotatedAtoms>
  151.6367  135.1017  160.0132 H   0  0  0  0  0  0  0  0  0  0  0  0  # atno 6907 bound_to 6896
  152.4076  133.6910  159.6379 H   0  0  0  0  0  0  0  0  0  0  0  0  # atno 6908 bound_to 6896
  150.7969  133.8597  159.3269 H   0  0  0  0  0  0  0  0  0  0  0  0  # atno 6909 bound_to 6896
  144.8143  139.6824  143.6128 H   0  0  0  0  0  0  0  0  0  0  0  0  # atno 7974 bound_to 7965
  155.5566  140.0621  157.2838 H   0  0  0  0  0  0  0  0  0  0  0  0  # atno 8008 bound_to 7997
  154.4403  140.1893  156.0785 H   0  0  0  0  0  0  0  0  0  0  0  0  # atno 8009 bound_to 7997
  156.0477  140.3288  155.7319 H   0  0  0  0  0  0  0  0  0  0  0  0  # atno 8010 bound_to 7997
  139.4880  144.5707  151.7060 H   0  0  0  0  0  0  0  0  0  0  0  0  # atno 10167 bound_to 10162
  157.5146  131.1097  150.9242 H   0  0  0  0  0  0  0  0  0  0  0  0  # atno 10718 bound_to 10713
  154.0435  135.6641  153.4792 H   0  0  0  0  0  0  0  0  0  0  0  0  # atno 10763 bound_to 10752
  153.0492  135.5095  154.7819 H   0  0  0  0  0  0  0  0  0  0  0  0  # atno 10764 bound_to 10752
  154.6803  135.3044  154.9588 H   0  0  0  0  0  0  0  0  0  0  0  0  # atno 10765 bound_to 10752
  139.8816  134.9373  156.5686 H   0  0  0  0  0  0  0  0  0  0  0  0  # atno 11005 bound_to 11000
  146.2444  139.6068  142.9469 LP  0  0  0  0  0  0  0  0  0  0  0  0  # atno 17320 bound_to 7965
  145.5251  141.0430  143.2413 LP  0  0  0  0  0  0  0  0  0  0  0  0  # atno 17321 bound_to 7965
  140.5294  144.0755  150.6048 LP  0  0  0  0  0  0  0  0  0  0  0  0  # atno 17342 bound_to 10162
  140.3740  143.2839  152.0246 LP  0  0  0  0  0  0  0  0  0  0  0  0  # atno 17343 bound_to 10162
  156.9872  130.5549  149.5300 LP  0  0  0  0  0  0  0  0  0  0  0  0  # atno 17370 bound_to 10713
  156.0312  130.5403  150.8538 LP  0  0  0  0  0  0  0  0  0  0  0  0  # atno 17371 bound_to 10713
  140.8115  133.8425  155.8814 LP  0  0  0  0  0  0  0  0  0  0  0  0  # atno 17394 bound_to 11000
  140.9502  134.1789  157.4733 LP  0  0  0  0  0  0  0  0  0  0  0  0  # atno 17395 bound_to 11000

$$$$
