AV-unprocessed.smi:1680|AV-procd|sdf|6740|dock10
  -GOLD-   22720 7493D 1   1.00000     0.00000
 Structure written by MMmdl.
 38 39  0  0  0  0  0  0  0  0  3 V2000
  144.7909  131.4210  151.5030 C   0  0  0  0  0  0  0  0  0  0  0  0
  144.7181  132.7579  150.7621 C   0  0  0  0  0  0  0  0  0  0  0  0
  143.7892  132.9324  149.9736 O   0  0  0  0  0  0  0  0  0  0  0  0
  145.6672  133.6970  150.9925 N   0  0  0  0  0  0  0  0  0  0  0  0
  146.7458  133.5148  151.9678 C   0  0  0  0  0  0  0  0  0  0  0  0
  146.5483  134.5069  153.1282 C   0  0  0  0  0  0  0  0  0  0  0  0
  146.4628  135.9093  152.6396 N   0  3  0  0  0  0  0  0  0  0  0  0
  146.2865  136.8770  153.7507 C   0  0  0  0  0  0  0  0  0  0  0  0
  146.4951  138.3350  153.3005 C   0  0  0  0  0  0  0  0  0  0  0  0
  147.9129  138.6576  153.1935 N   0  0  0  0  0  0  0  0  0  0  0  0
  148.8249  138.5038  154.1641 C   0  0  0  0  0  0  0  0  0  0  0  0
  148.4853  138.0474  155.2583 O   0  0  0  0  0  0  0  0  0  0  0  0
  150.0690  138.8939  153.8082 N   0  5  0  0  0  0  0  0  0  0  0  0
  151.0917  138.7421  154.6661 C   0  0  0  0  0  0  0  0  0  0  0  0
  152.0848  139.6401  154.7641 N   0  0  0  0  0  0  0  0  0  0  0  0
  153.0387  139.2980  155.7130 N   0  0  0  0  0  0  0  0  0  0  0  0
  152.7348  138.1481  156.3146 C   0  0  0  0  0  0  0  0  0  0  0  0
  151.2545  137.3810  155.7796 S   0  0  0  0  0  0  0  0  0  0  0  0
  145.4671  136.0757  151.5442 C   0  0  0  0  0  0  0  0  0  0  0  0
  145.6882  135.0466  150.4199 C   0  0  0  0  0  0  0  0  0  0  0  0
  145.7196  130.8990  151.2707 H   0  0  0  0  0  0  0  0  0  0  0  0
  143.9637  130.7734  151.2096 H   0  0  0  0  0  0  0  0  0  0  0  0
  144.7274  131.5722  152.5812 H   0  0  0  0  0  0  0  0  0  0  0  0
  146.7984  132.4977  152.3585 H   0  0  0  0  0  0  0  0  0  0  0  0
  147.7046  133.6950  151.4795 H   0  0  0  0  0  0  0  0  0  0  0  0
  145.6371  134.2592  153.6754 H   0  0  0  0  0  0  0  0  0  0  0  0
  147.3768  134.4130  153.8311 H   0  0  0  0  0  0  0  0  0  0  0  0
  145.3018  136.7480  154.2026 H   0  0  0  0  0  0  0  0  0  0  0  0
  147.0142  136.6494  154.5311 H   0  0  0  0  0  0  0  0  0  0  0  0
  145.9961  138.5193  152.3476 H   0  0  0  0  0  0  0  0  0  0  0  0
  146.0618  139.0302  154.0184 H   0  0  0  0  0  0  0  0  0  0  0  0
  148.2343  139.0291  152.3112 H   0  0  0  0  0  0  0  0  0  0  0  0
  153.3847  137.7509  157.0799 H   0  0  0  0  0  0  0  0  0  0  0  0
  144.4600  135.9658  151.9500 H   0  0  0  0  0  0  0  0  0  0  0  0
  145.5313  137.0785  151.1237 H   0  0  0  0  0  0  0  0  0  0  0  0
  146.6575  135.2149  149.9482 H   0  0  0  0  0  0  0  0  0  0  0  0
  144.9519  135.2012  149.6326 H   0  0  0  0  0  0  0  0  0  0  0  0
  147.3670  136.1090  152.2361 H   0  0  0  0  0  0  0  0  0  0  0  0
  1  2  1  0  0  0  0
  1 21  1  0  0  0  0
  1 22  1  0  0  0  0
  1 23  1  0  0  0  0
  2  3  2  0  0  0  0
  2  4  1  0  0  0  0
  4 20  1  0  0  0  0
  4  5  1  0  0  0  0
  5  6  1  0  0  0  0
  5 24  1  0  0  0  0
  5 25  1  0  0  0  0
  6  7  1  0  0  0  0
  6 26  1  0  0  0  0
  6 27  1  0  0  0  0
  7  8  1  0  0  0  0
  7 19  1  0  0  0  0
  7 38  1  0  0  0  0
  8  9  1  0  0  0  0
  8 28  1  0  0  0  0
  8 29  1  0  0  0  0
  9 10  1  0  0  0  0
  9 30  1  0  0  0  0
  9 31  1  0  0  0  0
 10 11  1  0  0  0  0
 10 32  1  0  0  0  0
 11 12  2  0  0  0  0
 11 13  1  0  0  0  0
 13 14  1  0  0  0  0
 14 18  1  0  0  0  0
 14 15  2  0  0  0  0
 15 16  1  0  0  0  0
 16 17  2  0  0  0  0
 17 18  1  0  0  0  0
 17 33  1  0  0  0  0
 19 20  1  0  0  0  0
 19 34  1  0  0  0  0
 19 35  1  0  0  0  0
 20 36  1  0  0  0  0
 20 37  1  0  0  0  0
M  CHG  1   7   1
M  CHG  1  13  -1
M  END
> <s_m_source_file>
AV-unprocessed.smi

> <i_m_source_file_index>
1680

> <i_lp_mmshare_version>
43012

> <i_f3d_flags>
0

> <s_epik_input>
W0NIM11DKD1PKU4xW0NIMl1bQ0gyXU4oW0NIMl1bQ0gyXTEpW0NIMl1bQ0gyXVtOSF1DKD1PKVtOSF1jMm5uW2NIXXMy

> <s_epik_cmdline>
J2VwaWtfcHl0aG9uJywgJy1waCcsICc3LjAnLCAnLXRuJywgJzgnLCAnLW1hJywgJzIwMCcsICctbWV0YWxfYmluZGluZycsICctaW1hZScsICc8aW5maWxlLm1hZT4nLCAnLW9tYWUnLCAnPG91dGZpbGUubWFlPic=

> <r_lp_tautomer_probability>
1

> <r_epik_Ionization_Penalty>
3.68953

> <r_epik_Ionization_Penalty_Charging>
3.65812

> <r_epik_Ionization_Penalty_Neutral>
0.0314116

> <r_epik_State_Penalty>
3.68215

> <r_epik_Charging_Adjusted_Penalty>
7.34027

> <i_epik_Tot_Q>
0

> <i_epik_Tot_abs_Q>
2

> <r_epik_Metal_State_Penalty>
1.11495

> <b_epik_Metal_Only>
1

> <s_lp_Force_Field>
OPLS_2005

> <r_lp_Energy>
32.4697

> <b_lp_Chiralities_Consistent>
1

> <s_lp_Variant>
AV-unprocessed.smi:1680-4

> <Gold.Version>
5.8.1

> <Gold.Id.Protein>
6NUR|6NUR_protein|mol2

> <Gold.PLP.Fitness>
42.3237

> <Gold.PLP.PLP>
-28.5187

> <Gold.PLP.part.hbond>
-5.0000

> <Gold.PLP.part.metal>
0.0000

> <Gold.PLP.part.buried>
-4.3664

> <Gold.PLP.part.nonpolar>
-20.5766

> <Gold.PLP.part.repulsive>
1.9866

> <Gold.PLP.ligand.clash>
0.0000

> <Gold.PLP.ligand.torsion>
0.4061

> <Gold.PLP.Chemscore.Hbond>
4.8553

> <Gold.PLP.Chemscore.CHOScore>
0.0000

> <Gold.PLP.Chemscore.Metal>
0.0000

> <Gold.Chemscore.Hbonds>
donor molecule, donor type, donor heavy atom, donor atom, acceptor molecule, acceptor atom, score
      L1  H     7    38       P1  7948  2.00
      L1  H    10    32       P1  7957  0.98
      P1  H  7989  7998       L1    15  0.86
      P1  H  7997  8010       L1    16  1.00

> <Gold.PLP.Chemscore.Internal.Correction>
0.0514

> <Gold.Rescore>
     Score         DG    S(hbond)    S(metal)    S(lipo)     H(rot)  DE(clash)    DE(int)     intcor
     13.37     -17.58       3.33        0.00      47.84       1.80       1.65       2.57       ----

> <Gold.Chemscore.Fitness>
13.3660

> <Gold.Chemscore.DG>
-17.5830

> <Gold.Chemscore.ZeroCoef>
-5.4800

> <Gold.Chemscore.Hbond>
3.3276

> <Gold.Chemscore.Metal>
0.0000

> <Gold.Chemscore.Lipo>
47.8426

> <Gold.Chemscore.Internal_Hbond>
0.0000

> <Gold.Chemscore.DEClash>
1.6469

> <Gold.Chemscore.DEInternal>
2.5700

> <Gold.Chemscore.Rot>
1.8003

> <Gold.Chemscore.Internal.Correction>
   9.000000E+99

> <Gold.Chemscore.Hbonds>
donor molecule, donor type, donor heavy atom, donor atom, acceptor molecule, acceptor atom, score
      L1  H     7    38       P1  7948  0.99
      L1  H    10    32       P1  7957  0.89
      P1  H  7989  7998       L1    15  0.38
      P1  H  7997  8010       L1    16  0.98

> <Gold.Chemscore.Hbond.Weighted>
-11.1142

> <Gold.Chemscore.Metal.Weighted>
-0.0000

> <Gold.Chemscore.Lipo.Weighted>
-5.5976

> <Gold.Chemscore.Internal_Hbond.Weighted>
0.0000

> <Gold.Chemscore.DEClash.Weighted>
1.6469

> <Gold.Chemscore.DEInternal.Weighted>
2.5700

> <Gold.Chemscore.Rot.Weighted>
4.6088

> <Gold.Chemscore.Internal.Correction.Weighted>
   9.000000E+99

> <Gold.Protein.RotatedTorsions>
[ 6907 6896 6895 6894 ] final -150.84 input  -60.11 | X-H torsion
[ 7974 7965 7964 7962 ] final  -36.33 input  175.53 | X-H torsion
[ 8008 7997 7996 7995 ] final  100.16 input   59.86 | X-H torsion
[ 10167 10162 10161 10158 ] final   79.97 input  -65.29 | X-H torsion
[ 10718 10713 10712 10709 ] final   83.35 input   66.30 | X-H torsion
[ 10763 10752 10751 10750 ] final -108.46 input  -60.55 | X-H torsion
[ 11005 11000 10999 10996 ] final   20.31 input  -57.11 | X-H torsion

> <Gold.Protein.ActiveResidues>
 VAL166  LYS551  ARG553  GLY616  TRP617  ASP618  TYR619  PRO620  LYS621  CYS622 
 ASP623  PHE694  ASN695  SER759  ASP760  ASP761  ALA762  ILE779  LEU786  VAL792 
 PHE793  MET794  SER795  GLU796  ALA797  LYS798  CYS799  TRP800  GLU811  SER814 

> <Gold.Protein.RotatedAtoms>
  151.2044  133.4592  159.2596 H   0  0  0  0  0  0  0  0  0  0  0  0  # atno 6907 bound_to 6896
  151.1038  134.9987  159.8471 H   0  0  0  0  0  0  0  0  0  0  0  0  # atno 6908 bound_to 6896
  152.5445  134.1968  159.8749 H   0  0  0  0  0  0  0  0  0  0  0  0  # atno 6909 bound_to 6896
  146.0670  140.6266  142.8970 H   0  0  0  0  0  0  0  0  0  0  0  0  # atno 7974 bound_to 7965
  156.1176  140.3217  155.8162 H   0  0  0  0  0  0  0  0  0  0  0  0  # atno 8008 bound_to 7997
  155.4562  140.0536  157.3013 H   0  0  0  0  0  0  0  0  0  0  0  0  # atno 8009 bound_to 7997
  154.4804  140.2050  155.9791 H   0  0  0  0  0  0  0  0  0  0  0  0  # atno 8010 bound_to 7997
  139.9547  144.6002  150.8128 H   0  0  0  0  0  0  0  0  0  0  0  0  # atno 10167 bound_to 10162
  157.6877  131.0087  150.2510 H   0  0  0  0  0  0  0  0  0  0  0  0  # atno 10718 bound_to 10713
  154.8136  135.4637  154.0583 H   0  0  0  0  0  0  0  0  0  0  0  0  # atno 10763 bound_to 10752
  153.1994  135.6866  153.8257 H   0  0  0  0  0  0  0  0  0  0  0  0  # atno 10764 bound_to 10752
  153.7747  135.3265  155.3334 H   0  0  0  0  0  0  0  0  0  0  0  0  # atno 10765 bound_to 10752
  140.4040  134.1688  155.7665 H   0  0  0  0  0  0  0  0  0  0  0  0  # atno 11005 bound_to 11000
  144.7209  140.4368  143.7009 LP  0  0  0  0  0  0  0  0  0  0  0  0  # atno 17320 bound_to 7965
  145.6459  139.1557  143.2889 LP  0  0  0  0  0  0  0  0  0  0  0  0  # atno 17321 bound_to 7965
  140.7572  143.3081  151.2912 LP  0  0  0  0  0  0  0  0  0  0  0  0  # atno 17342 bound_to 10162
  139.6601  144.0205  152.2686 LP  0  0  0  0  0  0  0  0  0  0  0  0  # atno 17343 bound_to 10162
  156.3106  130.3771  149.7665 LP  0  0  0  0  0  0  0  0  0  0  0  0  # atno 17370 bound_to 10713
  156.5266  130.8239  151.3222 LP  0  0  0  0  0  0  0  0  0  0  0  0  # atno 17371 bound_to 10713
  141.1846  133.8340  157.1134 LP  0  0  0  0  0  0  0  0  0  0  0  0  # atno 17394 bound_to 11000
  140.0315  134.9898  157.0790 LP  0  0  0  0  0  0  0  0  0  0  0  0  # atno 17395 bound_to 11000

$$$$
