AV-unprocessed.smi:3083|AV-procd|sdf|11747|dock2
  -GOLD-   2272017143D 1   1.00000     0.00000
 Structure written by MMmdl.
 28 29  0  0  0  0  0  0  0  0  2 V2000
  149.2015  143.7881  158.2318 N   0  3  0  0  0  0  0  0  0  0  0  0
  150.6139  143.8550  158.6505 C   0  0  1  0  0  0  0  0  0  0  0  0
  150.7465  144.6939  159.9355 C   0  0  0  0  0  0  0  0  0  0  0  0
  152.2064  144.7699  160.4085 C   0  0  0  0  0  0  0  0  0  0  0  0
  152.7970  143.3669  160.6137 C   0  0  0  0  0  0  0  0  0  0  0  0
  152.6705  142.5190  159.3384 C   0  0  0  0  0  0  0  0  0  0  0  0
  151.2077  142.4368  158.8547 C   0  0  2  0  0  0  0  0  0  0  0  0
  151.1129  141.6085  157.6582 N   0  0  0  0  0  0  0  0  0  0  0  0
  150.7422  141.9936  156.3862 C   0  0  0  0  0  0  0  0  0  0  0  0
  150.7678  140.8798  155.5969 C   0  0  0  0  0  0  0  0  0  0  0  0
  151.1545  139.8419  156.4893 C   0  0  0  0  0  0  0  0  0  0  0  0
  151.3546  140.2793  157.7219 N   0  0  0  0  0  0  0  0  0  0  0  0
  148.7670  142.9694  158.6327 H   0  0  0  0  0  0  0  0  0  0  0  0
  149.1566  143.7345  157.2240 H   0  0  0  0  0  0  0  0  0  0  0  0
  151.1600  144.3657  157.8559 H   0  0  0  0  0  0  0  0  0  0  0  0
  150.3653  145.7019  159.7664 H   0  0  0  0  0  0  0  0  0  0  0  0
  150.1327  144.2606  160.7267 H   0  0  0  0  0  0  0  0  0  0  0  0
  152.8017  145.3137  159.6739 H   0  0  0  0  0  0  0  0  0  0  0  0
  152.2669  145.3379  161.3374 H   0  0  0  0  0  0  0  0  0  0  0  0
  153.8449  143.4439  160.9059 H   0  0  0  0  0  0  0  0  0  0  0  0
  152.2829  142.8693  161.4369 H   0  0  0  0  0  0  0  0  0  0  0  0
  153.2977  142.9496  158.5562 H   0  0  0  0  0  0  0  0  0  0  0  0
  153.0586  141.5173  159.5264 H   0  0  0  0  0  0  0  0  0  0  0  0
  150.6280  141.9370  159.6330 H   0  0  0  0  0  0  0  0  0  0  0  0
  150.4927  143.0177  156.1495 H   0  0  0  0  0  0  0  0  0  0  0  0
  150.5368  140.8146  154.5439 H   0  0  0  0  0  0  0  0  0  0  0  0
  151.2921  138.7910  156.2807 H   0  0  0  0  0  0  0  0  0  0  0  0
  148.7170  144.6166  158.5460 H   0  0  0  0  0  0  0  0  0  0  0  0
  1  2  1  0  0  0  0
  1 13  1  0  0  0  0
  1 14  1  0  0  0  0
  1 28  1  0  0  0  0
  2  7  1  0  0  0  0
  2  3  1  0  0  0  0
  2 15  1  0  0  0  0
  3  4  1  0  0  0  0
  3 16  1  0  0  0  0
  3 17  1  0  0  0  0
  4  5  1  0  0  0  0
  4 18  1  0  0  0  0
  4 19  1  0  0  0  0
  5  6  1  0  0  0  0
  5 20  1  0  0  0  0
  5 21  1  0  0  0  0
  6  7  1  0  0  0  0
  6 22  1  0  0  0  0
  6 23  1  0  0  0  0
  7  8  1  0  0  0  0
  7 24  1  0  0  0  0
  8 12  1  0  0  0  0
  8  9  1  0  0  0  0
  9 10  2  0  0  0  0
  9 25  1  0  0  0  0
 10 11  1  0  0  0  0
 10 26  1  0  0  0  0
 11 12  2  0  0  0  0
 11 27  1  0  0  0  0
M  CHG  1   1   1
M  END
> <s_m_source_file>
AV-unprocessed.smi

> <i_m_source_file_index>
3083

> <i_lp_mmshare_version>
43012

> <i_f3d_flags>
0

> <s_epik_input>
W05IMl1bQ0BASF0xW0NIMl1bQ0gyXVtDSDJdW0NIMl1bQ0BIXTFuMltjSF1bY0hdW2NIXW4y

> <s_epik_cmdline>
J2VwaWtfcHl0aG9uJywgJy1waCcsICc3LjAnLCAnLXRuJywgJzgnLCAnLW1hJywgJzIwMCcsICctbWV0YWxfYmluZGluZycsICctaW1hZScsICc8aW5maWxlLm1hZT4nLCAnLW9tYWUnLCAnPG91dGZpbGUubWFlPic=

> <r_lp_tautomer_probability>
1

> <r_epik_Ionization_Penalty>
0.00385053

> <r_epik_Ionization_Penalty_Charging>
0.0038389

> <r_epik_Ionization_Penalty_Neutral>
1.16305e-05

> <r_epik_State_Penalty>
-0

> <r_epik_Charging_Adjusted_Penalty>
0.0038389

> <i_epik_Tot_Q>
1

> <i_epik_Tot_abs_Q>
1

> <r_epik_Metal_State_Penalty>
-0

> <b_epik_Metal_Only>
0

> <s_lp_Force_Field>
OPLS_2005

> <r_lp_Energy>
13.574

> <b_lp_Chiralities_Consistent>
1

> <s_lp_Variant>
AV-unprocessed.smi:3083-4

> <Gold.Version>
5.8.1

> <Gold.Id.Protein>
6NUR|6NUR_protein|mol2

> <Gold.PLP.Fitness>
38.7968

> <Gold.PLP.PLP>
-28.1856

> <Gold.PLP.part.hbond>
-2.0000

> <Gold.PLP.part.metal>
0.0000

> <Gold.PLP.part.buried>
-1.9342

> <Gold.PLP.part.nonpolar>
-23.4719

> <Gold.PLP.part.repulsive>
0.0467

> <Gold.PLP.ligand.clash>
0.0000

> <Gold.PLP.ligand.torsion>
0.1446

> <Gold.PLP.Chemscore.Hbond>
2.6240

> <Gold.PLP.Chemscore.CHOScore>
1.0000

> <Gold.PLP.Chemscore.Metal>
0.0000

> <Gold.Chemscore.Hbonds>
donor molecule, donor type, donor heavy atom, donor atom, acceptor molecule, acceptor atom, score
      L1  H     1    14       P1  8028  1.73
      L1  H     1    28       P1  8029  0.90
      L1  C     9    25       P1  8028  1.00

> <Gold.PLP.Chemscore.Internal.Correction>
0.0283

> <Gold.Rescore>
     Score         DG    S(hbond)    S(metal)    S(lipo)     H(rot)  DE(clash)    DE(int)     intcor
     14.34     -15.43       0.85        0.00      82.64       1.00       0.04       1.04       ----

> <Gold.Chemscore.Fitness>
14.3418

> <Gold.Chemscore.DG>
-15.4288

> <Gold.Chemscore.ZeroCoef>
-5.4800

> <Gold.Chemscore.Hbond>
0.8502

> <Gold.Chemscore.Metal>
0.0000

> <Gold.Chemscore.Lipo>
82.6416

> <Gold.Chemscore.Internal_Hbond>
0.0000

> <Gold.Chemscore.DEClash>
0.0431

> <Gold.Chemscore.DEInternal>
1.0439

> <Gold.Chemscore.Rot>
1.0000

> <Gold.Chemscore.Internal.Correction>
   9.000000E+99

> <Gold.Chemscore.Hbonds>
donor molecule, donor type, donor heavy atom, donor atom, acceptor molecule, acceptor atom, score
      L1  H     1    14       P1  8028  0.34
      L1  H     1    28       P1  8029  0.34

> <Gold.Chemscore.Hbond.Weighted>
-2.8397

> <Gold.Chemscore.Metal.Weighted>
-0.0000

> <Gold.Chemscore.Lipo.Weighted>
-9.6691

> <Gold.Chemscore.Internal_Hbond.Weighted>
0.0000

> <Gold.Chemscore.DEClash.Weighted>
0.0431

> <Gold.Chemscore.DEInternal.Weighted>
1.0439

> <Gold.Chemscore.Rot.Weighted>
2.5600

> <Gold.Chemscore.Internal.Correction.Weighted>
   9.000000E+99

> <Gold.Protein.RotatedTorsions>
[ 6907 6896 6895 6894 ] final   86.75 input  -60.11 | X-H torsion
[ 7974 7965 7964 7962 ] final   62.10 input  175.53 | X-H torsion
[ 8008 7997 7996 7995 ] final   47.05 input   59.86 | X-H torsion
[ 10167 10162 10161 10158 ] final  -60.32 input  -65.29 | X-H torsion
[ 10718 10713 10712 10709 ] final  166.30 input   66.30 | X-H torsion
[ 10763 10752 10751 10750 ] final  -49.94 input  -60.55 | X-H torsion
[ 11005 11000 10999 10996 ] final -170.11 input  -57.11 | X-H torsion

> <Gold.Protein.ActiveResidues>
 VAL166  LYS551  ARG553  GLY616  TRP617  ASP618  TYR619  PRO620  LYS621  CYS622 
 ASP623  PHE694  ASN695  SER759  ASP760  ASP761  ALA762  ILE779  LEU786  VAL792 
 PHE793  MET794  SER795  GLU796  ALA797  LYS798  CYS799  TRP800  GLU811  SER814 

> <Gold.Protein.RotatedAtoms>
  152.5400  134.2383  159.8851 H   0  0  0  0  0  0  0  0  0  0  0  0  # atno 6907 bound_to 6896
  151.2352  133.4422  159.2613 H   0  0  0  0  0  0  0  0  0  0  0  0  # atno 6908 bound_to 6896
  151.0678  134.9792  159.8349 H   0  0  0  0  0  0  0  0  0  0  0  0  # atno 6909 bound_to 6896
  145.8772  139.3418  143.0727 H   0  0  0  0  0  0  0  0  0  0  0  0  # atno 7974 bound_to 7965
  155.3627  140.3419  155.4241 H   0  0  0  0  0  0  0  0  0  0  0  0  # atno 8008 bound_to 7997
  156.1705  140.1630  156.8490 H   0  0  0  0  0  0  0  0  0  0  0  0  # atno 8009 bound_to 7997
  154.5228  140.0763  156.8186 H   0  0  0  0  0  0  0  0  0  0  0  0  # atno 8010 bound_to 7997
  140.6078  143.2378  151.5779 H   0  0  0  0  0  0  0  0  0  0  0  0  # atno 10167 bound_to 10162
  157.0678  131.0358  151.2623 H   0  0  0  0  0  0  0  0  0  0  0  0  # atno 10718 bound_to 10713
  154.1022  135.6561  153.4870 H   0  0  0  0  0  0  0  0  0  0  0  0  # atno 10763 bound_to 10752
  153.0285  135.5228  154.7275 H   0  0  0  0  0  0  0  0  0  0  0  0  # atno 10764 bound_to 10752
  154.6430  135.2991  155.0049 H   0  0  0  0  0  0  0  0  0  0  0  0  # atno 10765 bound_to 10752
  140.5232  134.5689  157.5054 H   0  0  0  0  0  0  0  0  0  0  0  0  # atno 11005 bound_to 11000
  145.9067  140.9207  143.0475 LP  0  0  0  0  0  0  0  0  0  0  0  0  # atno 17320 bound_to 7965
  144.6726  140.1105  143.7455 LP  0  0  0  0  0  0  0  0  0  0  0  0  # atno 17321 bound_to 7965
  139.5338  144.2838  152.1207 LP  0  0  0  0  0  0  0  0  0  0  0  0  # atno 17342 bound_to 10162
  140.2032  144.4637  150.6421 LP  0  0  0  0  0  0  0  0  0  0  0  0  # atno 17343 bound_to 10162
  157.4902  130.7817  149.7500 LP  0  0  0  0  0  0  0  0  0  0  0  0  # atno 17370 bound_to 10713
  155.9959  130.3909  150.2800 LP  0  0  0  0  0  0  0  0  0  0  0  0  # atno 17371 bound_to 10713
  139.9594  134.7478  156.0269 LP  0  0  0  0  0  0  0  0  0  0  0  0  # atno 17394 bound_to 11000
  141.1322  133.6583  156.3497 LP  0  0  0  0  0  0  0  0  0  0  0  0  # atno 17395 bound_to 11000

$$$$
