#       Name:                AV-unprocessed.smi:2002
#       Creating user name   scv26
#       Creation time:       Fri Mar 27 10:34:54 2020


#       File generated by GOLD software.
#

@<TRIPOS>MOLECULE
AV-unprocessed.smi:2002
    44    45     1
SMALL
NO_CHARGES


@<TRIPOS>ATOM
      1 ****        -4.0993  -3.0559   3.1737 C.3            1 S1                 0.0000
      2 ****        -3.4351  -1.6764   3.2781 C.3            1 S1                 0.0000
      3 ****        -2.1077  -1.6419   2.6197 N.4            1 S1                 1.0000
      4 ****        -2.1339  -1.8167   1.1506 C.3            1 S1                 0.0000
      5 ****        -0.9118  -1.0649   0.6336 C.3            1 S1                 0.0000
      6 ****        -0.8457   0.1450   1.5648 C.3            1 S1                 0.0000
      7 ****         0.5221   0.8509   1.6365 C.3            1 S1                 0.0000
      8 ****         0.9024   1.4510   0.3612 N.am           1 S1                 0.0000
      9 ****         1.6888   0.8789  -0.5624 C.2            1 S1                 0.0000
     10 ****         2.1594  -0.2532  -0.4471 O.2            1 S1                 0.0000
     11 ****         1.8867   1.6967  -1.6104 N.am           1 S1                 0.0000
     12 ****         2.6676   1.4452  -2.7673 C.2            1 S1                 0.0000
     13 ****         2.7992   2.4273  -3.7849 C.2            1 S1                 0.0000
     14 ****         3.6085   1.8153  -4.7003 C.2            1 S1                 0.0000
     15 ****         4.1649   2.2490  -6.0130 C.3            1 S1                 0.0000
     16 ****         3.9416   0.5656  -4.2778 O.3            1 S1                 0.0000
     17 ****         3.3347   0.3337  -3.0376 N.2            1 S1                 0.0000
     18 ****        -1.3127  -0.4246   2.9131 C.3            1 S1                 0.0000
     19 ****        -5.0523  -3.0649   3.7031 H              1 S1                 0.0000
     20 ****        -3.4699  -3.8306   3.6126 H              1 S1                 0.0000
     21 ****        -4.2990  -3.3306   2.1377 H              1 S1                 0.0000
     22 ****        -4.0823  -0.9075   2.8537 H              1 S1                 0.0000
     23 ****        -3.3076  -1.4321   4.3336 H              1 S1                 0.0000
     24 ****        -2.1247  -2.8701   0.8697 H              1 S1                 0.0000
     25 ****        -3.0375  -1.3655   0.7371 H              1 S1                 0.0000
     26 ****        -0.0198  -1.6827   0.7479 H              1 S1                 0.0000
     27 ****        -1.0013  -0.7899  -0.4177 H              1 S1                 0.0000
     28 ****        -1.5953   0.8641   1.2294 H              1 S1                 0.0000
     29 ****         0.4785   1.6516   2.3752 H              1 S1                 0.0000
     30 ****         1.2928   0.1604   1.9838 H              1 S1                 0.0000
     31 ****         0.5595   2.3832   0.1792 H              1 S1                 0.0000
     32 ****         1.4402   2.6010  -1.5731 H              1 S1                 0.0000
     33 ****         2.3733   3.4180  -3.8377 H              1 S1                 0.0000
     34 ****         3.7873   3.2334  -6.2897 H              1 S1                 0.0000
     35 ****         3.8891   1.5478  -6.8009 H              1 S1                 0.0000
     36 ****         5.2529   2.3031  -5.9725 H              1 S1                 0.0000
     37 ****        -1.8776   0.3206   3.4753 H              1 S1                 0.0000
     38 ****        -0.4632  -0.7216   3.5294 H              1 S1                 0.0000
     39 ****        -1.5724  -2.4134   2.9921 H              1 S1                 0.0000
     40 ****         1.9606  -0.7966   0.3685 LP             1 S1                 0.0000
     41 ****         2.7404  -0.6291  -1.1690 LP             1 S1                 0.0000
     42 ****         4.9348   0.4956  -4.1846 LP             1 S1                 0.0000
     43 ****         3.6206  -0.1104  -4.9410 LP             1 S1                 0.0000
     44 ****         3.3925  -0.4925  -2.4772 LP             1 S1                 0.0000
@<TRIPOS>BOND
    1    1    2 1     
    2    1   19 1     
    3    1   20 1     
    4    1   21 1     
    5    2    3 1     
    6    2   22 1     
    7    2   23 1     
    8    3   18 1     
    9    3    4 1     
   10    3   39 1     
   11    4    5 1     
   12    4   24 1     
   13    4   25 1     
   14    5    6 1     
   15    5   26 1     
   16    5   27 1     
   17    6    7 1     
   18    6   18 1     
   19    6   28 1     
   20    7    8 1     
   21    7   29 1     
   22    7   30 1     
   23    8    9 am    
   24    8   31 1     
   25    9   10 2     
   26    9   11 am    
   27   11   12 1     
   28   11   32 1     
   29   12   17 2     
   30   12   13 1     
   31   13   14 2     
   32   13   33 1     
   33   14   15 1     
   34   14   16 1     
   35   15   34 1     
   36   15   35 1     
   37   15   36 1     
   38   16   17 1     
   39   18   37 1     
   40   18   38 1     
   41   10   40 1     
   42   10   41 1     
   43   16   42 1     
   44   16   43 1     
   45   17   44 1     
@<TRIPOS>SUBSTRUCTURE
      1 S1             1
@<TRIPOS>SET
LONE_PAIRS      STATIC     ATOMS    <user>   **** ""
5 40 41 42 43 44
DONOR_HYDROGENS      STATIC     ATOMS    <user>   **** ""
3 39 31 32
ATOM$BLUE        STATIC     ATOMS    COLORGROUP SYSTEM
5 40 41 42 43 44
ATOM$RED        STATIC     ATOMS    COLORGROUP SYSTEM
3 39 31 32
