#       Name:                AV-unprocessed.smi:2058
#       Creating user name   scv26
#       Creation time:       Fri Mar 27 11:01:48 2020


#       File generated by GOLD software.
#

@<TRIPOS>MOLECULE
AV-unprocessed.smi:2058
    48    49     1
SMALL
NO_CHARGES


@<TRIPOS>ATOM
      1 ****        -5.5307   2.2939  -1.3012 C.3            1 S1                 0.0000
      2 ****        -4.9465   2.7873   0.0352 C.3            1 S1                 0.0000
      3 ****        -5.5982   2.1200   1.2645 C.3            1 S1                 0.0000
      4 ****        -6.8964   2.6346   1.4714 O.3            1 S1                 0.0000
      5 ****        -3.4871   2.6716   0.0598 N.am           1 S1                 0.0000
      6 ****        -2.7646   1.5401   0.0532 C.2            1 S1                 0.0000
      7 ****        -3.2571   0.4125   0.0361 O.2            1 S1                 0.0000
      8 ****        -1.4476   1.8083   0.0488 N.am           1 S1                 0.0000
      9 ****        -0.3611   0.8928   0.0352 C.ar           1 S1                 0.0000
     10 ****         0.8932   1.3670  -0.4059 C.ar           1 S1                 0.0000
     11 ****         2.0032   0.4981  -0.4241 C.ar           1 S1                 0.0000
     12 ****         1.8439  -0.8370   0.0112 C.ar           1 S1                 0.0000
     13 ****         2.8872  -1.7718   0.0264 N.3            1 S1                 0.0000
     14 ****         3.3584  -2.1172  -1.3125 C.3            1 S1                 0.0000
     15 ****         4.3644  -3.2798  -1.2554 C.3            1 S1                 0.0000
     16 ****         5.5187  -2.9604  -0.2919 C.3            1 S1                 0.0000
     17 ****         4.9667  -2.5743   1.0897 C.3            1 S1                 0.0000
     18 ****         3.9461  -1.4290   0.9726 C.3            1 S1                 0.0000
     19 ****         0.6315  -1.2506   0.4401 N.pl3          1 S1                 1.0000
     20 ****        -0.4571  -0.4515   0.4715 C.ar           1 S1                 0.0000
     21 ****        -6.6008   2.4943  -1.3571 H              1 S1                 0.0000
     22 ****        -5.3922   1.2207  -1.4339 H              1 S1                 0.0000
     23 ****        -5.0592   2.7981  -2.1452 H              1 S1                 0.0000
     24 ****        -5.1354   3.8598   0.1008 H              1 S1                 0.0000
     25 ****        -5.6505   1.0368   1.1512 H              1 S1                 0.0000
     26 ****        -5.0157   2.3232   2.1638 H              1 S1                 0.0000
     27 ****        -7.2724   2.2049   2.2245 H              1 S1                 0.0000
     28 ****        -2.9798   3.5443   0.0729 H              1 S1                 0.0000
     29 ****        -1.1953   2.7837  -0.0126 H              1 S1                 0.0000
     30 ****         1.0064   2.3894  -0.7362 H              1 S1                 0.0000
     31 ****         2.9624   0.8563  -0.7685 H              1 S1                 0.0000
     32 ****         2.5107  -2.3918  -1.9418 H              1 S1                 0.0000
     33 ****         3.8280  -1.2458  -1.7709 H              1 S1                 0.0000
     34 ****         3.8552  -4.1868  -0.9266 H              1 S1                 0.0000
     35 ****         4.7536  -3.4871  -2.2526 H              1 S1                 0.0000
     36 ****         6.1872  -3.8176  -0.2059 H              1 S1                 0.0000
     37 ****         6.1136  -2.1385  -0.6919 H              1 S1                 0.0000
     38 ****         4.4909  -3.4424   1.5481 H              1 S1                 0.0000
     39 ****         5.7823  -2.2824   1.7518 H              1 S1                 0.0000
     40 ****         4.4502  -0.5192   0.6434 H              1 S1                 0.0000
     41 ****         3.5118  -1.2185   1.9510 H              1 S1                 0.0000
     42 ****        -1.3515  -0.9196   0.8544 H              1 S1                 0.0000
     43 ****         0.5327  -2.2150   0.7586 H              1 S1                 0.0000
     44 ****        -7.4615   2.4586   0.6653 LP             1 S1                 0.0000
     45 ****        -6.8467   3.6198   1.6349 LP             1 S1                 0.0000
     46 ****        -4.2508   0.3010   0.0262 LP             1 S1                 0.0000
     47 ****        -2.6636  -0.3924   0.0320 LP             1 S1                 0.0000
     48 ****         2.5005  -2.6220   0.3837 LP             1 S1                 0.0000
@<TRIPOS>BOND
    1    1    2 1     
    2    1   21 1     
    3    1   22 1     
    4    1   23 1     
    5    2    3 1     
    6    2    5 1     
    7    2   24 1     
    8    3    4 1     
    9    3   25 1     
   10    3   26 1     
   11    4   27 1     
   12    5    6 am    
   13    5   28 1     
   14    6    7 2     
   15    6    8 am    
   16    8    9 1     
   17    8   29 1     
   18    9   20 ar    
   19    9   10 ar    
   20   10   11 ar    
   21   10   30 1     
   22   11   12 ar    
   23   11   31 1     
   24   12   13 1     
   25   12   19 ar    
   26   13   18 1     
   27   13   14 1     
   28   14   15 1     
   29   14   32 1     
   30   14   33 1     
   31   15   16 1     
   32   15   34 1     
   33   15   35 1     
   34   16   17 1     
   35   16   36 1     
   36   16   37 1     
   37   17   18 1     
   38   17   38 1     
   39   17   39 1     
   40   18   40 1     
   41   18   41 1     
   42   19   20 ar    
   43   19   43 1     
   44   20   42 1     
   45    4   44 1     
   46    4   45 1     
   47    7   46 1     
   48    7   47 1     
   49   13   48 1     
@<TRIPOS>SUBSTRUCTURE
      1 S1             1
@<TRIPOS>SET
LONE_PAIRS      STATIC     ATOMS    <user>   **** ""
5 44 45 46 47 48
DONOR_HYDROGENS      STATIC     ATOMS    <user>   **** ""
4 27 28 29 43
ATOM$BLUE        STATIC     ATOMS    COLORGROUP SYSTEM
5 44 45 46 47 48
ATOM$RED        STATIC     ATOMS    COLORGROUP SYSTEM
4 27 28 29 43
