AV-unprocessed.smi:2106|AV-procd|sdf|8593|dock4
  -GOLD-   2272011323D 1   1.00000     0.00000
 Structure written by MMmdl.
 47 48  0  0  0  0  0  0  0  0  1 V2000
  143.0772  135.2601  162.7996 C   0  0  0  0  0  0  0  0  0  0  0  0
  144.3711  134.6038  162.4180 C   0  0  0  0  0  0  0  0  0  0  0  0
  144.6213  133.2242  162.1767 C   0  0  0  0  0  0  0  0  0  0  0  0
  145.9519  133.1702  161.8706 C   0  0  0  0  0  0  0  0  0  0  0  0
  146.8121  132.0003  161.5219 C   0  0  0  0  0  0  0  0  0  0  0  0
  146.4315  134.4668  161.9358 N   0  0  0  0  0  0  0  0  0  0  0  0
  147.7809  134.9596  161.7083 C   0  0  0  0  0  0  0  0  0  0  0  0
  147.7675  136.2299  160.8567 C   0  0  0  0  0  0  0  0  0  0  0  0
  147.2778  137.2667  161.3039 O   0  0  0  0  0  0  0  0  0  0  0  0
  148.3051  136.1324  159.6312 N   0  0  0  0  0  0  0  0  0  0  0  0
  148.3764  137.2133  158.6567 C   0  0  0  0  0  0  0  0  0  0  0  0
  149.8345  137.5068  158.2581 C   0  0  0  0  0  0  0  0  0  0  0  0
  150.0165  137.9884  156.8896 N   0  0  0  0  0  0  0  0  0  0  0  0
  149.3972  139.2929  156.6671 C   0  0  0  0  0  0  0  0  0  0  0  0
  149.6235  139.8040  155.2309 C   0  0  1  0  0  0  0  0  0  0  0  0
  149.0517  141.2099  155.0204 C   0  0  0  0  0  0  0  0  0  0  0  0
  151.0223  139.8453  154.9639 O   0  0  0  0  0  0  0  0  0  0  0  0
  151.6606  138.5807  155.1169 C   0  0  1  0  0  0  0  0  0  0  0  0
  153.1478  138.7514  154.7898 C   0  0  0  0  0  0  0  0  0  0  0  0
  151.4337  138.0756  156.5546 C   0  0  0  0  0  0  0  0  0  0  0  0
  145.4584  135.3428  162.2711 N   0  0  0  0  0  0  0  0  0  0  0  0
  142.2678  134.5319  162.8530 H   0  0  0  0  0  0  0  0  0  0  0  0
  142.7918  136.0198  162.0715 H   0  0  0  0  0  0  0  0  0  0  0  0
  143.1542  135.7423  163.7743 H   0  0  0  0  0  0  0  0  0  0  0  0
  143.9276  132.3978  162.2230 H   0  0  0  0  0  0  0  0  0  0  0  0
  146.2350  131.0753  161.5347 H   0  0  0  0  0  0  0  0  0  0  0  0
  147.6314  131.8928  162.2328 H   0  0  0  0  0  0  0  0  0  0  0  0
  147.2388  132.1144  160.5254 H   0  0  0  0  0  0  0  0  0  0  0  0
  148.2581  135.1594  162.6680 H   0  0  0  0  0  0  0  0  0  0  0  0
  148.3725  134.1842  161.2187 H   0  0  0  0  0  0  0  0  0  0  0  0
  148.6774  135.2374  159.3484 H   0  0  0  0  0  0  0  0  0  0  0  0
  147.7799  136.9691  157.7760 H   0  0  0  0  0  0  0  0  0  0  0  0
  147.9161  138.0880  159.1144 H   0  0  0  0  0  0  0  0  0  0  0  0
  150.2674  138.2213  158.9598 H   0  0  0  0  0  0  0  0  0  0  0  0
  150.4056  136.5855  158.3809 H   0  0  0  0  0  0  0  0  0  0  0  0
  148.3244  139.2372  156.8485 H   0  0  0  0  0  0  0  0  0  0  0  0
  149.7981  140.0167  157.3786 H   0  0  0  0  0  0  0  0  0  0  0  0
  149.1487  139.1231  154.5223 H   0  0  0  0  0  0  0  0  0  0  0  0
  147.9765  141.2267  155.2000 H   0  0  0  0  0  0  0  0  0  0  0  0
  149.2235  141.5516  153.9994 H   0  0  0  0  0  0  0  0  0  0  0  0
  149.5158  141.9298  155.6950 H   0  0  0  0  0  0  0  0  0  0  0  0
  151.2242  137.8756  154.4073 H   0  0  0  0  0  0  0  0  0  0  0  0
  153.6799  137.8039  154.8778 H   0  0  0  0  0  0  0  0  0  0  0  0
  153.6208  139.4659  155.4642 H   0  0  0  0  0  0  0  0  0  0  0  0
  153.2833  139.1151  153.7710 H   0  0  0  0  0  0  0  0  0  0  0  0
  151.9373  138.7426  157.2563 H   0  0  0  0  0  0  0  0  0  0  0  0
  151.8991  137.0959  156.6686 H   0  0  0  0  0  0  0  0  0  0  0  0
  1  2  1  0  0  0  0
  1 22  1  0  0  0  0
  1 23  1  0  0  0  0
  1 24  1  0  0  0  0
  2 21  2  0  0  0  0
  2  3  1  0  0  0  0
  3  4  2  0  0  0  0
  3 25  1  0  0  0  0
  4  5  1  0  0  0  0
  4  6  1  0  0  0  0
  5 26  1  0  0  0  0
  5 27  1  0  0  0  0
  5 28  1  0  0  0  0
  6  7  1  0  0  0  0
  6 21  1  0  0  0  0
  7  8  1  0  0  0  0
  7 29  1  0  0  0  0
  7 30  1  0  0  0  0
  8  9  2  0  0  0  0
  8 10  1  0  0  0  0
 10 11  1  0  0  0  0
 10 31  1  0  0  0  0
 11 12  1  0  0  0  0
 11 32  1  0  0  0  0
 11 33  1  0  0  0  0
 12 13  1  0  0  0  0
 12 34  1  0  0  0  0
 12 35  1  0  0  0  0
 13 20  1  0  0  0  0
 13 14  1  0  0  0  0
 14 15  1  0  0  0  0
 14 36  1  0  0  0  0
 14 37  1  0  0  0  0
 15 16  1  0  0  0  0
 15 17  1  0  0  0  0
 15 38  1  0  0  0  0
 16 39  1  0  0  0  0
 16 40  1  0  0  0  0
 16 41  1  0  0  0  0
 17 18  1  0  0  0  0
 18 19  1  0  0  0  0
 18 20  1  0  0  0  0
 18 42  1  0  0  0  0
 19 43  1  0  0  0  0
 19 44  1  0  0  0  0
 19 45  1  0  0  0  0
 20 46  1  0  0  0  0
 20 47  1  0  0  0  0
M  END
> <s_m_source_file>
AV-unprocessed.smi

> <i_m_source_file_index>
2106

> <i_lp_mmshare_version>
43012

> <i_f3d_flags>
0

> <s_epik_input>
W0NIM11jMVtjSF1jKFtDSDNdKW4objEpW0NIMl1DKD1PKVtOSF1bQ0gyXVtDSDJdTjJbQ0gyXVtDQEBIXShbQ0gzXSlPW0NAQEhdKFtDSDNdKVtDSDJdMg==

> <s_epik_cmdline>
J2VwaWtfcHl0aG9uJywgJy1waCcsICc3LjAnLCAnLXRuJywgJzgnLCAnLW1hJywgJzIwMCcsICctbWV0YWxfYmluZGluZycsICctaW1hZScsICc8aW5maWxlLm1hZT4nLCAnLW9tYWUnLCAnPG91dGZpbGUubWFlPic=

> <r_lp_tautomer_probability>
1

> <r_epik_Ionization_Penalty>
0.197284

> <r_epik_Ionization_Penalty_Charging>
0

> <r_epik_Ionization_Penalty_Neutral>
0.197284

> <r_epik_State_Penalty>
0.186684

> <r_epik_Charging_Adjusted_Penalty>
0.186684

> <i_epik_Tot_Q>
0

> <i_epik_Tot_abs_Q>
0

> <r_epik_Metal_State_Penalty>
0.186634

> <b_epik_Metal_Only>
0

> <s_lp_Force_Field>
OPLS_2005

> <r_lp_Energy>
17.5566

> <b_lp_Chiralities_Consistent>
1

> <s_lp_Variant>
AV-unprocessed.smi:2106-1

> <Gold.Version>
5.8.1

> <Gold.Id.Protein>
6NUR|6NUR_protein|mol2

> <Gold.PLP.Fitness>
44.1403

> <Gold.PLP.PLP>
-36.8279

> <Gold.PLP.part.hbond>
-3.0000

> <Gold.PLP.part.metal>
0.0000

> <Gold.PLP.part.buried>
-5.9107

> <Gold.PLP.part.nonpolar>
-28.4730

> <Gold.PLP.part.repulsive>
0.2114

> <Gold.PLP.ligand.clash>
0.0000

> <Gold.PLP.ligand.torsion>
0.4674

> <Gold.PLP.Chemscore.Hbond>
2.7440

> <Gold.PLP.Chemscore.CHOScore>
0.0000

> <Gold.PLP.Chemscore.Metal>
0.0000

> <Gold.Chemscore.Hbonds>
donor molecule, donor type, donor heavy atom, donor atom, acceptor molecule, acceptor atom, score
      P1  H  6931  6943       L1     9  0.70
      P1  H  6934  6947       L1     9  1.00
      P1  H  7989  7998       L1    17  1.00

> <Gold.PLP.Chemscore.Internal.Correction>
0.0151

> <Gold.Rescore>
     Score         DG    S(hbond)    S(metal)    S(lipo)     H(rot)  DE(clash)    DE(int)     intcor
     17.79     -19.57       2.63        0.00      81.76       1.67       0.03       1.75       ----

> <Gold.Chemscore.Fitness>
17.7949

> <Gold.Chemscore.DG>
-19.5741

> <Gold.Chemscore.ZeroCoef>
-5.4800

> <Gold.Chemscore.Hbond>
2.6325

> <Gold.Chemscore.Metal>
0.0000

> <Gold.Chemscore.Lipo>
81.7588

> <Gold.Chemscore.Internal_Hbond>
0.0000

> <Gold.Chemscore.DEClash>
0.0280

> <Gold.Chemscore.DEInternal>
1.7512

> <Gold.Chemscore.Rot>
1.6657

> <Gold.Chemscore.Internal.Correction>
   9.000000E+99

> <Gold.Chemscore.Hbonds>
donor molecule, donor type, donor heavy atom, donor atom, acceptor molecule, acceptor atom, score
      P1  H  6931  6943       L1     9  0.17
      P1  H  6934  6947       L1     9  0.95
      P1  H  7989  7998       L1    17  0.88

> <Gold.Chemscore.Hbond.Weighted>
-8.7924

> <Gold.Chemscore.Metal.Weighted>
-0.0000

> <Gold.Chemscore.Lipo.Weighted>
-9.5658

> <Gold.Chemscore.Internal_Hbond.Weighted>
0.0000

> <Gold.Chemscore.DEClash.Weighted>
0.0280

> <Gold.Chemscore.DEInternal.Weighted>
1.7512

> <Gold.Chemscore.Rot.Weighted>
4.2641

> <Gold.Chemscore.Internal.Correction.Weighted>
   9.000000E+99

> <Gold.Protein.RotatedTorsions>
[ 6907 6896 6895 6894 ] final  -59.26 input  -60.11 | X-H torsion
[ 7974 7965 7964 7962 ] final  125.88 input  175.53 | X-H torsion
[ 8008 7997 7996 7995 ] final   64.68 input   59.86 | X-H torsion
[ 10167 10162 10161 10158 ] final  -92.20 input  -65.29 | X-H torsion
[ 10718 10713 10712 10709 ] final -147.60 input   66.30 | X-H torsion
[ 10763 10752 10751 10750 ] final   26.04 input  -60.55 | X-H torsion
[ 11005 11000 10999 10996 ] final   61.05 input  -57.11 | X-H torsion

> <Gold.Protein.ActiveResidues>
 VAL166  LYS551  ARG553  GLY616  TRP617  ASP618  TYR619  PRO620  LYS621  CYS622 
 ASP623  PHE694  ASN695  SER759  ASP760  ASP761  ALA762  ILE779  LEU786  VAL792 
 PHE793  MET794  SER795  GLU796  ALA797  LYS798  CYS799  TRP800  GLU811  SER814 

> <Gold.Protein.RotatedAtoms>
  150.7944  134.6992  159.6539 H   0  0  0  0  0  0  0  0  0  0  0  0  # atno 6907 bound_to 6896
  152.4054  134.6213  160.0061 H   0  0  0  0  0  0  0  0  0  0  0  0  # atno 6908 bound_to 6896
  151.6471  133.3286  159.3179 H   0  0  0  0  0  0  0  0  0  0  0  0  # atno 6909 bound_to 6896
  145.0680  139.3752  143.4972 H   0  0  0  0  0  0  0  0  0  0  0  0  # atno 7974 bound_to 7965
  155.6499  140.3497  155.4744 H   0  0  0  0  0  0  0  0  0  0  0  0  # atno 8008 bound_to 7997
  155.9856  140.1183  157.0709 H   0  0  0  0  0  0  0  0  0  0  0  0  # atno 8009 bound_to 7997
  154.4204  140.1129  156.5481 H   0  0  0  0  0  0  0  0  0  0  0  0  # atno 8010 bound_to 7997
  140.3372  143.2962  151.9876 H   0  0  0  0  0  0  0  0  0  0  0  0  # atno 10167 bound_to 10162
  156.4095  130.7974  151.2191 H   0  0  0  0  0  0  0  0  0  0  0  0  # atno 10718 bound_to 10713
  153.0650  135.6569  154.0376 H   0  0  0  0  0  0  0  0  0  0  0  0  # atno 10763 bound_to 10752
  154.0035  135.2935  155.3401 H   0  0  0  0  0  0  0  0  0  0  0  0  # atno 10764 bound_to 10752
  154.7004  135.5247  153.8587 H   0  0  0  0  0  0  0  0  0  0  0  0  # atno 10765 bound_to 10752
  140.0188  134.6184  155.9670 H   0  0  0  0  0  0  0  0  0  0  0  0  # atno 11005 bound_to 11000
  146.3527  140.0411  142.8643 LP  0  0  0  0  0  0  0  0  0  0  0  0  # atno 17320 bound_to 7965
  145.1327  140.9527  143.4535 LP  0  0  0  0  0  0  0  0  0  0  0  0  # atno 17321 bound_to 7965
  139.4846  144.6187  151.7297 LP  0  0  0  0  0  0  0  0  0  0  0  0  # atno 17342 bound_to 10162
  140.5343  144.0681  150.6065 LP  0  0  0  0  0  0  0  0  0  0  0  0  # atno 17343 bound_to 10162
  157.7506  131.0262  150.3951 LP  0  0  0  0  0  0  0  0  0  0  0  0  # atno 17370 bound_to 10713
  156.4246  130.3960  149.6801 LP  0  0  0  0  0  0  0  0  0  0  0  0  # atno 17371 bound_to 10713
  141.1760  133.6540  156.4832 LP  0  0  0  0  0  0  0  0  0  0  0  0  # atno 17394 bound_to 11000
  140.4423  134.7004  157.4998 LP  0  0  0  0  0  0  0  0  0  0  0  0  # atno 17395 bound_to 11000

$$$$
