AV-unprocessed.smi:447|AV-procd|sdf|2602|dock10
  -GOLD-   2262023 03D 1   1.00000     0.00000
 Structure written by MMmdl.
 46 48  0  0  0  0  0  0  0  0  2 V2000
  149.1240  138.6987  154.5481 C   0  0  0  0  0  0  0  0  0  0  0  0
  147.8216  138.8961  153.7810 C   0  0  0  0  0  0  0  0  0  0  0  0
  147.3113  140.0121  153.7094 O   0  0  0  0  0  0  0  0  0  0  0  0
  147.2916  137.8009  153.2154 N   0  0  0  0  0  0  0  0  0  0  0  0
  146.0890  137.7685  152.3841 C   0  0  1  0  0  0  0  0  0  0  0  0
  146.3100  138.6523  151.1484 C   0  0  0  0  0  0  0  0  0  0  0  0
  145.6831  136.3814  151.9689 C   0  0  0  0  0  0  0  0  0  0  0  0
  146.4980  135.4309  151.4254 N   0  3  0  0  0  0  0  0  0  0  0  0
  145.7656  134.2781  151.1456 C   0  0  0  0  0  0  0  0  0  0  0  0
  146.1568  133.0596  150.5996 C   0  0  0  0  0  0  0  0  0  0  0  0
  145.1487  132.0870  150.4358 C   0  0  0  0  0  0  0  0  0  0  0  0
  143.8128  132.3450  150.8058 C   0  0  0  0  0  0  0  0  0  0  0  0
  143.4288  133.5850  151.3574 C   0  0  0  0  0  0  0  0  0  0  0  0
  144.4331  134.5386  151.5226 C   0  0  0  0  0  0  0  0  0  0  0  0
  144.4287  135.8430  152.0300 N   0  0  0  0  0  0  0  0  0  0  0  0
  143.1582  136.4190  152.5007 C   0  0  0  0  0  0  0  0  0  0  0  0
  142.8445  136.0889  153.9750 C   0  0  2  0  0  0  0  0  0  0  0  0
  142.9526  134.6906  154.1379 O   0  0  0  0  0  0  0  0  0  0  0  0
  141.4873  136.6095  154.4241 C   0  0  0  0  0  0  0  0  0  0  0  0
  140.3161  136.1958  153.7536 C   0  0  0  0  0  0  0  0  0  0  0  0
  139.0584  136.6879  154.1529 C   0  0  0  0  0  0  0  0  0  0  0  0
  138.9634  137.5879  155.2316 C   0  0  0  0  0  0  0  0  0  0  0  0
  140.1273  137.9972  155.9098 C   0  0  0  0  0  0  0  0  0  0  0  0
  141.3860  137.5126  155.5050 C   0  0  0  0  0  0  0  0  0  0  0  0
  149.0196  137.9003  155.2833 H   0  0  0  0  0  0  0  0  0  0  0  0
  149.4064  139.6115  155.0738 H   0  0  0  0  0  0  0  0  0  0  0  0
  149.9304  138.4364  153.8629 H   0  0  0  0  0  0  0  0  0  0  0  0
  147.7825  136.9265  153.3344 H   0  0  0  0  0  0  0  0  0  0  0  0
  145.2764  138.1996  152.9694 H   0  0  0  0  0  0  0  0  0  0  0  0
  145.4117  138.7075  150.5333 H   0  0  0  0  0  0  0  0  0  0  0  0
  147.1152  138.2657  150.5227 H   0  0  0  0  0  0  0  0  0  0  0  0
  146.5711  139.6714  151.4356 H   0  0  0  0  0  0  0  0  0  0  0  0
  147.1790  132.8615  150.3119 H   0  0  0  0  0  0  0  0  0  0  0  0
  145.4045  131.1250  150.0156 H   0  0  0  0  0  0  0  0  0  0  0  0
  143.0669  131.5764  150.6634 H   0  0  0  0  0  0  0  0  0  0  0  0
  142.4025  133.7733  151.6355 H   0  0  0  0  0  0  0  0  0  0  0  0
  143.1934  137.4979  152.3502 H   0  0  0  0  0  0  0  0  0  0  0  0
  142.3672  136.0480  151.8473 H   0  0  0  0  0  0  0  0  0  0  0  0
  143.6097  136.5267  154.6157 H   0  0  0  0  0  0  0  0  0  0  0  0
  142.3757  134.2714  153.5175 H   0  0  0  0  0  0  0  0  0  0  0  0
  140.3773  135.5021  152.9280 H   0  0  0  0  0  0  0  0  0  0  0  0
  138.1654  136.3698  153.6358 H   0  0  0  0  0  0  0  0  0  0  0  0
  137.9981  137.9598  155.5413 H   0  0  0  0  0  0  0  0  0  0  0  0
  140.0553  138.6850  156.7392 H   0  0  0  0  0  0  0  0  0  0  0  0
  142.2741  137.8345  156.0287 H   0  0  0  0  0  0  0  0  0  0  0  0
  147.4878  135.5658  151.2647 H   0  0  0  0  0  0  0  0  0  0  0  0
  1  2  1  0  0  0  0
  1 25  1  0  0  0  0
  1 26  1  0  0  0  0
  1 27  1  0  0  0  0
  2  3  2  0  0  0  0
  2  4  1  0  0  0  0
  4  5  1  0  0  0  0
  4 28  1  0  0  0  0
  5  6  1  0  0  0  0
  5  7  1  0  0  0  0
  5 29  1  0  0  0  0
  6 30  1  0  0  0  0
  6 31  1  0  0  0  0
  6 32  1  0  0  0  0
  7 15  1  0  0  0  0
  7  8  2  0  0  0  0
  8  9  1  0  0  0  0
  8 46  1  0  0  0  0
  9 14  2  0  0  0  0
  9 10  1  0  0  0  0
 10 11  2  0  0  0  0
 10 33  1  0  0  0  0
 11 12  1  0  0  0  0
 11 34  1  0  0  0  0
 12 13  2  0  0  0  0
 12 35  1  0  0  0  0
 13 14  1  0  0  0  0
 13 36  1  0  0  0  0
 14 15  1  0  0  0  0
 15 16  1  0  0  0  0
 16 17  1  0  0  0  0
 16 37  1  0  0  0  0
 16 38  1  0  0  0  0
 17 18  1  0  0  0  0
 17 19  1  0  0  0  0
 17 39  1  0  0  0  0
 18 40  1  0  0  0  0
 19 24  1  0  0  0  0
 19 20  2  0  0  0  0
 20 21  1  0  0  0  0
 20 41  1  0  0  0  0
 21 22  2  0  0  0  0
 21 42  1  0  0  0  0
 22 23  1  0  0  0  0
 22 43  1  0  0  0  0
 23 24  2  0  0  0  0
 23 44  1  0  0  0  0
 24 45  1  0  0  0  0
M  CHG  1   8   1
M  END
> <s_m_source_file>
AV-unprocessed.smi

> <i_m_source_file_index>
447

> <i_lp_mmshare_version>
43012

> <i_f3d_flags>
0

> <s_epik_input>
W0NIM11DKD1PKVtOSF1bQ0BIXShbQ0gzXSljKG4xKW4oYyhjMTIpW2NIXVtjSF1bY0hdW2NIXTIpW0NIMl1bQ0BIXShbT0hdKWMzW2NIXVtjSF1bY0hdW2NIXVtjSF0z

> <s_epik_cmdline>
J2VwaWtfcHl0aG9uJywgJy1waCcsICc3LjAnLCAnLXRuJywgJzgnLCAnLW1hJywgJzIwMCcsICctbWV0YWxfYmluZGluZycsICctaW1hZScsICc8aW5maWxlLm1hZT4nLCAnLW9tYWUnLCAnPG91dGZpbGUubWFlPic=

> <r_epik_Ionization_Penalty>
0.950381

> <r_epik_Ionization_Penalty_Charging>
0.950379

> <r_epik_Ionization_Penalty_Neutral>
1.42115e-06

> <r_epik_State_Penalty>
0.994584

> <r_epik_Charging_Adjusted_Penalty>
1.94496

> <i_epik_Tot_Q>
1

> <i_epik_Tot_abs_Q>
1

> <r_epik_Metal_State_Penalty>
1.10485

> <b_epik_Metal_Only>
0

> <s_lp_Force_Field>
OPLS_2005

> <r_lp_Energy>
11.3805

> <b_lp_Chiralities_Consistent>
1

> <s_lp_Variant>
AV-unprocessed.smi:447-6

> <Gold.Version>
5.8.1

> <Gold.Id.Protein>
6NUR|6NUR_protein|mol2

> <Gold.PLP.Fitness>
47.7362

> <Gold.PLP.PLP>
-42.0718

> <Gold.PLP.part.hbond>
-3.0000

> <Gold.PLP.part.metal>
0.0000

> <Gold.PLP.part.buried>
-3.1536

> <Gold.PLP.part.nonpolar>
-37.5124

> <Gold.PLP.part.repulsive>
0.2933

> <Gold.PLP.ligand.clash>
0.0000

> <Gold.PLP.ligand.torsion>
0.7133

> <Gold.PLP.Chemscore.Hbond>
2.3520

> <Gold.PLP.Chemscore.CHOScore>
0.0000

> <Gold.PLP.Chemscore.Metal>
0.0000

> <Gold.Chemscore.Hbonds>
donor molecule, donor type, donor heavy atom, donor atom, acceptor molecule, acceptor atom, score
      L1  H     4    28       P1  7948  0.40
      L1  H     8    46       P1  7948  1.95

> <Gold.PLP.Chemscore.Internal.Correction>
0.0350

> <Gold.Rescore>
     Score         DG    S(hbond)    S(metal)    S(lipo)     H(rot)  DE(clash)    DE(int)     intcor
     14.33     -17.05       1.77        0.00     101.16       2.41       1.65       1.07       ----

> <Gold.Chemscore.Fitness>
14.3312

> <Gold.Chemscore.DG>
-17.0513

> <Gold.Chemscore.ZeroCoef>
-5.4800

> <Gold.Chemscore.Hbond>
1.7690

> <Gold.Chemscore.Metal>
0.0000

> <Gold.Chemscore.Lipo>
101.1581

> <Gold.Chemscore.Internal_Hbond>
0.0000

> <Gold.Chemscore.DEClash>
1.6495

> <Gold.Chemscore.DEInternal>
1.0707

> <Gold.Chemscore.Rot>
2.4112

> <Gold.Chemscore.Internal.Correction>
   9.000000E+99

> <Gold.Chemscore.Hbonds>
donor molecule, donor type, donor heavy atom, donor atom, acceptor molecule, acceptor atom, score
      L1  H     4    28       P1  7948  0.38
      L1  H     8    46       P1  7948  0.77

> <Gold.Chemscore.Hbond.Weighted>
-5.9085

> <Gold.Chemscore.Metal.Weighted>
-0.0000

> <Gold.Chemscore.Lipo.Weighted>
-11.8355

> <Gold.Chemscore.Internal_Hbond.Weighted>
0.0000

> <Gold.Chemscore.DEClash.Weighted>
1.6495

> <Gold.Chemscore.DEInternal.Weighted>
1.0707

> <Gold.Chemscore.Rot.Weighted>
6.1727

> <Gold.Chemscore.Internal.Correction.Weighted>
   9.000000E+99

> <Gold.Protein.RotatedTorsions>
[ 6907 6896 6895 6894 ] final  149.33 input  -60.11 | X-H torsion
[ 7974 7965 7964 7962 ] final -156.37 input  175.53 | X-H torsion
[ 8008 7997 7996 7995 ] final -172.79 input   59.86 | X-H torsion
[ 10167 10162 10161 10158 ] final -166.59 input  -65.29 | X-H torsion
[ 10718 10713 10712 10709 ] final   32.40 input   66.30 | X-H torsion
[ 10763 10752 10751 10750 ] final -165.04 input  -60.55 | X-H torsion
[ 11005 11000 10999 10996 ] final   29.73 input  -57.11 | X-H torsion

> <Gold.Protein.ActiveResidues>
 VAL166  LYS551  ARG553  GLY616  TRP617  ASP618  TYR619  PRO620  LYS621  CYS622 
 ASP623  PHE694  ASN695  SER759  ASP760  ASP761  ALA762  ILE779  LEU786  VAL792 
 PHE793  MET794  SER795  GLU796  ALA797  LYS798  CYS799  TRP800  GLU811  SER814 

> <Gold.Protein.RotatedAtoms>
  152.1295  133.4399  159.4713 H   0  0  0  0  0  0  0  0  0  0  0  0  # atno 6907 bound_to 6896
  150.6877  134.2438  159.4492 H   0  0  0  0  0  0  0  0  0  0  0  0  # atno 6908 bound_to 6896
  152.0321  134.9761  160.0623 H   0  0  0  0  0  0  0  0  0  0  0  0  # atno 6909 bound_to 6896
  144.7596  140.4119  143.5986 H   0  0  0  0  0  0  0  0  0  0  0  0  # atno 7974 bound_to 7965
  155.9491  140.1123  157.0992 H   0  0  0  0  0  0  0  0  0  0  0  0  # atno 8008 bound_to 7997
  154.4105  140.1204  156.5095 H   0  0  0  0  0  0  0  0  0  0  0  0  # atno 8009 bound_to 7997
  155.6865  140.3473  155.4878 H   0  0  0  0  0  0  0  0  0  0  0  0  # atno 8010 bound_to 7997
  139.6105  144.0825  152.1837 H   0  0  0  0  0  0  0  0  0  0  0  0  # atno 10167 bound_to 10162
  157.2847  130.7273  149.6576 H   0  0  0  0  0  0  0  0  0  0  0  0  # atno 10718 bound_to 10713
  154.6970  135.2981  154.9397 H   0  0  0  0  0  0  0  0  0  0  0  0  # atno 10763 bound_to 10752
  154.0341  135.6666  153.4787 H   0  0  0  0  0  0  0  0  0  0  0  0  # atno 10764 bound_to 10752
  153.0653  135.5092  154.8093 H   0  0  0  0  0  0  0  0  0  0  0  0  # atno 10765 bound_to 10752
  140.3018  134.2748  155.7752 H   0  0  0  0  0  0  0  0  0  0  0  0  # atno 11005 bound_to 11000
  145.6663  139.1590  143.2780 LP  0  0  0  0  0  0  0  0  0  0  0  0  # atno 17320 bound_to 7965
  146.1645  140.6739  142.9262 LP  0  0  0  0  0  0  0  0  0  0  0  0  # atno 17321 bound_to 7965
  140.0442  144.5983  150.7386 LP  0  0  0  0  0  0  0  0  0  0  0  0  # atno 17342 bound_to 10162
  140.7315  143.2695  151.3933 LP  0  0  0  0  0  0  0  0  0  0  0  0  # atno 17343 bound_to 10162
  155.9665  130.4327  150.4975 LP  0  0  0  0  0  0  0  0  0  0  0  0  # atno 17370 bound_to 10713
  157.2926  131.0629  151.2123 LP  0  0  0  0  0  0  0  0  0  0  0  0  # atno 17371 bound_to 10713
  141.2126  133.7651  156.9779 LP  0  0  0  0  0  0  0  0  0  0  0  0  # atno 17394 bound_to 11000
  140.1102  134.9481  157.2054 LP  0  0  0  0  0  0  0  0  0  0  0  0  # atno 17395 bound_to 11000

$$$$
