AV-unprocessed.smi:3293|AV-procd|sdf|12629|dock2
  -GOLD-   2272018563D 1   1.00000     0.00000
 Structure written by MMmdl.
 44 45  0  0  0  0  0  0  0  0  2 V2000
  144.5390  135.2902  150.7475 C   0  0  0  0  0  0  0  0  0  0  0  0
  143.5027  135.4575  151.8466 C   0  0  0  0  0  0  0  0  0  0  0  0
  142.8452  134.3905  152.3428 C   0  0  0  0  0  0  0  0  0  0  0  0
  141.7578  134.4577  153.4013 C   0  0  0  0  0  0  0  0  0  0  0  0
  141.5951  135.8600  154.0107 C   0  0  0  0  0  0  0  0  0  0  0  0
  141.7868  136.9579  152.9505 C   0  0  1  0  0  0  0  0  0  0  0  0
  141.3922  138.3487  153.4770 C   0  0  0  0  0  0  0  0  0  0  0  0
  143.2086  136.8857  152.3256 C   0  0  1  0  0  0  0  0  0  0  0  0
  144.3145  137.4268  153.2694 C   0  0  0  0  0  0  0  0  0  0  0  0
  145.3012  138.2733  152.5707 N   0  3  0  0  0  0  0  0  0  0  0  0
  146.6637  138.1990  153.1317 C   0  0  0  0  0  0  0  0  0  0  0  0
  147.0961  139.5526  153.7100 C   0  0  0  0  0  0  0  0  0  0  0  0
  148.5500  139.5494  154.0904 C   0  0  0  0  0  0  0  0  0  0  0  0
  149.3531  140.6599  154.4781 C   0  0  0  0  0  0  0  0  0  0  0  0
  150.6038  140.3219  154.7446 N   0  0  0  0  0  0  0  0  0  0  0  0
  150.6434  138.9894  154.5399 N   0  0  0  0  0  0  0  0  0  0  0  0
  151.8846  138.2731  154.7423 C   0  0  0  0  0  0  0  0  0  0  0  0
  149.4183  138.4953  154.1467 C   0  0  0  0  0  0  0  0  0  0  0  0
  144.3584  135.9995  149.9395 H   0  0  0  0  0  0  0  0  0  0  0  0
  144.4975  134.2870  150.3212 H   0  0  0  0  0  0  0  0  0  0  0  0
  145.5492  135.4390  151.1252 H   0  0  0  0  0  0  0  0  0  0  0  0
  143.0630  133.4035  151.9608 H   0  0  0  0  0  0  0  0  0  0  0  0
  140.8237  134.1528  152.9287 H   0  0  0  0  0  0  0  0  0  0  0  0
  141.9664  133.7287  154.1846 H   0  0  0  0  0  0  0  0  0  0  0  0
  140.6100  135.9406  154.4720 H   0  0  0  0  0  0  0  0  0  0  0  0
  142.3164  135.9953  154.8169 H   0  0  0  0  0  0  0  0  0  0  0  0
  141.0831  136.7417  152.1443 H   0  0  0  0  0  0  0  0  0  0  0  0
  141.9259  138.6065  154.3915 H   0  0  0  0  0  0  0  0  0  0  0  0
  140.3272  138.3856  153.7080 H   0  0  0  0  0  0  0  0  0  0  0  0
  141.5923  139.1229  152.7357 H   0  0  0  0  0  0  0  0  0  0  0  0
  143.1868  137.5226  151.4399 H   0  0  0  0  0  0  0  0  0  0  0  0
  143.8829  138.0386  154.0602 H   0  0  0  0  0  0  0  0  0  0  0  0
  144.8340  136.5998  153.7550 H   0  0  0  0  0  0  0  0  0  0  0  0
  145.3374  137.9890  151.6021 H   0  0  0  0  0  0  0  0  0  0  0  0
  146.6913  137.4356  153.9105 H   0  0  0  0  0  0  0  0  0  0  0  0
  147.3563  137.8873  152.3483 H   0  0  0  0  0  0  0  0  0  0  0  0
  146.8950  140.3375  152.9796 H   0  0  0  0  0  0  0  0  0  0  0  0
  146.4774  139.7887  154.5768 H   0  0  0  0  0  0  0  0  0  0  0  0
  149.0652  141.6968  154.5706 H   0  0  0  0  0  0  0  0  0  0  0  0
  151.7673  137.2295  154.4482 H   0  0  0  0  0  0  0  0  0  0  0  0
  152.1671  138.3157  155.7945 H   0  0  0  0  0  0  0  0  0  0  0  0
  152.6740  138.7235  154.1400 H   0  0  0  0  0  0  0  0  0  0  0  0
  149.2681  137.4461  153.9387 H   0  0  0  0  0  0  0  0  0  0  0  0
  144.9873  139.2323  152.6144 H   0  0  0  0  0  0  0  0  0  0  0  0
  1  2  1  0  0  0  0
  1 19  1  0  0  0  0
  1 20  1  0  0  0  0
  1 21  1  0  0  0  0
  2  8  1  0  0  0  0
  2  3  2  0  0  0  0
  3  4  1  0  0  0  0
  3 22  1  0  0  0  0
  4  5  1  0  0  0  0
  4 23  1  0  0  0  0
  4 24  1  0  0  0  0
  5  6  1  0  0  0  0
  5 25  1  0  0  0  0
  5 26  1  0  0  0  0
  6  7  1  0  0  0  0
  6  8  1  0  0  0  0
  6 27  1  0  0  0  0
  7 28  1  0  0  0  0
  7 29  1  0  0  0  0
  7 30  1  0  0  0  0
  8  9  1  0  0  0  0
  8 31  1  0  0  0  0
  9 10  1  0  0  0  0
  9 32  1  0  0  0  0
  9 33  1  0  0  0  0
 10 11  1  0  0  0  0
 10 34  1  0  0  0  0
 10 44  1  0  0  0  0
 11 12  1  0  0  0  0
 11 35  1  0  0  0  0
 11 36  1  0  0  0  0
 12 13  1  0  0  0  0
 12 37  1  0  0  0  0
 12 38  1  0  0  0  0
 13 18  2  0  0  0  0
 13 14  1  0  0  0  0
 14 15  2  0  0  0  0
 14 39  1  0  0  0  0
 15 16  1  0  0  0  0
 16 17  1  0  0  0  0
 16 18  1  0  0  0  0
 17 40  1  0  0  0  0
 17 41  1  0  0  0  0
 17 42  1  0  0  0  0
 18 43  1  0  0  0  0
M  CHG  1  10   1
M  END
> <s_m_source_file>
AV-unprocessed.smi

> <i_m_source_file_index>
3293

> <i_lp_mmshare_version>
43012

> <i_f3d_flags>
0

> <s_epik_input>
W0NIM11DMT1bQ0hdW0NIMl1bQ0gyXVtDQEBIXShbQ0gzXSlbQ0BIXTFbQ0gyXVtOSF1bQ0gyXVtDSDJdYzJbY0hdbm4oW0NIM10pW2NIXTI=

> <s_epik_cmdline>
J2VwaWtfcHl0aG9uJywgJy1waCcsICc3LjAnLCAnLXRuJywgJzgnLCAnLW1hJywgJzIwMCcsICctbWV0YWxfYmluZGluZycsICctaW1hZScsICc8aW5maWxlLm1hZT4nLCAnLW9tYWUnLCAnPG91dGZpbGUubWFlPic=

> <r_lp_tautomer_probability>
1

> <r_epik_Ionization_Penalty>
0.000598621

> <r_epik_Ionization_Penalty_Charging>
0.000582095

> <r_epik_Ionization_Penalty_Neutral>
1.65262e-05

> <r_epik_State_Penalty>
-0

> <r_epik_Charging_Adjusted_Penalty>
0.000582095

> <i_epik_Tot_Q>
1

> <i_epik_Tot_abs_Q>
1

> <r_epik_Metal_State_Penalty>
-0

> <b_epik_Metal_Only>
0

> <s_lp_Force_Field>
OPLS_2005

> <r_lp_Energy>
11.7739

> <b_lp_Chiralities_Consistent>
1

> <s_lp_Variant>
AV-unprocessed.smi:3293-1

> <Gold.Version>
5.8.1

> <Gold.Id.Protein>
6NUR|6NUR_protein|mol2

> <Gold.PLP.Fitness>
43.8867

> <Gold.PLP.PLP>
-34.0207

> <Gold.PLP.part.hbond>
-2.7614

> <Gold.PLP.part.metal>
0.0000

> <Gold.PLP.part.buried>
-0.2851

> <Gold.PLP.part.nonpolar>
-31.2132

> <Gold.PLP.part.repulsive>
0.0867

> <Gold.PLP.ligand.clash>
0.0000

> <Gold.PLP.ligand.torsion>
1.2457

> <Gold.PLP.Chemscore.Hbond>
3.0936

> <Gold.PLP.Chemscore.CHOScore>
1.0000

> <Gold.PLP.Chemscore.Metal>
0.0000

> <Gold.Chemscore.Hbonds>
donor molecule, donor type, donor heavy atom, donor atom, acceptor molecule, acceptor atom, score
      L1  H    10    34       P1 10171  0.07
      L1  H    10    44       P1 10175  2.00
      P1  H  7989  7998       L1    15  1.00
      L1  C    18    43       P1  7948  1.00

> <Gold.PLP.Chemscore.Internal.Correction>
0.0766

> <Gold.Rescore>
     Score         DG    S(hbond)    S(metal)    S(lipo)     H(rot)  DE(clash)    DE(int)     intcor
     15.28     -17.62       1.74        0.00      86.45       1.48       1.07       1.27       ----

> <Gold.Chemscore.Fitness>
15.2808

> <Gold.Chemscore.DG>
-17.6212

> <Gold.Chemscore.ZeroCoef>
-5.4800

> <Gold.Chemscore.Hbond>
1.7447

> <Gold.Chemscore.Metal>
0.0000

> <Gold.Chemscore.Lipo>
86.4514

> <Gold.Chemscore.Internal_Hbond>
0.0000

> <Gold.Chemscore.DEClash>
1.0710

> <Gold.Chemscore.DEInternal>
1.2694

> <Gold.Chemscore.Rot>
1.4847

> <Gold.Chemscore.Internal.Correction>
   9.000000E+99

> <Gold.Chemscore.Hbonds>
donor molecule, donor type, donor heavy atom, donor atom, acceptor molecule, acceptor atom, score
      L1  H    10    34       P1 10171  0.08
      L1  H    10    44       P1 10175  0.94
      P1  H  7989  7998       L1    15  0.22

> <Gold.Chemscore.Hbond.Weighted>
-5.8272

> <Gold.Chemscore.Metal.Weighted>
-0.0000

> <Gold.Chemscore.Lipo.Weighted>
-10.1148

> <Gold.Chemscore.Internal_Hbond.Weighted>
0.0000

> <Gold.Chemscore.DEClash.Weighted>
1.0710

> <Gold.Chemscore.DEInternal.Weighted>
1.2694

> <Gold.Chemscore.Rot.Weighted>
3.8008

> <Gold.Chemscore.Internal.Correction.Weighted>
   9.000000E+99

> <Gold.Protein.RotatedTorsions>
[ 6907 6896 6895 6894 ] final  -45.90 input  -60.11 | X-H torsion
[ 7974 7965 7964 7962 ] final  126.58 input  175.53 | X-H torsion
[ 8008 7997 7996 7995 ] final -101.14 input   59.86 | X-H torsion
[ 10167 10162 10161 10158 ] final  -19.15 input  -65.29 | X-H torsion
[ 10718 10713 10712 10709 ] final -171.39 input   66.30 | X-H torsion
[ 10763 10752 10751 10750 ] final -129.79 input  -60.55 | X-H torsion
[ 11005 11000 10999 10996 ] final  -52.08 input  -57.11 | X-H torsion

> <Gold.Protein.ActiveResidues>
 VAL166  LYS551  ARG553  GLY616  TRP617  ASP618  TYR619  PRO620  LYS621  CYS622 
 ASP623  PHE694  ASN695  SER759  ASP760  ASP761  ALA762  ILE779  LEU786  VAL792 
 PHE793  MET794  SER795  GLU796  ALA797  LYS798  CYS799  TRP800  GLU811  SER814 

> <Gold.Protein.RotatedAtoms>
  150.9170  134.8588  159.7463 H   0  0  0  0  0  0  0  0  0  0  0  0  # atno 6907 bound_to 6896
  152.4973  134.4274  159.9511 H   0  0  0  0  0  0  0  0  0  0  0  0  # atno 6908 bound_to 6896
  151.4312  133.3630  159.2804 H   0  0  0  0  0  0  0  0  0  0  0  0  # atno 6909 bound_to 6896
  145.0602  139.3812  143.5010 H   0  0  0  0  0  0  0  0  0  0  0  0  # atno 7974 bound_to 7965
  154.8384  140.0436  157.1524 H   0  0  0  0  0  0  0  0  0  0  0  0  # atno 8008 bound_to 7997
  154.9074  140.3009  155.5264 H   0  0  0  0  0  0  0  0  0  0  0  0  # atno 8009 bound_to 7997
  156.2991  140.2364  156.4110 H   0  0  0  0  0  0  0  0  0  0  0  0  # atno 8010 bound_to 7997
  140.7265  143.4847  151.0071 H   0  0  0  0  0  0  0  0  0  0  0  0  # atno 10167 bound_to 10162
  156.7402  130.9339  151.3109 H   0  0  0  0  0  0  0  0  0  0  0  0  # atno 10718 bound_to 10713
  154.8757  135.3884  154.3977 H   0  0  0  0  0  0  0  0  0  0  0  0  # atno 10763 bound_to 10752
  153.4705  135.7030  153.6001 H   0  0  0  0  0  0  0  0  0  0  0  0  # atno 10764 bound_to 10752
  153.4461  135.3845  155.2224 H   0  0  0  0  0  0  0  0  0  0  0  0  # atno 10765 bound_to 10752
  141.0905  133.6633  156.3971 H   0  0  0  0  0  0  0  0  0  0  0  0  # atno 11005 bound_to 11000
  146.3524  140.0296  142.8651 LP  0  0  0  0  0  0  0  0  0  0  0  0  # atno 17320 bound_to 7965
  145.1419  140.9576  143.4484 LP  0  0  0  0  0  0  0  0  0  0  0  0  # atno 17321 bound_to 7965
  139.8547  143.7392  152.3176 LP  0  0  0  0  0  0  0  0  0  0  0  0  # atno 17342 bound_to 10162
  139.7586  144.7513  151.0398 LP  0  0  0  0  0  0  0  0  0  0  0  0  # atno 17343 bound_to 10162
  157.6822  130.9150  150.0295 LP  0  0  0  0  0  0  0  0  0  0  0  0  # atno 17370 bound_to 10713
  156.1470  130.3642  149.9496 LP  0  0  0  0  0  0  0  0  0  0  0  0  # atno 17371 bound_to 10713
  140.5263  134.6256  157.5335 LP  0  0  0  0  0  0  0  0  0  0  0  0  # atno 17394 bound_to 11000
  139.9730  134.7261  156.0004 LP  0  0  0  0  0  0  0  0  0  0  0  0  # atno 17395 bound_to 11000

$$$$
