AV-unprocessed.smi:1308|AV-procd|sdf|5440|dock6
  -GOLD-   22720 5 03D 1   1.00000     0.00000
 Structure written by MMmdl.
 45 45  0  0  0  0  0  0  0  0  1 V2000
  151.0298  143.4633  158.2669 C   0  0  0  0  0  0  0  0  0  0  0  0
  150.9799  142.3043  157.2953 C   0  0  0  0  0  0  0  0  0  0  0  0
  149.9060  142.3568  156.4219 N   0  0  0  0  0  0  0  0  0  0  0  0
  149.7714  141.3343  155.4994 C   0  0  0  0  0  0  0  0  0  0  0  0
  148.5696  141.4671  154.5807 C   0  0  0  0  0  0  0  0  0  0  0  0
  150.6641  140.3133  155.4477 C   0  0  0  0  0  0  0  0  0  0  0  0
  150.5577  139.1674  154.4420 C   0  0  0  0  0  0  0  0  0  0  0  0
  149.2023  138.4601  154.3604 C   0  0  0  0  0  0  0  0  0  0  0  0
  148.8084  137.7495  155.2856 O   0  0  0  0  0  0  0  0  0  0  0  0
  148.4964  138.6793  153.2403 N   0  0  0  0  0  0  0  0  0  0  0  0
  147.1614  138.1580  152.9498 C   0  0  2  0  0  0  0  0  0  0  0  0
  146.5779  138.9035  151.7416 C   0  0  0  0  0  0  0  0  0  0  0  0
  146.2545  138.2836  154.1894 C   0  0  0  0  0  0  0  0  0  0  0  0
  144.9244  137.5148  154.0642 C   0  0  0  0  0  0  0  0  0  0  0  0
  145.0720  135.9815  154.1397 C   0  0  0  0  0  0  0  0  0  0  0  0
  145.9233  135.4156  152.9905 C   0  0  0  0  0  0  0  0  0  0  0  0
  143.6924  135.3062  154.1664 C   0  0  0  0  0  0  0  0  0  0  0  0
  151.7997  140.3187  156.3996 C   0  0  0  0  0  0  0  0  0  0  0  0
  152.6527  139.4321  156.3879 O   0  0  0  0  0  0  0  0  0  0  0  0
  151.8851  141.3739  157.3225 N   0  0  0  0  0  0  0  0  0  0  0  0
  149.2205  143.0982  156.4252 H   0  0  0  0  0  0  0  0  0  0  0  0
  151.9298  143.4182  158.8812 H   0  0  0  0  0  0  0  0  0  0  0  0
  150.1635  143.4409  158.9287 H   0  0  0  0  0  0  0  0  0  0  0  0
  151.0321  144.4117  157.7289 H   0  0  0  0  0  0  0  0  0  0  0  0
  148.8878  141.4820  153.5382 H   0  0  0  0  0  0  0  0  0  0  0  0
  148.0146  142.3859  154.7744 H   0  0  0  0  0  0  0  0  0  0  0  0
  147.8875  140.6287  154.7221 H   0  0  0  0  0  0  0  0  0  0  0  0
  151.3095  138.4167  154.6852 H   0  0  0  0  0  0  0  0  0  0  0  0
  150.8282  139.5180  153.4451 H   0  0  0  0  0  0  0  0  0  0  0  0
  148.9088  139.2764  152.5381 H   0  0  0  0  0  0  0  0  0  0  0  0
  147.2179  137.1009  152.6835 H   0  0  0  0  0  0  0  0  0  0  0  0
  145.5900  138.5204  151.4844 H   0  0  0  0  0  0  0  0  0  0  0  0
  147.2137  138.7868  150.8633 H   0  0  0  0  0  0  0  0  0  0  0  0
  146.4789  139.9708  151.9425 H   0  0  0  0  0  0  0  0  0  0  0  0
  146.8011  137.9388  155.0676 H   0  0  0  0  0  0  0  0  0  0  0  0
  146.0374  139.3386  154.3614 H   0  0  0  0  0  0  0  0  0  0  0  0
  144.2629  137.8444  154.8667 H   0  0  0  0  0  0  0  0  0  0  0  0
  144.4230  137.7831  153.1336 H   0  0  0  0  0  0  0  0  0  0  0  0
  145.5698  135.7344  155.0782 H   0  0  0  0  0  0  0  0  0  0  0  0
  145.5053  135.6819  152.0193 H   0  0  0  0  0  0  0  0  0  0  0  0
  145.9764  134.3277  153.0416 H   0  0  0  0  0  0  0  0  0  0  0  0
  146.9472  135.7866  153.0275 H   0  0  0  0  0  0  0  0  0  0  0  0
  143.1308  135.5167  153.2555 H   0  0  0  0  0  0  0  0  0  0  0  0
  143.0982  135.6558  155.0114 H   0  0  0  0  0  0  0  0  0  0  0  0
  143.7844  134.2236  154.2582 H   0  0  0  0  0  0  0  0  0  0  0  0
  1 22  1  0  0  0  0
  1 23  1  0  0  0  0
  1 24  1  0  0  0  0
  1  2  1  0  0  0  0
  2  3  1  0  0  0  0
  2 20  2  0  0  0  0
  3  4  1  0  0  0  0
  3 21  1  0  0  0  0
  4  6  2  0  0  0  0
  4  5  1  0  0  0  0
  5 25  1  0  0  0  0
  5 26  1  0  0  0  0
  5 27  1  0  0  0  0
  6 18  1  0  0  0  0
  6  7  1  0  0  0  0
  7  8  1  0  0  0  0
  7 28  1  0  0  0  0
  7 29  1  0  0  0  0
  8  9  2  0  0  0  0
  8 10  1  0  0  0  0
 10 11  1  0  0  0  0
 10 30  1  0  0  0  0
 11 12  1  0  0  0  0
 11 13  1  0  0  0  0
 11 31  1  0  0  0  0
 12 32  1  0  0  0  0
 12 33  1  0  0  0  0
 12 34  1  0  0  0  0
 13 14  1  0  0  0  0
 13 35  1  0  0  0  0
 13 36  1  0  0  0  0
 14 15  1  0  0  0  0
 14 37  1  0  0  0  0
 14 38  1  0  0  0  0
 15 16  1  0  0  0  0
 15 17  1  0  0  0  0
 15 39  1  0  0  0  0
 16 40  1  0  0  0  0
 16 41  1  0  0  0  0
 16 42  1  0  0  0  0
 17 43  1  0  0  0  0
 17 44  1  0  0  0  0
 17 45  1  0  0  0  0
 18 19  2  0  0  0  0
 18 20  1  0  0  0  0
M  END
> <s_m_source_file>
AV-unprocessed.smi

> <i_m_source_file_index>
1308

> <i_lp_mmshare_version>
43012

> <i_f3d_flags>
0

> <s_epik_input>
W0NIM11jMW5jKFtDSDNdKWMoYyg9TylbbkhdMSlbQ0gyXUMoPU8pW05IXVtDQEhdKFtDSDNdKVtDSDJdW0NIMl1bQ0hdKFtDSDNdKVtDSDNd

> <s_epik_cmdline>
J2VwaWtfcHl0aG9uJywgJy1waCcsICc3LjAnLCAnLXRuJywgJzgnLCAnLW1hJywgJzIwMCcsICctbWV0YWxfYmluZGluZycsICctaW1hZScsICc8aW5maWxlLm1hZT4nLCAnLW9tYWUnLCAnPG91dGZpbGUubWFlPic=

> <r_lp_tautomer_probability>
0.156392

> <r_epik_Ionization_Penalty>
0.0141156

> <r_epik_Ionization_Penalty_Charging>
0.0139937

> <r_epik_Ionization_Penalty_Neutral>
0.00012188

> <r_epik_State_Penalty>
1.52994

> <r_epik_Charging_Adjusted_Penalty>
1.54393

> <i_epik_Tot_Q>
0

> <i_epik_Tot_abs_Q>
0

> <r_epik_Metal_State_Penalty>
1.70663

> <b_epik_Metal_Only>
0

> <s_lp_Force_Field>
OPLS_2005

> <r_lp_Energy>
10.8122

> <b_lp_Chiralities_Consistent>
1

> <s_lp_Variant>
AV-unprocessed.smi:1308-3

> <Gold.Version>
5.8.1

> <Gold.Id.Protein>
6NUR|6NUR_protein|mol2

> <Gold.PLP.Fitness>
39.8390

> <Gold.PLP.PLP>
-31.7564

> <Gold.PLP.part.hbond>
-4.0000

> <Gold.PLP.part.metal>
0.0000

> <Gold.PLP.part.buried>
3.2293

> <Gold.PLP.part.nonpolar>
-30.6209

> <Gold.PLP.part.repulsive>
0.2581

> <Gold.PLP.ligand.clash>
0.0000

> <Gold.PLP.ligand.torsion>
0.4721

> <Gold.PLP.Chemscore.Hbond>
3.0000

> <Gold.PLP.Chemscore.CHOScore>
0.0000

> <Gold.PLP.Chemscore.Metal>
0.0000

> <Gold.Chemscore.Hbonds>
donor molecule, donor type, donor heavy atom, donor atom, acceptor molecule, acceptor atom, score
      L1  H     3    21       P1  8028  0.83
      L1  H    10    30       P1  7957  1.00
      P1  H  7997  8010       L1    19  1.00

> <Gold.PLP.Chemscore.Internal.Correction>
0.0268

> <Gold.Rescore>
     Score         DG    S(hbond)    S(metal)    S(lipo)     H(rot)  DE(clash)    DE(int)     intcor
     14.52     -17.71       2.76        0.00      69.25       1.98       1.48       1.71       ----

> <Gold.Chemscore.Fitness>
14.5150

> <Gold.Chemscore.DG>
-17.7120

> <Gold.Chemscore.ZeroCoef>
-5.4800

> <Gold.Chemscore.Hbond>
2.7566

> <Gold.Chemscore.Metal>
0.0000

> <Gold.Chemscore.Lipo>
69.2522

> <Gold.Chemscore.Internal_Hbond>
0.0000

> <Gold.Chemscore.DEClash>
1.4820

> <Gold.Chemscore.DEInternal>
1.7149

> <Gold.Chemscore.Rot>
1.9835

> <Gold.Chemscore.Internal.Correction>
   9.000000E+99

> <Gold.Chemscore.Hbonds>
donor molecule, donor type, donor heavy atom, donor atom, acceptor molecule, acceptor atom, score
      L1  H     3    21       P1  8028  0.81
      L1  H    10    30       P1  7957  1.00
      P1  H  7997  8010       L1    19  0.78

> <Gold.Chemscore.Hbond.Weighted>
-9.2072

> <Gold.Chemscore.Metal.Weighted>
-0.0000

> <Gold.Chemscore.Lipo.Weighted>
-8.1025

> <Gold.Chemscore.Internal_Hbond.Weighted>
0.0000

> <Gold.Chemscore.DEClash.Weighted>
1.4820

> <Gold.Chemscore.DEInternal.Weighted>
1.7149

> <Gold.Chemscore.Rot.Weighted>
5.0778

> <Gold.Chemscore.Internal.Correction.Weighted>
   9.000000E+99

> <Gold.Protein.RotatedTorsions>
[ 6907 6896 6895 6894 ] final  127.63 input  -60.11 | X-H torsion
[ 7974 7965 7964 7962 ] final  140.94 input  175.53 | X-H torsion
[ 8008 7997 7996 7995 ] final   81.33 input   59.86 | X-H torsion
[ 10167 10162 10161 10158 ] final  148.14 input  -65.29 | X-H torsion
[ 10718 10713 10712 10709 ] final   55.22 input   66.30 | X-H torsion
[ 10763 10752 10751 10750 ] final   83.18 input  -60.55 | X-H torsion
[ 11005 11000 10999 10996 ] final  147.95 input  -57.11 | X-H torsion

> <Gold.Protein.ActiveResidues>
 VAL166  LYS551  ARG553  GLY616  TRP617  ASP618  TYR619  PRO620  LYS621  CYS622 
 ASP623  PHE694  ASN695  SER759  ASP760  ASP761  ALA762  ILE779  LEU786  VAL792 
 PHE793  MET794  SER795  GLU796  ALA797  LYS798  CYS799  TRP800  GLU811  SER814 

> <Gold.Protein.RotatedAtoms>
  152.3794  133.6526  159.6149 H   0  0  0  0  0  0  0  0  0  0  0  0  # atno 6907 bound_to 6896
  150.7729  133.9139  159.3386 H   0  0  0  0  0  0  0  0  0  0  0  0  # atno 6908 bound_to 6896
  151.6947  135.0942  160.0291 H   0  0  0  0  0  0  0  0  0  0  0  0  # atno 6909 bound_to 6896
  144.9141  139.5254  143.5694 H   0  0  0  0  0  0  0  0  0  0  0  0  # atno 7974 bound_to 7965
  155.8956  140.3436  155.5988 H   0  0  0  0  0  0  0  0  0  0  0  0  # atno 8008 bound_to 7997
  155.7560  140.0826  157.2197 H   0  0  0  0  0  0  0  0  0  0  0  0  # atno 8009 bound_to 7997
  154.4038  140.1544  156.2765 H   0  0  0  0  0  0  0  0  0  0  0  0  # atno 8010 bound_to 7997
  139.4879  144.5702  151.7069 H   0  0  0  0  0  0  0  0  0  0  0  0  # atno 10167 bound_to 10162
  157.5326  130.8641  149.8708 H   0  0  0  0  0  0  0  0  0  0  0  0  # atno 10718 bound_to 10713
  153.1268  135.4701  154.9285 H   0  0  0  0  0  0  0  0  0  0  0  0  # atno 10763 bound_to 10752
  154.7627  135.3136  154.8348 H   0  0  0  0  0  0  0  0  0  0  0  0  # atno 10764 bound_to 10752
  153.8900  135.6885  153.4815 H   0  0  0  0  0  0  0  0  0  0  0  0  # atno 10765 bound_to 10752
  140.0918  134.9036  157.1663 H   0  0  0  0  0  0  0  0  0  0  0  0  # atno 11005 bound_to 11000
  146.3173  139.7970  142.8973 LP  0  0  0  0  0  0  0  0  0  0  0  0  # atno 17320 bound_to 7965
  145.3405  141.0286  143.3395 LP  0  0  0  0  0  0  0  0  0  0  0  0  # atno 17321 bound_to 7965
  140.5288  144.0763  150.6046 LP  0  0  0  0  0  0  0  0  0  0  0  0  # atno 17342 bound_to 10162
  140.3746  143.2836  152.0239 LP  0  0  0  0  0  0  0  0  0  0  0  0  # atno 17343 bound_to 10162
  156.0434  130.3733  150.1378 LP  0  0  0  0  0  0  0  0  0  0  0  0  # atno 17370 bound_to 10713
  156.9562  130.9790  151.3488 LP  0  0  0  0  0  0  0  0  0  0  0  0  # atno 17371 bound_to 10713
  140.3341  134.2777  155.7223 LP  0  0  0  0  0  0  0  0  0  0  0  0  # atno 17394 bound_to 11000
  141.2080  133.7789  157.0084 LP  0  0  0  0  0  0  0  0  0  0  0  0  # atno 17395 bound_to 11000

$$$$
