AV-unprocessed.smi:3277|AV-procd|sdf|12536|dock5
  -GOLD-   2272018453D 1   1.00000     0.00000
 Structure written by MMmdl.
 35 37  0  0  0  0  0  0  0  0  1 V2000
  147.0538  138.7555  152.8501 C   0  0  0  0  0  0  0  0  0  0  0  0
  147.9709  139.8520  153.1186 N   0  0  0  0  0  0  0  0  0  0  0  0
  148.1422  140.4160  154.3234 C   0  0  0  0  0  0  0  0  0  0  0  0
  147.5372  140.0528  155.3319 O   0  0  0  0  0  0  0  0  0  0  0  0
  149.1536  141.5606  154.4080 C   0  0  0  0  0  0  0  0  0  0  0  0
  150.0982  141.2645  155.5283 C   0  0  0  0  0  0  0  0  0  0  0  0
  150.1812  142.0023  156.6386 N   0  0  0  0  0  0  0  0  0  0  0  0
  151.1372  141.5236  157.5420 C   0  0  0  0  0  0  0  0  0  0  0  0
  151.3847  142.2232  158.8529 C   0  0  2  0  0  0  0  0  0  0  0  0
  150.5685  143.5161  159.0688 C   0  0  0  0  0  0  0  0  0  0  0  0
  151.6468  144.5195  159.5230 C   0  0  1  0  0  0  0  0  0  0  0  0
  152.1929  144.1159  160.9073 C   0  0  0  0  0  0  0  0  0  0  0  0
  153.0639  142.8836  160.5876 C   0  0  0  0  0  0  0  0  0  0  0  0
  152.8401  142.6984  159.0741 C   0  0  2  0  0  0  0  0  0  0  0  0
  152.8099  144.1533  158.6099 C   0  0  0  0  0  0  0  0  0  0  0  0
  151.7774  140.3951  157.0929 C   0  0  0  0  0  0  0  0  0  0  0  0
  151.2038  139.8950  155.5262 S   0  0  0  0  0  0  0  0  0  0  0  0
  147.0593  138.5177  151.7865 H   0  0  0  0  0  0  0  0  0  0  0  0
  146.0349  139.0205  153.1348 H   0  0  0  0  0  0  0  0  0  0  0  0
  147.3489  137.8618  153.4007 H   0  0  0  0  0  0  0  0  0  0  0  0
  148.5066  140.2078  152.3401 H   0  0  0  0  0  0  0  0  0  0  0  0
  149.7045  141.6510  153.4708 H   0  0  0  0  0  0  0  0  0  0  0  0
  148.6500  142.5106  154.5903 H   0  0  0  0  0  0  0  0  0  0  0  0
  151.1276  141.5228  159.6493 H   0  0  0  0  0  0  0  0  0  0  0  0
  150.1119  143.8606  158.1399 H   0  0  0  0  0  0  0  0  0  0  0  0
  149.7709  143.3898  159.8015 H   0  0  0  0  0  0  0  0  0  0  0  0
  151.3262  145.5599  159.4642 H   0  0  0  0  0  0  0  0  0  0  0  0
  152.8007  144.9135  161.3362 H   0  0  0  0  0  0  0  0  0  0  0  0
  151.3926  143.8878  161.6122 H   0  0  0  0  0  0  0  0  0  0  0  0
  154.1136  143.0929  160.7981 H   0  0  0  0  0  0  0  0  0  0  0  0
  152.7792  142.0062  161.1693 H   0  0  0  0  0  0  0  0  0  0  0  0
  153.5946  142.0670  158.6035 H   0  0  0  0  0  0  0  0  0  0  0  0
  152.5822  144.2744  157.5504 H   0  0  0  0  0  0  0  0  0  0  0  0
  153.7270  144.6996  158.8373 H   0  0  0  0  0  0  0  0  0  0  0  0
  152.5506  139.8276  157.5895 H   0  0  0  0  0  0  0  0  0  0  0  0
  1  2  1  0  0  0  0
  1 18  1  0  0  0  0
  1 19  1  0  0  0  0
  1 20  1  0  0  0  0
  2  3  1  0  0  0  0
  2 21  1  0  0  0  0
  3  4  2  0  0  0  0
  3  5  1  0  0  0  0
  5  6  1  0  0  0  0
  5 22  1  0  0  0  0
  5 23  1  0  0  0  0
  6 17  1  0  0  0  0
  6  7  2  0  0  0  0
  7  8  1  0  0  0  0
  8  9  1  0  0  0  0
  8 16  2  0  0  0  0
  9 14  1  0  0  0  0
  9 10  1  0  0  0  0
  9 24  1  0  0  0  0
 10 11  1  0  0  0  0
 10 25  1  0  0  0  0
 10 26  1  0  0  0  0
 11 15  1  0  0  0  0
 11 12  1  0  0  0  0
 11 27  1  0  0  0  0
 12 13  1  0  0  0  0
 12 28  1  0  0  0  0
 12 29  1  0  0  0  0
 13 14  1  0  0  0  0
 13 30  1  0  0  0  0
 13 31  1  0  0  0  0
 14 15  1  0  0  0  0
 14 32  1  0  0  0  0
 15 33  1  0  0  0  0
 15 34  1  0  0  0  0
 16 17  1  0  0  0  0
 16 35  1  0  0  0  0
M  END
> <s_m_source_file>
AV-unprocessed.smi

> <i_m_source_file_index>
3277

> <i_lp_mmshare_version>
43012

> <i_f3d_flags>
0

> <s_epik_input>
W0NIM11bTkhdQyg9TylbQ0gyXWMxbmMoW2NIXXMxKVtDQEhdKFtDSDJdW0NAQEhdMjMpW0NAQEhdKFtDSDJdMylbQ0gyXVtDSDJdMg==

> <s_epik_cmdline>
J2VwaWtfcHl0aG9uJywgJy1waCcsICc3LjAnLCAnLXRuJywgJzgnLCAnLW1hJywgJzIwMCcsICctbWV0YWxfYmluZGluZycsICctaW1hZScsICc8aW5maWxlLm1hZT4nLCAnLW9tYWUnLCAnPG91dGZpbGUubWFlPic=

> <r_lp_tautomer_probability>
1

> <r_epik_Ionization_Penalty>
8.50008e-05

> <r_epik_Ionization_Penalty_Charging>
0

> <r_epik_Ionization_Penalty_Neutral>
8.50008e-05

> <r_epik_State_Penalty>
-0

> <r_epik_Charging_Adjusted_Penalty>
0

> <i_epik_Tot_Q>
0

> <i_epik_Tot_abs_Q>
0

> <r_epik_Metal_State_Penalty>
-0

> <b_epik_Metal_Only>
0

> <s_lp_Force_Field>
OPLS_2005

> <r_lp_Energy>
44.9061

> <b_lp_Chiralities_Consistent>
1

> <s_lp_Variant>
AV-unprocessed.smi:3277-1

> <Gold.Version>
5.8.1

> <Gold.Id.Protein>
6NUR|6NUR_protein|mol2

> <Gold.PLP.Fitness>
44.5503

> <Gold.PLP.PLP>
-41.7776

> <Gold.PLP.part.hbond>
-1.0000

> <Gold.PLP.part.metal>
0.0000

> <Gold.PLP.part.buried>
-2.9958

> <Gold.PLP.part.nonpolar>
-37.5477

> <Gold.PLP.part.repulsive>
0.2418

> <Gold.PLP.ligand.clash>
0.0000

> <Gold.PLP.ligand.torsion>
0.1150

> <Gold.PLP.Chemscore.Hbond>
1.0000

> <Gold.PLP.Chemscore.CHOScore>
0.0000

> <Gold.PLP.Chemscore.Metal>
0.0000

> <Gold.Chemscore.Hbonds>
donor molecule, donor type, donor heavy atom, donor atom, acceptor molecule, acceptor atom, score
      L1  H     2    21       P1  7957  1.00

> <Gold.PLP.Chemscore.Internal.Correction>
0.0026

> <Gold.Rescore>
     Score         DG    S(hbond)    S(metal)    S(lipo)     H(rot)  DE(clash)    DE(int)     intcor
     19.44     -19.56       0.99        0.00     123.03       1.41       0.05       0.08       ----

> <Gold.Chemscore.Fitness>
19.4364

> <Gold.Chemscore.DG>
-19.5628

> <Gold.Chemscore.ZeroCoef>
-5.4800

> <Gold.Chemscore.Hbond>
0.9890

> <Gold.Chemscore.Metal>
0.0000

> <Gold.Chemscore.Lipo>
123.0309

> <Gold.Chemscore.Internal_Hbond>
0.0000

> <Gold.Chemscore.DEClash>
0.0485

> <Gold.Chemscore.DEInternal>
0.0780

> <Gold.Chemscore.Rot>
1.4122

> <Gold.Chemscore.Internal.Correction>
   9.000000E+99

> <Gold.Chemscore.Hbonds>
donor molecule, donor type, donor heavy atom, donor atom, acceptor molecule, acceptor atom, score
      L1  H     2    21       P1  7957  0.96

> <Gold.Chemscore.Hbond.Weighted>
-3.3033

> <Gold.Chemscore.Metal.Weighted>
-0.0000

> <Gold.Chemscore.Lipo.Weighted>
-14.3946

> <Gold.Chemscore.Internal_Hbond.Weighted>
0.0000

> <Gold.Chemscore.DEClash.Weighted>
0.0485

> <Gold.Chemscore.DEInternal.Weighted>
0.0780

> <Gold.Chemscore.Rot.Weighted>
3.6151

> <Gold.Chemscore.Internal.Correction.Weighted>
   9.000000E+99

> <Gold.Protein.RotatedTorsions>
[ 6907 6896 6895 6894 ] final  -34.35 input  -60.11 | X-H torsion
[ 7974 7965 7964 7962 ] final  178.89 input  175.53 | X-H torsion
[ 8008 7997 7996 7995 ] final  -53.32 input   59.86 | X-H torsion
[ 10167 10162 10161 10158 ] final    5.63 input  -65.29 | X-H torsion
[ 10718 10713 10712 10709 ] final -105.06 input   66.30 | X-H torsion
[ 10763 10752 10751 10750 ] final -160.01 input  -60.55 | X-H torsion
[ 11005 11000 10999 10996 ] final -146.49 input  -57.11 | X-H torsion

> <Gold.Protein.ActiveResidues>
 VAL166  LYS551  ARG553  GLY616  TRP617  ASP618  TYR619  PRO620  LYS621  CYS622 
 ASP623  PHE694  ASN695  SER759  ASP760  ASP761  ALA762  ILE779  LEU786  VAL792 
 PHE793  MET794  SER795  GLU796  ALA797  LYS798  CYS799  TRP800  GLU811  SER814 

> <Gold.Protein.RotatedAtoms>
  151.0538  134.9691  159.8224 H   0  0  0  0  0  0  0  0  0  0  0  0  # atno 6907 bound_to 6896
  152.5385  134.2504  159.8906 H   0  0  0  0  0  0  0  0  0  0  0  0  # atno 6908 bound_to 6896
  151.2520  133.4302  159.2645 H   0  0  0  0  0  0  0  0  0  0  0  0  # atno 6909 bound_to 6896
  144.7151  140.0466  143.6436 H   0  0  0  0  0  0  0  0  0  0  0  0  # atno 7974 bound_to 7965
  154.4130  140.1203  156.5134 H   0  0  0  0  0  0  0  0  0  0  0  0  # atno 8008 bound_to 7997
  155.6776  140.3496  155.4823 H   0  0  0  0  0  0  0  0  0  0  0  0  # atno 8009 bound_to 7997
  155.9579  140.1117  157.0911 H   0  0  0  0  0  0  0  0  0  0  0  0  # atno 8010 bound_to 7997
  140.6472  143.7634  150.7517 H   0  0  0  0  0  0  0  0  0  0  0  0  # atno 10167 bound_to 10162
  156.0330  130.5545  150.7485 H   0  0  0  0  0  0  0  0  0  0  0  0  # atno 10718 bound_to 10713
  154.7426  135.3072  154.8701 H   0  0  0  0  0  0  0  0  0  0  0  0  # atno 10763 bound_to 10752
  153.9511  135.6764  153.4748 H   0  0  0  0  0  0  0  0  0  0  0  0  # atno 10764 bound_to 10752
  153.1024  135.4905  154.8816 H   0  0  0  0  0  0  0  0  0  0  0  0  # atno 10765 bound_to 10752
  140.7815  134.3074  157.5044 H   0  0  0  0  0  0  0  0  0  0  0  0  # atno 11005 bound_to 11000
  145.9979  139.3067  143.0945 LP  0  0  0  0  0  0  0  0  0  0  0  0  # atno 17320 bound_to 7965
  145.8827  140.9353  143.0593 LP  0  0  0  0  0  0  0  0  0  0  0  0  # atno 17321 bound_to 7965
  140.1277  143.4554  152.2274 LP  0  0  0  0  0  0  0  0  0  0  0  0  # atno 17342 bound_to 10162
  139.5683  144.7448  151.3960 LP  0  0  0  0  0  0  0  0  0  0  0  0  # atno 17343 bound_to 10162
  157.5036  131.0920  151.0285 LP  0  0  0  0  0  0  0  0  0  0  0  0  # atno 17370 bound_to 10713
  157.0659  130.5844  149.5394 LP  0  0  0  0  0  0  0  0  0  0  0  0  # atno 17371 bound_to 10713
  139.8742  134.9321  156.3545 LP  0  0  0  0  0  0  0  0  0  0  0  0  # atno 17394 bound_to 11000
  140.9478  133.7471  156.0232 LP  0  0  0  0  0  0  0  0  0  0  0  0  # atno 17395 bound_to 11000

$$$$
