AV-unprocessed.smi:2276|AV-procd|sdf|9175|dock6
  -GOLD-   2272012393D 1   1.00000     0.00000
 Structure written by MMmdl.
 53 54  0  0  0  0  0  0  0  0  2 V2000
  153.5452  141.0718  160.0910 C   0  0  0  0  0  0  0  0  0  0  0  0
  152.7286  142.2300  159.5571 C   0  0  0  0  0  0  0  0  0  0  0  0
  152.7206  143.4740  160.2165 C   0  0  0  0  0  0  0  0  0  0  0  0
  151.9397  144.5112  159.6700 C   0  0  0  0  0  0  0  0  0  0  0  0
  151.8870  145.8757  160.3245 C   0  0  0  0  0  0  0  0  0  0  0  0
  151.2010  144.3649  158.5492 N   0  0  0  0  0  0  0  0  0  0  0  0
  151.2015  143.1714  157.9055 C   0  0  0  0  0  0  0  0  0  0  0  0
  150.4609  142.9151  156.7211 N   0  0  0  0  0  0  0  0  0  0  0  0
  150.2350  141.7324  156.1224 C   0  0  0  0  0  0  0  0  0  0  0  0
  150.6447  140.6415  156.5201 O   0  0  0  0  0  0  0  0  0  0  0  0
  149.5016  141.8829  155.0098 N   0  0  0  0  0  0  0  0  0  0  0  0
  149.0841  140.7984  154.1252 C   0  0  0  0  0  0  0  0  0  0  0  0
  147.5626  140.5285  154.1721 C   0  0  1  0  0  0  0  0  0  0  0  0
  146.7901  141.8287  153.8917 C   0  0  0  0  0  0  0  0  0  0  0  0
  147.1418  139.4056  153.1950 C   0  0  0  0  0  0  0  0  0  0  0  0
  145.7656  138.9082  153.4468 N   0  3  0  0  0  0  0  0  0  0  0  0
  145.4328  138.7881  154.8889 C   0  0  0  0  0  0  0  0  0  0  0  0
  143.9655  138.3462  155.0713 C   0  0  0  0  0  0  0  0  0  0  0  0
  143.6767  137.0866  154.3835 N   0  0  0  0  0  0  0  0  0  0  0  0
  144.2867  135.9288  155.0280 C   0  0  0  0  0  0  0  0  0  0  0  0
  144.0198  137.2020  152.9652 C   0  0  0  0  0  0  0  0  0  0  0  0
  145.4882  137.6272  152.7540 C   0  0  0  0  0  0  0  0  0  0  0  0
  151.9572  142.0791  158.3870 C   0  0  0  0  0  0  0  0  0  0  0  0
  154.2329  141.3988  160.8716 H   0  0  0  0  0  0  0  0  0  0  0  0
  154.1308  140.6190  159.2906 H   0  0  0  0  0  0  0  0  0  0  0  0
  152.8882  140.3098  160.5106 H   0  0  0  0  0  0  0  0  0  0  0  0
  153.2981  143.6292  161.1162 H   0  0  0  0  0  0  0  0  0  0  0  0
  152.4841  145.9007  161.2363 H   0  0  0  0  0  0  0  0  0  0  0  0
  150.8597  146.1332  160.5835 H   0  0  0  0  0  0  0  0  0  0  0  0
  152.2716  146.6364  159.6447 H   0  0  0  0  0  0  0  0  0  0  0  0
  150.0586  143.7279  156.2787 H   0  0  0  0  0  0  0  0  0  0  0  0
  149.2007  142.8140  154.7613 H   0  0  0  0  0  0  0  0  0  0  0  0
  149.3965  141.0319  153.1059 H   0  0  0  0  0  0  0  0  0  0  0  0
  149.6308  139.9001  154.4139 H   0  0  0  0  0  0  0  0  0  0  0  0
  147.3198  140.2255  155.1899 H   0  0  0  0  0  0  0  0  0  0  0  0
  146.9766  142.1916  152.8804 H   0  0  0  0  0  0  0  0  0  0  0  0
  147.0843  142.6166  154.5858 H   0  0  0  0  0  0  0  0  0  0  0  0
  145.7148  141.6874  154.0018 H   0  0  0  0  0  0  0  0  0  0  0  0
  147.2113  139.7958  152.1785 H   0  0  0  0  0  0  0  0  0  0  0  0
  147.8286  138.5596  153.2385 H   0  0  0  0  0  0  0  0  0  0  0  0
  146.1146  138.0894  155.3750 H   0  0  0  0  0  0  0  0  0  0  0  0
  145.5709  139.7472  155.3864 H   0  0  0  0  0  0  0  0  0  0  0  0
  143.7262  138.2484  156.1309 H   0  0  0  0  0  0  0  0  0  0  0  0
  143.3023  139.1168  154.6758 H   0  0  0  0  0  0  0  0  0  0  0  0
  143.9850  135.0126  154.5194 H   0  0  0  0  0  0  0  0  0  0  0  0
  143.9541  135.8551  156.0639 H   0  0  0  0  0  0  0  0  0  0  0  0
  145.3751  135.9721  155.0265 H   0  0  0  0  0  0  0  0  0  0  0  0
  143.8210  136.2550  152.4617 H   0  0  0  0  0  0  0  0  0  0  0  0
  143.3583  137.9391  152.5073 H   0  0  0  0  0  0  0  0  0  0  0  0
  145.6695  137.7476  151.6853 H   0  0  0  0  0  0  0  0  0  0  0  0
  146.1774  136.8564  153.1011 H   0  0  0  0  0  0  0  0  0  0  0  0
  151.9491  141.1325  157.8658 H   0  0  0  0  0  0  0  0  0  0  0  0
  145.1323  139.5873  153.0493 H   0  0  0  0  0  0  0  0  0  0  0  0
  1  2  1  0  0  0  0
  1 24  1  0  0  0  0
  1 25  1  0  0  0  0
  1 26  1  0  0  0  0
  2 23  1  0  0  0  0
  2  3  2  0  0  0  0
  3  4  1  0  0  0  0
  3 27  1  0  0  0  0
  4  5  1  0  0  0  0
  4  6  2  0  0  0  0
  5 28  1  0  0  0  0
  5 29  1  0  0  0  0
  5 30  1  0  0  0  0
  6  7  1  0  0  0  0
  7  8  1  0  0  0  0
  7 23  2  0  0  0  0
  8  9  1  0  0  0  0
  8 31  1  0  0  0  0
  9 10  2  0  0  0  0
  9 11  1  0  0  0  0
 11 12  1  0  0  0  0
 11 32  1  0  0  0  0
 12 13  1  0  0  0  0
 12 33  1  0  0  0  0
 12 34  1  0  0  0  0
 13 14  1  0  0  0  0
 13 15  1  0  0  0  0
 13 35  1  0  0  0  0
 14 36  1  0  0  0  0
 14 37  1  0  0  0  0
 14 38  1  0  0  0  0
 15 16  1  0  0  0  0
 15 39  1  0  0  0  0
 15 40  1  0  0  0  0
 16 22  1  0  0  0  0
 16 17  1  0  0  0  0
 16 53  1  0  0  0  0
 17 18  1  0  0  0  0
 17 41  1  0  0  0  0
 17 42  1  0  0  0  0
 18 19  1  0  0  0  0
 18 43  1  0  0  0  0
 18 44  1  0  0  0  0
 19 20  1  0  0  0  0
 19 21  1  0  0  0  0
 20 45  1  0  0  0  0
 20 46  1  0  0  0  0
 20 47  1  0  0  0  0
 21 22  1  0  0  0  0
 21 48  1  0  0  0  0
 21 49  1  0  0  0  0
 22 50  1  0  0  0  0
 22 51  1  0  0  0  0
 23 52  1  0  0  0  0
M  CHG  1  16   1
M  END
> <s_m_source_file>
AV-unprocessed.smi

> <i_m_source_file_index>
2276

> <i_lp_mmshare_version>
43012

> <i_f3d_flags>
0

> <s_epik_input>
W0NIM11jMVtjSF1jKFtDSDNdKW5jKFtjSF0xKVtOSF1DKD1PKVtOSF1bQ0gyXVtDQEhdKFtDSDNdKVtDSDJdTjJbQ0gyXVtDSDJdTihbQ0gzXSlbQ0gyXVtDSDJdMg==

> <s_epik_cmdline>
J2VwaWtfcHl0aG9uJywgJy1waCcsICc3LjAnLCAnLXRuJywgJzgnLCAnLW1hJywgJzIwMCcsICctbWV0YWxfYmluZGluZycsICctaW1hZScsICc8aW5maWxlLm1hZT4nLCAnLW9tYWUnLCAnPG91dGZpbGUubWFlPic=

> <r_epik_Ionization_Penalty>
0.0485334

> <r_epik_Ionization_Penalty_Charging>
0.0462531

> <r_epik_Ionization_Penalty_Neutral>
0.00228028

> <r_epik_State_Penalty>
0.692588

> <r_epik_Charging_Adjusted_Penalty>
0.738841

> <i_epik_Tot_Q>
1

> <i_epik_Tot_abs_Q>
1

> <r_epik_Metal_State_Penalty>
0.692605

> <b_epik_Metal_Only>
0

> <s_lp_Force_Field>
OPLS_2005

> <r_lp_Energy>
21.6891

> <b_lp_Chiralities_Consistent>
1

> <s_lp_Variant>
AV-unprocessed.smi:2276-4

> <Gold.Version>
5.8.1

> <Gold.Id.Protein>
6NUR|6NUR_protein|mol2

> <Gold.PLP.Fitness>
53.1608

> <Gold.PLP.PLP>
-44.0395

> <Gold.PLP.part.hbond>
-3.0000

> <Gold.PLP.part.metal>
0.0000

> <Gold.PLP.part.buried>
-3.6172

> <Gold.PLP.part.nonpolar>
-37.5257

> <Gold.PLP.part.repulsive>
0.4977

> <Gold.PLP.ligand.clash>
1.9023

> <Gold.PLP.ligand.torsion>
0.2929

> <Gold.PLP.Chemscore.Hbond>
3.8320

> <Gold.PLP.Chemscore.CHOScore>
0.0000

> <Gold.PLP.Chemscore.Metal>
0.0000

> <Gold.Chemscore.Hbonds>
donor molecule, donor type, donor heavy atom, donor atom, acceptor molecule, acceptor atom, score
      L1  H     8    31       P1  8028  1.00
      L1  H    11    32       P1  8028  0.65
      L1  H    16    53       P1 10175  2.00

> <Gold.PLP.Chemscore.Internal.Correction>
0.1133

> <Gold.Rescore>
     Score         DG    S(hbond)    S(metal)    S(lipo)     H(rot)  DE(clash)    DE(int)     intcor
     21.52     -23.61       2.91        0.00     107.41       1.63       0.23       1.86       ----

> <Gold.Chemscore.Fitness>
21.5196

> <Gold.Chemscore.DG>
-23.6091

> <Gold.Chemscore.ZeroCoef>
-5.4800

> <Gold.Chemscore.Hbond>
2.9133

> <Gold.Chemscore.Metal>
0.0000

> <Gold.Chemscore.Lipo>
107.4102

> <Gold.Chemscore.Internal_Hbond>
0.0000

> <Gold.Chemscore.DEClash>
0.2254

> <Gold.Chemscore.DEInternal>
1.8641

> <Gold.Chemscore.Rot>
1.6282

> <Gold.Chemscore.Internal.Correction>
   9.000000E+99

> <Gold.Chemscore.Hbonds>
donor molecule, donor type, donor heavy atom, donor atom, acceptor molecule, acceptor atom, score
      L1  H     8    31       P1  8028  0.99
      L1  H    11    32       P1  8028  0.64
      L1  H    16    53       P1 10175  1.00

> <Gold.Chemscore.Hbond.Weighted>
-9.7303

> <Gold.Chemscore.Metal.Weighted>
-0.0000

> <Gold.Chemscore.Lipo.Weighted>
-12.5670

> <Gold.Chemscore.Internal_Hbond.Weighted>
0.0000

> <Gold.Chemscore.DEClash.Weighted>
0.2254

> <Gold.Chemscore.DEInternal.Weighted>
1.8641

> <Gold.Chemscore.Rot.Weighted>
4.1682

> <Gold.Chemscore.Internal.Correction.Weighted>
   9.000000E+99

> <Gold.Protein.RotatedTorsions>
[ 6907 6896 6895 6894 ] final   24.18 input  -60.11 | X-H torsion
[ 7974 7965 7964 7962 ] final  -84.05 input  175.53 | X-H torsion
[ 8008 7997 7996 7995 ] final   67.42 input   59.86 | X-H torsion
[ 10167 10162 10161 10158 ] final -177.99 input  -65.29 | X-H torsion
[ 10718 10713 10712 10709 ] final -118.21 input   66.30 | X-H torsion
[ 10763 10752 10751 10750 ] final  -87.40 input  -60.55 | X-H torsion
[ 11005 11000 10999 10996 ] final  -95.47 input  -57.11 | X-H torsion

> <Gold.Protein.ActiveResidues>
 VAL166  LYS551  ARG553  GLY616  TRP617  ASP618  TYR619  PRO620  LYS621  CYS622 
 ASP623  PHE694  ASN695  SER759  ASP760  ASP761  ALA762  ILE779  LEU786  VAL792 
 PHE793  MET794  SER795  GLU796  ALA797  LYS798  CYS799  TRP800  GLU811  SER814 

> <Gold.Protein.RotatedAtoms>
  151.9537  135.0157  160.0543 H   0  0  0  0  0  0  0  0  0  0  0  0  # atno 6907 bound_to 6896
  152.1930  133.4782  159.5026 H   0  0  0  0  0  0  0  0  0  0  0  0  # atno 6908 bound_to 6896
  150.6939  134.1605  159.4217 H   0  0  0  0  0  0  0  0  0  0  0  0  # atno 6909 bound_to 6896
  145.5118  140.9539  143.1703 H   0  0  0  0  0  0  0  0  0  0  0  0  # atno 7974 bound_to 7965
  155.6927  140.3496  155.4900 H   0  0  0  0  0  0  0  0  0  0  0  0  # atno 8008 bound_to 7997
  155.9510  140.1119  157.0999 H   0  0  0  0  0  0  0  0  0  0  0  0  # atno 8009 bound_to 7997
  154.4122  140.1194  156.5039 H   0  0  0  0  0  0  0  0  0  0  0  0  # atno 8010 bound_to 7997
  139.5454  144.2251  152.0977 H   0  0  0  0  0  0  0  0  0  0  0  0  # atno 10167 bound_to 10162
  156.1090  130.6233  150.9263 H   0  0  0  0  0  0  0  0  0  0  0  0  # atno 10718 bound_to 10713
  154.6332  135.5414  153.7704 H   0  0  0  0  0  0  0  0  0  0  0  0  # atno 10763 bound_to 10752
  153.0295  135.6441  154.1270 H   0  0  0  0  0  0  0  0  0  0  0  0  # atno 10764 bound_to 10752
  154.1199  135.2921  155.3191 H   0  0  0  0  0  0  0  0  0  0  0  0  # atno 10765 bound_to 10752
  141.1441  133.8028  157.0439 H   0  0  0  0  0  0  0  0  0  0  0  0  # atno 11005 bound_to 11000
  144.7723  139.6707  143.7189 LP  0  0  0  0  0  0  0  0  0  0  0  0  # atno 17320 bound_to 7965
  146.2161  139.5552  142.9649 LP  0  0  0  0  0  0  0  0  0  0  0  0  # atno 17321 bound_to 7965
  140.1736  144.4912  150.6566 LP  0  0  0  0  0  0  0  0  0  0  0  0  # atno 17342 bound_to 10162
  140.6700  143.2282  151.5650 LP  0  0  0  0  0  0  0  0  0  0  0  0  # atno 17343 bound_to 10162
  157.6269  131.0925  150.8516 LP  0  0  0  0  0  0  0  0  0  0  0  0  # atno 17370 bound_to 10713
  156.8630  130.5119  149.5302 LP  0  0  0  0  0  0  0  0  0  0  0  0  # atno 17371 bound_to 10713
  140.0675  134.9721  157.1411 LP  0  0  0  0  0  0  0  0  0  0  0  0  # atno 17394 bound_to 11000
  140.3759  134.2340  155.7174 LP  0  0  0  0  0  0  0  0  0  0  0  0  # atno 17395 bound_to 11000

$$$$
