AV-unprocessed.smi:931|AV-procd|sdf|4198|dock10
  -GOLD-   22720 2103D 1   1.00000     0.00000
 Structure written by MMmdl.
 36 37  0  0  0  0  0  0  0  0  1 V2000
  153.0264  142.4602  162.9896 C   0  0  0  0  0  0  0  0  0  0  0  0
  152.6496  143.1236  161.6572 C   0  0  0  0  0  0  0  0  0  0  0  0
  151.3556  143.9464  161.7384 C   0  0  0  0  0  0  0  0  0  0  0  0
  152.6243  142.1426  160.5273 C   0  0  0  0  0  0  0  0  0  0  0  0
  151.5896  141.9962  159.6937 N   0  0  0  0  0  0  0  0  0  0  0  0
  151.8104  141.0120  158.7254 C   0  0  0  0  0  0  0  0  0  0  0  0
  150.7591  140.7223  157.6979 C   0  0  0  0  0  0  0  0  0  0  0  0
  150.8617  141.6638  156.4862 C   0  0  0  0  0  0  0  0  0  0  0  0
  149.5541  141.9435  155.9040 N   0  0  0  0  0  0  0  0  0  0  0  0
  149.0886  141.4085  154.7642 C   0  0  0  0  0  0  0  0  0  0  0  0
  149.7085  140.5842  154.0924 O   0  0  0  0  0  0  0  0  0  0  0  0
  147.8394  141.8027  154.4696 N   0  0  0  0  0  0  0  0  0  0  0  0
  146.8609  141.2437  153.5413 C   0  0  0  0  0  0  0  0  0  0  0  0
  145.8426  142.1710  154.2004 C   0  0  0  0  0  0  0  0  0  0  0  0
  146.8271  142.3735  155.3497 C   0  0  0  0  0  0  0  0  0  0  0  0
  153.0386  140.4099  158.8366 C   0  0  0  0  0  0  0  0  0  0  0  0
  153.9617  141.0567  160.1645 S   0  0  0  0  0  0  0  0  0  0  0  0
  153.9900  141.9553  162.9169 H   0  0  0  0  0  0  0  0  0  0  0  0
  152.2835  141.7202  163.2889 H   0  0  0  0  0  0  0  0  0  0  0  0
  153.1005  143.1984  163.7885 H   0  0  0  0  0  0  0  0  0  0  0  0
  153.4483  143.8308  161.4304 H   0  0  0  0  0  0  0  0  0  0  0  0
  151.1676  144.4742  160.8030 H   0  0  0  0  0  0  0  0  0  0  0  0
  151.4133  144.6918  162.5320 H   0  0  0  0  0  0  0  0  0  0  0  0
  150.4932  143.3106  161.9420 H   0  0  0  0  0  0  0  0  0  0  0  0
  150.8447  139.6864  157.3680 H   0  0  0  0  0  0  0  0  0  0  0  0
  149.7682  140.8109  158.1455 H   0  0  0  0  0  0  0  0  0  0  0  0
  151.3066  142.6121  156.7886 H   0  0  0  0  0  0  0  0  0  0  0  0
  151.5219  141.2386  155.7284 H   0  0  0  0  0  0  0  0  0  0  0  0
  148.9606  142.5914  156.4012 H   0  0  0  0  0  0  0  0  0  0  0  0
  147.0449  141.4700  152.4905 H   0  0  0  0  0  0  0  0  0  0  0  0
  146.6564  140.1839  153.7024 H   0  0  0  0  0  0  0  0  0  0  0  0
  145.6664  143.0832  153.6280 H   0  0  0  0  0  0  0  0  0  0  0  0
  144.9091  141.6856  154.4868 H   0  0  0  0  0  0  0  0  0  0  0  0
  146.6096  141.7611  156.2263 H   0  0  0  0  0  0  0  0  0  0  0  0
  146.9889  143.4194  155.6125 H   0  0  0  0  0  0  0  0  0  0  0  0
  153.4558  139.6299  158.2169 H   0  0  0  0  0  0  0  0  0  0  0  0
  1  2  1  0  0  0  0
  1 18  1  0  0  0  0
  1 19  1  0  0  0  0
  1 20  1  0  0  0  0
  2  3  1  0  0  0  0
  2  4  1  0  0  0  0
  2 21  1  0  0  0  0
  3 22  1  0  0  0  0
  3 23  1  0  0  0  0
  3 24  1  0  0  0  0
  4 17  1  0  0  0  0
  4  5  2  0  0  0  0
  5  6  1  0  0  0  0
  6  7  1  0  0  0  0
  6 16  2  0  0  0  0
  7  8  1  0  0  0  0
  7 25  1  0  0  0  0
  7 26  1  0  0  0  0
  8  9  1  0  0  0  0
  8 27  1  0  0  0  0
  8 28  1  0  0  0  0
  9 10  1  0  0  0  0
  9 29  1  0  0  0  0
 10 11  2  0  0  0  0
 10 12  1  0  0  0  0
 12 15  1  0  0  0  0
 12 13  1  0  0  0  0
 13 14  1  0  0  0  0
 13 30  1  0  0  0  0
 13 31  1  0  0  0  0
 14 15  1  0  0  0  0
 14 32  1  0  0  0  0
 14 33  1  0  0  0  0
 15 34  1  0  0  0  0
 15 35  1  0  0  0  0
 16 17  1  0  0  0  0
 16 36  1  0  0  0  0
M  END
> <s_m_source_file>
AV-unprocessed.smi

> <i_m_source_file_index>
931

> <i_lp_mmshare_version>
43012

> <i_f3d_flags>
0

> <s_epik_input>
W0NIM11bQ0hdKFtDSDNdKWMxbmMoW2NIXXMxKVtDSDJdW0NIMl1bTkhdQyg9TylOMltDSDJdW0NIMl1bQ0gyXTI=

> <s_epik_cmdline>
J2VwaWtfcHl0aG9uJywgJy1waCcsICc3LjAnLCAnLXRuJywgJzgnLCAnLW1hJywgJzIwMCcsICctbWV0YWxfYmluZGluZycsICctaW1hZScsICc8aW5maWxlLm1hZT4nLCAnLW9tYWUnLCAnPG91dGZpbGUubWFlPic=

> <r_epik_Ionization_Penalty>
0.00159927

> <r_epik_Ionization_Penalty_Charging>
0

> <r_epik_Ionization_Penalty_Neutral>
0.00159927

> <r_epik_State_Penalty>
0.00102964

> <r_epik_Charging_Adjusted_Penalty>
0.00102964

> <i_epik_Tot_Q>
0

> <i_epik_Tot_abs_Q>
0

> <r_epik_Metal_State_Penalty>
-0

> <b_epik_Metal_Only>
0

> <s_lp_Force_Field>
OPLS_2005

> <r_lp_Energy>
8.94744

> <b_lp_Chiralities_Consistent>
1

> <s_lp_Variant>
AV-unprocessed.smi:931-1

> <Gold.Version>
5.8.1

> <Gold.Id.Protein>
6NUR|6NUR_protein|mol2

> <Gold.PLP.Fitness>
44.0625

> <Gold.PLP.PLP>
-41.4454

> <Gold.PLP.part.hbond>
-1.9436

> <Gold.PLP.part.metal>
0.0000

> <Gold.PLP.part.buried>
-2.9141

> <Gold.PLP.part.nonpolar>
-36.5875

> <Gold.PLP.part.repulsive>
1.4113

> <Gold.PLP.ligand.clash>
0.0000

> <Gold.PLP.ligand.torsion>
0.8835

> <Gold.PLP.Chemscore.Hbond>
1.3322

> <Gold.PLP.Chemscore.CHOScore>
0.0000

> <Gold.PLP.Chemscore.Metal>
0.0000

> <Gold.Chemscore.Hbonds>
donor molecule, donor type, donor heavy atom, donor atom, acceptor molecule, acceptor atom, score
      L1  H     9    29       P1  8028  0.16
      P1  H  7989  7998       L1    11  0.66

> <Gold.PLP.Chemscore.Internal.Correction>
0.3874

> <Gold.Rescore>
     Score         DG    S(hbond)    S(metal)    S(lipo)     H(rot)  DE(clash)    DE(int)     intcor
     14.29     -16.43       0.79        0.00     103.55       1.48       1.26       0.88       ----

> <Gold.Chemscore.Fitness>
14.2885

> <Gold.Chemscore.DG>
-16.4285

> <Gold.Chemscore.ZeroCoef>
-5.4800

> <Gold.Chemscore.Hbond>
0.7887

> <Gold.Chemscore.Metal>
0.0000

> <Gold.Chemscore.Lipo>
103.5480

> <Gold.Chemscore.Internal_Hbond>
0.0000

> <Gold.Chemscore.DEClash>
1.2647

> <Gold.Chemscore.DEInternal>
0.8754

> <Gold.Chemscore.Rot>
1.4847

> <Gold.Chemscore.Internal.Correction>
   9.000000E+99

> <Gold.Chemscore.Hbonds>
donor molecule, donor type, donor heavy atom, donor atom, acceptor molecule, acceptor atom, score
      L1  H     9    29       P1  8028  0.16
      P1  H  7989  7998       L1    11  0.62

> <Gold.Chemscore.Hbond.Weighted>
-2.6343

> <Gold.Chemscore.Metal.Weighted>
-0.0000

> <Gold.Chemscore.Lipo.Weighted>
-12.1151

> <Gold.Chemscore.Internal_Hbond.Weighted>
0.0000

> <Gold.Chemscore.DEClash.Weighted>
1.2647

> <Gold.Chemscore.DEInternal.Weighted>
0.8754

> <Gold.Chemscore.Rot.Weighted>
3.8009

> <Gold.Chemscore.Internal.Correction.Weighted>
   9.000000E+99

> <Gold.Protein.RotatedTorsions>
[ 6907 6896 6895 6894 ] final   -8.98 input  -60.11 | X-H torsion
[ 7974 7965 7964 7962 ] final    1.86 input  175.53 | X-H torsion
[ 8008 7997 7996 7995 ] final -141.55 input   59.86 | X-H torsion
[ 10167 10162 10161 10158 ] final  134.43 input  -65.29 | X-H torsion
[ 10718 10713 10712 10709 ] final  -48.58 input   66.30 | X-H torsion
[ 10763 10752 10751 10750 ] final  116.10 input  -60.55 | X-H torsion
[ 11005 11000 10999 10996 ] final   -3.37 input  -57.11 | X-H torsion

> <Gold.Protein.ActiveResidues>
 VAL166  LYS551  ARG553  GLY616  TRP617  ASP618  TYR619  PRO620  LYS621  CYS622 
 ASP623  PHE694  ASN695  SER759  ASP760  ASP761  ALA762  ILE779  LEU786  VAL792 
 PHE793  MET794  SER795  GLU796  ALA797  LYS798  CYS799  TRP800  GLU811  SER814 

> <Gold.Protein.RotatedAtoms>
  151.4250  135.1002  159.9625 H   0  0  0  0  0  0  0  0  0  0  0  0  # atno 6907 bound_to 6896
  152.4975  133.8671  159.7290 H   0  0  0  0  0  0  0  0  0  0  0  0  # atno 6908 bound_to 6896
  150.9196  133.6839  159.2863 H   0  0  0  0  0  0  0  0  0  0  0  0  # atno 6909 bound_to 6896
  146.2442  140.0923  142.8351 H   0  0  0  0  0  0  0  0  0  0  0  0  # atno 7974 bound_to 7965
  155.4797  140.0559  157.2969 H   0  0  0  0  0  0  0  0  0  0  0  0  # atno 8008 bound_to 7997
  154.4665  140.2021  156.0057 H   0  0  0  0  0  0  0  0  0  0  0  0  # atno 8009 bound_to 7997
  156.0983  140.3223  155.7912 H   0  0  0  0  0  0  0  0  0  0  0  0  # atno 8010 bound_to 7997
  139.5256  144.6567  151.5139 H   0  0  0  0  0  0  0  0  0  0  0  0  # atno 10167 bound_to 10162
  156.1975  130.4155  149.9287 H   0  0  0  0  0  0  0  0  0  0  0  0  # atno 10718 bound_to 10713
  153.5321  135.3576  155.2680 H   0  0  0  0  0  0  0  0  0  0  0  0  # atno 10763 bound_to 10752
  154.8726  135.4071  154.3140 H   0  0  0  0  0  0  0  0  0  0  0  0  # atno 10764 bound_to 10752
  153.3830  135.7069  153.6619 H   0  0  0  0  0  0  0  0  0  0  0  0  # atno 10765 bound_to 10752
  140.6686  133.9256  155.8480 H   0  0  0  0  0  0  0  0  0  0  0  0  # atno 11005 bound_to 11000
  145.0640  140.9108  143.4922 LP  0  0  0  0  0  0  0  0  0  0  0  0  # atno 17320 bound_to 7965
  145.1044  139.2800  143.5670 LP  0  0  0  0  0  0  0  0  0  0  0  0  # atno 17321 bound_to 7965
  140.6397  143.8914  150.6680 LP  0  0  0  0  0  0  0  0  0  0  0  0  # atno 17342 bound_to 10162
  140.2245  143.3783  152.1616 LP  0  0  0  0  0  0  0  0  0  0  0  0  # atno 17343 bound_to 10162
  156.7007  130.8932  151.3599 LP  0  0  0  0  0  0  0  0  0  0  0  0  # atno 17370 bound_to 10713
  157.6966  130.9288  150.0662 LP  0  0  0  0  0  0  0  0  0  0  0  0  # atno 17371 bound_to 10713
  141.0409  134.0622  157.3902 LP  0  0  0  0  0  0  0  0  0  0  0  0  # atno 17394 bound_to 11000
  139.8989  135.0156  156.7170 LP  0  0  0  0  0  0  0  0  0  0  0  0  # atno 17395 bound_to 11000

$$$$
