AV-unprocessed.smi:564|AV-procd|sdf|2950|dock5
  -GOLD-   2262023453D 1   1.00000     0.00000
 Structure written by MMmdl.
 50 51  0  0  0  0  0  0  0  0  2 V2000
  149.2962  140.9218  154.5537 C   0  0  0  0  0  0  0  0  0  0  0  0
  149.9523  140.3593  155.7826 C   0  0  0  0  0  0  0  0  0  0  0  0
  150.0792  141.1223  156.8549 N   0  0  0  0  0  0  0  0  0  0  0  0
  150.6946  140.3404  157.7641 N   0  0  0  0  0  0  0  0  0  0  0  0
  150.9958  140.8776  159.0769 C   0  0  0  0  0  0  0  0  0  0  0  0
  150.9483  139.0768  157.2686 C   0  0  0  0  0  0  0  0  0  0  0  0
  151.6181  138.0188  158.0850 C   0  0  0  0  0  0  0  0  0  0  0  0
  150.4747  139.0476  155.9839 C   0  0  0  0  0  0  0  0  0  0  0  0
  150.4817  137.8998  155.0052 C   0  0  0  0  0  0  0  0  0  0  0  0
  149.4542  136.8638  155.4566 C   0  0  0  0  0  0  0  0  0  0  0  0
  149.4810  136.4249  156.6057 O   0  0  0  0  0  0  0  0  0  0  0  0
  148.5223  136.5207  154.5543 N   0  0  0  0  0  0  0  0  0  0  0  0
  147.3511  135.6944  154.8278 C   0  0  0  0  0  0  0  0  0  0  0  0
  146.0912  136.1871  154.0795 C   0  0  0  0  0  0  0  0  0  0  0  0
  146.0525  135.7745  152.6450 N   0  3  1  0  0  0  0  0  0  0  0  0
  145.6322  134.3506  152.5102 C   0  0  0  0  0  0  0  0  0  0  0  0
  145.7006  133.8591  151.0587 C   0  0  0  0  0  0  0  0  0  0  0  0
  144.8361  134.7391  150.1576 C   0  0  0  0  0  0  0  0  0  0  0  0
  145.2874  136.1944  150.2934 C   0  0  0  0  0  0  0  0  0  0  0  0
  145.2583  136.6861  151.7581 C   0  0  2  0  0  0  0  0  0  0  0  0
  145.7640  138.1437  151.7872 C   0  0  0  0  0  0  0  0  0  0  0  0
  148.3152  140.4741  154.3962 H   0  0  0  0  0  0  0  0  0  0  0  0
  149.8977  140.7273  153.6657 H   0  0  0  0  0  0  0  0  0  0  0  0
  149.1583  142.0014  154.6274 H   0  0  0  0  0  0  0  0  0  0  0  0
  152.0676  140.8094  159.2640 H   0  0  0  0  0  0  0  0  0  0  0  0
  150.4634  140.3064  159.8375 H   0  0  0  0  0  0  0  0  0  0  0  0
  150.6916  141.9230  159.1451 H   0  0  0  0  0  0  0  0  0  0  0  0
  151.5239  137.0396  157.6157 H   0  0  0  0  0  0  0  0  0  0  0  0
  151.1763  137.9519  159.0794 H   0  0  0  0  0  0  0  0  0  0  0  0
  152.6802  138.2355  158.2001 H   0  0  0  0  0  0  0  0  0  0  0  0
  150.2407  138.2295  153.9941 H   0  0  0  0  0  0  0  0  0  0  0  0
  151.4647  137.4312  154.9450 H   0  0  0  0  0  0  0  0  0  0  0  0
  148.5954  136.9167  153.6279 H   0  0  0  0  0  0  0  0  0  0  0  0
  147.5891  134.6724  154.5334 H   0  0  0  0  0  0  0  0  0  0  0  0
  147.1630  135.6593  155.9019 H   0  0  0  0  0  0  0  0  0  0  0  0
  145.1873  135.8535  154.5909 H   0  0  0  0  0  0  0  0  0  0  0  0
  146.0950  137.2699  154.1688 H   0  0  0  0  0  0  0  0  0  0  0  0
  146.2703  133.7094  153.1172 H   0  0  0  0  0  0  0  0  0  0  0  0
  144.6166  134.2351  152.8924 H   0  0  0  0  0  0  0  0  0  0  0  0
  146.7332  133.8721  150.7094 H   0  0  0  0  0  0  0  0  0  0  0  0
  145.3662  132.8230  150.9989 H   0  0  0  0  0  0  0  0  0  0  0  0
  144.9184  134.4135  149.1200 H   0  0  0  0  0  0  0  0  0  0  0  0
  143.7859  134.6450  150.4366 H   0  0  0  0  0  0  0  0  0  0  0  0
  146.2965  136.2937  149.8938 H   0  0  0  0  0  0  0  0  0  0  0  0
  144.6512  136.8264  149.6729 H   0  0  0  0  0  0  0  0  0  0  0  0
  144.2229  136.6737  152.1025 H   0  0  0  0  0  0  0  0  0  0  0  0
  145.3018  138.7328  150.9946 H   0  0  0  0  0  0  0  0  0  0  0  0
  146.8435  138.1922  151.6435 H   0  0  0  0  0  0  0  0  0  0  0  0
  145.5203  138.6537  152.7183 H   0  0  0  0  0  0  0  0  0  0  0  0
  147.0042  135.8294  152.3104 H   0  0  0  0  0  0  0  0  0  0  0  0
  1  2  1  0  0  0  0
  1 22  1  0  0  0  0
  1 23  1  0  0  0  0
  1 24  1  0  0  0  0
  2  8  1  0  0  0  0
  2  3  2  0  0  0  0
  3  4  1  0  0  0  0
  4  5  1  0  0  0  0
  4  6  1  0  0  0  0
  5 25  1  0  0  0  0
  5 26  1  0  0  0  0
  5 27  1  0  0  0  0
  6  7  1  0  0  0  0
  6  8  2  0  0  0  0
  7 28  1  0  0  0  0
  7 29  1  0  0  0  0
  7 30  1  0  0  0  0
  8  9  1  0  0  0  0
  9 10  1  0  0  0  0
  9 31  1  0  0  0  0
  9 32  1  0  0  0  0
 10 11  2  0  0  0  0
 10 12  1  0  0  0  0
 12 13  1  0  0  0  0
 12 33  1  0  0  0  0
 13 14  1  0  0  0  0
 13 34  1  0  0  0  0
 13 35  1  0  0  0  0
 14 15  1  0  0  0  0
 14 36  1  0  0  0  0
 14 37  1  0  0  0  0
 15 20  1  0  0  0  0
 15 16  1  0  0  0  0
 15 50  1  0  0  0  0
 16 17  1  0  0  0  0
 16 38  1  0  0  0  0
 16 39  1  0  0  0  0
 17 18  1  0  0  0  0
 17 40  1  0  0  0  0
 17 41  1  0  0  0  0
 18 19  1  0  0  0  0
 18 42  1  0  0  0  0
 18 43  1  0  0  0  0
 19 20  1  0  0  0  0
 19 44  1  0  0  0  0
 19 45  1  0  0  0  0
 20 21  1  0  0  0  0
 20 46  1  0  0  0  0
 21 47  1  0  0  0  0
 21 48  1  0  0  0  0
 21 49  1  0  0  0  0
M  CHG  1  15   1
M  END
> <s_m_source_file>
AV-unprocessed.smi

> <i_m_source_file_index>
564

> <i_lp_mmshare_version>
43012

> <i_f3d_flags>
0

> <s_epik_input>
W0NIM11jMW5uKFtDSDNdKWMoW0NIM10pYzFbQ0gyXUMoPU8pW05IXVtDSDJdW0NIMl1OMltDSDJdW0NIMl1bQ0gyXVtDSDJdW0NASF0yW0NIM10=

> <s_epik_cmdline>
J2VwaWtfcHl0aG9uJywgJy1waCcsICc3LjAnLCAnLXRuJywgJzgnLCAnLW1hJywgJzIwMCcsICctbWV0YWxfYmluZGluZycsICctaW1hZScsICc8aW5maWxlLm1hZT4nLCAnLW9tYWUnLCAnPG91dGZpbGUubWFlPic=

> <r_lp_tautomer_probability>
1

> <r_epik_Ionization_Penalty>
0.00456826

> <r_epik_Ionization_Penalty_Charging>
0.00240401

> <r_epik_Ionization_Penalty_Neutral>
0.00216425

> <r_epik_State_Penalty>
-0

> <r_epik_Charging_Adjusted_Penalty>
0.00240401

> <i_epik_Tot_Q>
1

> <i_epik_Tot_abs_Q>
1

> <r_epik_Metal_State_Penalty>
-0

> <b_epik_Metal_Only>
0

> <s_lp_Force_Field>
OPLS_2005

> <r_lp_Energy>
16.3925

> <b_lp_Chiralities_Consistent>
1

> <s_lp_Variant>
AV-unprocessed.smi:564-4

> <Gold.Version>
5.8.1

> <Gold.Id.Protein>
6NUR|6NUR_protein|mol2

> <Gold.PLP.Fitness>
41.6317

> <Gold.PLP.PLP>
-34.9691

> <Gold.PLP.part.hbond>
-2.0000

> <Gold.PLP.part.metal>
0.0000

> <Gold.PLP.part.buried>
-1.6704

> <Gold.PLP.part.nonpolar>
-30.9901

> <Gold.PLP.part.repulsive>
0.0973

> <Gold.PLP.ligand.clash>
0.0000

> <Gold.PLP.ligand.torsion>
0.6478

> <Gold.PLP.Chemscore.Hbond>
2.6400

> <Gold.PLP.Chemscore.CHOScore>
0.0000

> <Gold.PLP.Chemscore.Metal>
0.0000

> <Gold.Chemscore.Hbonds>
donor molecule, donor type, donor heavy atom, donor atom, acceptor molecule, acceptor atom, score
      L1  H    12    33       P1  7948  0.72
      L1  H    15    50       P1  7948  2.00

> <Gold.PLP.Chemscore.Internal.Correction>
0.0381

> <Gold.Rescore>
     Score         DG    S(hbond)    S(metal)    S(lipo)     H(rot)  DE(clash)    DE(int)     intcor
     16.27     -17.04       1.73        0.00      84.71       1.61       0.06       0.71       ----

> <Gold.Chemscore.Fitness>
16.2672

> <Gold.Chemscore.DG>
-17.0379

> <Gold.Chemscore.ZeroCoef>
-5.4800

> <Gold.Chemscore.Hbond>
1.7305

> <Gold.Chemscore.Metal>
0.0000

> <Gold.Chemscore.Lipo>
84.7058

> <Gold.Chemscore.Internal_Hbond>
0.0000

> <Gold.Chemscore.DEClash>
0.0572

> <Gold.Chemscore.DEInternal>
0.7135

> <Gold.Chemscore.Rot>
1.6142

> <Gold.Chemscore.Internal.Correction>
   9.000000E+99

> <Gold.Chemscore.Hbonds>
donor molecule, donor type, donor heavy atom, donor atom, acceptor molecule, acceptor atom, score
      L1  H    12    33       P1  7948  0.72
      L1  H    15    50       P1  7948  0.94

> <Gold.Chemscore.Hbond.Weighted>
-5.7797

> <Gold.Chemscore.Metal.Weighted>
-0.0000

> <Gold.Chemscore.Lipo.Weighted>
-9.9106

> <Gold.Chemscore.Internal_Hbond.Weighted>
0.0000

> <Gold.Chemscore.DEClash.Weighted>
0.0572

> <Gold.Chemscore.DEInternal.Weighted>
0.7135

> <Gold.Chemscore.Rot.Weighted>
4.1324

> <Gold.Chemscore.Internal.Correction.Weighted>
   9.000000E+99

> <Gold.Protein.RotatedTorsions>
[ 6907 6896 6895 6894 ] final   11.92 input  -60.11 | X-H torsion
[ 7974 7965 7964 7962 ] final  130.45 input  175.53 | X-H torsion
[ 8008 7997 7996 7995 ] final   24.27 input   59.86 | X-H torsion
[ 10167 10162 10161 10158 ] final  -25.38 input  -65.29 | X-H torsion
[ 10718 10713 10712 10709 ] final   -2.35 input   66.30 | X-H torsion
[ 10763 10752 10751 10750 ] final  -73.69 input  -60.55 | X-H torsion
[ 11005 11000 10999 10996 ] final   44.92 input  -57.11 | X-H torsion

> <Gold.Protein.ActiveResidues>
 VAL166  LYS551  ARG553  GLY616  TRP617  ASP618  TYR619  PRO620  LYS621  CYS622 
 ASP623  PHE694  ASN695  SER759  ASP760  ASP761  ALA762  ILE779  LEU786  VAL792 
 PHE793  MET794  SER795  GLU796  ALA797  LYS798  CYS799  TRP800  GLU811  SER814 

> <Gold.Protein.RotatedAtoms>
  151.7621  135.0807  160.0346 H   0  0  0  0  0  0  0  0  0  0  0  0  # atno 6907 bound_to 6896
  152.3346  133.5993  159.5842 H   0  0  0  0  0  0  0  0  0  0  0  0  # atno 6908 bound_to 6896
  150.7443  133.9732  159.3594 H   0  0  0  0  0  0  0  0  0  0  0  0  # atno 6909 bound_to 6896
  145.0178  139.4160  143.5212 H   0  0  0  0  0  0  0  0  0  0  0  0  # atno 7974 bound_to 7965
  154.9937  140.3117  155.4896 H   0  0  0  0  0  0  0  0  0  0  0  0  # atno 8008 bound_to 7997
  156.2936  140.2244  156.4983 H   0  0  0  0  0  0  0  0  0  0  0  0  # atno 8009 bound_to 7997
  154.7681  140.0454  157.1016 H   0  0  0  0  0  0  0  0  0  0  0  0  # atno 8010 bound_to 7997
  140.7286  143.4270  151.0862 H   0  0  0  0  0  0  0  0  0  0  0  0  # atno 10167 bound_to 10162
  156.7921  130.5365  149.5734 H   0  0  0  0  0  0  0  0  0  0  0  0  # atno 10718 bound_to 10713
  154.4629  135.5889  153.6268 H   0  0  0  0  0  0  0  0  0  0  0  0  # atno 10763 bound_to 10752
  152.9825  135.6048  154.3464 H   0  0  0  0  0  0  0  0  0  0  0  0  # atno 10764 bound_to 10752
  154.3337  135.2842  155.2437 H   0  0  0  0  0  0  0  0  0  0  0  0  # atno 10765 bound_to 10752
  140.1507  134.4465  155.8384 H   0  0  0  0  0  0  0  0  0  0  0  0  # atno 11005 bound_to 11000
  146.3481  139.9659  142.8712 LP  0  0  0  0  0  0  0  0  0  0  0  0  # atno 17320 bound_to 7965
  145.1936  140.9823  143.4197 LP  0  0  0  0  0  0  0  0  0  0  0  0  # atno 17321 bound_to 7965
  139.7922  143.8202  152.3153 LP  0  0  0  0  0  0  0  0  0  0  0  0  # atno 17342 bound_to 10162
  139.8190  144.7304  150.9597 LP  0  0  0  0  0  0  0  0  0  0  0  0  # atno 17343 bound_to 10162
  156.1153  130.6070  151.0110 LP  0  0  0  0  0  0  0  0  0  0  0  0  # atno 17370 bound_to 10713
  157.6595  131.0883  150.7870 LP  0  0  0  0  0  0  0  0  0  0  0  0  # atno 17371 bound_to 10713
  141.2198  133.6871  156.7417 LP  0  0  0  0  0  0  0  0  0  0  0  0  # atno 17394 bound_to 11000
  140.2608  134.8468  157.3756 LP  0  0  0  0  0  0  0  0  0  0  0  0  # atno 17395 bound_to 11000

$$$$
