AV-unprocessed.smi:2020|AV-procd|sdf|8174|dock9
  -GOLD-   2272010423D 1   1.00000     0.00000
 Structure written by MMmdl.
 40 41  0  0  0  0  0  0  0  0  1 V2000
  152.3243  144.5831  157.1320 C   0  0  0  0  0  0  0  0  0  0  0  0
  152.3247  144.4511  158.6162 C   0  0  0  0  0  0  0  0  0  0  0  0
  152.7966  143.3800  159.2586 N   0  0  0  0  0  0  0  0  0  0  0  0
  152.6930  143.4960  160.6484 C   0  0  0  0  0  0  0  0  0  0  0  0
  153.1794  142.3862  161.5301 C   0  0  0  0  0  0  0  0  0  0  0  0
  153.8054  141.2357  160.7238 C   0  0  0  0  0  0  0  0  0  0  0  0
  153.0049  140.9003  159.5519 N   0  0  0  0  0  0  0  0  0  0  0  0
  153.2381  139.8650  158.7332 C   0  0  0  0  0  0  0  0  0  0  0  0
  154.1653  139.0675  158.8760 O   0  0  0  0  0  0  0  0  0  0  0  0
  152.3420  139.8067  157.7380 N   0  0  0  0  0  0  0  0  0  0  0  0
  152.3224  138.8009  156.6801 C   0  0  2  0  0  0  0  0  0  0  0  0
  152.3409  139.4704  155.2910 C   0  0  0  0  0  0  0  0  0  0  0  0
  152.2579  138.4284  154.1620 C   0  0  0  0  0  0  0  0  0  0  0  0
  151.0399  137.4980  154.3145 C   0  0  2  0  0  0  0  0  0  0  0  0
  149.8477  138.2150  154.0619 O   0  0  0  0  0  0  0  0  0  0  0  0
  150.9850  136.8611  155.7160 C   0  0  0  0  0  0  0  0  0  0  0  0
  151.0764  137.9103  156.8380 C   0  0  0  0  0  0  0  0  0  0  0  0
  152.1300  144.6811  161.0515 C   0  0  0  0  0  0  0  0  0  0  0  0
  151.7119  145.6960  159.6983 S   0  0  0  0  0  0  0  0  0  0  0  0
  152.1093  143.6208  156.6662 H   0  0  0  0  0  0  0  0  0  0  0  0
  153.2992  144.9301  156.7896 H   0  0  0  0  0  0  0  0  0  0  0  0
  151.5660  145.3000  156.8166 H   0  0  0  0  0  0  0  0  0  0  0  0
  153.9125  142.7714  162.2399 H   0  0  0  0  0  0  0  0  0  0  0  0
  152.3526  142.0074  162.1323 H   0  0  0  0  0  0  0  0  0  0  0  0
  154.8231  141.4881  160.4207 H   0  0  0  0  0  0  0  0  0  0  0  0
  153.8795  140.3443  161.3471 H   0  0  0  0  0  0  0  0  0  0  0  0
  152.2177  141.4996  159.3509 H   0  0  0  0  0  0  0  0  0  0  0  0
  151.6182  140.5097  157.7089 H   0  0  0  0  0  0  0  0  0  0  0  0
  153.2061  138.1675  156.7794 H   0  0  0  0  0  0  0  0  0  0  0  0
  151.5065  140.1680  155.2059 H   0  0  0  0  0  0  0  0  0  0  0  0
  153.2484  140.0630  155.1700 H   0  0  0  0  0  0  0  0  0  0  0  0
  152.2356  138.9266  153.1922 H   0  0  0  0  0  0  0  0  0  0  0  0
  153.1676  137.8266  154.1721 H   0  0  0  0  0  0  0  0  0  0  0  0
  151.0995  136.7070  153.5664 H   0  0  0  0  0  0  0  0  0  0  0  0
  149.3800  137.7841  153.3629 H   0  0  0  0  0  0  0  0  0  0  0  0
  150.0748  136.2707  155.8275 H   0  0  0  0  0  0  0  0  0  0  0  0
  151.8151  136.1611  155.8202 H   0  0  0  0  0  0  0  0  0  0  0  0
  151.0975  137.4075  157.8057 H   0  0  0  0  0  0  0  0  0  0  0  0
  150.1766  138.5273  156.8322 H   0  0  0  0  0  0  0  0  0  0  0  0
  151.9379  145.0184  162.0593 H   0  0  0  0  0  0  0  0  0  0  0  0
  1  2  1  0  0  0  0
  1 20  1  0  0  0  0
  1 21  1  0  0  0  0
  1 22  1  0  0  0  0
  2 19  1  0  0  0  0
  2  3  2  0  0  0  0
  3  4  1  0  0  0  0
  4  5  1  0  0  0  0
  4 18  2  0  0  0  0
  5  6  1  0  0  0  0
  5 23  1  0  0  0  0
  5 24  1  0  0  0  0
  6  7  1  0  0  0  0
  6 25  1  0  0  0  0
  6 26  1  0  0  0  0
  7  8  1  0  0  0  0
  7 27  1  0  0  0  0
  8  9  2  0  0  0  0
  8 10  1  0  0  0  0
 10 11  1  0  0  0  0
 10 28  1  0  0  0  0
 11 17  1  0  0  0  0
 11 12  1  0  0  0  0
 11 29  1  0  0  0  0
 12 13  1  0  0  0  0
 12 30  1  0  0  0  0
 12 31  1  0  0  0  0
 13 14  1  0  0  0  0
 13 32  1  0  0  0  0
 13 33  1  0  0  0  0
 14 15  1  0  0  0  0
 14 16  1  0  0  0  0
 14 34  1  0  0  0  0
 15 35  1  0  0  0  0
 16 17  1  0  0  0  0
 16 36  1  0  0  0  0
 16 37  1  0  0  0  0
 17 38  1  0  0  0  0
 17 39  1  0  0  0  0
 18 19  1  0  0  0  0
 18 40  1  0  0  0  0
M  END
> <s_m_source_file>
AV-unprocessed.smi

> <i_m_source_file_index>
2020

> <i_lp_mmshare_version>
43012

> <i_f3d_flags>
0

> <s_epik_input>
W0NIM11jMW5jKFtjSF1zMSlbQ0gyXVtDSDJdW05IXUMoPU8pW05IXVtDQEBIXTJbQ0gyXVtDSDJdW0NAQEhdKFtPSF0pW0NIMl1bQ0gyXTI=

> <s_epik_cmdline>
J2VwaWtfcHl0aG9uJywgJy1waCcsICc3LjAnLCAnLXRuJywgJzgnLCAnLW1hJywgJzIwMCcsICctbWV0YWxfYmluZGluZycsICctaW1hZScsICc8aW5maWxlLm1hZT4nLCAnLW9tYWUnLCAnPG91dGZpbGUubWFlPic=

> <r_epik_Ionization_Penalty>
0.00202099

> <r_epik_Ionization_Penalty_Charging>
0

> <r_epik_Ionization_Penalty_Neutral>
0.00202099

> <r_epik_State_Penalty>
0.00133629

> <r_epik_Charging_Adjusted_Penalty>
0.00133629

> <i_epik_Tot_Q>
0

> <i_epik_Tot_abs_Q>
0

> <r_epik_Metal_State_Penalty>
-0

> <b_epik_Metal_Only>
0

> <s_lp_Force_Field>
OPLS_2005

> <r_lp_Energy>
2.55027

> <b_lp_Chiralities_Consistent>
1

> <s_lp_Variant>
AV-unprocessed.smi:2020-2

> <Gold.Version>
5.8.1

> <Gold.Id.Protein>
6NUR|6NUR_protein|mol2

> <Gold.PLP.Fitness>
46.8841

> <Gold.PLP.PLP>
-42.4010

> <Gold.PLP.part.hbond>
-2.0000

> <Gold.PLP.part.metal>
0.0000

> <Gold.PLP.part.buried>
-4.2041

> <Gold.PLP.part.nonpolar>
-35.3872

> <Gold.PLP.part.repulsive>
0.1964

> <Gold.PLP.ligand.clash>
0.0000

> <Gold.PLP.ligand.torsion>
0.1275

> <Gold.PLP.Chemscore.Hbond>
1.5754

> <Gold.PLP.Chemscore.CHOScore>
0.0000

> <Gold.PLP.Chemscore.Metal>
0.0000

> <Gold.Chemscore.Hbonds>
donor molecule, donor type, donor heavy atom, donor atom, acceptor molecule, acceptor atom, score
      L1  H    15    35       P1  7948  0.65
      P1  H  7997  8008       L1     9  0.42

> <Gold.PLP.Chemscore.Internal.Correction>
0.0119

> <Gold.Rescore>
     Score         DG    S(hbond)    S(metal)    S(lipo)     H(rot)  DE(clash)    DE(int)     intcor
     16.30     -17.72       0.98        0.00     122.71       2.10       1.09       0.34       ----

> <Gold.Chemscore.Fitness>
16.2951

> <Gold.Chemscore.DG>
-17.7219

> <Gold.Chemscore.ZeroCoef>
-5.4800

> <Gold.Chemscore.Hbond>
0.9762

> <Gold.Chemscore.Metal>
0.0000

> <Gold.Chemscore.Lipo>
122.7071

> <Gold.Chemscore.Internal_Hbond>
0.0000

> <Gold.Chemscore.DEClash>
1.0905

> <Gold.Chemscore.DEInternal>
0.3362

> <Gold.Chemscore.Rot>
2.0997

> <Gold.Chemscore.Internal.Correction>
   9.000000E+99

> <Gold.Chemscore.Hbonds>
donor molecule, donor type, donor heavy atom, donor atom, acceptor molecule, acceptor atom, score
      L1  H    15    35       P1  7948  0.62
      P1  H  7997  8008       L1     9  0.03

> <Gold.Chemscore.Hbond.Weighted>
-3.2603

> <Gold.Chemscore.Metal.Weighted>
-0.0000

> <Gold.Chemscore.Lipo.Weighted>
-14.3567

> <Gold.Chemscore.Internal_Hbond.Weighted>
0.0000

> <Gold.Chemscore.DEClash.Weighted>
1.0905

> <Gold.Chemscore.DEInternal.Weighted>
0.3362

> <Gold.Chemscore.Rot.Weighted>
5.3752

> <Gold.Chemscore.Internal.Correction.Weighted>
   9.000000E+99

> <Gold.Protein.RotatedTorsions>
[ 6907 6896 6895 6894 ] final   -3.83 input  -60.11 | X-H torsion
[ 7974 7965 7964 7962 ] final   85.57 input  175.53 | X-H torsion
[ 8008 7997 7996 7995 ] final -133.66 input   59.86 | X-H torsion
[ 10167 10162 10161 10158 ] final -174.79 input  -65.29 | X-H torsion
[ 10718 10713 10712 10709 ] final  -93.58 input   66.30 | X-H torsion
[ 10763 10752 10751 10750 ] final  -30.85 input  -60.55 | X-H torsion
[ 11005 11000 10999 10996 ] final  -10.00 input  -57.11 | X-H torsion

> <Gold.Protein.ActiveResidues>
 VAL166  LYS551  ARG553  GLY616  TRP617  ASP618  TYR619  PRO620  LYS621  CYS622 
 ASP623  PHE694  ASN695  SER759  ASP760  ASP761  ALA762  ILE779  LEU786  VAL792 
 PHE793  MET794  SER795  GLU796  ALA797  LYS798  CYS799  TRP800  GLU811  SER814 

> <Gold.Protein.RotatedAtoms>
  151.5075  135.1064  159.9844 H   0  0  0  0  0  0  0  0  0  0  0  0  # atno 6907 bound_to 6896
  152.4676  133.7953  159.6934 H   0  0  0  0  0  0  0  0  0  0  0  0  # atno 6908 bound_to 6896
  150.8667  133.7500  159.3000 H   0  0  0  0  0  0  0  0  0  0  0  0  # atno 6909 bound_to 6896
  145.5837  139.2328  143.2338 H   0  0  0  0  0  0  0  0  0  0  0  0  # atno 7974 bound_to 7965
  155.3491  140.0476  157.3046 H   0  0  0  0  0  0  0  0  0  0  0  0  # atno 8008 bound_to 7997
  154.5236  140.2233  155.8894 H   0  0  0  0  0  0  0  0  0  0  0  0  # atno 8009 bound_to 7997
  156.1716  140.3094  155.8990 H   0  0  0  0  0  0  0  0  0  0  0  0  # atno 8010 bound_to 7997
  139.5615  144.1858  152.1246 H   0  0  0  0  0  0  0  0  0  0  0  0  # atno 10167 bound_to 10162
  156.0015  130.5032  150.5797 H   0  0  0  0  0  0  0  0  0  0  0  0  # atno 10718 bound_to 10713
  153.7877  135.6900  153.4877 H   0  0  0  0  0  0  0  0  0  0  0  0  # atno 10763 bound_to 10752
  153.1770  135.4521  154.9976 H   0  0  0  0  0  0  0  0  0  0  0  0  # atno 10764 bound_to 10752
  154.8057  135.3356  154.7375 H   0  0  0  0  0  0  0  0  0  0  0  0  # atno 10765 bound_to 10752
  140.7401  133.8677  155.8960 H   0  0  0  0  0  0  0  0  0  0  0  0  # atno 11005 bound_to 11000
  146.1697  140.6664  142.9239 LP  0  0  0  0  0  0  0  0  0  0  0  0  # atno 17320 bound_to 7965
  144.7382  140.4868  143.6888 LP  0  0  0  0  0  0  0  0  0  0  0  0  # atno 17321 bound_to 7965
  140.1373  144.5234  150.6766 LP  0  0  0  0  0  0  0  0  0  0  0  0  # atno 17342 bound_to 10162
  140.6895  143.2368  151.5170 LP  0  0  0  0  0  0  0  0  0  0  0  0  # atno 17343 bound_to 10162
  157.3679  131.0761  151.1582 LP  0  0  0  0  0  0  0  0  0  0  0  0  # atno 17370 bound_to 10713
  157.2345  130.6540  149.5863 LP  0  0  0  0  0  0  0  0  0  0  0  0  # atno 17371 bound_to 10713
  140.9844  134.1362  157.4465 LP  0  0  0  0  0  0  0  0  0  0  0  0  # atno 17394 bound_to 11000
  139.8808  135.0021  156.6106 LP  0  0  0  0  0  0  0  0  0  0  0  0  # atno 17395 bound_to 11000

$$$$
