AV-unprocessed.smi:1420|AV-procd|sdf|5786|dock10
  -GOLD-   22720 5433D 1   1.00000     0.00000
 Structure written by MMmdl.
 38 39  0  0  0  0  0  0  0  0  1 V2000
  152.4680  139.1333  155.7182 C   0  0  0  0  0  0  0  0  0  0  0  0
  151.4553  140.2841  155.9541 C   0  0  2  0  0  0  0  0  0  0  0  0
  150.9238  140.1946  157.4147 C   0  0  0  0  0  0  0  0  0  0  0  0
  151.6429  141.0661  158.3380 N   0  0  0  0  0  0  0  0  0  0  0  0
  152.8253  140.7822  158.9050 C   0  0  0  0  0  0  0  0  0  0  0  0
  153.4787  139.7712  158.6478 O   0  0  0  0  0  0  0  0  0  0  0  0
  153.3350  141.7808  159.9436 C   0  0  0  0  0  0  0  0  0  0  0  0
  152.6947  143.0716  159.7666 N   0  0  0  0  0  0  0  0  0  0  0  0
  152.8282  143.9565  158.7168 C   0  0  0  0  0  0  0  0  0  0  0  0
  152.0513  145.0430  159.0000 C   0  0  0  0  0  0  0  0  0  0  0  0
  151.4744  144.7269  160.2619 C   0  0  0  0  0  0  0  0  0  0  0  0
  151.8601  143.5460  160.7180 N   0  0  0  0  0  0  0  0  0  0  0  0
  150.3742  140.3161  154.9416 N   0  0  0  0  0  0  0  0  0  0  0  0
  149.4447  141.4339  155.1434 C   0  0  0  0  0  0  0  0  0  0  0  0
  148.3030  141.4559  154.1129 C   0  0  0  0  0  0  0  0  0  0  0  0
  147.5967  140.2240  154.1559 O   0  0  0  0  0  0  0  0  0  0  0  0
  148.4440  139.1157  153.8871 C   0  0  0  0  0  0  0  0  0  0  0  0
  149.5894  139.0759  154.9136 C   0  0  0  0  0  0  0  0  0  0  0  0
  153.2359  139.0874  156.4897 H   0  0  0  0  0  0  0  0  0  0  0  0
  153.0165  139.2510  154.7849 H   0  0  0  0  0  0  0  0  0  0  0  0
  151.9667  138.1652  155.6969 H   0  0  0  0  0  0  0  0  0  0  0  0
  152.0148  141.2173  155.8722 H   0  0  0  0  0  0  0  0  0  0  0  0
  149.8694  140.4570  157.4869 H   0  0  0  0  0  0  0  0  0  0  0  0
  151.0114  139.1701  157.7780 H   0  0  0  0  0  0  0  0  0  0  0  0
  151.1788  141.9198  158.6136 H   0  0  0  0  0  0  0  0  0  0  0  0
  153.1216  141.4159  160.9490 H   0  0  0  0  0  0  0  0  0  0  0  0
  154.4176  141.8954  159.8652 H   0  0  0  0  0  0  0  0  0  0  0  0
  153.4609  143.7426  157.8678 H   0  0  0  0  0  0  0  0  0  0  0  0
  151.9176  145.9296  158.3983 H   0  0  0  0  0  0  0  0  0  0  0  0
  150.7922  145.3166  160.8561 H   0  0  0  0  0  0  0  0  0  0  0  0
  149.0245  141.3895  156.1494 H   0  0  0  0  0  0  0  0  0  0  0  0
  149.9656  142.3861  155.0584 H   0  0  0  0  0  0  0  0  0  0  0  0
  147.6119  142.2702  154.3307 H   0  0  0  0  0  0  0  0  0  0  0  0
  148.6926  141.6268  153.1082 H   0  0  0  0  0  0  0  0  0  0  0  0
  147.8568  138.1986  153.9391 H   0  0  0  0  0  0  0  0  0  0  0  0
  148.8376  139.1860  152.8720 H   0  0  0  0  0  0  0  0  0  0  0  0
  150.2162  138.2264  154.6516 H   0  0  0  0  0  0  0  0  0  0  0  0
  149.1800  138.8748  155.9049 H   0  0  0  0  0  0  0  0  0  0  0  0
  1  2  1  0  0  0  0
  1 19  1  0  0  0  0
  1 20  1  0  0  0  0
  1 21  1  0  0  0  0
  2  3  1  0  0  0  0
  2 13  1  0  0  0  0
  2 22  1  0  0  0  0
  3  4  1  0  0  0  0
  3 23  1  0  0  0  0
  3 24  1  0  0  0  0
  4  5  1  0  0  0  0
  4 25  1  0  0  0  0
  5  6  2  0  0  0  0
  5  7  1  0  0  0  0
  7  8  1  0  0  0  0
  7 26  1  0  0  0  0
  7 27  1  0  0  0  0
  8 12  1  0  0  0  0
  8  9  1  0  0  0  0
  9 10  2  0  0  0  0
  9 28  1  0  0  0  0
 10 11  1  0  0  0  0
 10 29  1  0  0  0  0
 11 12  2  0  0  0  0
 11 30  1  0  0  0  0
 13 18  1  0  0  0  0
 13 14  1  0  0  0  0
 14 15  1  0  0  0  0
 14 31  1  0  0  0  0
 14 32  1  0  0  0  0
 15 16  1  0  0  0  0
 15 33  1  0  0  0  0
 15 34  1  0  0  0  0
 16 17  1  0  0  0  0
 17 18  1  0  0  0  0
 17 35  1  0  0  0  0
 17 36  1  0  0  0  0
 18 37  1  0  0  0  0
 18 38  1  0  0  0  0
M  END
> <s_m_source_file>
AV-unprocessed.smi

> <i_m_source_file_index>
1420

> <i_lp_mmshare_version>
43012

> <i_f3d_flags>
0

> <s_epik_input>
W0NIMl0xW0NIMl1PW0NIMl1bQ0gyXU4xW0NASF0oW0NIM10pW0NIMl1bTkhdQyg9TylbQ0gyXW4yW2NIXVtjSF1bY0hdbjI=

> <s_epik_cmdline>
J2VwaWtfcHl0aG9uJywgJy1waCcsICc3LjAnLCAnLXRuJywgJzgnLCAnLW1hJywgJzIwMCcsICctbWV0YWxfYmluZGluZycsICctaW1hZScsICc8aW5maWxlLm1hZT4nLCAnLW9tYWUnLCAnPG91dGZpbGUubWFlPic=

> <r_lp_tautomer_probability>
1

> <r_epik_Ionization_Penalty>
0.196927

> <r_epik_Ionization_Penalty_Charging>
0

> <r_epik_Ionization_Penalty_Neutral>
0.196927

> <r_epik_State_Penalty>
0.186684

> <r_epik_Charging_Adjusted_Penalty>
0.186684

> <i_epik_Tot_Q>
0

> <i_epik_Tot_abs_Q>
0

> <r_epik_Metal_State_Penalty>
0.186682

> <b_epik_Metal_Only>
0

> <s_lp_Force_Field>
OPLS_2005

> <r_lp_Energy>
27.7246

> <b_lp_Chiralities_Consistent>
1

> <s_lp_Variant>
AV-unprocessed.smi:1420-1

> <Gold.Version>
5.8.1

> <Gold.Id.Protein>
6NUR|6NUR_protein|mol2

> <Gold.PLP.Fitness>
45.4660

> <Gold.PLP.PLP>
-42.5257

> <Gold.PLP.part.hbond>
-2.0000

> <Gold.PLP.part.metal>
0.0000

> <Gold.PLP.part.buried>
-3.5364

> <Gold.PLP.part.nonpolar>
-38.0294

> <Gold.PLP.part.repulsive>
0.3921

> <Gold.PLP.ligand.clash>
0.0000

> <Gold.PLP.ligand.torsion>
1.0364

> <Gold.PLP.Chemscore.Hbond>
1.6500

> <Gold.PLP.Chemscore.CHOScore>
0.0000

> <Gold.PLP.Chemscore.Metal>
0.0000

> <Gold.Chemscore.Hbonds>
donor molecule, donor type, donor heavy atom, donor atom, acceptor molecule, acceptor atom, score
      P1  H  7989  7998       L1    13  0.65
      P1  H  7997  8008       L1     6  1.00

> <Gold.PLP.Chemscore.Internal.Correction>
0.0631

> <Gold.Rescore>
     Score         DG    S(hbond)    S(metal)    S(lipo)     H(rot)  DE(clash)    DE(int)     intcor
     13.98     -15.04       0.96        0.00      95.12       1.87       0.01       1.05       ----

> <Gold.Chemscore.Fitness>
13.9806

> <Gold.Chemscore.DG>
-15.0438

> <Gold.Chemscore.ZeroCoef>
-5.4800

> <Gold.Chemscore.Hbond>
0.9621

> <Gold.Chemscore.Metal>
0.0000

> <Gold.Chemscore.Lipo>
95.1236

> <Gold.Chemscore.Internal_Hbond>
0.0000

> <Gold.Chemscore.DEClash>
0.0141

> <Gold.Chemscore.DEInternal>
1.0491

> <Gold.Chemscore.Rot>
1.8669

> <Gold.Chemscore.Internal.Correction>
   9.000000E+99

> <Gold.Chemscore.Hbonds>
donor molecule, donor type, donor heavy atom, donor atom, acceptor molecule, acceptor atom, score
      P1  H  7989  7998       L1    13  0.03
      P1  H  7997  8008       L1     6  0.80

> <Gold.Chemscore.Hbond.Weighted>
-3.2135

> <Gold.Chemscore.Metal.Weighted>
-0.0000

> <Gold.Chemscore.Lipo.Weighted>
-11.1295

> <Gold.Chemscore.Internal_Hbond.Weighted>
0.0000

> <Gold.Chemscore.DEClash.Weighted>
0.0141

> <Gold.Chemscore.DEInternal.Weighted>
1.0491

> <Gold.Chemscore.Rot.Weighted>
4.7792

> <Gold.Chemscore.Internal.Correction.Weighted>
   9.000000E+99

> <Gold.Protein.RotatedTorsions>
[ 6907 6896 6895 6894 ] final   99.98 input  -60.11 | X-H torsion
[ 7974 7965 7964 7962 ] final   53.60 input  175.53 | X-H torsion
[ 8008 7997 7996 7995 ] final  -91.04 input   59.86 | X-H torsion
[ 10167 10162 10161 10158 ] final   46.12 input  -65.29 | X-H torsion
[ 10718 10713 10712 10709 ] final   18.08 input   66.30 | X-H torsion
[ 10763 10752 10751 10750 ] final  -37.21 input  -60.55 | X-H torsion
[ 11005 11000 10999 10996 ] final -141.14 input  -57.11 | X-H torsion

> <Gold.Protein.ActiveResidues>
 VAL166  LYS551  ARG553  GLY616  TRP617  ASP618  TYR619  PRO620  LYS621  CYS622 
 ASP623  PHE694  ASN695  SER759  ASP760  ASP761  ALA762  ILE779  LEU786  VAL792 
 PHE793  MET794  SER795  GLU796  ALA797  LYS798  CYS799  TRP800  GLU811  SER814 

> <Gold.Protein.RotatedAtoms>
  152.5381  134.0346  159.8039 H   0  0  0  0  0  0  0  0  0  0  0  0  # atno 6907 bound_to 6896
  151.0512  133.5615  159.2649 H   0  0  0  0  0  0  0  0  0  0  0  0  # atno 6908 bound_to 6896
  151.2549  135.0642  159.9130 H   0  0  0  0  0  0  0  0  0  0  0  0  # atno 6909 bound_to 6896
  145.9695  139.4135  143.0199 H   0  0  0  0  0  0  0  0  0  0  0  0  # atno 7974 bound_to 7965
  154.7059  140.0524  157.0503 H   0  0  0  0  0  0  0  0  0  0  0  0  # atno 8008 bound_to 7997
  155.0621  140.3190  155.4638 H   0  0  0  0  0  0  0  0  0  0  0  0  # atno 8009 bound_to 7997
  156.2774  140.2097  156.5748 H   0  0  0  0  0  0  0  0  0  0  0  0  # atno 8010 bound_to 7997
  140.3172  144.2750  150.6189 H   0  0  0  0  0  0  0  0  0  0  0  0  # atno 10167 bound_to 10162
  157.0912  130.6428  149.5849 H   0  0  0  0  0  0  0  0  0  0  0  0  # atno 10718 bound_to 10713
  153.8926  135.6810  153.4760 H   0  0  0  0  0  0  0  0  0  0  0  0  # atno 10763 bound_to 10752
  153.1173  135.4756  154.9134 H   0  0  0  0  0  0  0  0  0  0  0  0  # atno 10764 bound_to 10752
  154.7615  135.3212  154.8322 H   0  0  0  0  0  0  0  0  0  0  0  0  # atno 10765 bound_to 10752
  140.8354  134.2467  157.4837 H   0  0  0  0  0  0  0  0  0  0  0  0  # atno 11005 bound_to 11000
  145.7926  140.9807  143.1041 LP  0  0  0  0  0  0  0  0  0  0  0  0  # atno 17320 bound_to 7965
  144.6833  139.9702  143.7482 LP  0  0  0  0  0  0  0  0  0  0  0  0  # atno 17321 bound_to 7965
  140.5516  143.2205  151.7917 LP  0  0  0  0  0  0  0  0  0  0  0  0  # atno 17342 bound_to 10162
  139.4881  144.4469  151.9700 LP  0  0  0  0  0  0  0  0  0  0  0  0  # atno 17343 bound_to 10162
  155.9897  130.4946  150.7227 LP  0  0  0  0  0  0  0  0  0  0  0  0  # atno 17370 bound_to 10713
  157.4719  131.0894  151.0632 LP  0  0  0  0  0  0  0  0  0  0  0  0  # atno 17371 bound_to 10713
  139.8704  134.9608  156.4374 LP  0  0  0  0  0  0  0  0  0  0  0  0  # atno 17394 bound_to 11000
  140.8953  133.7818  155.9618 LP  0  0  0  0  0  0  0  0  0  0  0  0  # atno 17395 bound_to 11000

$$$$
