AV-unprocessed.smi:2774|AV-procd|sdf|10685|dock4
  -GOLD-   2272015133D 1   1.00000     0.00000
 Structure written by MMmdl.
 34 35  0  0  0  0  0  0  0  0  1 V2000
  148.9403  141.1086  155.4198 O   0  0  0  0  0  0  0  0  0  0  0  0
  150.3100  140.9701  155.7354 C   0  0  1  0  0  0  0  0  0  0  0  0
  150.5498  141.6179  157.1112 C   0  0  0  0  0  0  0  0  0  0  0  0
  151.1809  142.9331  156.9835 N   0  0  0  0  0  0  0  0  0  0  0  0
  151.7726  143.4768  158.2094 C   0  0  2  0  0  0  0  0  0  0  0  0
  152.4122  142.3239  159.0078 C   0  0  0  0  0  0  0  0  0  0  0  0
  153.1592  142.8046  160.2615 C   0  0  0  0  0  0  0  0  0  0  0  0
  152.2277  143.5044  161.2585 C   0  0  0  0  0  0  0  0  0  0  0  0
  151.4980  144.9934  160.5289 S   0  0  0  0  0  0  0  0  0  0  0  0
  150.7367  144.2420  159.0629 C   0  0  0  0  0  0  0  0  0  0  0  0
  150.7557  139.5154  155.6905 C   0  0  0  0  0  0  0  0  0  0  0  0
  152.0285  139.1380  156.1684 C   0  0  0  0  0  0  0  0  0  0  0  0
  152.3945  137.7785  156.1098 C   0  0  0  0  0  0  0  0  0  0  0  0
  151.5883  136.8135  155.6176 N   0  0  0  0  0  0  0  0  0  0  0  0
  150.3708  137.1798  155.1630 C   0  0  0  0  0  0  0  0  0  0  0  0
  149.9081  138.5107  155.1760 C   0  0  0  0  0  0  0  0  0  0  0  0
  148.7809  142.0065  155.1721 H   0  0  0  0  0  0  0  0  0  0  0  0
  150.8630  141.5293  154.9794 H   0  0  0  0  0  0  0  0  0  0  0  0
  149.5954  141.7225  157.6288 H   0  0  0  0  0  0  0  0  0  0  0  0
  151.1628  140.9518  157.7174 H   0  0  0  0  0  0  0  0  0  0  0  0
  150.5075  143.5954  156.6119 H   0  0  0  0  0  0  0  0  0  0  0  0
  152.5677  144.1705  157.9323 H   0  0  0  0  0  0  0  0  0  0  0  0
  151.6470  141.6008  159.2943 H   0  0  0  0  0  0  0  0  0  0  0  0
  153.1145  141.7857  158.3699 H   0  0  0  0  0  0  0  0  0  0  0  0
  153.6294  141.9503  160.7490 H   0  0  0  0  0  0  0  0  0  0  0  0
  153.9685  143.4775  159.9759 H   0  0  0  0  0  0  0  0  0  0  0  0
  151.4284  142.8317  161.5711 H   0  0  0  0  0  0  0  0  0  0  0  0
  152.7781  143.7876  162.1558 H   0  0  0  0  0  0  0  0  0  0  0  0
  150.2751  145.0521  158.5001 H   0  0  0  0  0  0  0  0  0  0  0  0
  149.9345  143.5751  159.3809 H   0  0  0  0  0  0  0  0  0  0  0  0
  152.7108  139.8700  156.5748 H   0  0  0  0  0  0  0  0  0  0  0  0
  153.3612  137.4576  156.4686 H   0  0  0  0  0  0  0  0  0  0  0  0
  149.7456  136.3885  154.7768 H   0  0  0  0  0  0  0  0  0  0  0  0
  148.9238  138.7516  154.8019 H   0  0  0  0  0  0  0  0  0  0  0  0
  1  2  1  0  0  0  0
  1 17  1  0  0  0  0
  2  3  1  0  0  0  0
  2 11  1  0  0  0  0
  2 18  1  0  0  0  0
  3  4  1  0  0  0  0
  3 19  1  0  0  0  0
  3 20  1  0  0  0  0
  4  5  1  0  0  0  0
  4 21  1  0  0  0  0
  5 10  1  0  0  0  0
  5  6  1  0  0  0  0
  5 22  1  0  0  0  0
  6  7  1  0  0  0  0
  6 23  1  0  0  0  0
  6 24  1  0  0  0  0
  7  8  1  0  0  0  0
  7 25  1  0  0  0  0
  7 26  1  0  0  0  0
  8  9  1  0  0  0  0
  8 27  1  0  0  0  0
  8 28  1  0  0  0  0
  9 10  1  0  0  0  0
 10 29  1  0  0  0  0
 10 30  1  0  0  0  0
 11 16  1  0  0  0  0
 11 12  2  0  0  0  0
 12 13  1  0  0  0  0
 12 31  1  0  0  0  0
 13 14  2  0  0  0  0
 13 32  1  0  0  0  0
 14 15  1  0  0  0  0
 15 16  2  0  0  0  0
 15 33  1  0  0  0  0
 16 34  1  0  0  0  0
M  END
> <s_m_source_file>
AV-unprocessed.smi

> <i_m_source_file_index>
2774

> <i_lp_mmshare_version>
43012

> <i_f3d_flags>
0

> <s_epik_input>
W2NIXTFbY0hdbltjSF1bY0hdYzFbQ0BIXShbT0hdKVtDSDJdW05IXVtDQEBIXTJbQ0gyXVtDSDJdW0NIMl1TW0NIMl0y

> <s_epik_cmdline>
J2VwaWtfcHl0aG9uJywgJy1waCcsICc3LjAnLCAnLXRuJywgJzgnLCAnLW1hJywgJzIwMCcsICctbWV0YWxfYmluZGluZycsICctaW1hZScsICc8aW5maWxlLm1hZT4nLCAnLW9tYWUnLCAnPG91dGZpbGUubWFlPic=

> <r_epik_Ionization_Penalty>
2.08116

> <r_epik_Ionization_Penalty_Charging>
0

> <r_epik_Ionization_Penalty_Neutral>
2.08116

> <r_epik_State_Penalty>
2.1944

> <r_epik_Charging_Adjusted_Penalty>
2.1944

> <i_epik_Tot_Q>
0

> <i_epik_Tot_abs_Q>
0

> <r_epik_Metal_State_Penalty>
2.1769

> <b_epik_Metal_Only>
0

> <s_lp_Force_Field>
OPLS_2005

> <r_lp_Energy>
10.4712

> <b_lp_Chiralities_Consistent>
1

> <s_lp_Variant>
AV-unprocessed.smi:2774-6

> <Gold.Version>
5.8.1

> <Gold.Id.Protein>
6NUR|6NUR_protein|mol2

> <Gold.PLP.Fitness>
48.1852

> <Gold.PLP.PLP>
-41.4856

> <Gold.PLP.part.hbond>
-2.1779

> <Gold.PLP.part.metal>
0.0000

> <Gold.PLP.part.buried>
-1.9418

> <Gold.PLP.part.nonpolar>
-37.3886

> <Gold.PLP.part.repulsive>
0.1243

> <Gold.PLP.ligand.clash>
0.0000

> <Gold.PLP.ligand.torsion>
1.1628

> <Gold.PLP.Chemscore.Hbond>
2.0000

> <Gold.PLP.Chemscore.CHOScore>
1.0000

> <Gold.PLP.Chemscore.Metal>
0.0000

> <Gold.Chemscore.Hbonds>
donor molecule, donor type, donor heavy atom, donor atom, acceptor molecule, acceptor atom, score
      L1  H     4    21       P1  8028  0.63
      P1  H 10752 10765       L1    14  0.93

> <Gold.PLP.Chemscore.Internal.Correction>
0.0251

> <Gold.Rescore>
     Score         DG    S(hbond)    S(metal)    S(lipo)     H(rot)  DE(clash)    DE(int)     intcor
     20.32     -21.25       1.98        0.00     119.58       1.89       0.09       0.84       ----

> <Gold.Chemscore.Fitness>
20.3158

> <Gold.Chemscore.DG>
-21.2496

> <Gold.Chemscore.ZeroCoef>
-5.4800

> <Gold.Chemscore.Hbond>
1.9834

> <Gold.Chemscore.Metal>
0.0000

> <Gold.Chemscore.Lipo>
119.5783

> <Gold.Chemscore.Internal_Hbond>
0.0000

> <Gold.Chemscore.DEClash>
0.0905

> <Gold.Chemscore.DEInternal>
0.8433

> <Gold.Chemscore.Rot>
1.8928

> <Gold.Chemscore.Internal.Correction>
   9.000000E+99

> <Gold.Chemscore.Hbonds>
donor molecule, donor type, donor heavy atom, donor atom, acceptor molecule, acceptor atom, score
      L1  H     4    21       P1  8028  0.63
      P1  H 10752 10765       L1    14  0.23

> <Gold.Chemscore.Hbond.Weighted>
-6.6245

> <Gold.Chemscore.Metal.Weighted>
-0.0000

> <Gold.Chemscore.Lipo.Weighted>
-13.9907

> <Gold.Chemscore.Internal_Hbond.Weighted>
0.0000

> <Gold.Chemscore.DEClash.Weighted>
0.0905

> <Gold.Chemscore.DEInternal.Weighted>
0.8433

> <Gold.Chemscore.Rot.Weighted>
4.8455

> <Gold.Chemscore.Internal.Correction.Weighted>
   9.000000E+99

> <Gold.Protein.RotatedTorsions>
[ 6907 6896 6895 6894 ] final  -73.75 input  -60.11 | X-H torsion
[ 7974 7965 7964 7962 ] final -140.77 input  175.53 | X-H torsion
[ 8008 7997 7996 7995 ] final  -47.37 input   59.86 | X-H torsion
[ 10167 10162 10161 10158 ] final  119.17 input  -65.29 | X-H torsion
[ 10718 10713 10712 10709 ] final  143.24 input   66.30 | X-H torsion
[ 10763 10752 10751 10750 ] final -170.75 input  -60.55 | X-H torsion
[ 11005 11000 10999 10996 ] final   61.66 input  -57.11 | X-H torsion

> <Gold.Protein.ActiveResidues>
 VAL166  LYS551  ARG553  GLY616  TRP617  ASP618  TYR619  PRO620  LYS621  CYS622 
 ASP623  PHE694  ASN695  SER759  ASP760  ASP761  ALA762  ILE779  LEU786  VAL792 
 PHE793  MET794  SER795  GLU796  ALA797  LYS798  CYS799  TRP800  GLU811  SER814 

> <Gold.Protein.RotatedAtoms>
  150.7118  134.4970  159.5542 H   0  0  0  0  0  0  0  0  0  0  0  0  # atno 6907 bound_to 6896
  152.2575  134.8066  160.0445 H   0  0  0  0  0  0  0  0  0  0  0  0  # atno 6908 bound_to 6896
  151.8791  133.3456  159.3797 H   0  0  0  0  0  0  0  0  0  0  0  0  # atno 6909 bound_to 6896
  144.8571  140.6160  143.5352 H   0  0  0  0  0  0  0  0  0  0  0  0  # atno 7974 bound_to 7965
  154.4016  140.1348  156.4165 H   0  0  0  0  0  0  0  0  0  0  0  0  # atno 8008 bound_to 7997
  155.7684  140.3484  155.5214 H   0  0  0  0  0  0  0  0  0  0  0  0  # atno 8009 bound_to 7997
  155.8791  140.0984  157.1488 H   0  0  0  0  0  0  0  0  0  0  0  0  # atno 8010 bound_to 7997
  139.6063  144.7071  151.2945 H   0  0  0  0  0  0  0  0  0  0  0  0  # atno 10167 bound_to 10162
  157.3713  131.0979  151.0826 H   0  0  0  0  0  0  0  0  0  0  0  0  # atno 10718 bound_to 10713
  154.6380  135.2895  155.0137 H   0  0  0  0  0  0  0  0  0  0  0  0  # atno 10763 bound_to 10752
  154.1274  135.6539  153.4919 H   0  0  0  0  0  0  0  0  0  0  0  0  # atno 10764 bound_to 10752
  153.0312  135.5302  154.7235 H   0  0  0  0  0  0  0  0  0  0  0  0  # atno 10765 bound_to 10752
  140.0145  134.6245  155.9730 H   0  0  0  0  0  0  0  0  0  0  0  0  # atno 11005 bound_to 11000
  145.4384  139.1539  143.3983 LP  0  0  0  0  0  0  0  0  0  0  0  0  # atno 17320 bound_to 7965
  146.2832  140.4505  142.8768 LP  0  0  0  0  0  0  0  0  0  0  0  0  # atno 17321 bound_to 7965
  140.7287  143.6927  150.7908 LP  0  0  0  0  0  0  0  0  0  0  0  0  # atno 17342 bound_to 10162
  140.0514  143.5246  152.2672 LP  0  0  0  0  0  0  0  0  0  0  0  0  # atno 17343 bound_to 10162
  157.1929  130.6360  149.5711 LP  0  0  0  0  0  0  0  0  0  0  0  0  # atno 17370 bound_to 10713
  155.9756  130.4716  150.6470 LP  0  0  0  0  0  0  0  0  0  0  0  0  # atno 17371 bound_to 10713
  141.1734  133.6538  156.4735 LP  0  0  0  0  0  0  0  0  0  0  0  0  # atno 17394 bound_to 11000
  140.4495  134.6942  157.5032 LP  0  0  0  0  0  0  0  0  0  0  0  0  # atno 17395 bound_to 11000

$$$$
