AV-unprocessed.smi:48|AV-procd|sdf|455|dock3
  -GOLD-   2262016323D 1   1.00000     0.00000
 Structure written by MMmdl.
 30 32  0  0  0  0  0  0  0  0  1 V2000
  149.2462  143.1790  157.9033 O   0  0  0  0  0  0  0  0  0  0  0  0
  150.2434  142.1935  157.7395 C   0  0  0  0  0  0  0  0  0  0  0  0
  150.3149  141.7532  156.2666 C   0  0  1  0  0  0  0  0  0  0  0  0
  151.1036  140.5812  156.1224 O   0  0  0  0  0  0  0  0  0  0  0  0
  150.8104  139.9870  154.8983 C   0  0  1  0  0  0  0  0  0  0  0  0
  150.9004  138.5058  155.0659 N   0  0  0  0  0  0  0  0  0  0  0  0
  151.2840  137.6030  154.1408 C   0  0  0  0  0  0  0  0  0  0  0  0
  151.2864  136.3197  154.4988 N   0  0  0  0  0  0  0  0  0  0  0  0
  150.8551  136.3991  155.8127 C   0  0  0  0  0  0  0  0  0  0  0  0
  150.6246  135.4177  156.8073 C   0  0  0  0  0  0  0  0  0  0  0  0
  150.8835  133.7433  156.4800 Cl  0  0  0  0  0  0  0  0  0  0  0  0
  150.1942  135.8225  158.0260 N   0  0  0  0  0  0  0  0  0  0  0  0
  150.0022  137.1276  158.2529 C   0  0  0  0  0  0  0  0  0  0  0  0
  150.1767  138.1597  157.4200 N   0  0  0  0  0  0  0  0  0  0  0  0
  150.6091  137.7501  156.1907 C   0  0  0  0  0  0  0  0  0  0  0  0
  149.3868  140.4107  154.4966 C   0  0  2  0  0  0  0  0  0  0  0  0
  149.3951  141.1146  153.2711 O   0  0  0  0  0  0  0  0  0  0  0  0
  148.9769  141.3558  155.6240 C   0  0  1  0  0  0  0  0  0  0  0  0
  148.1321  140.6891  156.5433 O   0  0  0  0  0  0  0  0  0  0  0  0
  150.7597  142.5435  155.6586 H   0  0  0  0  0  0  0  0  0  0  0  0
  151.5714  140.2381  154.1573 H   0  0  0  0  0  0  0  0  0  0  0  0
  148.7228  139.5488  154.4096 H   0  0  0  0  0  0  0  0  0  0  0  0
  148.4363  142.2318  155.2623 H   0  0  0  0  0  0  0  0  0  0  0  0
  149.2269  143.7191  157.1280 H   0  0  0  0  0  0  0  0  0  0  0  0
  151.2061  142.5679  158.0899 H   0  0  0  0  0  0  0  0  0  0  0  0
  149.9711  141.3484  158.3723 H   0  0  0  0  0  0  0  0  0  0  0  0
  151.5747  137.9053  153.1451 H   0  0  0  0  0  0  0  0  0  0  0  0
  149.6588  137.3827  159.2445 H   0  0  0  0  0  0  0  0  0  0  0  0
  149.2546  140.4962  152.5702 H   0  0  0  0  0  0  0  0  0  0  0  0
  148.5065  140.7665  157.4073 H   0  0  0  0  0  0  0  0  0  0  0  0
  1  2  1  0  0  0  0
  1 24  1  0  0  0  0
  2  3  1  0  0  0  0
  2 25  1  0  0  0  0
  2 26  1  0  0  0  0
  3 20  1  0  0  0  0
  3 18  1  0  0  0  0
  3  4  1  0  0  0  0
  4  5  1  0  0  0  0
  5 21  1  0  0  0  0
  5  6  1  0  0  0  0
  5 16  1  0  0  0  0
  6 15  1  0  0  0  0
  6  7  1  0  0  0  0
  7  8  2  0  0  0  0
  7 27  1  0  0  0  0
  8  9  1  0  0  0  0
  9 15  2  0  0  0  0
  9 10  1  0  0  0  0
 10 11  1  0  0  0  0
 10 12  2  0  0  0  0
 12 13  1  0  0  0  0
 13 14  2  0  0  0  0
 13 28  1  0  0  0  0
 14 15  1  0  0  0  0
 16 22  1  0  0  0  0
 16 17  1  0  0  0  0
 16 18  1  0  0  0  0
 17 29  1  0  0  0  0
 18 23  1  0  0  0  0
 18 19  1  0  0  0  0
 19 30  1  0  0  0  0
M  END
> <s_m_source_file>
AV-unprocessed.smi

> <i_m_source_file_index>
48

> <i_lp_mmshare_version>
43012

> <i_f3d_flags>
0

> <s_epik_input>
W09IXVtDSDJdW0NASF0xT1tDQEhdKFtDQEhdKFtPSF0pW0NAQEhdMVtPSF0pbihbY0hdbjIpYyhjMjMpbltjSF1uYzNDbA==

> <s_epik_cmdline>
J2VwaWtfcHl0aG9uJywgJy1waCcsICc3LjAnLCAnLXRuJywgJzgnLCAnLW1hJywgJzIwMCcsICctbWV0YWxfYmluZGluZycsICctaW1hZScsICc8aW5maWxlLm1hZT4nLCAnLW9tYWUnLCAnPG91dGZpbGUubWFlPic=

> <r_lp_tautomer_probability>
1

> <r_epik_Ionization_Penalty>
3.45505e-06

> <r_epik_Ionization_Penalty_Charging>
0

> <r_epik_Ionization_Penalty_Neutral>
3.45505e-06

> <r_epik_State_Penalty>
-0

> <r_epik_Charging_Adjusted_Penalty>
0

> <i_epik_Tot_Q>
0

> <i_epik_Tot_abs_Q>
0

> <r_epik_Metal_State_Penalty>
-0

> <b_epik_Metal_Only>
0

> <s_epik_Chemistry_Notes>
This compound contains an acetal/aminal-like group ( X-CH(R)-Y where X, Y are N, S, or O) that may be acid/base labile, releasing an aldehyde.

> <s_lp_Force_Field>
OPLS_2005

> <r_lp_Energy>
33.2991

> <b_lp_Chiralities_Consistent>
1

> <s_lp_Variant>
AV-unprocessed.smi:48-9

> <Gold.Version>
5.8.1

> <Gold.Id.Protein>
6NUR|6NUR_protein|mol2

> <Gold.PLP.Fitness>
42.1899

> <Gold.PLP.PLP>
-27.9297

> <Gold.PLP.part.hbond>
-6.1582

> <Gold.PLP.part.metal>
0.0000

> <Gold.PLP.part.buried>
-1.1426

> <Gold.PLP.part.nonpolar>
-21.7894

> <Gold.PLP.part.repulsive>
0.7757

> <Gold.PLP.ligand.clash>
0.0000

> <Gold.PLP.ligand.torsion>
0.7865

> <Gold.PLP.Chemscore.Hbond>
4.6808

> <Gold.PLP.Chemscore.CHOScore>
0.5951

> <Gold.PLP.Chemscore.Metal>
0.0000

> <Gold.Chemscore.Hbonds>
donor molecule, donor type, donor heavy atom, donor atom, acceptor molecule, acceptor atom, score
      L1  H     1    24       P1  8028  1.00
      L1  H    17    29       P1  7957  0.92
      P1  H  6896  6907       L1    12  0.83
      P1  H  7989  7998       L1    17  0.01
      P1  H  8011  8017       L1    17  0.85
      P1  H 10752 10764       L1     8  1.00
      L1  C     7    27       P1  7949  0.57

> <Gold.PLP.Chemscore.Internal.Correction>
0.0057

> <Gold.Rescore>
     Score         DG    S(hbond)    S(metal)    S(lipo)     H(rot)  DE(clash)    DE(int)     intcor
      8.98     -11.91       3.45        0.00      39.71       3.80       1.31       1.63       ----

> <Gold.Chemscore.Fitness>
8.9774

> <Gold.Chemscore.DG>
-11.9147

> <Gold.Chemscore.ZeroCoef>
-5.4800

> <Gold.Chemscore.Hbond>
3.4495

> <Gold.Chemscore.Metal>
0.0000

> <Gold.Chemscore.Lipo>
39.7079

> <Gold.Chemscore.Internal_Hbond>
0.0000

> <Gold.Chemscore.DEClash>
1.3116

> <Gold.Chemscore.DEInternal>
1.6258

> <Gold.Chemscore.Rot>
3.8017

> <Gold.Chemscore.Internal.Correction>
   9.000000E+99

> <Gold.Chemscore.Hbonds>
donor molecule, donor type, donor heavy atom, donor atom, acceptor molecule, acceptor atom, score
      L1  H     1    24       P1  8028  0.55
      L1  H    17    29       P1  7957  0.83
      P1  H  6896  6907       L1    12  0.67
      P1  H  8011  8017       L1    17  0.14
      P1  H 10752 10764       L1     8  0.61

> <Gold.Chemscore.Hbond.Weighted>
-11.5213

> <Gold.Chemscore.Metal.Weighted>
-0.0000

> <Gold.Chemscore.Lipo.Weighted>
-4.6458

> <Gold.Chemscore.Internal_Hbond.Weighted>
0.0000

> <Gold.Chemscore.DEClash.Weighted>
1.3116

> <Gold.Chemscore.DEInternal.Weighted>
1.6258

> <Gold.Chemscore.Rot.Weighted>
9.7324

> <Gold.Chemscore.Internal.Correction.Weighted>
   9.000000E+99

> <Gold.Protein.RotatedTorsions>
[ 6907 6896 6895 6894 ] final  -57.47 input  -60.11 | X-H torsion
[ 7974 7965 7964 7962 ] final  -32.46 input  175.53 | X-H torsion
[ 8008 7997 7996 7995 ] final   61.58 input   59.86 | X-H torsion
[ 10167 10162 10161 10158 ] final -145.22 input  -65.29 | X-H torsion
[ 10718 10713 10712 10709 ] final  -16.56 input   66.30 | X-H torsion
[ 10763 10752 10751 10750 ] final  -67.98 input  -60.55 | X-H torsion
[ 11005 11000 10999 10996 ] final -117.85 input  -57.11 | X-H torsion

> <Gold.Protein.ActiveResidues>
 VAL166  LYS551  ARG553  GLY616  TRP617  ASP618  TYR619  PRO620  LYS621  CYS622 
 ASP623  PHE694  ASN695  SER759  ASP760  ASP761  ALA762  ILE779  LEU786  VAL792 
 PHE793  MET794  SER795  GLU796  ALA797  LYS798  CYS799  TRP800  GLU811  SER814 

> <Gold.Protein.RotatedAtoms>
  150.8084  134.7223  159.6664 H   0  0  0  0  0  0  0  0  0  0  0  0  # atno 6907 bound_to 6896
  152.4203  134.5963  159.9998 H   0  0  0  0  0  0  0  0  0  0  0  0  # atno 6908 bound_to 6896
  151.6180  133.3304  159.3118 H   0  0  0  0  0  0  0  0  0  0  0  0  # atno 6909 bound_to 6896
  146.0988  140.5795  142.8830 H   0  0  0  0  0  0  0  0  0  0  0  0  # atno 7974 bound_to 7965
  155.6006  140.3494  155.4592 H   0  0  0  0  0  0  0  0  0  0  0  0  # atno 8008 bound_to 7997
  156.0231  140.1258  157.0361 H   0  0  0  0  0  0  0  0  0  0  0  0  # atno 8009 bound_to 7997
  154.4323  140.1058  156.5978 H   0  0  0  0  0  0  0  0  0  0  0  0  # atno 8010 bound_to 7997
  139.7826  143.8079  152.2640 H   0  0  0  0  0  0  0  0  0  0  0  0  # atno 10167 bound_to 10162
  156.5859  130.4786  149.6300 H   0  0  0  0  0  0  0  0  0  0  0  0  # atno 10718 bound_to 10713
  154.3824  135.6071  153.5798 H   0  0  0  0  0  0  0  0  0  0  0  0  # atno 10763 bound_to 10752
  152.9788  135.5864  154.4394 H   0  0  0  0  0  0  0  0  0  0  0  0  # atno 10764 bound_to 10752
  154.4165  135.2845  155.1981 H   0  0  0  0  0  0  0  0  0  0  0  0  # atno 10765 bound_to 10752
  141.0326  133.9958  157.3120 H   0  0  0  0  0  0  0  0  0  0  0  0  # atno 11005 bound_to 11000
  144.7416  140.4958  143.6865 LP  0  0  0  0  0  0  0  0  0  0  0  0  # atno 17320 bound_to 7965
  145.5895  139.1494  143.3190 LP  0  0  0  0  0  0  0  0  0  0  0  0  # atno 17321 bound_to 7965
  139.8146  144.7321  150.9652 LP  0  0  0  0  0  0  0  0  0  0  0  0  # atno 17342 bound_to 10162
  140.7819  143.4217  151.0831 LP  0  0  0  0  0  0  0  0  0  0  0  0  # atno 17343 bound_to 10162
  156.2591  130.6952  151.1715 LP  0  0  0  0  0  0  0  0  0  0  0  0  # atno 17370 bound_to 10713
  157.7315  131.0607  150.5673 LP  0  0  0  0  0  0  0  0  0  0  0  0  # atno 17371 bound_to 10713
  139.9218  135.0200  156.8092 LP  0  0  0  0  0  0  0  0  0  0  0  0  # atno 17394 bound_to 11000
  140.6379  133.9845  155.7693 LP  0  0  0  0  0  0  0  0  0  0  0  0  # atno 17395 bound_to 11000

$$$$
