AV-unprocessed.smi:1741|AV-procd|sdf|7016|dock2
  -GOLD-   22720 8233D 1   1.00000     0.00000
 Structure written by MMmdl.
 38 39  0  0  0  0  0  0  0  0  1 V2000
  151.2857  141.4701  157.8841 C   0  0  0  0  0  0  0  0  0  0  0  0
  152.0477  140.1965  157.4985 C   0  0  0  0  0  0  0  0  0  0  0  0
  151.4217  139.5128  156.3837 N   0  0  0  0  0  0  0  0  0  0  0  0
  150.9246  138.2251  156.3420 C   0  0  0  0  0  0  0  0  0  0  0  0
  150.4477  138.0545  155.0729 C   0  0  0  0  0  0  0  0  0  0  0  0
  149.8357  136.9181  154.4863 N   0  0  0  0  0  0  0  0  0  0  0  0
  149.4535  135.7876  155.1023 C   0  0  0  0  0  0  0  0  0  0  0  0
  149.5679  135.5664  156.3080 O   0  0  0  0  0  0  0  0  0  0  0  0
  148.9166  134.9200  154.2322 N   0  0  0  0  0  0  0  0  0  0  0  0
  148.3931  133.5932  154.5544 C   0  0  2  0  0  0  0  0  0  0  0  0
  149.4936  132.7848  155.2571 C   0  0  0  0  0  0  0  0  0  0  0  0
  147.8901  132.8873  153.2782 C   0  0  2  0  0  0  0  0  0  0  0  0
  146.8138  133.6453  152.4992 C   0  0  0  0  0  0  0  0  0  0  0  0
  146.1644  132.5291  151.7142 C   0  0  0  0  0  0  0  0  0  0  0  0
  146.1850  131.3810  152.7198 C   0  0  0  0  0  0  0  0  0  0  0  0
  147.2735  131.6438  153.6025 O   0  0  0  0  0  0  0  0  0  0  0  0
  150.6885  139.2807  154.4007 C   0  0  0  0  0  0  0  0  0  0  0  0
  151.2768  140.1578  155.1995 N   0  0  0  0  0  0  0  0  0  0  0  0
  151.7746  141.9776  158.7158 H   0  0  0  0  0  0  0  0  0  0  0  0
  150.2636  141.2427  158.1883 H   0  0  0  0  0  0  0  0  0  0  0  0
  151.2394  142.1690  157.0483 H   0  0  0  0  0  0  0  0  0  0  0  0
  153.0748  140.4411  157.2255 H   0  0  0  0  0  0  0  0  0  0  0  0
  152.0993  139.5130  158.3471 H   0  0  0  0  0  0  0  0  0  0  0  0
  150.9597  137.5685  157.1989 H   0  0  0  0  0  0  0  0  0  0  0  0
  149.6739  136.9708  153.4913 H   0  0  0  0  0  0  0  0  0  0  0  0
  148.8652  135.1983  153.2633 H   0  0  0  0  0  0  0  0  0  0  0  0
  147.5576  133.6832  155.2510 H   0  0  0  0  0  0  0  0  0  0  0  0
  149.1312  131.8000  155.5528 H   0  0  0  0  0  0  0  0  0  0  0  0
  149.8364  133.2905  156.1603 H   0  0  0  0  0  0  0  0  0  0  0  0
  150.3574  132.6393  154.6076 H   0  0  0  0  0  0  0  0  0  0  0  0
  148.7276  132.6782  152.6103 H   0  0  0  0  0  0  0  0  0  0  0  0
  146.0888  134.0935  153.1804 H   0  0  0  0  0  0  0  0  0  0  0  0
  147.2203  134.4328  151.8640 H   0  0  0  0  0  0  0  0  0  0  0  0
  145.1606  132.7741  151.3663 H   0  0  0  0  0  0  0  0  0  0  0  0
  146.7764  132.2794  150.8464 H   0  0  0  0  0  0  0  0  0  0  0  0
  145.2638  131.3651  153.3030 H   0  0  0  0  0  0  0  0  0  0  0  0
  146.2943  130.4114  152.2338 H   0  0  0  0  0  0  0  0  0  0  0  0
  150.4617  139.5583  153.3819 H   0  0  0  0  0  0  0  0  0  0  0  0
  1  2  1  0  0  0  0
  1 19  1  0  0  0  0
  1 20  1  0  0  0  0
  1 21  1  0  0  0  0
  2  3  1  0  0  0  0
  2 22  1  0  0  0  0
  2 23  1  0  0  0  0
  3 18  1  0  0  0  0
  3  4  1  0  0  0  0
  4  5  2  0  0  0  0
  4 24  1  0  0  0  0
  5  6  1  0  0  0  0
  5 17  1  0  0  0  0
  6  7  1  0  0  0  0
  6 25  1  0  0  0  0
  7  8  2  0  0  0  0
  7  9  1  0  0  0  0
  9 10  1  0  0  0  0
  9 26  1  0  0  0  0
 10 11  1  0  0  0  0
 10 12  1  0  0  0  0
 10 27  1  0  0  0  0
 11 28  1  0  0  0  0
 11 29  1  0  0  0  0
 11 30  1  0  0  0  0
 12 16  1  0  0  0  0
 12 13  1  0  0  0  0
 12 31  1  0  0  0  0
 13 14  1  0  0  0  0
 13 32  1  0  0  0  0
 13 33  1  0  0  0  0
 14 15  1  0  0  0  0
 14 34  1  0  0  0  0
 14 35  1  0  0  0  0
 15 16  1  0  0  0  0
 15 36  1  0  0  0  0
 15 37  1  0  0  0  0
 17 18  2  0  0  0  0
 17 38  1  0  0  0  0
M  END
> <s_m_source_file>
AV-unprocessed.smi

> <i_m_source_file_index>
1741

> <i_lp_mmshare_version>
43012

> <i_f3d_flags>
0

> <s_epik_input>
W0NIM11bQ0gyXW4xW2NIXWMoW2NIXW4xKVtOSF1DKD1PKVtOSF1bQ0BIXShbQ0gzXSlbQ0BASF0yW0NIMl1bQ0gyXVtDSDJdTzI=

> <s_epik_cmdline>
J2VwaWtfcHl0aG9uJywgJy1waCcsICc3LjAnLCAnLXRuJywgJzgnLCAnLW1hJywgJzIwMCcsICctbWV0YWxfYmluZGluZycsICctaW1hZScsICc8aW5maWxlLm1hZT4nLCAnLW9tYWUnLCAnPG91dGZpbGUubWFlPic=

> <r_lp_tautomer_probability>
1

> <r_epik_Ionization_Penalty>
0.000179292

> <r_epik_Ionization_Penalty_Charging>
0

> <r_epik_Ionization_Penalty_Neutral>
0.000179292

> <r_epik_State_Penalty>
-0

> <r_epik_Charging_Adjusted_Penalty>
0

> <i_epik_Tot_Q>
0

> <i_epik_Tot_abs_Q>
0

> <r_epik_Metal_State_Penalty>
-0

> <b_epik_Metal_Only>
0

> <s_lp_Force_Field>
OPLS_2005

> <r_lp_Energy>
21.1803

> <b_lp_Chiralities_Consistent>
1

> <s_lp_Variant>
AV-unprocessed.smi:1741-1

> <Gold.Version>
5.8.1

> <Gold.Id.Protein>
6NUR|6NUR_protein|mol2

> <Gold.PLP.Fitness>
38.2077

> <Gold.PLP.PLP>
-29.2666

> <Gold.PLP.part.hbond>
-3.1789

> <Gold.PLP.part.metal>
0.0000

> <Gold.PLP.part.buried>
-2.0357

> <Gold.PLP.part.nonpolar>
-23.6434

> <Gold.PLP.part.repulsive>
0.1958

> <Gold.PLP.ligand.clash>
0.0000

> <Gold.PLP.ligand.torsion>
0.0369

> <Gold.PLP.Chemscore.Hbond>
2.0000

> <Gold.PLP.Chemscore.CHOScore>
1.0000

> <Gold.PLP.Chemscore.Metal>
0.0000

> <Gold.Chemscore.Hbonds>
donor molecule, donor type, donor heavy atom, donor atom, acceptor molecule, acceptor atom, score
      L1  H     6    25       P1  7948  1.00
      L1  H     9    26       P1  7948  1.00
      L1  C    17    38       P1  7957  1.00

> <Gold.PLP.Chemscore.Internal.Correction>
0.0150

> <Gold.Rescore>
     Score         DG    S(hbond)    S(metal)    S(lipo)     H(rot)  DE(clash)    DE(int)     intcor
     13.37     -14.56       1.78        0.00      56.93       1.38       0.00       1.19       ----

> <Gold.Chemscore.Fitness>
13.3703

> <Gold.Chemscore.DG>
-14.5563

> <Gold.Chemscore.ZeroCoef>
-5.4800

> <Gold.Chemscore.Hbond>
1.7801

> <Gold.Chemscore.Metal>
0.0000

> <Gold.Chemscore.Lipo>
56.9318

> <Gold.Chemscore.Internal_Hbond>
0.0000

> <Gold.Chemscore.DEClash>
0.0000

> <Gold.Chemscore.DEInternal>
1.1860

> <Gold.Chemscore.Rot>
1.3790

> <Gold.Chemscore.Internal.Correction>
   9.000000E+99

> <Gold.Chemscore.Hbonds>
donor molecule, donor type, donor heavy atom, donor atom, acceptor molecule, acceptor atom, score
      L1  H     6    25       P1  7948  0.63
      L1  H     9    26       P1  7948  0.55

> <Gold.Chemscore.Hbond.Weighted>
-5.9455

> <Gold.Chemscore.Metal.Weighted>
-0.0000

> <Gold.Chemscore.Lipo.Weighted>
-6.6610

> <Gold.Chemscore.Internal_Hbond.Weighted>
0.0000

> <Gold.Chemscore.DEClash.Weighted>
0.0000

> <Gold.Chemscore.DEInternal.Weighted>
1.1860

> <Gold.Chemscore.Rot.Weighted>
3.5302

> <Gold.Chemscore.Internal.Correction.Weighted>
   9.000000E+99

> <Gold.Protein.RotatedTorsions>
[ 6907 6896 6895 6894 ] final  147.97 input  -60.11 | X-H torsion
[ 7974 7965 7964 7962 ] final  108.57 input  175.53 | X-H torsion
[ 8008 7997 7996 7995 ] final   43.48 input   59.86 | X-H torsion
[ 10167 10162 10161 10158 ] final   35.18 input  -65.29 | X-H torsion
[ 10718 10713 10712 10709 ] final  -33.12 input   66.30 | X-H torsion
[ 10763 10752 10751 10750 ] final  -34.12 input  -60.55 | X-H torsion
[ 11005 11000 10999 10996 ] final   31.75 input  -57.11 | X-H torsion

> <Gold.Protein.ActiveResidues>
 VAL166  LYS551  ARG553  GLY616  TRP617  ASP618  TYR619  PRO620  LYS621  CYS622 
 ASP623  PHE694  ASN695  SER759  ASP760  ASP761  ALA762  ILE779  LEU786  VAL792 
 PHE793  MET794  SER795  GLU796  ALA797  LYS798  CYS799  TRP800  GLU811  SER814 

> <Gold.Protein.RotatedAtoms>
  152.1477  133.4502  159.4797 H   0  0  0  0  0  0  0  0  0  0  0  0  # atno 6907 bound_to 6896
  150.6892  134.2228  159.4412 H   0  0  0  0  0  0  0  0  0  0  0  0  # atno 6908 bound_to 6896
  152.0122  134.9869  160.0619 H   0  0  0  0  0  0  0  0  0  0  0  0  # atno 6909 bound_to 6896
  145.2790  139.2639  143.3925 H   0  0  0  0  0  0  0  0  0  0  0  0  # atno 7974 bound_to 7965
  155.3035  140.3386  155.4246 H   0  0  0  0  0  0  0  0  0  0  0  0  # atno 8008 bound_to 7997
  156.1990  140.1725  156.7978 H   0  0  0  0  0  0  0  0  0  0  0  0  # atno 8009 bound_to 7997
  154.5535  140.0701  156.8689 H   0  0  0  0  0  0  0  0  0  0  0  0  # atno 8010 bound_to 7997
  140.4246  144.1411  150.6152 H   0  0  0  0  0  0  0  0  0  0  0  0  # atno 10167 bound_to 10162
  156.3665  130.4332  149.7580 H   0  0  0  0  0  0  0  0  0  0  0  0  # atno 10718 bound_to 10713
  153.8415  135.6857  153.4802 H   0  0  0  0  0  0  0  0  0  0  0  0  # atno 10763 bound_to 10752
  153.1451  135.4641  154.9551 H   0  0  0  0  0  0  0  0  0  0  0  0  # atno 10764 bound_to 10752
  154.7843  135.3279  154.7868 H   0  0  0  0  0  0  0  0  0  0  0  0  # atno 10765 bound_to 10752
  140.2806  134.2977  155.7801 H   0  0  0  0  0  0  0  0  0  0  0  0  # atno 11005 bound_to 11000
  146.3222  140.3253  142.8636 LP  0  0  0  0  0  0  0  0  0  0  0  0  # atno 17320 bound_to 7965
  144.9269  140.7931  143.5713 LP  0  0  0  0  0  0  0  0  0  0  0  0  # atno 17321 bound_to 7965
  140.4495  143.2492  151.9366 LP  0  0  0  0  0  0  0  0  0  0  0  0  # atno 17342 bound_to 10162
  139.4783  144.5576  151.8290 LP  0  0  0  0  0  0  0  0  0  0  0  0  # atno 17343 bound_to 10162
  156.4724  130.8002  151.3020 LP  0  0  0  0  0  0  0  0  0  0  0  0  # atno 17370 bound_to 10713
  157.7479  131.0032  150.3028 LP  0  0  0  0  0  0  0  0  0  0  0  0  # atno 17371 bound_to 10713
  141.2163  133.7523  156.9475 LP  0  0  0  0  0  0  0  0  0  0  0  0  # atno 17394 bound_to 11000
  140.1287  134.9370  157.2306 LP  0  0  0  0  0  0  0  0  0  0  0  0  # atno 17395 bound_to 11000

$$$$
