AV-unprocessed.smi:2485|AV-procd|sdf|9789|dock8
  -GOLD-   2272013423D 1   1.00000     0.00000
 Structure written by MMmdl.
 39 40  0  0  0  0  0  0  0  0  1 V2000
  143.0957  133.2521  151.5436 C   0  0  0  0  0  0  0  0  0  0  0  0
  144.6134  133.2304  151.2938 C   0  0  0  0  0  0  0  0  0  0  0  0
  144.9648  132.3157  150.1107 C   0  0  0  0  0  0  0  0  0  0  0  0
  145.1872  134.6423  151.1260 C   0  0  0  0  0  0  0  0  0  0  0  0
  145.5474  135.0386  152.5441 C   0  0  2  0  0  0  0  0  0  0  0  0
  146.5800  136.0727  152.5656 N   0  0  0  0  0  0  0  0  0  0  0  0
  146.4401  137.2931  153.1017 C   0  0  0  0  0  0  0  0  0  0  0  0
  145.3979  137.6928  153.6209 O   0  0  0  0  0  0  0  0  0  0  0  0
  147.5777  138.0014  152.9971 N   0  0  0  0  0  0  0  0  0  0  0  0
  147.8355  139.3170  153.4643 C   0  0  0  0  0  0  0  0  0  0  0  0
  146.7711  140.2310  153.3128 C   0  0  0  0  0  0  0  0  0  0  0  0
  146.9596  141.5527  153.7517 C   0  0  0  0  0  0  0  0  0  0  0  0
  148.2064  141.8719  154.3158 C   0  0  0  0  0  0  0  0  0  0  0  0
  149.1983  140.9639  154.4414 N   0  0  0  0  0  0  0  0  0  0  0  0
  149.0119  139.7077  154.0212 N   0  0  0  0  0  0  0  0  0  0  0  0
  145.9927  133.6945  153.1621 C   0  0  0  0  0  0  0  0  0  0  0  0
  147.4765  133.3442  152.9226 C   0  0  0  0  0  0  0  0  0  0  0  0
  145.6462  133.5957  154.6562 C   0  0  0  0  0  0  0  0  0  0  0  0
  145.2290  132.7074  152.4700 O   0  0  0  0  0  0  0  0  0  0  0  0
  142.5598  133.6590  150.6856 H   0  0  0  0  0  0  0  0  0  0  0  0
  142.8415  133.8604  152.4120 H   0  0  0  0  0  0  0  0  0  0  0  0
  142.7136  132.2476  151.7271 H   0  0  0  0  0  0  0  0  0  0  0  0
  144.5318  132.6881  149.1818 H   0  0  0  0  0  0  0  0  0  0  0  0
  144.5908  131.3040  150.2705 H   0  0  0  0  0  0  0  0  0  0  0  0
  146.0440  132.2465  149.9710 H   0  0  0  0  0  0  0  0  0  0  0  0
  146.0858  134.6144  150.5074 H   0  0  0  0  0  0  0  0  0  0  0  0
  144.4893  135.3358  150.6556 H   0  0  0  0  0  0  0  0  0  0  0  0
  144.6404  135.3966  153.0354 H   0  0  0  0  0  0  0  0  0  0  0  0
  147.4712  135.8302  152.1586 H   0  0  0  0  0  0  0  0  0  0  0  0
  148.3515  137.5430  152.5399 H   0  0  0  0  0  0  0  0  0  0  0  0
  145.8325  139.9298  152.8703 H   0  0  0  0  0  0  0  0  0  0  0  0
  146.1790  142.2931  153.6590 H   0  0  0  0  0  0  0  0  0  0  0  0
  148.4131  142.8703  154.6716 H   0  0  0  0  0  0  0  0  0  0  0  0
  148.1413  134.0227  153.4578 H   0  0  0  0  0  0  0  0  0  0  0  0
  147.7349  133.3887  151.8645 H   0  0  0  0  0  0  0  0  0  0  0  0
  147.6986  132.3343  153.2685 H   0  0  0  0  0  0  0  0  0  0  0  0
  146.2043  134.3265  155.2415 H   0  0  0  0  0  0  0  0  0  0  0  0
  145.8821  132.6072  155.0512 H   0  0  0  0  0  0  0  0  0  0  0  0
  144.5842  133.7722  154.8291 H   0  0  0  0  0  0  0  0  0  0  0  0
  1  2  1  0  0  0  0
  1 20  1  0  0  0  0
  1 21  1  0  0  0  0
  1 22  1  0  0  0  0
  2 19  1  0  0  0  0
  2  3  1  0  0  0  0
  2  4  1  0  0  0  0
  3 23  1  0  0  0  0
  3 24  1  0  0  0  0
  3 25  1  0  0  0  0
  4  5  1  0  0  0  0
  4 26  1  0  0  0  0
  4 27  1  0  0  0  0
  5  6  1  0  0  0  0
  5 16  1  0  0  0  0
  5 28  1  0  0  0  0
  6  7  1  0  0  0  0
  6 29  1  0  0  0  0
  7  8  2  0  0  0  0
  7  9  1  0  0  0  0
  9 10  1  0  0  0  0
  9 30  1  0  0  0  0
 10 15  1  0  0  0  0
 10 11  2  0  0  0  0
 11 12  1  0  0  0  0
 11 31  1  0  0  0  0
 12 13  2  0  0  0  0
 12 32  1  0  0  0  0
 13 14  1  0  0  0  0
 13 33  1  0  0  0  0
 14 15  2  0  0  0  0
 16 17  1  0  0  0  0
 16 18  1  0  0  0  0
 16 19  1  0  0  0  0
 17 34  1  0  0  0  0
 17 35  1  0  0  0  0
 17 36  1  0  0  0  0
 18 37  1  0  0  0  0
 18 38  1  0  0  0  0
 18 39  1  0  0  0  0
M  END
> <s_m_source_file>
AV-unprocessed.smi

> <i_m_source_file_index>
2485

> <i_lp_mmshare_version>
43012

> <i_f3d_flags>
0

> <s_epik_input>
W0NIM11DMShbQ0gzXSlbQ0gyXVtDQEhdKEMoTzEpKFtDSDNdKVtDSDNdKVtOSF1DKD1PKVtOSF1jMltjSF1bY0hdW2NIXW5uMg==

> <s_epik_cmdline>
J2VwaWtfcHl0aG9uJywgJy1waCcsICc3LjAnLCAnLXRuJywgJzgnLCAnLW1hJywgJzIwMCcsICctbWV0YWxfYmluZGluZycsICctaW1hZScsICc8aW5maWxlLm1hZT4nLCAnLW9tYWUnLCAnPG91dGZpbGUubWFlPic=

> <r_lp_tautomer_probability>
1

> <r_epik_Ionization_Penalty>
0.00480341

> <r_epik_Ionization_Penalty_Charging>
0

> <r_epik_Ionization_Penalty_Neutral>
0.00480341

> <r_epik_State_Penalty>
-0

> <r_epik_Charging_Adjusted_Penalty>
0

> <i_epik_Tot_Q>
0

> <i_epik_Tot_abs_Q>
0

> <r_epik_Metal_State_Penalty>
-0

> <b_epik_Metal_Only>
0

> <s_lp_Force_Field>
OPLS_2005

> <r_lp_Energy>
24.1207

> <b_lp_Chiralities_Consistent>
1

> <s_lp_Variant>
AV-unprocessed.smi:2485-2

> <Gold.Version>
5.8.1

> <Gold.Id.Protein>
6NUR|6NUR_protein|mol2

> <Gold.PLP.Fitness>
34.0506

> <Gold.PLP.PLP>
-25.8046

> <Gold.PLP.part.hbond>
-1.5683

> <Gold.PLP.part.metal>
0.0000

> <Gold.PLP.part.buried>
-1.9884

> <Gold.PLP.part.nonpolar>
-23.1105

> <Gold.PLP.part.repulsive>
1.2087

> <Gold.PLP.ligand.clash>
0.0000

> <Gold.PLP.ligand.torsion>
0.3105

> <Gold.PLP.Chemscore.Hbond>
1.9520

> <Gold.PLP.Chemscore.CHOScore>
1.0000

> <Gold.PLP.Chemscore.Metal>
0.0000

> <Gold.Chemscore.Hbonds>
donor molecule, donor type, donor heavy atom, donor atom, acceptor molecule, acceptor atom, score
      L1  H     6    29       P1  7948  0.99
      L1  H     9    30       P1  7948  1.00
      L1  C    13    33       P1  8028  1.00

> <Gold.PLP.Chemscore.Internal.Correction>
0.0111

> <Gold.Rescore>
     Score         DG    S(hbond)    S(metal)    S(lipo)     H(rot)  DE(clash)    DE(int)     intcor
     14.31     -16.67       1.93        0.00      62.56       1.00       0.77       1.60       ----

> <Gold.Chemscore.Fitness>
14.3069

> <Gold.Chemscore.DG>
-16.6736

> <Gold.Chemscore.ZeroCoef>
-5.4800

> <Gold.Chemscore.Hbond>
1.9263

> <Gold.Chemscore.Metal>
0.0000

> <Gold.Chemscore.Lipo>
62.5610

> <Gold.Chemscore.Internal_Hbond>
0.0000

> <Gold.Chemscore.DEClash>
0.7677

> <Gold.Chemscore.DEInternal>
1.5990

> <Gold.Chemscore.Rot>
1.0000

> <Gold.Chemscore.Internal.Correction>
   9.000000E+99

> <Gold.Chemscore.Hbonds>
donor molecule, donor type, donor heavy atom, donor atom, acceptor molecule, acceptor atom, score
      L1  H     6    29       P1  7948  0.89
      L1  H     9    30       P1  7948  0.92

> <Gold.Chemscore.Hbond.Weighted>
-6.4340

> <Gold.Chemscore.Metal.Weighted>
-0.0000

> <Gold.Chemscore.Lipo.Weighted>
-7.3196

> <Gold.Chemscore.Internal_Hbond.Weighted>
0.0000

> <Gold.Chemscore.DEClash.Weighted>
0.7677

> <Gold.Chemscore.DEInternal.Weighted>
1.5990

> <Gold.Chemscore.Rot.Weighted>
2.5600

> <Gold.Chemscore.Internal.Correction.Weighted>
   9.000000E+99

> <Gold.Protein.RotatedTorsions>
[ 6907 6896 6895 6894 ] final  117.67 input  -60.11 | X-H torsion
[ 7974 7965 7964 7962 ] final -149.74 input  175.53 | X-H torsion
[ 8008 7997 7996 7995 ] final  -23.96 input   59.86 | X-H torsion
[ 10167 10162 10161 10158 ] final   47.87 input  -65.29 | X-H torsion
[ 10718 10713 10712 10709 ] final  -40.45 input   66.30 | X-H torsion
[ 10763 10752 10751 10750 ] final    9.38 input  -60.55 | X-H torsion
[ 11005 11000 10999 10996 ] final  123.86 input  -57.11 | X-H torsion

> <Gold.Protein.ActiveResidues>
 VAL166  LYS551  ARG553  GLY616  TRP617  ASP618  TYR619  PRO620  LYS621  CYS622 
 ASP623  PHE694  ASN695  SER759  ASP760  ASP761  ALA762  ILE779  LEU786  VAL792 
 PHE793  MET794  SER795  GLU796  ALA797  LYS798  CYS799  TRP800  GLU811  SER814 

> <Gold.Protein.RotatedAtoms>
  152.4596  133.7794  159.6841 H   0  0  0  0  0  0  0  0  0  0  0  0  # atno 6907 bound_to 6896
  150.8534  133.7742  159.3023 H   0  0  0  0  0  0  0  0  0  0  0  0  # atno 6908 bound_to 6896
  151.5330  135.1071  159.9959 H   0  0  0  0  0  0  0  0  0  0  0  0  # atno 6909 bound_to 6896
  144.7949  140.5024  143.5747 H   0  0  0  0  0  0  0  0  0  0  0  0  # atno 7974 bound_to 7965
  154.4555  140.1966  156.0391 H   0  0  0  0  0  0  0  0  0  0  0  0  # atno 8008 bound_to 7997
  156.0738  140.3281  155.7580 H   0  0  0  0  0  0  0  0  0  0  0  0  # atno 8009 bound_to 7997
  155.5222  140.0571  157.2895 H   0  0  0  0  0  0  0  0  0  0  0  0  # atno 8010 bound_to 7997
  140.2992  144.2954  150.6223 H   0  0  0  0  0  0  0  0  0  0  0  0  # atno 10167 bound_to 10162
  156.2811  130.4217  149.8335 H   0  0  0  0  0  0  0  0  0  0  0  0  # atno 10718 bound_to 10713
  153.2147  135.6873  153.8072 H   0  0  0  0  0  0  0  0  0  0  0  0  # atno 10763 bound_to 10752
  153.7292  135.3255  155.3283 H   0  0  0  0  0  0  0  0  0  0  0  0  # atno 10764 bound_to 10752
  154.8240  135.4631  154.0969 H   0  0  0  0  0  0  0  0  0  0  0  0  # atno 10765 bound_to 10752
  139.9332  134.9641  156.8323 H   0  0  0  0  0  0  0  0  0  0  0  0  # atno 11005 bound_to 11000
  145.5699  139.1483  143.3294 LP  0  0  0  0  0  0  0  0  0  0  0  0  # atno 17320 bound_to 7965
  146.2214  140.5833  142.9015 LP  0  0  0  0  0  0  0  0  0  0  0  0  # atno 17321 bound_to 7965
  140.5666  143.2185  151.7673 LP  0  0  0  0  0  0  0  0  0  0  0  0  # atno 17342 bound_to 10162
  139.4919  144.4276  151.9909 LP  0  0  0  0  0  0  0  0  0  0  0  0  # atno 17343 bound_to 10162
  156.5782  130.8454  151.3375 LP  0  0  0  0  0  0  0  0  0  0  0  0  # atno 17370 bound_to 10713
  157.7315  130.9700  150.1881 LP  0  0  0  0  0  0  0  0  0  0  0  0  # atno 17371 bound_to 10713
  140.6146  134.0051  155.7591 LP  0  0  0  0  0  0  0  0  0  0  0  0  # atno 17394 bound_to 11000
  141.0932  133.9884  157.3203 LP  0  0  0  0  0  0  0  0  0  0  0  0  # atno 17395 bound_to 11000

$$$$
