#       Name:                AV-unprocessed.smi:1809
#       Creating user name   scv26
#       Creation time:       Fri Mar 27 08:57:07 2020


#       File generated by GOLD software.
#

@<TRIPOS>MOLECULE
AV-unprocessed.smi:1809
    46    48     1
SMALL
NO_CHARGES


@<TRIPOS>ATOM
      1 ****        -6.9382   2.7128   2.0113 C.3            1 S1                 0.0000
      2 ****        -5.5878   2.0868   1.9359 C.2            1 S1                 0.0000
      3 ****        -5.3724   0.9007   1.3540 N.2            1 S1                 0.0000
      4 ****        -4.0374   0.5246   1.4042 N.2            1 S1                 0.0000
      5 ****        -3.2826   1.4420   2.0243 C.2            1 S1                 0.0000
      6 ****        -1.8805   1.3147   2.2103 N.am           1 S1                 0.0000
      7 ****        -1.0851   0.2878   1.8634 C.2            1 S1                 0.0000
      8 ****        -1.4616  -0.7578   1.3333 O.2            1 S1                 0.0000
      9 ****         0.1969   0.5415   2.1638 N.am           1 S1                 0.0000
     10 ****         1.3124  -0.3743   1.9411 C.3            1 S1                 0.0000
     11 ****         2.0384  -0.1131   0.6073 C.3            1 S1                 0.0000
     12 ****         1.1842  -0.4315  -0.6352 C.3            1 S1                 0.0000
     13 ****         1.9514  -0.2523  -1.8936 N.4            1 S1                 1.0000
     14 ****         1.2582  -0.8439  -3.0590 C.3            1 S1                 0.0000
     15 ****         1.8656  -2.2432  -3.2679 C.3            1 S1                 0.0000
     16 ****         3.0224  -2.3480  -2.2665 C.3            1 S1                 0.0000
     17 ****         3.2816  -0.8969  -1.8608 C.3            1 S1                 0.0000
     18 ****         4.0246  -0.6889  -0.5267 C.3            1 S1                 0.0000
     19 ****         3.1774  -0.9637   0.5791 O.3            1 S1                 0.0000
     20 ****        -4.1503   2.8560   2.5980 S.3            1 S1                 0.0000
     21 ****        -7.7096   1.9457   2.0852 H              1 S1                 0.0000
     22 ****        -7.1211   3.3106   1.1184 H              1 S1                 0.0000
     23 ****        -7.0060   3.3594   2.8864 H              1 S1                 0.0000
     24 ****        -1.4311   2.1009   2.6562 H              1 S1                 0.0000
     25 ****         0.4168   1.4259   2.5986 H              1 S1                 0.0000
     26 ****         2.0132  -0.2343   2.7647 H              1 S1                 0.0000
     27 ****         0.9832  -1.4132   2.0004 H              1 S1                 0.0000
     28 ****         2.3617   0.9294   0.5824 H              1 S1                 0.0000
     29 ****         0.8178  -1.4574  -0.5667 H              1 S1                 0.0000
     30 ****         0.3079   0.2153  -0.6782 H              1 S1                 0.0000
     31 ****         0.1745  -0.8712  -2.9335 H              1 S1                 0.0000
     32 ****         1.4658  -0.2222  -3.9308 H              1 S1                 0.0000
     33 ****         1.1303  -3.0297  -3.0945 H              1 S1                 0.0000
     34 ****         2.2251  -2.3495  -4.2921 H              1 S1                 0.0000
     35 ****         2.7094  -2.9326  -1.4000 H              1 S1                 0.0000
     36 ****         3.9047  -2.8289  -2.6903 H              1 S1                 0.0000
     37 ****         3.8770  -0.4401  -2.6535 H              1 S1                 0.0000
     38 ****         4.9005  -1.3362  -0.4770 H              1 S1                 0.0000
     39 ****         4.3914   0.3362  -0.4537 H              1 S1                 0.0000
     40 ****         2.0711   0.7403  -2.0374 H              1 S1                 0.0000
     41 ****        -6.0912   0.3487   0.9314 LP             1 S1                 0.0000
     42 ****        -3.6814  -0.3288   1.0233 LP             1 S1                 0.0000
     43 ****        -2.4308  -0.8933   1.1274 LP             1 S1                 0.0000
     44 ****        -0.7982  -1.4716   1.1086 LP             1 S1                 0.0000
     45 ****         2.8690  -1.9132   0.5204 LP             1 S1                 0.0000
     46 ****         3.6974  -0.8338   1.4233 LP             1 S1                 0.0000
@<TRIPOS>BOND
    1    1    2 1     
    2    1   21 1     
    3    1   22 1     
    4    1   23 1     
    5    2   20 1     
    6    2    3 2     
    7    3    4 1     
    8    4    5 2     
    9    5    6 1     
   10    5   20 1     
   11    6    7 am    
   12    6   24 1     
   13    7    8 2     
   14    7    9 am    
   15    9   10 1     
   16    9   25 1     
   17   10   11 1     
   18   10   26 1     
   19   10   27 1     
   20   11   19 1     
   21   11   12 1     
   22   11   28 1     
   23   12   13 1     
   24   12   29 1     
   25   12   30 1     
   26   13   17 1     
   27   13   14 1     
   28   13   40 1     
   29   14   15 1     
   30   14   31 1     
   31   14   32 1     
   32   15   16 1     
   33   15   33 1     
   34   15   34 1     
   35   16   17 1     
   36   16   35 1     
   37   16   36 1     
   38   17   18 1     
   39   17   37 1     
   40   18   19 1     
   41   18   38 1     
   42   18   39 1     
   43    3   41 1     
   44    4   42 1     
   45    8   43 1     
   46    8   44 1     
   47   19   45 1     
   48   19   46 1     
@<TRIPOS>SUBSTRUCTURE
      1 S1             1
@<TRIPOS>SET
LONE_PAIRS      STATIC     ATOMS    <user>   **** ""
6 41 42 43 44 45 46
DONOR_HYDROGENS      STATIC     ATOMS    <user>   **** ""
3 24 25 40
ATOM$BLUE        STATIC     ATOMS    COLORGROUP SYSTEM
6 41 42 43 44 45 46
ATOM$RED        STATIC     ATOMS    COLORGROUP SYSTEM
3 24 25 40
