AV-unprocessed.smi:840|AV-procd|sdf|3914|dock5
  -GOLD-   22720 1373D 1   1.00000     0.00000
 Structure written by MMmdl.
 36 37  0  0  0  0  0  0  0  0  2 V2000
  152.5515  138.5454  156.7981 C   0  0  0  0  0  0  0  0  0  0  0  0
  151.7465  139.0076  158.0244 C   0  0  1  0  0  0  0  0  0  0  0  0
  151.3370  137.8200  158.7732 N   0  0  0  0  0  0  0  0  0  0  0  0
  150.0824  137.3593  158.8939 C   0  0  0  0  0  0  0  0  0  0  0  0
  149.1548  137.9479  158.3327 O   0  0  0  0  0  0  0  0  0  0  0  0
  149.9804  136.2471  159.6567 N   0  5  0  0  0  0  0  0  0  0  0  0
  148.8358  135.9809  160.3067 C   0  0  0  0  0  0  0  0  0  0  0  0
  148.4006  136.7079  161.3419 N   0  0  0  0  0  0  0  0  0  0  0  0
  147.1861  136.2596  161.8641 C   0  0  0  0  0  0  0  0  0  0  0  0
  146.6801  135.1706  161.2057 C   0  0  0  0  0  0  0  0  0  0  0  0
  147.7196  134.6737  159.9008 S   0  0  0  0  0  0  0  0  0  0  0  0
  152.6524  139.8969  158.8905 C   0  0  0  0  0  0  0  0  0  0  0  0
  153.7347  139.4774  159.3043 O   0  0  0  0  0  0  0  0  0  0  0  0
  152.1969  141.1321  159.1473 N   0  0  0  0  0  0  0  0  0  0  0  0
  152.8903  142.1315  159.9548 C   0  0  0  0  0  0  0  0  0  0  0  0
  153.1818  141.6089  161.3765 C   0  0  0  0  0  0  0  0  0  0  0  0
  152.2563  142.3877  162.3117 C   0  0  0  0  0  0  0  0  0  0  0  0
  152.0749  143.7355  161.6213 C   0  0  0  0  0  0  0  0  0  0  0  0
  152.0229  143.3925  160.1316 C   0  0  0  0  0  0  0  0  0  0  0  0
  152.8811  139.3945  156.1983 H   0  0  0  0  0  0  0  0  0  0  0  0
  151.9444  137.9093  156.1531 H   0  0  0  0  0  0  0  0  0  0  0  0
  153.4367  137.9744  157.0827 H   0  0  0  0  0  0  0  0  0  0  0  0
  150.8669  139.5633  157.6933 H   0  0  0  0  0  0  0  0  0  0  0  0
  152.0646  137.3114  159.2533 H   0  0  0  0  0  0  0  0  0  0  0  0
  146.7531  136.7773  162.7071 H   0  0  0  0  0  0  0  0  0  0  0  0
  145.7648  134.6345  161.4052 H   0  0  0  0  0  0  0  0  0  0  0  0
  151.2959  141.3906  158.7719 H   0  0  0  0  0  0  0  0  0  0  0  0
  153.8291  142.4040  159.4691 H   0  0  0  0  0  0  0  0  0  0  0  0
  153.0499  140.5307  161.4807 H   0  0  0  0  0  0  0  0  0  0  0  0
  154.2192  141.8281  161.6320 H   0  0  0  0  0  0  0  0  0  0  0  0
  151.2942  141.8790  162.3836 H   0  0  0  0  0  0  0  0  0  0  0  0
  152.6607  142.4818  163.3199 H   0  0  0  0  0  0  0  0  0  0  0  0
  151.1854  144.2663  161.9614 H   0  0  0  0  0  0  0  0  0  0  0  0
  152.9397  144.3691  161.8225 H   0  0  0  0  0  0  0  0  0  0  0  0
  152.3676  144.2199  159.5107 H   0  0  0  0  0  0  0  0  0  0  0  0
  150.9878  143.1901  159.8516 H   0  0  0  0  0  0  0  0  0  0  0  0
  1  2  1  0  0  0  0
  1 20  1  0  0  0  0
  1 21  1  0  0  0  0
  1 22  1  0  0  0  0
  2  3  1  0  0  0  0
  2 12  1  0  0  0  0
  2 23  1  0  0  0  0
  3  4  1  0  0  0  0
  3 24  1  0  0  0  0
  4  5  2  0  0  0  0
  4  6  1  0  0  0  0
  6  7  1  0  0  0  0
  7 11  1  0  0  0  0
  7  8  2  0  0  0  0
  8  9  1  0  0  0  0
  9 10  2  0  0  0  0
  9 25  1  0  0  0  0
 10 11  1  0  0  0  0
 10 26  1  0  0  0  0
 12 13  2  0  0  0  0
 12 14  1  0  0  0  0
 14 15  1  0  0  0  0
 14 27  1  0  0  0  0
 15 19  1  0  0  0  0
 15 16  1  0  0  0  0
 15 28  1  0  0  0  0
 16 17  1  0  0  0  0
 16 29  1  0  0  0  0
 16 30  1  0  0  0  0
 17 18  1  0  0  0  0
 17 31  1  0  0  0  0
 17 32  1  0  0  0  0
 18 19  1  0  0  0  0
 18 33  1  0  0  0  0
 18 34  1  0  0  0  0
 19 35  1  0  0  0  0
 19 36  1  0  0  0  0
M  CHG  1   6  -1
M  END
> <s_m_source_file>
AV-unprocessed.smi

> <i_m_source_file_index>
840

> <i_lp_mmshare_version>
43012

> <i_f3d_flags>
0

> <s_epik_input>
W0NIMl0xW0NIMl1bQ0gyXVtDSDJdW0NIXTFbTkhdQyg9TylbQ0BIXShbQ0gzXSlbTkhdQyg9TylbTkhdYzJuW2NIXVtjSF1zMg==

> <s_epik_cmdline>
J2VwaWtfcHl0aG9uJywgJy1waCcsICc3LjAnLCAnLXRuJywgJzgnLCAnLW1hJywgJzIwMCcsICctbWV0YWxfYmluZGluZycsICctaW1hZScsICc8aW5maWxlLm1hZT4nLCAnLW9tYWUnLCAnPG91dGZpbGUubWFlPic=

> <r_lp_tautomer_probability>
1

> <r_epik_Ionization_Penalty>
6.35467

> <r_epik_Ionization_Penalty_Charging>
5.47395

> <r_epik_Ionization_Penalty_Neutral>
0.880717

> <r_epik_State_Penalty>
5.4739

> <r_epik_Charging_Adjusted_Penalty>
10.9479

> <i_epik_Tot_Q>
-1

> <i_epik_Tot_abs_Q>
1

> <r_epik_Metal_State_Penalty>
1.48639

> <b_epik_Metal_Only>
1

> <s_lp_Force_Field>
OPLS_2005

> <r_lp_Energy>
13.1034

> <b_lp_Chiralities_Consistent>
1

> <s_lp_Variant>
AV-unprocessed.smi:840-4

> <Gold.Version>
5.8.1

> <Gold.Id.Protein>
6NUR|6NUR_protein|mol2

> <Gold.PLP.Fitness>
50.0017

> <Gold.PLP.PLP>
-39.9765

> <Gold.PLP.part.hbond>
-3.6358

> <Gold.PLP.part.metal>
0.0000

> <Gold.PLP.part.buried>
-5.9824

> <Gold.PLP.part.nonpolar>
-31.0302

> <Gold.PLP.part.repulsive>
0.2311

> <Gold.PLP.ligand.clash>
0.0000

> <Gold.PLP.ligand.torsion>
0.9373

> <Gold.PLP.Chemscore.Hbond>
3.9588

> <Gold.PLP.Chemscore.CHOScore>
0.0000

> <Gold.PLP.Chemscore.Metal>
0.0000

> <Gold.Chemscore.Hbonds>
donor molecule, donor type, donor heavy atom, donor atom, acceptor molecule, acceptor atom, score
      P1  H  6896  6909       L1     6  2.00
      P1  H  6931  6943       L1     8  1.00

> <Gold.PLP.Chemscore.Internal.Correction>
0.0235

> <Gold.Rescore>
     Score         DG    S(hbond)    S(metal)    S(lipo)     H(rot)  DE(clash)    DE(int)     intcor
     20.00     -21.03       2.85        0.00      86.89       1.62       0.00       1.03       ----

> <Gold.Chemscore.Fitness>
19.9986

> <Gold.Chemscore.DG>
-21.0314

> <Gold.Chemscore.ZeroCoef>
-5.4800

> <Gold.Chemscore.Hbond>
2.8544

> <Gold.Chemscore.Metal>
0.0000

> <Gold.Chemscore.Lipo>
86.8886

> <Gold.Chemscore.Internal_Hbond>
0.0000

> <Gold.Chemscore.DEClash>
0.0004

> <Gold.Chemscore.DEInternal>
1.0325

> <Gold.Chemscore.Rot>
1.6204

> <Gold.Chemscore.Internal.Correction>
   9.000000E+99

> <Gold.Chemscore.Hbonds>
donor molecule, donor type, donor heavy atom, donor atom, acceptor molecule, acceptor atom, score
      P1  H  6896  6909       L1     6  0.60
      P1  H  6931  6943       L1     8  0.97

> <Gold.Chemscore.Hbond.Weighted>
-9.5336

> <Gold.Chemscore.Metal.Weighted>
-0.0000

> <Gold.Chemscore.Lipo.Weighted>
-10.1660

> <Gold.Chemscore.Internal_Hbond.Weighted>
0.0000

> <Gold.Chemscore.DEClash.Weighted>
0.0004

> <Gold.Chemscore.DEInternal.Weighted>
1.0325

> <Gold.Chemscore.Rot.Weighted>
4.1481

> <Gold.Chemscore.Internal.Correction.Weighted>
   9.000000E+99

> <Gold.Protein.RotatedTorsions>
[ 6907 6896 6895 6894 ] final   76.31 input  -60.11 | X-H torsion
[ 7974 7965 7964 7962 ] final   87.57 input  175.53 | X-H torsion
[ 8008 7997 7996 7995 ] final  163.25 input   59.86 | X-H torsion
[ 10167 10162 10161 10158 ] final   68.20 input  -65.29 | X-H torsion
[ 10718 10713 10712 10709 ] final  127.24 input   66.30 | X-H torsion
[ 10763 10752 10751 10750 ] final   85.62 input  -60.55 | X-H torsion
[ 11005 11000 10999 10996 ] final   38.84 input  -57.11 | X-H torsion

> <Gold.Protein.ActiveResidues>
 VAL166  LYS551  ARG553  GLY616  TRP617  ASP618  TYR619  PRO620  LYS621  CYS622 
 ASP623  PHE694  ASN695  SER759  ASP760  ASP761  ALA762  ILE779  LEU786  VAL792 
 PHE793  MET794  SER795  GLU796  ALA797  LYS798  CYS799  TRP800  GLU811  SER814 

> <Gold.Protein.RotatedAtoms>
  152.5067  134.3988  159.9409 H   0  0  0  0  0  0  0  0  0  0  0  0  # atno 6907 bound_to 6896
  151.3951  133.3770  159.2733 H   0  0  0  0  0  0  0  0  0  0  0  0  # atno 6908 bound_to 6896
  150.9403  134.8834  159.7667 H   0  0  0  0  0  0  0  0  0  0  0  0  # atno 6909 bound_to 6896
  145.5572  139.2300  143.2480 H   0  0  0  0  0  0  0  0  0  0  0  0  # atno 7974 bound_to 7965
  156.1971  140.1728  156.7975 H   0  0  0  0  0  0  0  0  0  0  0  0  # atno 8008 bound_to 7997
  154.5544  140.0711  156.8750 H   0  0  0  0  0  0  0  0  0  0  0  0  # atno 8009 bound_to 7997
  155.2967  140.3359  155.4252 H   0  0  0  0  0  0  0  0  0  0  0  0  # atno 8010 bound_to 7997
  140.0813  144.5069  150.7160 H   0  0  0  0  0  0  0  0  0  0  0  0  # atno 10167 bound_to 10162
  157.5350  131.1098  150.8949 H   0  0  0  0  0  0  0  0  0  0  0  0  # atno 10718 bound_to 10713
  153.1493  135.4610  154.9612 H   0  0  0  0  0  0  0  0  0  0  0  0  # atno 10763 bound_to 10752
  154.7811  135.3189  154.7989 H   0  0  0  0  0  0  0  0  0  0  0  0  # atno 10764 bound_to 10752
  153.8497  135.6922  153.4848 H   0  0  0  0  0  0  0  0  0  0  0  0  # atno 10765 bound_to 10752
  140.2086  134.3783  155.8060 H   0  0  0  0  0  0  0  0  0  0  0  0  # atno 11005 bound_to 11000
  146.1876  140.6396  142.9160 LP  0  0  0  0  0  0  0  0  0  0  0  0  # atno 17320 bound_to 7965
  144.7500  140.5168  143.6808 LP  0  0  0  0  0  0  0  0  0  0  0  0  # atno 17321 bound_to 7965
  140.7076  143.2480  151.4678 LP  0  0  0  0  0  0  0  0  0  0  0  0  # atno 17342 bound_to 10162
  139.5778  144.1779  152.1927 LP  0  0  0  0  0  0  0  0  0  0  0  0  # atno 17343 bound_to 10162
  156.9519  130.5423  149.5283 LP  0  0  0  0  0  0  0  0  0  0  0  0  # atno 17370 bound_to 10713
  156.0452  130.5529  150.8863 LP  0  0  0  0  0  0  0  0  0  0  0  0  # atno 17371 bound_to 10713
  141.2226  133.7131  156.8380 LP  0  0  0  0  0  0  0  0  0  0  0  0  # atno 17394 bound_to 11000
  140.1975  134.8921  157.3131 LP  0  0  0  0  0  0  0  0  0  0  0  0  # atno 17395 bound_to 11000

$$$$
