AV-unprocessed.smi:2280|AV-procd|sdf|9191|dock5
  -GOLD-   2272012403D 1   1.00000     0.00000
 Structure written by MMmdl.
 41 42  0  0  0  0  0  0  0  0  1 V2000
  146.3241  137.9837  155.4685 C   0  0  0  0  0  0  0  0  0  0  0  0
  147.8168  138.1306  155.2320 C   0  0  0  0  0  0  0  0  0  0  0  0
  148.5622  136.9516  155.3242 N   0  0  0  0  0  0  0  0  0  0  0  0
  149.8426  136.9828  155.1471 C   0  0  0  0  0  0  0  0  0  0  0  0
  150.5191  138.1805  154.8645 N   0  0  0  0  0  0  0  0  0  0  0  0
  151.9776  138.0796  154.6933 C   0  0  0  0  0  0  0  0  0  0  0  0
  152.7452  138.9428  155.7198 C   0  0  2  0  0  0  0  0  0  0  0  0
  154.0989  138.5418  155.7842 O   0  0  0  0  0  0  0  0  0  0  0  0
  152.1648  138.8490  157.1407 C   0  0  0  0  0  0  0  0  0  0  0  0
  152.9020  139.6974  158.0119 O   0  0  0  0  0  0  0  0  0  0  0  0
  152.3993  140.9477  158.3054 C   0  0  0  0  0  0  0  0  0  0  0  0
  151.4722  141.6324  157.4787 C   0  0  0  0  0  0  0  0  0  0  0  0
  150.9997  142.9082  157.8375 C   0  0  0  0  0  0  0  0  0  0  0  0
  151.4455  143.5160  159.0235 C   0  0  0  0  0  0  0  0  0  0  0  0
  152.3653  142.8469  159.8509 C   0  0  0  0  0  0  0  0  0  0  0  0
  152.8464  141.5652  159.4997 C   0  0  0  0  0  0  0  0  0  0  0  0
  153.8427  140.8428  160.4014 C   0  0  0  0  0  0  0  0  0  0  0  0
  153.8271  141.3204  161.6464 F   0  0  0  0  0  0  0  0  0  0  0  0
  153.5477  139.5435  160.4512 F   0  0  0  0  0  0  0  0  0  0  0  0
  155.0766  140.9861  159.9168 F   0  0  0  0  0  0  0  0  0  0  0  0
  149.8661  139.3716  154.7358 C   0  0  0  0  0  0  0  0  0  0  0  0
  150.4666  140.4120  154.4592 O   0  0  0  0  0  0  0  0  0  0  0  0
  148.4104  139.3221  154.9477 C   0  0  0  0  0  0  0  0  0  0  0  0
  147.6502  140.6380  154.8369 C   0  0  0  0  0  0  0  0  0  0  0  0
  146.0108  138.5885  156.3198 H   0  0  0  0  0  0  0  0  0  0  0  0
  146.0548  136.9477  155.6772 H   0  0  0  0  0  0  0  0  0  0  0  0
  145.7650  138.3029  154.5888 H   0  0  0  0  0  0  0  0  0  0  0  0
  150.4693  136.0909  155.2020 H   0  0  0  0  0  0  0  0  0  0  0  0
  152.2669  137.0337  154.8133 H   0  0  0  0  0  0  0  0  0  0  0  0
  152.2884  138.3249  153.6752 H   0  0  0  0  0  0  0  0  0  0  0  0
  152.7292  139.9917  155.4215 H   0  0  0  0  0  0  0  0  0  0  0  0
  154.1349  137.6684  156.1441 H   0  0  0  0  0  0  0  0  0  0  0  0
  151.1043  139.1075  157.1390 H   0  0  0  0  0  0  0  0  0  0  0  0
  152.2551  137.8181  157.4869 H   0  0  0  0  0  0  0  0  0  0  0  0
  151.1068  141.2001  156.5599 H   0  0  0  0  0  0  0  0  0  0  0  0
  150.2940  143.4211  157.2005 H   0  0  0  0  0  0  0  0  0  0  0  0
  151.0826  144.4953  159.2991 H   0  0  0  0  0  0  0  0  0  0  0  0
  152.6960  143.3300  160.7583 H   0  0  0  0  0  0  0  0  0  0  0  0
  147.8035  141.0799  153.8518 H   0  0  0  0  0  0  0  0  0  0  0  0
  148.0118  141.3444  155.5849 H   0  0  0  0  0  0  0  0  0  0  0  0
  146.5768  140.5279  154.9819 H   0  0  0  0  0  0  0  0  0  0  0  0
  1  2  1  0  0  0  0
  1 25  1  0  0  0  0
  1 26  1  0  0  0  0
  1 27  1  0  0  0  0
  2 23  2  0  0  0  0
  2  3  1  0  0  0  0
  3  4  2  0  0  0  0
  4  5  1  0  0  0  0
  4 28  1  0  0  0  0
  5  6  1  0  0  0  0
  5 21  1  0  0  0  0
  6  7  1  0  0  0  0
  6 29  1  0  0  0  0
  6 30  1  0  0  0  0
  7  8  1  0  0  0  0
  7  9  1  0  0  0  0
  7 31  1  0  0  0  0
  8 32  1  0  0  0  0
  9 10  1  0  0  0  0
  9 33  1  0  0  0  0
  9 34  1  0  0  0  0
 10 11  1  0  0  0  0
 11 16  1  0  0  0  0
 11 12  2  0  0  0  0
 12 13  1  0  0  0  0
 12 35  1  0  0  0  0
 13 14  2  0  0  0  0
 13 36  1  0  0  0  0
 14 15  1  0  0  0  0
 14 37  1  0  0  0  0
 15 16  2  0  0  0  0
 15 38  1  0  0  0  0
 16 17  1  0  0  0  0
 17 18  1  0  0  0  0
 17 19  1  0  0  0  0
 17 20  1  0  0  0  0
 21 22  2  0  0  0  0
 21 23  1  0  0  0  0
 23 24  1  0  0  0  0
 24 39  1  0  0  0  0
 24 40  1  0  0  0  0
 24 41  1  0  0  0  0
M  END
> <s_m_source_file>
AV-unprocessed.smi

> <i_m_source_file_index>
2280

> <i_lp_mmshare_version>
43012

> <i_f3d_flags>
0

> <s_epik_input>
W0NIM11jMW5bY0hdbihjKD1PKWMxW0NIM10pW0NIMl1bQ0BIXShbT0hdKVtDSDJdT2MyW2NIXVtjSF1bY0hdW2NIXWMyQyhGKShGKUY=

> <s_epik_cmdline>
J2VwaWtfcHl0aG9uJywgJy1waCcsICc3LjAnLCAnLXRuJywgJzgnLCAnLW1hJywgJzIwMCcsICctbWV0YWxfYmluZGluZycsICctaW1hZScsICc8aW5maWxlLm1hZT4nLCAnLW9tYWUnLCAnPG91dGZpbGUubWFlPic=

> <r_lp_tautomer_probability>
1

> <r_epik_Ionization_Penalty>
3.7476e-05

> <r_epik_Ionization_Penalty_Charging>
8.44705e-08

> <r_epik_Ionization_Penalty_Neutral>
3.73915e-05

> <r_epik_State_Penalty>
-0

> <r_epik_Charging_Adjusted_Penalty>
8.44705e-08

> <i_epik_Tot_Q>
0

> <i_epik_Tot_abs_Q>
0

> <r_epik_Metal_State_Penalty>
-0

> <b_epik_Metal_Only>
0

> <s_lp_Force_Field>
OPLS_2005

> <r_lp_Energy>
25.7706

> <b_lp_Chiralities_Consistent>
1

> <s_lp_Variant>
AV-unprocessed.smi:2280-1

> <Gold.Version>
5.8.1

> <Gold.Id.Protein>
6NUR|6NUR_protein|mol2

> <Gold.PLP.Fitness>
45.7028

> <Gold.PLP.PLP>
-42.3967

> <Gold.PLP.part.hbond>
-2.5714

> <Gold.PLP.part.metal>
0.0000

> <Gold.PLP.part.buried>
-5.1751

> <Gold.PLP.part.nonpolar>
-35.0806

> <Gold.PLP.part.repulsive>
0.2007

> <Gold.PLP.ligand.clash>
0.0000

> <Gold.PLP.ligand.torsion>
1.5925

> <Gold.PLP.Chemscore.Hbond>
1.9920

> <Gold.PLP.Chemscore.CHOScore>
0.0000

> <Gold.PLP.Chemscore.Metal>
0.0000

> <Gold.Chemscore.Hbonds>
donor molecule, donor type, donor heavy atom, donor atom, acceptor molecule, acceptor atom, score
      P1  H  7989  7998       L1    22  1.00
      P1  H  7997  8008       L1    10  0.90

> <Gold.PLP.Chemscore.Internal.Correction>
0.5150

> <Gold.Rescore>
     Score         DG    S(hbond)    S(metal)    S(lipo)     H(rot)  DE(clash)    DE(int)     intcor
     10.39     -13.62       1.19        0.00      95.38       2.73       0.08       3.15       ----

> <Gold.Chemscore.Fitness>
10.3900

> <Gold.Chemscore.DG>
-13.6182

> <Gold.Chemscore.ZeroCoef>
-5.4800

> <Gold.Chemscore.Hbond>
1.1877

> <Gold.Chemscore.Metal>
0.0000

> <Gold.Chemscore.Lipo>
95.3839

> <Gold.Chemscore.Internal_Hbond>
0.0000

> <Gold.Chemscore.DEClash>
0.0754

> <Gold.Chemscore.DEInternal>
3.1529

> <Gold.Chemscore.Rot>
2.7300

> <Gold.Chemscore.Internal.Correction>
   9.000000E+99

> <Gold.Chemscore.Hbonds>
donor molecule, donor type, donor heavy atom, donor atom, acceptor molecule, acceptor atom, score
      P1  H  7989  7998       L1    22  0.94
      P1  H  7997  8008       L1    10  0.08

> <Gold.Chemscore.Hbond.Weighted>
-3.9671

> <Gold.Chemscore.Metal.Weighted>
-0.0000

> <Gold.Chemscore.Lipo.Weighted>
-11.1599

> <Gold.Chemscore.Internal_Hbond.Weighted>
0.0000

> <Gold.Chemscore.DEClash.Weighted>
0.0754

> <Gold.Chemscore.DEInternal.Weighted>
3.1529

> <Gold.Chemscore.Rot.Weighted>
6.9888

> <Gold.Chemscore.Internal.Correction.Weighted>
   9.000000E+99

> <Gold.Protein.RotatedTorsions>
[ 6907 6896 6895 6894 ] final   32.67 input  -60.11 | X-H torsion
[ 7974 7965 7964 7962 ] final  -68.44 input  175.53 | X-H torsion
[ 8008 7997 7996 7995 ] final  -68.03 input   59.86 | X-H torsion
[ 10167 10162 10161 10158 ] final   85.45 input  -65.29 | X-H torsion
[ 10718 10713 10712 10709 ] final   75.24 input   66.30 | X-H torsion
[ 10763 10752 10751 10750 ] final  -48.31 input  -60.55 | X-H torsion
[ 11005 11000 10999 10996 ] final  -77.79 input  -57.11 | X-H torsion

> <Gold.Protein.ActiveResidues>
 VAL166  LYS551  ARG553  GLY616  TRP617  ASP618  TYR619  PRO620  LYS621  CYS622 
 ASP623  PHE694  ASN695  SER759  ASP760  ASP761  ALA762  ILE779  LEU786  VAL792 
 PHE793  MET794  SER795  GLU796  ALA797  LYS798  CYS799  TRP800  GLU811  SER814 

> <Gold.Protein.RotatedAtoms>
  152.0778  134.9491  160.0573 H   0  0  0  0  0  0  0  0  0  0  0  0  # atno 6907 bound_to 6896
  152.0792  133.4139  159.4502 H   0  0  0  0  0  0  0  0  0  0  0  0  # atno 6908 bound_to 6896
  150.6836  134.2922  159.4715 H   0  0  0  0  0  0  0  0  0  0  0  0  # atno 6909 bound_to 6896
  145.7164  140.9057  143.0653 H   0  0  0  0  0  0  0  0  0  0  0  0  # atno 7974 bound_to 7965
  154.4840  140.0881  156.7443 H   0  0  0  0  0  0  0  0  0  0  0  0  # atno 8008 bound_to 7997
  155.4397  140.3453  155.4270 H   0  0  0  0  0  0  0  0  0  0  0  0  # atno 8009 bound_to 7997
  156.1234  140.1480  156.9160 H   0  0  0  0  0  0  0  0  0  0  0  0  # atno 8010 bound_to 7997
  139.8976  144.6348  150.8671 H   0  0  0  0  0  0  0  0  0  0  0  0  # atno 10167 bound_to 10162
  157.6626  130.9717  150.1325 H   0  0  0  0  0  0  0  0  0  0  0  0  # atno 10718 bound_to 10713
  154.0756  135.6598  153.4830 H   0  0  0  0  0  0  0  0  0  0  0  0  # atno 10763 bound_to 10752
  153.0374  135.5168  154.7524 H   0  0  0  0  0  0  0  0  0  0  0  0  # atno 10764 bound_to 10752
  154.6603  135.3014  154.9843 H   0  0  0  0  0  0  0  0  0  0  0  0  # atno 10765 bound_to 10752
  141.1662  133.7036  156.7874 H   0  0  0  0  0  0  0  0  0  0  0  0  # atno 11005 bound_to 11000
  144.6928  139.9144  143.7465 LP  0  0  0  0  0  0  0  0  0  0  0  0  # atno 17320 bound_to 7965
  146.0665  139.3656  143.0549 LP  0  0  0  0  0  0  0  0  0  0  0  0  # atno 17321 bound_to 7965
  140.7713  143.3461  151.2108 LP  0  0  0  0  0  0  0  0  0  0  0  0  # atno 17342 bound_to 10162
  139.7053  143.9465  152.2924 LP  0  0  0  0  0  0  0  0  0  0  0  0  # atno 17343 bound_to 10162
  156.2168  130.3671  149.8603 LP  0  0  0  0  0  0  0  0  0  0  0  0  # atno 17370 bound_to 10713
  156.6467  130.8727  151.3524 LP  0  0  0  0  0  0  0  0  0  0  0  0  # atno 17371 bound_to 10713
  140.2350  134.8657  157.3516 LP  0  0  0  0  0  0  0  0  0  0  0  0  # atno 17394 bound_to 11000
  140.1852  134.4440  155.7748 LP  0  0  0  0  0  0  0  0  0  0  0  0  # atno 17395 bound_to 11000

$$$$
