AV-unprocessed.smi:1686|AV-procd|sdf|6764|dock1
  -GOLD-   22720 7523D 1   1.00000     0.00000
 Structure written by MMmdl.
 41 43  0  0  0  0  0  0  0  0  1 V2000
  146.0614  143.2409  154.4336 C   0  0  0  0  0  0  0  0  0  0  0  0
  146.3130  142.1407  155.4243 C   0  0  0  0  0  0  0  0  0  0  0  0
  145.4431  141.9370  156.4052 N   0  0  0  0  0  0  0  0  0  0  0  0
  145.9390  140.8647  157.1558 O   0  0  0  0  0  0  0  0  0  0  0  0
  147.0962  140.4757  156.5735 C   0  0  0  0  0  0  0  0  0  0  0  0
  148.0407  139.1765  157.1848 Cl  0  0  0  0  0  0  0  0  0  0  0  0
  147.4048  141.2252  155.4750 C   0  0  0  0  0  0  0  0  0  0  0  0
  148.5901  141.1277  154.5490 C   0  0  0  0  0  0  0  0  0  0  0  0
  149.8770  141.0982  155.3728 C   0  0  0  0  0  0  0  0  0  0  0  0
  150.8291  140.4119  155.0016 O   0  0  0  0  0  0  0  0  0  0  0  0
  149.8974  141.8579  156.4788 N   0  0  0  0  0  0  0  0  0  0  0  0
  151.0453  142.0289  157.3661 C   0  0  2  0  0  0  0  0  0  0  0  0
  150.8863  141.1296  158.6048 C   0  0  0  0  0  0  0  0  0  0  0  0
  151.1957  143.5194  157.7531 C   0  0  1  0  0  0  0  0  0  0  0  0
  150.2983  143.9732  158.9264 C   0  0  0  0  0  0  0  0  0  0  0  0
  151.2884  144.6887  159.8645 C   0  0  1  0  0  0  0  0  0  0  0  0
  152.1713  143.6383  160.5636 C   0  0  0  0  0  0  0  0  0  0  0  0
  153.0981  143.1660  159.4288 C   0  0  0  0  0  0  0  0  0  0  0  0
  152.5989  143.9832  158.2195 C   0  0  2  0  0  0  0  0  0  0  0  0
  152.2669  145.3173  158.8799 C   0  0  0  0  0  0  0  0  0  0  0  0
  146.9970  143.6648  154.0687 H   0  0  0  0  0  0  0  0  0  0  0  0
  145.4847  144.0541  154.8757 H   0  0  0  0  0  0  0  0  0  0  0  0
  145.5069  142.8694  153.5719 H   0  0  0  0  0  0  0  0  0  0  0  0
  148.5311  140.2392  153.9186 H   0  0  0  0  0  0  0  0  0  0  0  0
  148.6332  141.9774  153.8670 H   0  0  0  0  0  0  0  0  0  0  0  0
  149.0677  142.3876  156.7032 H   0  0  0  0  0  0  0  0  0  0  0  0
  151.9468  141.7152  156.8374 H   0  0  0  0  0  0  0  0  0  0  0  0
  151.7344  141.2334  159.2817 H   0  0  0  0  0  0  0  0  0  0  0  0
  150.8232  140.0776  158.3247 H   0  0  0  0  0  0  0  0  0  0  0  0
  149.9838  141.3787  159.1638 H   0  0  0  0  0  0  0  0  0  0  0  0
  150.9368  144.1170  156.8771 H   0  0  0  0  0  0  0  0  0  0  0  0
  149.5267  144.6587  158.5737 H   0  0  0  0  0  0  0  0  0  0  0  0
  149.7977  143.1441  159.4282 H   0  0  0  0  0  0  0  0  0  0  0  0
  150.8118  145.3870  160.5530 H   0  0  0  0  0  0  0  0  0  0  0  0
  152.7517  144.0905  161.3687 H   0  0  0  0  0  0  0  0  0  0  0  0
  151.5863  142.8228  160.9904 H   0  0  0  0  0  0  0  0  0  0  0  0
  154.1340  143.4208  159.6563 H   0  0  0  0  0  0  0  0  0  0  0  0
  153.0593  142.0887  159.2701 H   0  0  0  0  0  0  0  0  0  0  0  0
  153.3254  144.0544  157.4105 H   0  0  0  0  0  0  0  0  0  0  0  0
  151.7996  146.0347  158.2030 H   0  0  0  0  0  0  0  0  0  0  0  0
  153.1249  145.7883  159.3633 H   0  0  0  0  0  0  0  0  0  0  0  0
  1  2  1  0  0  0  0
  1 21  1  0  0  0  0
  1 22  1  0  0  0  0
  1 23  1  0  0  0  0
  2  7  1  0  0  0  0
  2  3  2  0  0  0  0
  3  4  1  0  0  0  0
  4  5  1  0  0  0  0
  5  6  1  0  0  0  0
  5  7  2  0  0  0  0
  7  8  1  0  0  0  0
  8  9  1  0  0  0  0
  8 24  1  0  0  0  0
  8 25  1  0  0  0  0
  9 10  2  0  0  0  0
  9 11  1  0  0  0  0
 11 12  1  0  0  0  0
 11 26  1  0  0  0  0
 12 13  1  0  0  0  0
 12 14  1  0  0  0  0
 12 27  1  0  0  0  0
 13 28  1  0  0  0  0
 13 29  1  0  0  0  0
 13 30  1  0  0  0  0
 14 19  1  0  0  0  0
 14 15  1  0  0  0  0
 14 31  1  0  0  0  0
 15 16  1  0  0  0  0
 15 32  1  0  0  0  0
 15 33  1  0  0  0  0
 16 20  1  0  0  0  0
 16 17  1  0  0  0  0
 16 34  1  0  0  0  0
 17 18  1  0  0  0  0
 17 35  1  0  0  0  0
 17 36  1  0  0  0  0
 18 19  1  0  0  0  0
 18 37  1  0  0  0  0
 18 38  1  0  0  0  0
 19 20  1  0  0  0  0
 19 39  1  0  0  0  0
 20 40  1  0  0  0  0
 20 41  1  0  0  0  0
M  END
> <s_m_source_file>
AV-unprocessed.smi

> <i_m_source_file_index>
1686

> <i_lp_mmshare_version>
43012

> <i_f3d_flags>
0

> <s_epik_input>
W0NIM11jMW5vYyhDbCljMVtDSDJdQyg9TylbTkhdW0NASF0oW0NIM10pW0NASF0oW0NIMl1bQ0BIXTIzKVtDQEhdKFtDSDJdMylbQ0gyXVtDSDJdMg==

> <s_epik_cmdline>
J2VwaWtfcHl0aG9uJywgJy1waCcsICc3LjAnLCAnLXRuJywgJzgnLCAnLW1hJywgJzIwMCcsICctbWV0YWxfYmluZGluZycsICctaW1hZScsICc8aW5maWxlLm1hZT4nLCAnLW9tYWUnLCAnPG91dGZpbGUubWFlPic=

> <r_lp_tautomer_probability>
1

> <r_epik_Ionization_Penalty>
2.01576e-08

> <r_epik_Ionization_Penalty_Charging>
0

> <r_epik_Ionization_Penalty_Neutral>
2.01576e-08

> <r_epik_State_Penalty>
-0

> <r_epik_Charging_Adjusted_Penalty>
0

> <i_epik_Tot_Q>
0

> <i_epik_Tot_abs_Q>
0

> <r_epik_Metal_State_Penalty>
-0

> <b_epik_Metal_Only>
0

> <s_lp_Force_Field>
OPLS_2005

> <r_lp_Energy>
45.5839

> <b_lp_Chiralities_Consistent>
1

> <s_lp_Variant>
AV-unprocessed.smi:1686-7

> <Gold.Version>
5.8.1

> <Gold.Id.Protein>
6NUR|6NUR_protein|mol2

> <Gold.PLP.Fitness>
44.8929

> <Gold.PLP.PLP>
-44.0471

> <Gold.PLP.part.hbond>
-1.4544

> <Gold.PLP.part.metal>
0.0000

> <Gold.PLP.part.buried>
-5.7379

> <Gold.PLP.part.nonpolar>
-37.3909

> <Gold.PLP.part.repulsive>
0.2071

> <Gold.PLP.ligand.clash>
0.0000

> <Gold.PLP.ligand.torsion>
1.1061

> <Gold.PLP.Chemscore.Hbond>
1.0000

> <Gold.PLP.Chemscore.CHOScore>
0.0000

> <Gold.PLP.Chemscore.Metal>
0.0000

> <Gold.Chemscore.Hbonds>
donor molecule, donor type, donor heavy atom, donor atom, acceptor molecule, acceptor atom, score
      P1  H  7989  7998       L1    10  1.00

> <Gold.PLP.Chemscore.Internal.Correction>
0.0580

> <Gold.Rescore>
     Score         DG    S(hbond)    S(metal)    S(lipo)     H(rot)  DE(clash)    DE(int)     intcor
     17.40     -18.00       0.86        0.00     114.52       1.46       0.00       0.59       ----

> <Gold.Chemscore.Fitness>
17.4019

> <Gold.Chemscore.DG>
-17.9974

> <Gold.Chemscore.ZeroCoef>
-5.4800

> <Gold.Chemscore.Hbond>
0.8589

> <Gold.Chemscore.Metal>
0.0000

> <Gold.Chemscore.Lipo>
114.5197

> <Gold.Chemscore.Internal_Hbond>
0.0000

> <Gold.Chemscore.DEClash>
0.0015

> <Gold.Chemscore.DEInternal>
0.5941

> <Gold.Chemscore.Rot>
1.4648

> <Gold.Chemscore.Internal.Correction>
   9.000000E+99

> <Gold.Chemscore.Hbonds>
donor molecule, donor type, donor heavy atom, donor atom, acceptor molecule, acceptor atom, score
      P1  H  7989  7998       L1    10  0.92

> <Gold.Chemscore.Hbond.Weighted>
-2.8686

> <Gold.Chemscore.Metal.Weighted>
-0.0000

> <Gold.Chemscore.Lipo.Weighted>
-13.3988

> <Gold.Chemscore.Internal_Hbond.Weighted>
0.0000

> <Gold.Chemscore.DEClash.Weighted>
0.0015

> <Gold.Chemscore.DEInternal.Weighted>
0.5941

> <Gold.Chemscore.Rot.Weighted>
3.7500

> <Gold.Chemscore.Internal.Correction.Weighted>
   9.000000E+99

> <Gold.Protein.RotatedTorsions>
[ 6907 6896 6895 6894 ] final   53.47 input  -60.11 | X-H torsion
[ 7974 7965 7964 7962 ] final  -57.46 input  175.53 | X-H torsion
[ 8008 7997 7996 7995 ] final  -64.56 input   59.86 | X-H torsion
[ 10167 10162 10161 10158 ] final  -44.04 input  -65.29 | X-H torsion
[ 10718 10713 10712 10709 ] final  162.33 input   66.30 | X-H torsion
[ 10763 10752 10751 10750 ] final   66.91 input  -60.55 | X-H torsion
[ 11005 11000 10999 10996 ] final  -34.99 input  -57.11 | X-H torsion

> <Gold.Protein.ActiveResidues>
 VAL166  LYS551  ARG553  GLY616  TRP617  ASP618  TYR619  PRO620  LYS621  CYS622 
 ASP623  PHE694  ASN695  SER759  ASP760  ASP761  ALA762  ILE779  LEU786  VAL792 
 PHE793  MET794  SER795  GLU796  ALA797  LYS798  CYS799  TRP800  GLU811  SER814 

> <Gold.Protein.RotatedAtoms>
  152.3340  134.7222  160.0281 H   0  0  0  0  0  0  0  0  0  0  0  0  # atno 6907 bound_to 6896
  151.7629  133.3330  159.3431 H   0  0  0  0  0  0  0  0  0  0  0  0  # atno 6908 bound_to 6896
  150.7440  134.6021  159.6086 H   0  0  0  0  0  0  0  0  0  0  0  0  # atno 6909 bound_to 6896
  145.8508  140.8354  142.9987 H   0  0  0  0  0  0  0  0  0  0  0  0  # atno 7974 bound_to 7965
  154.4619  140.0951  156.6916 H   0  0  0  0  0  0  0  0  0  0  0  0  # atno 8008 bound_to 7997
  155.4969  140.3472  155.4346 H   0  0  0  0  0  0  0  0  0  0  0  0  # atno 8009 bound_to 7997
  156.0886  140.1391  156.9610 H   0  0  0  0  0  0  0  0  0  0  0  0  # atno 8010 bound_to 7997
  140.6912  143.2951  151.3438 H   0  0  0  0  0  0  0  0  0  0  0  0  # atno 10167 bound_to 10162
  157.1241  131.0500  151.2401 H   0  0  0  0  0  0  0  0  0  0  0  0  # atno 10718 bound_to 10713
  153.0161  135.5303  154.6897 H   0  0  0  0  0  0  0  0  0  0  0  0  # atno 10763 bound_to 10752
  154.6035  135.2870  155.0512 H   0  0  0  0  0  0  0  0  0  0  0  0  # atno 10764 bound_to 10752
  154.1560  135.6555  153.5027 H   0  0  0  0  0  0  0  0  0  0  0  0  # atno 10765 bound_to 10752
  140.9760  133.7082  156.1603 H   0  0  0  0  0  0  0  0  0  0  0  0  # atno 11005 bound_to 11000
  144.6729  140.0950  143.7463 LP  0  0  0  0  0  0  0  0  0  0  0  0  # atno 17320 bound_to 7965
  145.9360  139.2637  143.1297 LP  0  0  0  0  0  0  0  0  0  0  0  0  # atno 17321 bound_to 7965
  139.6317  144.0709  152.2481 LP  0  0  0  0  0  0  0  0  0  0  0  0  # atno 17342 bound_to 10162
  140.0186  144.6170  150.7586 LP  0  0  0  0  0  0  0  0  0  0  0  0  # atno 17343 bound_to 10162
  157.4450  130.7566  149.7102 LP  0  0  0  0  0  0  0  0  0  0  0  0  # atno 17370 bound_to 10713
  155.9822  130.4012  150.3430 LP  0  0  0  0  0  0  0  0  0  0  0  0  # atno 17371 bound_to 10713
  140.7258  134.4309  157.5571 LP  0  0  0  0  0  0  0  0  0  0  0  0  # atno 17394 bound_to 11000
  139.8931  134.8739  156.2240 LP  0  0  0  0  0  0  0  0  0  0  0  0  # atno 17395 bound_to 11000

$$$$
