AV-unprocessed.smi:1887|AV-procd|sdf|7656|dock7
  -GOLD-   22720 9393D 1   1.00000     0.00000
 Structure written by MMmdl.
 43 45  0  0  0  0  0  0  0  0  2 V2000
  151.1060  138.4850  154.8204 C   0  0  0  0  0  0  0  0  0  0  0  0
  151.5080  139.7422  155.3327 O   0  0  0  0  0  0  0  0  0  0  0  0
  152.3713  139.6265  156.4515 C   0  0  0  0  0  0  0  0  0  0  0  0
  151.6039  139.9830  157.7320 C   0  0  0  0  0  0  0  0  0  0  0  0
  152.4265  139.8215  158.9287 N   0  0  0  0  0  0  0  0  0  0  0  0
  152.8499  140.7843  159.7878 C   0  0  0  0  0  0  0  0  0  0  0  0
  152.5076  142.1406  159.6061 N   0  0  0  0  0  0  0  0  0  0  0  0
  152.1802  142.5969  158.3793 N   0  0  0  0  0  0  0  0  0  0  0  0
  151.9308  143.8839  158.5511 C   0  0  0  0  0  0  0  0  0  0  0  0
  151.5122  144.7071  157.3671 C   0  0  0  0  0  0  0  0  0  0  0  0
  152.1090  144.2967  159.9041 C   0  0  0  0  0  0  0  0  0  0  0  0
  151.9214  145.6766  160.4726 C   0  0  0  0  0  0  0  0  0  0  0  0
  152.4861  143.1504  160.5508 C   0  0  0  0  0  0  0  0  0  0  0  0
  152.8307  142.9184  161.9884 C   0  0  0  0  0  0  0  0  0  0  0  0
  153.5753  140.3435  160.8174 N   0  0  0  0  0  0  0  0  0  0  0  0
  153.6218  138.9753  160.5913 C   0  0  0  0  0  0  0  0  0  0  0  0
  152.9336  138.6360  159.4675 C   0  0  0  0  0  0  0  0  0  0  0  0
  152.7826  137.2478  158.9805 C   0  0  0  0  0  0  0  0  0  0  0  0
  152.1399  136.9989  157.9624 O   0  0  0  0  0  0  0  0  0  0  0  0
  153.4213  136.3445  159.7899 N   0  5  0  0  0  0  0  0  0  0  0  0
  154.1293  136.6418  160.9348 C   0  0  0  0  0  0  0  0  0  0  0  0
  154.6696  135.7652  161.6108 O   0  0  0  0  0  0  0  0  0  0  0  0
  154.2430  137.9439  161.3473 N   0  0  0  0  0  0  0  0  0  0  0  0
  154.9877  138.2889  162.5616 C   0  0  0  0  0  0  0  0  0  0  0  0
  150.4502  138.6340  153.9628 H   0  0  0  0  0  0  0  0  0  0  0  0
  150.5568  137.9127  155.5690 H   0  0  0  0  0  0  0  0  0  0  0  0
  151.9654  137.8999  154.4908 H   0  0  0  0  0  0  0  0  0  0  0  0
  152.7637  138.6109  156.5189 H   0  0  0  0  0  0  0  0  0  0  0  0
  153.2231  140.2973  156.3325 H   0  0  0  0  0  0  0  0  0  0  0  0
  151.2378  141.0078  157.6869 H   0  0  0  0  0  0  0  0  0  0  0  0
  150.7121  139.3632  157.8091 H   0  0  0  0  0  0  0  0  0  0  0  0
  151.5845  145.7742  157.5763 H   0  0  0  0  0  0  0  0  0  0  0  0
  150.4800  144.4935  157.0895 H   0  0  0  0  0  0  0  0  0  0  0  0
  152.1404  144.4995  156.5004 H   0  0  0  0  0  0  0  0  0  0  0  0
  152.3830  145.7834  161.4542 H   0  0  0  0  0  0  0  0  0  0  0  0
  150.8654  145.9218  160.5857 H   0  0  0  0  0  0  0  0  0  0  0  0
  152.3629  146.4403  159.8326 H   0  0  0  0  0  0  0  0  0  0  0  0
  152.3026  143.6190  162.6348 H   0  0  0  0  0  0  0  0  0  0  0  0
  153.9005  143.0473  162.1517 H   0  0  0  0  0  0  0  0  0  0  0  0
  152.5613  141.9119  162.3087 H   0  0  0  0  0  0  0  0  0  0  0  0
  156.0102  137.9125  162.5060 H   0  0  0  0  0  0  0  0  0  0  0  0
  154.5091  137.8492  163.4375 H   0  0  0  0  0  0  0  0  0  0  0  0
  155.0491  139.3645  162.7261 H   0  0  0  0  0  0  0  0  0  0  0  0
  1  2  1  0  0  0  0
  1 25  1  0  0  0  0
  1 26  1  0  0  0  0
  1 27  1  0  0  0  0
  2  3  1  0  0  0  0
  3  4  1  0  0  0  0
  3 28  1  0  0  0  0
  3 29  1  0  0  0  0
  4  5  1  0  0  0  0
  4 30  1  0  0  0  0
  4 31  1  0  0  0  0
  5 17  1  0  0  0  0
  5  6  1  0  0  0  0
  6  7  1  0  0  0  0
  6 15  2  0  0  0  0
  7 13  1  0  0  0  0
  7  8  1  0  0  0  0
  8  9  2  0  0  0  0
  9 10  1  0  0  0  0
  9 11  1  0  0  0  0
 10 32  1  0  0  0  0
 10 33  1  0  0  0  0
 10 34  1  0  0  0  0
 11 12  1  0  0  0  0
 11 13  2  0  0  0  0
 12 35  1  0  0  0  0
 12 36  1  0  0  0  0
 12 37  1  0  0  0  0
 13 14  1  0  0  0  0
 14 38  1  0  0  0  0
 14 39  1  0  0  0  0
 14 40  1  0  0  0  0
 15 16  1  0  0  0  0
 16 23  1  0  0  0  0
 16 17  2  0  0  0  0
 17 18  1  0  0  0  0
 18 19  2  0  0  0  0
 18 20  1  0  0  0  0
 20 21  1  0  0  0  0
 21 22  2  0  0  0  0
 21 23  1  0  0  0  0
 23 24  1  0  0  0  0
 24 41  1  0  0  0  0
 24 42  1  0  0  0  0
 24 43  1  0  0  0  0
M  CHG  1  20  -1
M  END
> <s_m_source_file>
AV-unprocessed.smi

> <i_m_source_file_index>
1887

> <i_lp_mmshare_version>
43012

> <i_f3d_flags>
0

> <s_epik_input>
W0NIM11uMWMoPU8pW25IXWMoPU8pYyhjMTIpbihbQ0gyXVtDSDJdT1tDSDNdKWMobjIpLW4zbmMoW0NIM10pYyhbQ0gzXSljM1tDSDNd

> <s_epik_cmdline>
J2VwaWtfcHl0aG9uJywgJy1waCcsICc3LjAnLCAnLXRuJywgJzgnLCAnLW1hJywgJzIwMCcsICctbWV0YWxfYmluZGluZycsICctaW1hZScsICc8aW5maWxlLm1hZT4nLCAnLW9tYWUnLCAnPG91dGZpbGUubWFlPic=

> <r_lp_tautomer_probability>
1

> <r_epik_Ionization_Penalty>
3.98818

> <r_epik_Ionization_Penalty_Charging>
0.0180637

> <r_epik_Ionization_Penalty_Neutral>
3.97012

> <r_epik_State_Penalty>
3.96767

> <r_epik_Charging_Adjusted_Penalty>
3.98573

> <i_epik_Tot_Q>
-1

> <i_epik_Tot_abs_Q>
1

> <r_epik_Metal_State_Penalty>
0.612715

> <b_epik_Metal_Only>
1

> <s_lp_Force_Field>
OPLS_2005

> <r_lp_Energy>
28.3599

> <b_lp_Chiralities_Consistent>
1

> <s_lp_Variant>
AV-unprocessed.smi:1887-2

> <Gold.Version>
5.8.1

> <Gold.Id.Protein>
6NUR|6NUR_protein|mol2

> <Gold.PLP.Fitness>
54.3942

> <Gold.PLP.PLP>
-46.1321

> <Gold.PLP.part.hbond>
-2.0000

> <Gold.PLP.part.metal>
0.0000

> <Gold.PLP.part.buried>
-2.1073

> <Gold.PLP.part.nonpolar>
-41.8046

> <Gold.PLP.part.repulsive>
0.0285

> <Gold.PLP.ligand.clash>
0.0000

> <Gold.PLP.ligand.torsion>
0.5765

> <Gold.PLP.Chemscore.Hbond>
3.0000

> <Gold.PLP.Chemscore.CHOScore>
0.0000

> <Gold.PLP.Chemscore.Metal>
0.0000

> <Gold.Chemscore.Hbonds>
donor molecule, donor type, donor heavy atom, donor atom, acceptor molecule, acceptor atom, score
      P1  H  6896  6907       L1    20  2.00
      P1  H  7989  7998       L1     2  0.70

> <Gold.PLP.Chemscore.Internal.Correction>
0.4152

> <Gold.Rescore>
     Score         DG    S(hbond)    S(metal)    S(lipo)     H(rot)  DE(clash)    DE(int)     intcor
     15.82     -19.01       1.87        0.00      94.67       1.48       0.08       3.11       ----

> <Gold.Chemscore.Fitness>
15.8179

> <Gold.Chemscore.DG>
-19.0061

> <Gold.Chemscore.ZeroCoef>
-5.4800

> <Gold.Chemscore.Hbond>
1.8704

> <Gold.Chemscore.Metal>
0.0000

> <Gold.Chemscore.Lipo>
94.6673

> <Gold.Chemscore.Internal_Hbond>
0.0000

> <Gold.Chemscore.DEClash>
0.0787

> <Gold.Chemscore.DEInternal>
3.1095

> <Gold.Chemscore.Rot>
1.4832

> <Gold.Chemscore.Internal.Correction>
   9.000000E+99

> <Gold.Chemscore.Hbonds>
donor molecule, donor type, donor heavy atom, donor atom, acceptor molecule, acceptor atom, score
      P1  H  6896  6907       L1    20  0.63
      P1  H  7989  7998       L1     2  0.17

> <Gold.Chemscore.Hbond.Weighted>
-6.2470

> <Gold.Chemscore.Metal.Weighted>
-0.0000

> <Gold.Chemscore.Lipo.Weighted>
-11.0761

> <Gold.Chemscore.Internal_Hbond.Weighted>
0.0000

> <Gold.Chemscore.DEClash.Weighted>
0.0787

> <Gold.Chemscore.DEInternal.Weighted>
3.1095

> <Gold.Chemscore.Rot.Weighted>
3.7970

> <Gold.Chemscore.Internal.Correction.Weighted>
   9.000000E+99

> <Gold.Protein.RotatedTorsions>
[ 6907 6896 6895 6894 ] final   56.29 input  -60.11 | X-H torsion
[ 7974 7965 7964 7962 ] final -154.30 input  175.53 | X-H torsion
[ 8008 7997 7996 7995 ] final  -35.39 input   59.86 | X-H torsion
[ 10167 10162 10161 10158 ] final -138.92 input  -65.29 | X-H torsion
[ 10718 10713 10712 10709 ] final -139.93 input   66.30 | X-H torsion
[ 10763 10752 10751 10750 ] final   -7.24 input  -60.55 | X-H torsion
[ 11005 11000 10999 10996 ] final -133.60 input  -57.11 | X-H torsion

> <Gold.Protein.ActiveResidues>
 VAL166  LYS551  ARG553  GLY616  TRP617  ASP618  TYR619  PRO620  LYS621  CYS622 
 ASP623  PHE694  ASN695  SER759  ASP760  ASP761  ALA762  ILE779  LEU786  VAL792 
 PHE793  MET794  SER795  GLU796  ALA797  LYS798  CYS799  TRP800  GLU811  SER814 

> <Gold.Protein.RotatedAtoms>
  152.3622  134.6856  160.0203 H   0  0  0  0  0  0  0  0  0  0  0  0  # atno 6907 bound_to 6896
  151.7176  133.3308  159.3315 H   0  0  0  0  0  0  0  0  0  0  0  0  # atno 6908 bound_to 6896
  150.7613  134.6411  159.6282 H   0  0  0  0  0  0  0  0  0  0  0  0  # atno 6909 bound_to 6896
  144.7696  140.4407  143.5916 H   0  0  0  0  0  0  0  0  0  0  0  0  # atno 7974 bound_to 7965
  154.4097  140.1658  156.2204 H   0  0  0  0  0  0  0  0  0  0  0  0  # atno 8008 bound_to 7997
  155.9368  140.3411  155.6271 H   0  0  0  0  0  0  0  0  0  0  0  0  # atno 8009 bound_to 7997
  155.7038  140.0748  157.2390 H   0  0  0  0  0  0  0  0  0  0  0  0  # atno 8010 bound_to 7997
  139.8431  143.7296  152.2662 H   0  0  0  0  0  0  0  0  0  0  0  0  # atno 10167 bound_to 10162
  156.3164  130.7510  151.1598 H   0  0  0  0  0  0  0  0  0  0  0  0  # atno 10718 bound_to 10713
  153.4236  135.7010  153.6278 H   0  0  0  0  0  0  0  0  0  0  0  0  # atno 10763 bound_to 10752
  153.4722  135.3712  155.2397 H   0  0  0  0  0  0  0  0  0  0  0  0  # atno 10764 bound_to 10752
  154.8723  135.4045  154.3608 H   0  0  0  0  0  0  0  0  0  0  0  0  # atno 10765 bound_to 10752
  140.9065  134.1622  157.4421 H   0  0  0  0  0  0  0  0  0  0  0  0  # atno 11005 bound_to 11000
  145.6363  139.1543  143.2941 LP  0  0  0  0  0  0  0  0  0  0  0  0  # atno 17320 bound_to 7965
  146.1833  140.6463  142.9179 LP  0  0  0  0  0  0  0  0  0  0  0  0  # atno 17321 bound_to 7965
  139.7539  144.7526  151.0464 LP  0  0  0  0  0  0  0  0  0  0  0  0  # atno 17342 bound_to 10162
  140.7796  143.4828  150.9996 LP  0  0  0  0  0  0  0  0  0  0  0  0  # atno 17343 bound_to 10162
  157.7402  131.0519  150.5179 LP  0  0  0  0  0  0  0  0  0  0  0  0  # atno 17370 bound_to 10713
  156.5325  130.4188  149.6194 LP  0  0  0  0  0  0  0  0  0  0  0  0  # atno 17371 bound_to 10713
  139.8750  134.9919  156.5571 LP  0  0  0  0  0  0  0  0  0  0  0  0  # atno 17394 bound_to 11000
  140.8164  133.8388  155.8856 LP  0  0  0  0  0  0  0  0  0  0  0  0  # atno 17395 bound_to 11000

$$$$
