AV-unprocessed.smi:2010|AV-procd|sdf|8152|dock4
  -GOLD-   2272010393D 1   1.00000     0.00000
 Structure written by MMmdl.
 40 41  0  0  0  0  0  0  0  0  2 V2000
  152.2946  144.2101  158.1991 C   0  0  0  0  0  0  0  0  0  0  0  0
  152.1372  142.9099  158.9998 C   0  0  0  0  0  0  0  0  0  0  0  0
  153.4780  142.4422  159.5868 C   0  0  0  0  0  0  0  0  0  0  0  0
  153.3254  141.1243  160.3683 C   0  0  0  0  0  0  0  0  0  0  0  0
  152.6937  140.0693  159.5477 N   0  0  0  0  0  0  0  0  0  0  0  0
  153.7012  138.8980  158.7401 S   0  0  0  0  0  0  0  0  0  0  0  0
  155.0816  139.3952  158.8611 O   0  0  0  0  0  0  0  0  0  0  0  0
  153.3906  137.5922  159.3442 O   0  0  0  0  0  0  0  0  0  0  0  0
  153.0751  139.0723  157.2556 N   0  5  0  0  0  0  0  0  0  0  0  0
  153.0454  137.9506  156.3298 C   0  0  1  0  0  0  0  0  0  0  0  0
  152.1236  136.8652  156.9072 C   0  0  0  0  0  0  0  0  0  0  0  0
  152.6205  138.4224  154.9109 C   0  0  0  0  0  0  0  0  0  0  0  0
  151.2283  138.8492  154.7813 N   0  0  0  0  0  0  0  0  0  0  0  0
  150.1535  138.1505  154.2651 C   0  0  0  0  0  0  0  0  0  0  0  0
  149.0598  138.9647  154.3372 C   0  0  0  0  0  0  0  0  0  0  0  0
  149.5706  140.1658  154.9024 C   0  0  0  0  0  0  0  0  0  0  0  0
  150.8673  140.1005  155.1521 N   0  0  0  0  0  0  0  0  0  0  0  0
  151.4096  140.4714  158.9365 C   0  0  0  0  0  0  0  0  0  0  0  0
  151.5410  141.7834  158.1406 C   0  0  0  0  0  0  0  0  0  0  0  0
  152.9737  144.0753  157.3566 H   0  0  0  0  0  0  0  0  0  0  0  0
  152.6931  145.0100  158.8236 H   0  0  0  0  0  0  0  0  0  0  0  0
  151.3356  144.5461  157.8040 H   0  0  0  0  0  0  0  0  0  0  0  0
  151.4533  143.1062  159.8266 H   0  0  0  0  0  0  0  0  0  0  0  0
  154.2088  142.3191  158.7876 H   0  0  0  0  0  0  0  0  0  0  0  0
  153.8819  143.2091  160.2481 H   0  0  0  0  0  0  0  0  0  0  0  0
  154.2956  140.7895  160.7340 H   0  0  0  0  0  0  0  0  0  0  0  0
  152.7054  141.2925  161.2493 H   0  0  0  0  0  0  0  0  0  0  0  0
  154.0355  137.5029  156.2368 H   0  0  0  0  0  0  0  0  0  0  0  0
  152.0468  136.0166  156.2274 H   0  0  0  0  0  0  0  0  0  0  0  0
  151.1162  137.2409  157.0884 H   0  0  0  0  0  0  0  0  0  0  0  0
  152.5087  136.4902  157.8561 H   0  0  0  0  0  0  0  0  0  0  0  0
  153.2664  139.2319  154.5696 H   0  0  0  0  0  0  0  0  0  0  0  0
  152.7793  137.6080  154.2034 H   0  0  0  0  0  0  0  0  0  0  0  0
  150.2562  137.1387  153.9017 H   0  0  0  0  0  0  0  0  0  0  0  0
  148.0498  138.7372  154.0314 H   0  0  0  0  0  0  0  0  0  0  0  0
  149.0425  141.0793  155.1325 H   0  0  0  0  0  0  0  0  0  0  0  0
  151.0314  139.6759  158.2951 H   0  0  0  0  0  0  0  0  0  0  0  0
  150.6759  140.6003  159.7323 H   0  0  0  0  0  0  0  0  0  0  0  0
  150.5595  142.0802  157.7702 H   0  0  0  0  0  0  0  0  0  0  0  0
  152.1596  141.6219  157.2576 H   0  0  0  0  0  0  0  0  0  0  0  0
  1  2  1  0  0  0  0
  1 20  1  0  0  0  0
  1 21  1  0  0  0  0
  1 22  1  0  0  0  0
  2 19  1  0  0  0  0
  2  3  1  0  0  0  0
  2 23  1  0  0  0  0
  3  4  1  0  0  0  0
  3 24  1  0  0  0  0
  3 25  1  0  0  0  0
  4  5  1  0  0  0  0
  4 26  1  0  0  0  0
  4 27  1  0  0  0  0
  5  6  1  0  0  0  0
  5 18  1  0  0  0  0
  6  7  2  0  0  0  0
  6  8  2  0  0  0  0
  6  9  1  0  0  0  0
  9 10  1  0  0  0  0
 10 11  1  0  0  0  0
 10 12  1  0  0  0  0
 10 28  1  0  0  0  0
 11 29  1  0  0  0  0
 11 30  1  0  0  0  0
 11 31  1  0  0  0  0
 12 13  1  0  0  0  0
 12 32  1  0  0  0  0
 12 33  1  0  0  0  0
 13 17  1  0  0  0  0
 13 14  1  0  0  0  0
 14 15  2  0  0  0  0
 14 34  1  0  0  0  0
 15 16  1  0  0  0  0
 15 35  1  0  0  0  0
 16 17  2  0  0  0  0
 16 36  1  0  0  0  0
 18 19  1  0  0  0  0
 18 37  1  0  0  0  0
 18 38  1  0  0  0  0
 19 39  1  0  0  0  0
 19 40  1  0  0  0  0
M  CHG  1   9  -1
M  END
> <s_m_source_file>
AV-unprocessed.smi

> <i_m_source_file_index>
2010

> <i_lp_mmshare_version>
43012

> <i_f3d_flags>
0

> <s_epik_input>
W0NIM11bQ0hdMVtDSDJdW0NIMl1OKFtDSDJdW0NIMl0xKVMoPU8pKD1PKVtOSF1bQ0BIXShbQ0gzXSlbQ0gyXW4yW2NIXVtjSF1bY0hdbjI=

> <s_epik_cmdline>
J2VwaWtfcHl0aG9uJywgJy1waCcsICc3LjAnLCAnLXRuJywgJzgnLCAnLW1hJywgJzIwMCcsICctbWV0YWxfYmluZGluZycsICctaW1hZScsICc8aW5maWxlLm1hZT4nLCAnLW9tYWUnLCAnPG91dGZpbGUubWFlPic=

> <r_lp_tautomer_probability>
1

> <r_epik_Ionization_Penalty>
1.75622

> <r_epik_Ionization_Penalty_Charging>
1.7562

> <r_epik_Ionization_Penalty_Neutral>
2.39925e-05

> <r_epik_State_Penalty>
1.86645

> <r_epik_Charging_Adjusted_Penalty>
3.62264

> <i_epik_Tot_Q>
-1

> <i_epik_Tot_abs_Q>
1

> <r_epik_Metal_State_Penalty>
0.460135

> <b_epik_Metal_Only>
0

> <s_lp_Force_Field>
OPLS_2005

> <r_lp_Energy>
3.33366

> <b_lp_Chiralities_Consistent>
1

> <s_lp_Variant>
AV-unprocessed.smi:2010-4

> <Gold.Version>
5.8.1

> <Gold.Id.Protein>
6NUR|6NUR_protein|mol2

> <Gold.PLP.Fitness>
51.9478

> <Gold.PLP.PLP>
-41.4914

> <Gold.PLP.part.hbond>
-3.0000

> <Gold.PLP.part.metal>
0.0000

> <Gold.PLP.part.buried>
-3.0425

> <Gold.PLP.part.nonpolar>
-35.8524

> <Gold.PLP.part.repulsive>
0.0423

> <Gold.PLP.ligand.clash>
0.0369

> <Gold.PLP.ligand.torsion>
2.1178

> <Gold.PLP.Chemscore.Hbond>
2.7640

> <Gold.PLP.Chemscore.CHOScore>
1.1063

> <Gold.PLP.Chemscore.Metal>
0.0000

> <Gold.Chemscore.Hbonds>
donor molecule, donor type, donor heavy atom, donor atom, acceptor molecule, acceptor atom, score
      P1  H  7989  7998       L1    17  0.60
      P1  H  7997  8008       L1     9  1.90
      P1  H  7997  8010       L1     7  0.35
      L1  C    14    34       P1  7948  0.84
      L1  C    14    34       P1  7949  0.09

> <Gold.PLP.Chemscore.Internal.Correction>
3.1181

> <Gold.Rescore>
     Score         DG    S(hbond)    S(metal)    S(lipo)     H(rot)  DE(clash)    DE(int)     intcor
     13.28     -16.62       0.77        0.00     103.00       1.37       0.08       3.26       ----

> <Gold.Chemscore.Fitness>
13.2811

> <Gold.Chemscore.DG>
-16.6171

> <Gold.Chemscore.ZeroCoef>
-5.4800

> <Gold.Chemscore.Hbond>
0.7729

> <Gold.Chemscore.Metal>
0.0000

> <Gold.Chemscore.Lipo>
102.9952

> <Gold.Chemscore.Internal_Hbond>
0.0000

> <Gold.Chemscore.DEClash>
0.0785

> <Gold.Chemscore.DEInternal>
3.2575

> <Gold.Chemscore.Rot>
1.3652

> <Gold.Chemscore.Internal.Correction>
   9.000000E+99

> <Gold.Chemscore.Hbonds>
donor molecule, donor type, donor heavy atom, donor atom, acceptor molecule, acceptor atom, score
      P1  H  7989  7998       L1    17  0.01
      P1  H  7997  8008       L1     9  0.06
      P1  H  7997  8010       L1     7  0.32

> <Gold.Chemscore.Hbond.Weighted>
-2.5815

> <Gold.Chemscore.Metal.Weighted>
-0.0000

> <Gold.Chemscore.Lipo.Weighted>
-12.0504

> <Gold.Chemscore.Internal_Hbond.Weighted>
0.0000

> <Gold.Chemscore.DEClash.Weighted>
0.0785

> <Gold.Chemscore.DEInternal.Weighted>
3.2575

> <Gold.Chemscore.Rot.Weighted>
3.4948

> <Gold.Chemscore.Internal.Correction.Weighted>
   9.000000E+99

> <Gold.Protein.RotatedTorsions>
[ 6907 6896 6895 6894 ] final  -56.97 input  -60.11 | X-H torsion
[ 7974 7965 7964 7962 ] final  119.96 input  175.53 | X-H torsion
[ 8008 7997 7996 7995 ] final  -51.95 input   59.86 | X-H torsion
[ 10167 10162 10161 10158 ] final   74.06 input  -65.29 | X-H torsion
[ 10718 10713 10712 10709 ] final -113.34 input   66.30 | X-H torsion
[ 10763 10752 10751 10750 ] final  -45.65 input  -60.55 | X-H torsion
[ 11005 11000 10999 10996 ] final  -34.54 input  -57.11 | X-H torsion

> <Gold.Protein.ActiveResidues>
 VAL166  LYS551  ARG553  GLY616  TRP617  ASP618  TYR619  PRO620  LYS621  CYS622 
 ASP623  PHE694  ASN695  SER759  ASP760  ASP761  ALA762  ILE779  LEU786  VAL792 
 PHE793  MET794  SER795  GLU796  ALA797  LYS798  CYS799  TRP800  GLU811  SER814 

> <Gold.Protein.RotatedAtoms>
  150.8124  134.7286  159.6699 H   0  0  0  0  0  0  0  0  0  0  0  0  # atno 6907 bound_to 6896
  152.4243  134.5894  159.9979 H   0  0  0  0  0  0  0  0  0  0  0  0  # atno 6908 bound_to 6896
  151.6100  133.3311  159.3101 H   0  0  0  0  0  0  0  0  0  0  0  0  # atno 6909 bound_to 6896
  145.1369  139.3292  143.4636 H   0  0  0  0  0  0  0  0  0  0  0  0  # atno 7974 bound_to 7965
  154.4095  140.1235  156.4912 H   0  0  0  0  0  0  0  0  0  0  0  0  # atno 8008 bound_to 7997
  155.6988  140.3495  155.4904 H   0  0  0  0  0  0  0  0  0  0  0  0  # atno 8009 bound_to 7997
  155.9404  140.1086  157.1050 H   0  0  0  0  0  0  0  0  0  0  0  0  # atno 8010 bound_to 7997
  140.0178  144.5564  150.7606 H   0  0  0  0  0  0  0  0  0  0  0  0  # atno 10167 bound_to 10162
  156.0761  130.5968  150.8629 H   0  0  0  0  0  0  0  0  0  0  0  0  # atno 10718 bound_to 10713
  154.0321  135.6655  153.4781 H   0  0  0  0  0  0  0  0  0  0  0  0  # atno 10763 bound_to 10752
  153.0536  135.5069  154.7923 H   0  0  0  0  0  0  0  0  0  0  0  0  # atno 10764 bound_to 10752
  154.6872  135.3055  154.9496 H   0  0  0  0  0  0  0  0  0  0  0  0  # atno 10765 bound_to 10752
  140.9724  133.7102  156.1546 H   0  0  0  0  0  0  0  0  0  0  0  0  # atno 11005 bound_to 11000
  146.3509  140.1391  142.8595 LP  0  0  0  0  0  0  0  0  0  0  0  0  # atno 17320 bound_to 7965
  145.0574  140.9063  143.4959 LP  0  0  0  0  0  0  0  0  0  0  0  0  # atno 17321 bound_to 7965
  140.7355  143.2741  151.3795 LP  0  0  0  0  0  0  0  0  0  0  0  0  # atno 17342 bound_to 10162
  139.6161  144.1001  152.2346 LP  0  0  0  0  0  0  0  0  0  0  0  0  # atno 17343 bound_to 10162
  157.5856  131.0945  150.9201 LP  0  0  0  0  0  0  0  0  0  0  0  0  # atno 17370 bound_to 10713
  156.9387  130.5376  149.5280 LP  0  0  0  0  0  0  0  0  0  0  0  0  # atno 17371 bound_to 10713
  140.7309  134.4256  157.5566 LP  0  0  0  0  0  0  0  0  0  0  0  0  # atno 17394 bound_to 11000
  139.8917  134.8772  156.2305 LP  0  0  0  0  0  0  0  0  0  0  0  0  # atno 17395 bound_to 11000

$$$$
