AV-unprocessed.smi:3234|AV-procd|sdf|12356|dock3
  -GOLD-   2272018213D 1   1.00000     0.00000
 Structure written by MMmdl.
 37 39  0  0  0  0  0  0  0  0  4 V2000
  144.2845  136.7719  152.2754 O   0  0  0  0  0  0  0  0  0  0  0  0
  145.4845  136.8863  152.0006 C   0  0  0  0  0  0  0  0  0  0  0  0
  146.1793  135.8305  151.5406 N   0  0  0  0  0  0  0  0  0  0  0  0
  145.7431  134.4921  151.3497 C   0  0  0  0  0  0  0  0  0  0  0  0
  146.6942  133.4606  151.5100 C   0  0  0  0  0  0  0  0  0  0  0  0
  146.2954  132.1179  151.3512 C   0  0  0  0  0  0  0  0  0  0  0  0
  145.0086  131.8282  151.0622 N   0  3  0  0  0  0  0  0  0  0  0  0
  144.0603  132.7791  150.9185 C   0  0  0  0  0  0  0  0  0  0  0  0
  144.3999  134.1393  151.0647 C   0  0  0  0  0  0  0  0  0  0  0  0
  146.2492  138.0092  152.0772 N   0  5  0  0  0  0  0  0  0  0  0  0
  146.8338  138.5405  153.3119 C   0  0  2  0  0  0  0  0  0  0  0  0
  145.8412  138.4256  154.4848 C   0  0  0  0  0  0  0  0  0  0  0  0
  145.8887  139.7872  155.1754 C   0  0  0  0  0  0  0  0  0  0  0  0
  146.1830  140.7359  154.0885 N   0  3  1  0  0  0  0  0  0  0  0  0
  146.6398  142.0652  154.5459 C   0  0  0  0  0  0  0  0  0  0  0  0
  145.5563  142.8787  155.2121 C   0  0  0  0  0  0  0  0  0  0  0  0
  145.9967  143.2116  153.8030 C   0  0  0  0  0  0  0  0  0  0  0  0
  147.1179  140.0485  153.1757 C   0  0  0  0  0  0  0  0  0  0  0  0
  147.1190  136.0322  151.2319 H   0  0  0  0  0  0  0  0  0  0  0  0
  147.7227  133.6945  151.7452 H   0  0  0  0  0  0  0  0  0  0  0  0
  146.9620  131.2737  151.4488 H   0  0  0  0  0  0  0  0  0  0  0  0
  143.0633  132.4262  150.6993 H   0  0  0  0  0  0  0  0  0  0  0  0
  143.6270  134.8871  150.9700 H   0  0  0  0  0  0  0  0  0  0  0  0
  147.7668  138.0413  153.5780 H   0  0  0  0  0  0  0  0  0  0  0  0
  144.8254  138.2477  154.1265 H   0  0  0  0  0  0  0  0  0  0  0  0
  146.0930  137.6095  155.1628 H   0  0  0  0  0  0  0  0  0  0  0  0
  144.9515  140.0312  155.6766 H   0  0  0  0  0  0  0  0  0  0  0  0
  146.6854  139.8144  155.9228 H   0  0  0  0  0  0  0  0  0  0  0  0
  147.6728  142.1354  154.8828 H   0  0  0  0  0  0  0  0  0  0  0  0
  144.5747  142.4250  155.3373 H   0  0  0  0  0  0  0  0  0  0  0  0
  145.8567  143.5631  156.0028 H   0  0  0  0  0  0  0  0  0  0  0  0
  146.5869  144.1154  153.6662 H   0  0  0  0  0  0  0  0  0  0  0  0
  145.3088  142.9779  152.9922 H   0  0  0  0  0  0  0  0  0  0  0  0
  148.1439  140.2494  153.4888 H   0  0  0  0  0  0  0  0  0  0  0  0
  147.0104  140.4267  152.1577 H   0  0  0  0  0  0  0  0  0  0  0  0
  145.3231  140.8574  153.5731 H   0  0  0  0  0  0  0  0  0  0  0  0
  144.7400  130.8499  150.9538 H   0  0  0  0  0  0  0  0  0  0  0  0
  1  2  2  0  0  0  0
  2  3  1  0  0  0  0
  2 10  1  0  0  0  0
  3  4  1  0  0  0  0
  3 19  1  0  0  0  0
  4  9  1  0  0  0  0
  4  5  2  0  0  0  0
  5  6  1  0  0  0  0
  5 20  1  0  0  0  0
  6  7  2  0  0  0  0
  6 21  1  0  0  0  0
  7  8  1  0  0  0  0
  7 37  1  0  0  0  0
  8  9  2  0  0  0  0
  8 22  1  0  0  0  0
  9 23  1  0  0  0  0
 10 11  1  0  0  0  0
 11 18  1  0  0  0  0
 11 12  1  0  0  0  0
 11 24  1  0  0  0  0
 12 13  1  0  0  0  0
 12 25  1  0  0  0  0
 12 26  1  0  0  0  0
 13 14  1  0  0  0  0
 13 27  1  0  0  0  0
 13 28  1  0  0  0  0
 14 15  1  0  0  0  0
 14 18  1  0  0  0  0
 14 36  1  0  0  0  0
 15 17  1  0  0  0  0
 15 16  1  0  0  0  0
 15 29  1  0  0  0  0
 16 17  1  0  0  0  0
 16 30  1  0  0  0  0
 16 31  1  0  0  0  0
 17 32  1  0  0  0  0
 17 33  1  0  0  0  0
 18 34  1  0  0  0  0
 18 35  1  0  0  0  0
M  CHG  1   7   1
M  CHG  1  10  -1
M  CHG  1  14   1
M  END
> <s_m_source_file>
AV-unprocessed.smi

> <i_m_source_file_index>
3234

> <i_lp_mmshare_version>
43012

> <i_f3d_flags>
0

> <s_epik_input>
W2NIXTFbY0hdbltjSF1bY0hdYzFbTkhdQyg9TylbTkhdW0NAQEhdMltDSDJdW0NIMl1OKFtDSDJdMilbQ0hdM1tDSDJdW0NIMl0z

> <s_epik_cmdline>
J2VwaWtfcHl0aG9uJywgJy1waCcsICc3LjAnLCAnLXRuJywgJzgnLCAnLW1hJywgJzIwMCcsICctbWV0YWxfYmluZGluZycsICctaW1hZScsICc8aW5maWxlLm1hZT4nLCAnLW9tYWUnLCAnPG91dGZpbGUubWFlPic=

> <r_epik_Ionization_Penalty>
8.3234

> <r_epik_Ionization_Penalty_Charging>
8.3234

> <r_epik_Ionization_Penalty_Neutral>
3.58513e-06

> <r_epik_State_Penalty>
7.99376

> <r_epik_Charging_Adjusted_Penalty>
16.3172

> <i_epik_Tot_Q>
1

> <i_epik_Tot_abs_Q>
3

> <r_epik_Metal_State_Penalty>
3.98956

> <b_epik_Metal_Only>
1

> <s_lp_Force_Field>
OPLS_2005

> <r_lp_Energy>
40.8871

> <b_lp_Chiralities_Consistent>
1

> <s_lp_Variant>
AV-unprocessed.smi:3234-9

> <Gold.Version>
5.8.1

> <Gold.Id.Protein>
6NUR|6NUR_protein|mol2

> <Gold.PLP.Fitness>
37.5858

> <Gold.PLP.PLP>
-31.2903

> <Gold.PLP.part.hbond>
-2.0000

> <Gold.PLP.part.metal>
0.0000

> <Gold.PLP.part.buried>
-6.3219

> <Gold.PLP.part.nonpolar>
-24.2259

> <Gold.PLP.part.repulsive>
0.8838

> <Gold.PLP.ligand.clash>
0.0000

> <Gold.PLP.ligand.torsion>
1.8778

> <Gold.PLP.Chemscore.Hbond>
2.9280

> <Gold.PLP.Chemscore.CHOScore>
0.0000

> <Gold.PLP.Chemscore.Metal>
0.0000

> <Gold.Chemscore.Hbonds>
donor molecule, donor type, donor heavy atom, donor atom, acceptor molecule, acceptor atom, score
      L1  H     3    19       P1  7948  0.90
      L1  H    14    36       P1 10175  2.00

> <Gold.PLP.Chemscore.Internal.Correction>
1.2671

> <Gold.Rescore>
     Score         DG    S(hbond)    S(metal)    S(lipo)     H(rot)  DE(clash)    DE(int)     intcor
     12.98     -16.09       1.89        0.00      63.31       1.21       0.05       3.06       ----

> <Gold.Chemscore.Fitness>
12.9810

> <Gold.Chemscore.DG>
-16.0916

> <Gold.Chemscore.ZeroCoef>
-5.4800

> <Gold.Chemscore.Hbond>
1.8872

> <Gold.Chemscore.Metal>
0.0000

> <Gold.Chemscore.Lipo>
63.3150

> <Gold.Chemscore.Internal_Hbond>
0.0000

> <Gold.Chemscore.DEClash>
0.0500

> <Gold.Chemscore.DEInternal>
3.0606

> <Gold.Chemscore.Rot>
1.2108

> <Gold.Chemscore.Internal.Correction>
   9.000000E+99

> <Gold.Chemscore.Hbonds>
donor molecule, donor type, donor heavy atom, donor atom, acceptor molecule, acceptor atom, score
      L1  H     3    19       P1  7948  0.87
      L1  H    14    36       P1 10175  0.79

> <Gold.Chemscore.Hbond.Weighted>
-6.3033

> <Gold.Chemscore.Metal.Weighted>
-0.0000

> <Gold.Chemscore.Lipo.Weighted>
-7.4079

> <Gold.Chemscore.Internal_Hbond.Weighted>
0.0000

> <Gold.Chemscore.DEClash.Weighted>
0.0500

> <Gold.Chemscore.DEInternal.Weighted>
3.0606

> <Gold.Chemscore.Rot.Weighted>
3.0996

> <Gold.Chemscore.Internal.Correction.Weighted>
   9.000000E+99

> <Gold.Protein.RotatedTorsions>
[ 6907 6896 6895 6894 ] final -149.49 input  -60.11 | X-H torsion
[ 7974 7965 7964 7962 ] final -152.95 input  175.53 | X-H torsion
[ 8008 7997 7996 7995 ] final   27.57 input   59.86 | X-H torsion
[ 10167 10162 10161 10158 ] final  -95.99 input  -65.29 | X-H torsion
[ 10718 10713 10712 10709 ] final -102.91 input   66.30 | X-H torsion
[ 10763 10752 10751 10750 ] final   47.12 input  -60.55 | X-H torsion
[ 11005 11000 10999 10996 ] final   49.83 input  -57.11 | X-H torsion

> <Gold.Protein.ActiveResidues>
 VAL166  LYS551  ARG553  GLY616  TRP617  ASP618  TYR619  PRO620  LYS621  CYS622 
 ASP623  PHE694  ASN695  SER759  ASP760  ASP761  ALA762  ILE779  LEU786  VAL792 
 PHE793  MET794  SER795  GLU796  ALA797  LYS798  CYS799  TRP800  GLU811  SER814 

> <Gold.Protein.RotatedAtoms>
  151.1849  133.4702  159.2594 H   0  0  0  0  0  0  0  0  0  0  0  0  # atno 6907 bound_to 6896
  151.1222  135.0085  159.8553 H   0  0  0  0  0  0  0  0  0  0  0  0  # atno 6908 bound_to 6896
  152.5456  134.1759  159.8669 H   0  0  0  0  0  0  0  0  0  0  0  0  # atno 6909 bound_to 6896
  144.7766  140.4592  143.5869 H   0  0  0  0  0  0  0  0  0  0  0  0  # atno 7974 bound_to 7965
  155.0450  140.3173  155.4711 H   0  0  0  0  0  0  0  0  0  0  0  0  # atno 8008 bound_to 7997
  156.2846  140.2156  156.5518 H   0  0  0  0  0  0  0  0  0  0  0  0  # atno 8009 bound_to 7997
  154.7258  140.0485  157.0669 H   0  0  0  0  0  0  0  0  0  0  0  0  # atno 8010 bound_to 7997
  140.2984  143.3177  152.0273 H   0  0  0  0  0  0  0  0  0  0  0  0  # atno 10167 bound_to 10162
  156.0246  130.5442  150.7176 H   0  0  0  0  0  0  0  0  0  0  0  0  # atno 10718 bound_to 10713
  152.9803  135.5986  154.3710 H   0  0  0  0  0  0  0  0  0  0  0  0  # atno 10763 bound_to 10752
  154.3383  135.2768  155.2437 H   0  0  0  0  0  0  0  0  0  0  0  0  # atno 10764 bound_to 10752
  154.4530  135.5985  153.6260 H   0  0  0  0  0  0  0  0  0  0  0  0  # atno 10765 bound_to 10752
  140.1069  134.5006  155.8712 H   0  0  0  0  0  0  0  0  0  0  0  0  # atno 11005 bound_to 11000
  145.6167  139.1519  143.3045 LP  0  0  0  0  0  0  0  0  0  0  0  0  # atno 17320 bound_to 7965
  146.1950  140.6280  142.9128 LP  0  0  0  0  0  0  0  0  0  0  0  0  # atno 17321 bound_to 7965
  139.4921  144.6474  151.6750 LP  0  0  0  0  0  0  0  0  0  0  0  0  # atno 17342 bound_to 10162
  140.5672  144.0170  150.6198 LP  0  0  0  0  0  0  0  0  0  0  0  0  # atno 17343 bound_to 10162
  157.4799  131.0901  151.0547 LP  0  0  0  0  0  0  0  0  0  0  0  0  # atno 17370 bound_to 10713
  157.0984  130.5971  149.5454 LP  0  0  0  0  0  0  0  0  0  0  0  0  # atno 17371 bound_to 10713
  141.2120  133.6714  156.6629 LP  0  0  0  0  0  0  0  0  0  0  0  0  # atno 17394 bound_to 11000
  140.3143  134.8060  157.4202 LP  0  0  0  0  0  0  0  0  0  0  0  0  # atno 17395 bound_to 11000

$$$$
