AV-unprocessed.smi:486|AV-procd|sdf|2696|dock8
  -GOLD-   2262023133D 1   1.00000     0.00000
 Structure written by MMmdl.
 43 45  0  0  0  0  0  0  0  0  1 V2000
  144.7609  132.3900  161.7625 C   0  0  0  0  0  0  0  0  0  0  0  0
  145.1744  133.5027  162.5420 O   0  0  0  0  0  0  0  0  0  0  0  0
  145.9947  134.4398  161.9509 C   0  0  0  0  0  0  0  0  0  0  0  0
  146.3924  135.5349  162.7425 C   0  0  0  0  0  0  0  0  0  0  0  0
  147.2290  136.5375  162.2174 C   0  0  0  0  0  0  0  0  0  0  0  0
  147.6891  136.4695  160.8880 C   0  0  0  0  0  0  0  0  0  0  0  0
  148.5040  137.4934  160.4543 O   0  0  0  0  0  0  0  0  0  0  0  0
  148.7941  137.5786  159.0655 C   0  0  0  0  0  0  0  0  0  0  0  0
  150.2172  138.1390  158.8881 C   0  0  1  0  0  0  0  0  0  0  0  0
  151.1379  137.1426  159.2807 O   0  0  0  0  0  0  0  0  0  0  0  0
  150.5660  138.5245  157.4346 C   0  0  0  0  0  0  0  0  0  0  0  0
  150.6539  139.9632  157.2235 N   0  0  0  0  0  0  0  0  0  0  0  0
  150.1863  140.6823  156.1736 C   0  0  0  0  0  0  0  0  0  0  0  0
  149.4696  140.0376  155.0297 C   0  0  0  0  0  0  0  0  0  0  0  0
  150.4025  141.9967  156.2263 N   0  0  0  0  0  0  0  0  0  0  0  0
  151.0688  142.1465  157.4272 C   0  0  0  0  0  0  0  0  0  0  0  0
  151.5765  143.3048  158.0579 C   0  0  0  0  0  0  0  0  0  0  0  0
  152.2342  143.2104  159.3019 C   0  0  0  0  0  0  0  0  0  0  0  0
  152.3912  141.9598  159.9335 C   0  0  0  0  0  0  0  0  0  0  0  0
  151.8920  140.7933  159.3231 C   0  0  0  0  0  0  0  0  0  0  0  0
  151.2385  140.8924  158.0798 C   0  0  0  0  0  0  0  0  0  0  0  0
  147.2918  135.3701  160.0874 C   0  0  0  0  0  0  0  0  0  0  0  0
  146.4542  134.3668  160.6128 C   0  0  0  0  0  0  0  0  0  0  0  0
  144.1197  131.7474  162.3657 H   0  0  0  0  0  0  0  0  0  0  0  0
  145.6135  131.7925  161.4366 H   0  0  0  0  0  0  0  0  0  0  0  0
  144.1855  132.7043  160.8908 H   0  0  0  0  0  0  0  0  0  0  0  0
  146.0522  135.6077  163.7652 H   0  0  0  0  0  0  0  0  0  0  0  0
  147.5210  137.3683  162.8430 H   0  0  0  0  0  0  0  0  0  0  0  0
  148.6943  136.6100  158.5722 H   0  0  0  0  0  0  0  0  0  0  0  0
  148.0691  138.2587  158.6193 H   0  0  0  0  0  0  0  0  0  0  0  0
  150.3487  139.0075  159.5335 H   0  0  0  0  0  0  0  0  0  0  0  0
  152.0077  137.5113  159.2464 H   0  0  0  0  0  0  0  0  0  0  0  0
  151.5128  138.0711  157.1398 H   0  0  0  0  0  0  0  0  0  0  0  0
  149.8167  138.1228  156.7510 H   0  0  0  0  0  0  0  0  0  0  0  0
  149.1590  140.7881  154.3021 H   0  0  0  0  0  0  0  0  0  0  0  0
  148.5794  139.5180  155.3845 H   0  0  0  0  0  0  0  0  0  0  0  0
  150.1206  139.3239  154.5259 H   0  0  0  0  0  0  0  0  0  0  0  0
  151.4606  144.2676  157.5825 H   0  0  0  0  0  0  0  0  0  0  0  0
  152.6203  144.1021  159.7735 H   0  0  0  0  0  0  0  0  0  0  0  0
  152.8962  141.8962  160.8864 H   0  0  0  0  0  0  0  0  0  0  0  0
  152.0144  139.8337  159.8029 H   0  0  0  0  0  0  0  0  0  0  0  0
  147.6153  135.2716  159.0625 H   0  0  0  0  0  0  0  0  0  0  0  0
  146.1774  133.5489  159.9653 H   0  0  0  0  0  0  0  0  0  0  0  0
  1  2  1  0  0  0  0
  1 24  1  0  0  0  0
  1 25  1  0  0  0  0
  1 26  1  0  0  0  0
  2  3  1  0  0  0  0
  3 23  1  0  0  0  0
  3  4  2  0  0  0  0
  4  5  1  0  0  0  0
  4 27  1  0  0  0  0
  5  6  2  0  0  0  0
  5 28  1  0  0  0  0
  6  7  1  0  0  0  0
  6 22  1  0  0  0  0
  7  8  1  0  0  0  0
  8  9  1  0  0  0  0
  8 29  1  0  0  0  0
  8 30  1  0  0  0  0
  9 10  1  0  0  0  0
  9 11  1  0  0  0  0
  9 31  1  0  0  0  0
 10 32  1  0  0  0  0
 11 12  1  0  0  0  0
 11 33  1  0  0  0  0
 11 34  1  0  0  0  0
 12 21  1  0  0  0  0
 12 13  1  0  0  0  0
 13 14  1  0  0  0  0
 13 15  2  0  0  0  0
 14 35  1  0  0  0  0
 14 36  1  0  0  0  0
 14 37  1  0  0  0  0
 15 16  1  0  0  0  0
 16 21  2  0  0  0  0
 16 17  1  0  0  0  0
 17 18  2  0  0  0  0
 17 38  1  0  0  0  0
 18 19  1  0  0  0  0
 18 39  1  0  0  0  0
 19 20  2  0  0  0  0
 19 40  1  0  0  0  0
 20 21  1  0  0  0  0
 20 41  1  0  0  0  0
 22 23  2  0  0  0  0
 22 42  1  0  0  0  0
 23 43  1  0  0  0  0
M  END
> <s_m_source_file>
AV-unprocessed.smi

> <i_m_source_file_index>
486

> <i_lp_mmshare_version>
43012

> <i_f3d_flags>
0

> <s_epik_input>
W0NIM11PYzFbY0hdW2NIXWMoW2NIXVtjSF0xKU9bQ0gyXVtDQEhdKFtPSF0pW0NIMl1uKGMobjIpW0NIM10pYyhjMjMpW2NIXVtjSF1bY0hdW2NIXTM=

> <s_epik_cmdline>
J2VwaWtfcHl0aG9uJywgJy1waCcsICc3LjAnLCAnLXRuJywgJzgnLCAnLW1hJywgJzIwMCcsICctbWV0YWxfYmluZGluZycsICctaW1hZScsICc8aW5maWxlLm1hZT4nLCAnLW9tYWUnLCAnPG91dGZpbGUubWFlPic=

> <r_lp_tautomer_probability>
1

> <r_epik_Ionization_Penalty>
0.114052

> <r_epik_Ionization_Penalty_Charging>
0

> <r_epik_Ionization_Penalty_Neutral>
0.114052

> <r_epik_State_Penalty>
0.103717

> <r_epik_Charging_Adjusted_Penalty>
0.103717

> <i_epik_Tot_Q>
0

> <i_epik_Tot_abs_Q>
0

> <r_epik_Metal_State_Penalty>
0.000113338

> <b_epik_Metal_Only>
0

> <s_lp_Force_Field>
OPLS_2005

> <r_lp_Energy>
20.3049

> <b_lp_Chiralities_Consistent>
1

> <s_lp_Variant>
AV-unprocessed.smi:486-2

> <Gold.Version>
5.8.1

> <Gold.Id.Protein>
6NUR|6NUR_protein|mol2

> <Gold.PLP.Fitness>
49.3256

> <Gold.PLP.PLP>
-47.2180

> <Gold.PLP.part.hbond>
-2.3025

> <Gold.PLP.part.metal>
0.0000

> <Gold.PLP.part.buried>
-6.8457

> <Gold.PLP.part.nonpolar>
-38.3952

> <Gold.PLP.part.repulsive>
0.1342

> <Gold.PLP.ligand.clash>
0.0000

> <Gold.PLP.ligand.torsion>
1.3231

> <Gold.PLP.Chemscore.Hbond>
1.5600

> <Gold.PLP.Chemscore.CHOScore>
0.0000

> <Gold.PLP.Chemscore.Metal>
0.0000

> <Gold.Chemscore.Hbonds>
donor molecule, donor type, donor heavy atom, donor atom, acceptor molecule, acceptor atom, score
      P1  H  6896  6908       L1    10  0.83
      P1  H  6931  6943       L1     7  0.56
      P1  H  6934  6947       L1     7  0.35

> <Gold.PLP.Chemscore.Internal.Correction>
0.0738

> <Gold.Rescore>
     Score         DG    S(hbond)    S(metal)    S(lipo)     H(rot)  DE(clash)    DE(int)     intcor
     17.81     -19.02       1.57        0.00     121.32       2.30       0.10       1.11       ----

> <Gold.Chemscore.Fitness>
17.8108

> <Gold.Chemscore.DG>
-19.0217

> <Gold.Chemscore.ZeroCoef>
-5.4800

> <Gold.Chemscore.Hbond>
1.5691

> <Gold.Chemscore.Metal>
0.0000

> <Gold.Chemscore.Lipo>
121.3244

> <Gold.Chemscore.Internal_Hbond>
0.0000

> <Gold.Chemscore.DEClash>
0.1035

> <Gold.Chemscore.DEInternal>
1.1074

> <Gold.Chemscore.Rot>
2.3023

> <Gold.Chemscore.Internal.Correction>
   9.000000E+99

> <Gold.Chemscore.Hbonds>
donor molecule, donor type, donor heavy atom, donor atom, acceptor molecule, acceptor atom, score
      P1  H  6896  6908       L1    10  0.44
      P1  H  6931  6943       L1     7  0.28
      P1  H  6934  6947       L1     7  0.04

> <Gold.Chemscore.Hbond.Weighted>
-5.2408

> <Gold.Chemscore.Metal.Weighted>
-0.0000

> <Gold.Chemscore.Lipo.Weighted>
-14.1950

> <Gold.Chemscore.Internal_Hbond.Weighted>
0.0000

> <Gold.Chemscore.DEClash.Weighted>
0.1035

> <Gold.Chemscore.DEInternal.Weighted>
1.1074

> <Gold.Chemscore.Rot.Weighted>
5.8940

> <Gold.Chemscore.Internal.Correction.Weighted>
   9.000000E+99

> <Gold.Protein.RotatedTorsions>
[ 6907 6896 6895 6894 ] final -132.64 input  -60.11 | X-H torsion
[ 7974 7965 7964 7962 ] final -162.72 input  175.53 | X-H torsion
[ 8008 7997 7996 7995 ] final   12.41 input   59.86 | X-H torsion
[ 10167 10162 10161 10158 ] final -122.10 input  -65.29 | X-H torsion
[ 10718 10713 10712 10709 ] final  176.94 input   66.30 | X-H torsion
[ 10763 10752 10751 10750 ] final -110.21 input  -60.55 | X-H torsion
[ 11005 11000 10999 10996 ] final  -96.02 input  -57.11 | X-H torsion

> <Gold.Protein.ActiveResidues>
 VAL166  LYS551  ARG553  GLY616  TRP617  ASP618  TYR619  PRO620  LYS621  CYS622 
 ASP623  PHE694  ASN695  SER759  ASP760  ASP761  ALA762  ILE779  LEU786  VAL792 
 PHE793  MET794  SER795  GLU796  ALA797  LYS798  CYS799  TRP800  GLU811  SER814 

> <Gold.Protein.RotatedAtoms>
  150.9648  133.6407  159.2747 H   0  0  0  0  0  0  0  0  0  0  0  0  # atno 6907 bound_to 6896
  151.3716  135.0922  159.9477 H   0  0  0  0  0  0  0  0  0  0  0  0  # atno 6908 bound_to 6896
  152.5161  133.9201  159.7584 H   0  0  0  0  0  0  0  0  0  0  0  0  # atno 6909 bound_to 6896
  144.7348  140.3211  143.6170 H   0  0  0  0  0  0  0  0  0  0  0  0  # atno 7974 bound_to 7965
  154.8202  140.2882  155.5792 H   0  0  0  0  0  0  0  0  0  0  0  0  # atno 8008 bound_to 7997
  156.2997  140.2551  156.3038 H   0  0  0  0  0  0  0  0  0  0  0  0  # atno 8009 bound_to 7997
  154.9347  140.0382  157.2056 H   0  0  0  0  0  0  0  0  0  0  0  0  # atno 8010 bound_to 7997
  140.0179  143.5374  152.2234 H   0  0  0  0  0  0  0  0  0  0  0  0  # atno 10167 bound_to 10162
  156.9126  130.9915  151.3018 H   0  0  0  0  0  0  0  0  0  0  0  0  # atno 10718 bound_to 10713
  154.8235  135.4572  154.0850 H   0  0  0  0  0  0  0  0  0  0  0  0  # atno 10763 bound_to 10752
  153.2183  135.6891  153.8036 H   0  0  0  0  0  0  0  0  0  0  0  0  # atno 10764 bound_to 10752
  153.7463  135.3305  155.3290 H   0  0  0  0  0  0  0  0  0  0  0  0  # atno 10765 bound_to 10752
  141.1424  133.8067  157.0514 H   0  0  0  0  0  0  0  0  0  0  0  0  # atno 11005 bound_to 11000
  145.7567  139.1811  143.2290 LP  0  0  0  0  0  0  0  0  0  0  0  0  # atno 17320 bound_to 7965
  146.1018  140.7534  142.9545 LP  0  0  0  0  0  0  0  0  0  0  0  0  # atno 17321 bound_to 7965
  139.6160  144.7619  151.2845 LP  0  0  0  0  0  0  0  0  0  0  0  0  # atno 17342 bound_to 10162
  140.7355  143.6736  150.8061 LP  0  0  0  0  0  0  0  0  0  0  0  0  # atno 17343 bound_to 10162
  157.5958  130.8476  149.8726 LP  0  0  0  0  0  0  0  0  0  0  0  0  # atno 17370 bound_to 10713
  156.0528  130.3714  150.1160 LP  0  0  0  0  0  0  0  0  0  0  0  0  # atno 17371 bound_to 10713
  140.0629  134.9745  157.1336 LP  0  0  0  0  0  0  0  0  0  0  0  0  # atno 17394 bound_to 11000
  140.3822  134.2275  155.7170 LP  0  0  0  0  0  0  0  0  0  0  0  0  # atno 17395 bound_to 11000

$$$$
