AV-unprocessed.smi:45|AV-procd|sdf|412|dock10
  -GOLD-   2262016273D 1   1.00000     0.00000
 Structure written by MMmdl.
 61 64  0  0  0  0  0  0  0  0  2 V2000
  147.5570  135.7583  163.1937 C   0  0  0  0  0  0  0  0  0  0  0  0
  147.0621  134.7802  162.2908 O   0  0  0  0  0  0  0  0  0  0  0  0
  147.3646  134.9153  160.9514 C   0  0  0  0  0  0  0  0  0  0  0  0
  148.1081  135.9975  160.4155 C   0  0  0  0  0  0  0  0  0  0  0  0
  148.3759  136.0681  159.0348 C   0  0  0  0  0  0  0  0  0  0  0  0
  147.9070  135.0622  158.1669 C   0  0  0  0  0  0  0  0  0  0  0  0
  148.1909  135.1423  156.6798 C   0  0  0  0  0  0  0  0  0  0  0  0
  147.0420  135.5882  155.9053 N   0  0  0  0  0  0  0  0  0  0  0  0
  146.9949  136.8705  155.3353 C   0  0  0  0  0  0  0  0  0  0  0  0
  148.0659  137.6897  155.5089 N   0  3  0  0  0  0  0  0  0  0  0  0
  148.0889  138.9220  154.9751 C   0  0  0  0  0  0  0  0  0  0  0  0
  149.2029  139.7348  155.1792 N   0  0  0  0  0  0  0  0  0  0  0  0
  149.0632  141.1584  155.4682 C   0  0  0  0  0  0  0  0  0  0  0  0
  150.2411  141.5240  156.3700 C   0  0  0  0  0  0  0  0  0  0  0  0
  151.3122  140.5233  155.9562 C   0  0  0  0  0  0  0  0  0  0  0  0
  150.5095  139.2549  155.6326 C   0  0  2  0  0  0  0  0  0  0  0  0
  151.2207  138.3512  154.6030 C   0  0  0  0  0  0  0  0  0  0  0  0
  152.4626  137.9234  155.1186 O   0  0  0  0  0  0  0  0  0  0  0  0
  147.0649  139.4027  154.2582 N   0  0  0  0  0  0  0  0  0  0  0  0
  145.9796  138.6322  154.0578 C   0  0  0  0  0  0  0  0  0  0  0  0
  145.8857  137.3262  154.5768 C   0  0  0  0  0  0  0  0  0  0  0  0
  144.6427  136.5064  154.3598 C   0  0  0  0  0  0  0  0  0  0  0  0
  143.5900  136.7773  154.9377 O   0  0  0  0  0  0  0  0  0  0  0  0
  144.7814  135.4675  153.5209 N   0  0  0  0  0  0  0  0  0  0  0  0
  143.7000  134.5788  153.1133 C   0  0  0  0  0  0  0  0  0  0  0  0
  144.1158  133.6384  151.9951 C   0  0  0  0  0  0  0  0  0  0  0  0
  145.4277  133.4900  151.7858 N   0  0  0  0  0  0  0  0  0  0  0  0
  145.7971  132.6428  150.8007 C   0  0  0  0  0  0  0  0  0  0  0  0
  144.8469  131.9459  150.0272 C   0  0  0  0  0  0  0  0  0  0  0  0
  143.4933  132.1823  150.3403 C   0  0  0  0  0  0  0  0  0  0  0  0
  143.1295  133.0300  151.3270 N   0  0  0  0  0  0  0  0  0  0  0  0
  147.1707  133.9822  158.6922 C   0  0  0  0  0  0  0  0  0  0  0  0
  146.9010  133.9103  160.0731 C   0  0  0  0  0  0  0  0  0  0  0  0
  145.9913  132.5744  160.6832 Cl  0  0  0  0  0  0  0  0  0  0  0  0
  150.3452  138.6968  156.5559 H   0  0  0  0  0  0  0  0  0  0  0  0
  147.2317  135.5121  164.2044 H   0  0  0  0  0  0  0  0  0  0  0  0
  147.1721  136.7511  162.9568 H   0  0  0  0  0  0  0  0  0  0  0  0
  148.6476  135.7831  163.1960 H   0  0  0  0  0  0  0  0  0  0  0  0
  148.4851  136.7901  161.0437 H   0  0  0  0  0  0  0  0  0  0  0  0
  148.9428  136.9003  158.6432 H   0  0  0  0  0  0  0  0  0  0  0  0
  149.0214  135.8317  156.5232 H   0  0  0  0  0  0  0  0  0  0  0  0
  148.5115  134.1650  156.3163 H   0  0  0  0  0  0  0  0  0  0  0  0
  146.2829  134.9403  155.7463 H   0  0  0  0  0  0  0  0  0  0  0  0
  149.1086  141.7120  154.5296 H   0  0  0  0  0  0  0  0  0  0  0  0
  148.1152  141.3924  155.9542 H   0  0  0  0  0  0  0  0  0  0  0  0
  150.5563  142.5618  156.2578 H   0  0  0  0  0  0  0  0  0  0  0  0
  149.9717  141.3634  157.4149 H   0  0  0  0  0  0  0  0  0  0  0  0
  151.8237  140.8911  155.0652 H   0  0  0  0  0  0  0  0  0  0  0  0
  152.0637  140.3617  156.7297 H   0  0  0  0  0  0  0  0  0  0  0  0
  150.6366  137.4625  154.3679 H   0  0  0  0  0  0  0  0  0  0  0  0
  151.3823  138.8822  153.6642 H   0  0  0  0  0  0  0  0  0  0  0  0
  152.4380  137.9868  156.0615 H   0  0  0  0  0  0  0  0  0  0  0  0
  145.1779  139.0729  153.4829 H   0  0  0  0  0  0  0  0  0  0  0  0
  145.6844  135.3017  153.1014 H   0  0  0  0  0  0  0  0  0  0  0  0
  143.3980  133.9853  153.9767 H   0  0  0  0  0  0  0  0  0  0  0  0
  142.8241  135.1615  152.8212 H   0  0  0  0  0  0  0  0  0  0  0  0
  146.8560  132.5207  150.6284 H   0  0  0  0  0  0  0  0  0  0  0  0
  145.1397  131.2683  149.2388 H   0  0  0  0  0  0  0  0  0  0  0  0
  142.7002  131.6886  149.7988 H   0  0  0  0  0  0  0  0  0  0  0  0
  146.8062  133.2051  158.0366 H   0  0  0  0  0  0  0  0  0  0  0  0
  148.8587  137.3536  156.0551 H   0  0  0  0  0  0  0  0  0  0  0  0
  1  2  1  0  0  0  0
  1 36  1  0  0  0  0
  1 37  1  0  0  0  0
  1 38  1  0  0  0  0
  2  3  1  0  0  0  0
  3 33  1  0  0  0  0
  3  4  2  0  0  0  0
  4  5  1  0  0  0  0
  4 39  1  0  0  0  0
  5  6  2  0  0  0  0
  5 40  1  0  0  0  0
  6  7  1  0  0  0  0
  6 32  1  0  0  0  0
  7  8  1  0  0  0  0
  7 41  1  0  0  0  0
  7 42  1  0  0  0  0
  8  9  1  0  0  0  0
  8 43  1  0  0  0  0
  9 21  1  0  0  0  0
  9 10  2  0  0  0  0
 10 11  1  0  0  0  0
 10 61  1  0  0  0  0
 11 12  1  0  0  0  0
 11 19  2  0  0  0  0
 12 16  1  0  0  0  0
 12 13  1  0  0  0  0
 13 14  1  0  0  0  0
 13 44  1  0  0  0  0
 13 45  1  0  0  0  0
 14 15  1  0  0  0  0
 14 46  1  0  0  0  0
 14 47  1  0  0  0  0
 15 16  1  0  0  0  0
 15 48  1  0  0  0  0
 15 49  1  0  0  0  0
 16 35  1  0  0  0  0
 16 17  1  0  0  0  0
 17 18  1  0  0  0  0
 17 50  1  0  0  0  0
 17 51  1  0  0  0  0
 18 52  1  0  0  0  0
 19 20  1  0  0  0  0
 20 21  2  0  0  0  0
 20 53  1  0  0  0  0
 21 22  1  0  0  0  0
 22 23  2  0  0  0  0
 22 24  1  0  0  0  0
 24 25  1  0  0  0  0
 24 54  1  0  0  0  0
 25 26  1  0  0  0  0
 25 55  1  0  0  0  0
 25 56  1  0  0  0  0
 26 31  1  0  0  0  0
 26 27  2  0  0  0  0
 27 28  1  0  0  0  0
 28 29  2  0  0  0  0
 28 57  1  0  0  0  0
 29 30  1  0  0  0  0
 29 58  1  0  0  0  0
 30 31  2  0  0  0  0
 30 59  1  0  0  0  0
 32 33  2  0  0  0  0
 32 60  1  0  0  0  0
 33 34  1  0  0  0  0
M  CHG  1  10   1
M  END
> <s_m_source_file>
AV-unprocessed.smi

> <i_m_source_file_index>
45

> <i_lp_mmshare_version>
43012

> <i_f3d_flags>
0

> <s_epik_input>
W0NIM11PYzFbY0hdW2NIXWMoW2NIXWMxQ2wpW0NIMl1bTkhdYzJuYyhOM1tDSDJdW0NIMl1bQ0gyXVtDQEhdM1tDSDJdW09IXSluW2NIXWMyQyg9TylbTkhdW0NIMl1jNG5bY0hdW2NIXVtjSF1uNA==

> <s_epik_cmdline>
J2VwaWtfcHl0aG9uJywgJy1waCcsICc3LjAnLCAnLXRuJywgJzgnLCAnLW1hJywgJzIwMCcsICctbWV0YWxfYmluZGluZycsICctaW1hZScsICc8aW5maWxlLm1hZT4nLCAnLW9tYWUnLCAnPG91dGZpbGUubWFlPic=

> <r_lp_tautomer_probability>
0.424989

> <r_epik_Ionization_Penalty>
2.31209

> <r_epik_Ionization_Penalty_Charging>
2.31199

> <r_epik_Ionization_Penalty_Neutral>
9.65277e-05

> <r_epik_State_Penalty>
2.29675

> <r_epik_Charging_Adjusted_Penalty>
4.60874

> <i_epik_Tot_Q>
1

> <i_epik_Tot_abs_Q>
1

> <r_epik_Metal_State_Penalty>
2.3404

> <b_epik_Metal_Only>
0

> <s_epik_Chemistry_Notes>
This compound contains an electron-poor aromatic ring that is susceptible to covalent hydrolysis at low pH, typically resulting in measured values for nitrogen ring protonation that are around two units higher than predicted values.

> <s_lp_Force_Field>
OPLS_2005

> <r_lp_Energy>
35.4262

> <b_lp_Chiralities_Consistent>
1

> <s_lp_Variant>
AV-unprocessed.smi:45-6

> <Gold.Version>
5.8.1

> <Gold.Id.Protein>
6NUR|6NUR_protein|mol2

> <Gold.PLP.Fitness>
53.4060

> <Gold.PLP.PLP>
-46.1686

> <Gold.PLP.part.hbond>
-1.0000

> <Gold.PLP.part.metal>
0.0000

> <Gold.PLP.part.buried>
-7.3726

> <Gold.PLP.part.nonpolar>
-37.7704

> <Gold.PLP.part.repulsive>
0.5653

> <Gold.PLP.ligand.clash>
0.0000

> <Gold.PLP.ligand.torsion>
2.3013

> <Gold.PLP.Chemscore.Hbond>
0.3520

> <Gold.PLP.Chemscore.CHOScore>
2.9974

> <Gold.PLP.Chemscore.Metal>
0.0000

> <Gold.Chemscore.Hbonds>
donor molecule, donor type, donor heavy atom, donor atom, acceptor molecule, acceptor atom, score
      L1  C    20    53       P1 10175  1.00
      L1  C    28    57       P1 10747  0.54
      L1  C    30    59       P1 10952  1.00

> <Gold.PLP.Chemscore.Internal.Correction>
1.7920

> <Gold.Rescore>
     Score         DG    S(hbond)    S(metal)    S(lipo)     H(rot)  DE(clash)    DE(int)     intcor
     10.27     -12.37       0.21        0.00     117.11       2.94       0.03       2.08       ----

> <Gold.Chemscore.Fitness>
10.2654

> <Gold.Chemscore.DG>
-12.3703

> <Gold.Chemscore.ZeroCoef>
-5.4800

> <Gold.Chemscore.Hbond>
0.2137

> <Gold.Chemscore.Metal>
0.0000

> <Gold.Chemscore.Lipo>
117.1075

> <Gold.Chemscore.Internal_Hbond>
0.0000

> <Gold.Chemscore.DEClash>
0.0270

> <Gold.Chemscore.DEInternal>
2.0779

> <Gold.Chemscore.Rot>
2.9395

> <Gold.Chemscore.Internal.Correction>
   9.000000E+99

> <Gold.Chemscore.Hbonds>
donor molecule, donor type, donor heavy atom, donor atom, acceptor molecule, acceptor atom, score
      P1  H 10752 10765       L1    18  0.02

> <Gold.Chemscore.Hbond.Weighted>
-0.7139

> <Gold.Chemscore.Metal.Weighted>
-0.0000

> <Gold.Chemscore.Lipo.Weighted>
-13.7016

> <Gold.Chemscore.Internal_Hbond.Weighted>
0.0000

> <Gold.Chemscore.DEClash.Weighted>
0.0270

> <Gold.Chemscore.DEInternal.Weighted>
2.0779

> <Gold.Chemscore.Rot.Weighted>
7.5251

> <Gold.Chemscore.Internal.Correction.Weighted>
   9.000000E+99

> <Gold.Protein.RotatedTorsions>
[ 6907 6896 6895 6894 ] final -120.82 input  -60.11 | X-H torsion
[ 7974 7965 7964 7962 ] final   -3.46 input  175.53 | X-H torsion
[ 8008 7997 7996 7995 ] final   83.30 input   59.86 | X-H torsion
[ 10167 10162 10161 10158 ] final  -82.18 input  -65.29 | X-H torsion
[ 10718 10713 10712 10709 ] final -128.63 input   66.30 | X-H torsion
[ 10763 10752 10751 10750 ] final  162.31 input  -60.55 | X-H torsion
[ 11005 11000 10999 10996 ] final  164.41 input  -57.11 | X-H torsion

> <Gold.Protein.ActiveResidues>
 VAL166  LYS551  ARG553  GLY616  TRP617  ASP618  TYR619  PRO620  LYS621  CYS622 
 ASP623  PHE694  ASN695  SER759  ASP760  ASP761  ALA762  ILE779  LEU786  VAL792 
 PHE793  MET794  SER795  GLU796  ALA797  LYS798  CYS799  TRP800  GLU811  SER814 

> <Gold.Protein.RotatedAtoms>
  150.8427  133.7910  159.3054 H   0  0  0  0  0  0  0  0  0  0  0  0  # atno 6907 bound_to 6896
  151.5607  135.1064  159.9981 H   0  0  0  0  0  0  0  0  0  0  0  0  # atno 6908 bound_to 6896
  152.4487  133.7545  159.6768 H   0  0  0  0  0  0  0  0  0  0  0  0  # atno 6909 bound_to 6896
  146.2389  140.1724  142.8332 H   0  0  0  0  0  0  0  0  0  0  0  0  # atno 7974 bound_to 7965
  155.9221  140.3420  155.6181 H   0  0  0  0  0  0  0  0  0  0  0  0  # atno 8008 bound_to 7997
  155.7260  140.0789  157.2328 H   0  0  0  0  0  0  0  0  0  0  0  0  # atno 8009 bound_to 7997
  154.4071  140.1596  156.2443 H   0  0  0  0  0  0  0  0  0  0  0  0  # atno 8010 bound_to 7997
  140.4344  143.2537  151.8714 H   0  0  0  0  0  0  0  0  0  0  0  0  # atno 10167 bound_to 10162
  156.1969  130.6832  151.0493 H   0  0  0  0  0  0  0  0  0  0  0  0  # atno 10718 bound_to 10713
  154.2765  135.2764  155.2716 H   0  0  0  0  0  0  0  0  0  0  0  0  # atno 10763 bound_to 10752
  154.5256  135.5744  153.6720 H   0  0  0  0  0  0  0  0  0  0  0  0  # atno 10764 bound_to 10752
  152.9936  135.6215  154.2922 H   0  0  0  0  0  0  0  0  0  0  0  0  # atno 10765 bound_to 10752
  140.2456  134.8016  157.3453 H   0  0  0  0  0  0  0  0  0  0  0  0  # atno 11005 bound_to 11000
  145.0000  140.8624  143.5287 LP  0  0  0  0  0  0  0  0  0  0  0  0  # atno 17320 bound_to 7965
  145.1742  139.2387  143.5326 LP  0  0  0  0  0  0  0  0  0  0  0  0  # atno 17321 bound_to 7965
  139.4786  144.5299  151.8681 LP  0  0  0  0  0  0  0  0  0  0  0  0  # atno 17342 bound_to 10162
  140.4390  144.2012  150.5890 LP  0  0  0  0  0  0  0  0  0  0  0  0  # atno 17343 bound_to 10162
  157.6963  131.0793  150.6959 LP  0  0  0  0  0  0  0  0  0  0  0  0  # atno 17370 bound_to 10713
  156.7016  130.4625  149.5571 LP  0  0  0  0  0  0  0  0  0  0  0  0  # atno 17371 bound_to 10713
  140.1609  134.4730  155.7895 LP  0  0  0  0  0  0  0  0  0  0  0  0  # atno 17394 bound_to 11000
  141.2206  133.6901  156.7542 LP  0  0  0  0  0  0  0  0  0  0  0  0  # atno 17395 bound_to 11000

$$$$
