AV-unprocessed.smi:2083|AV-procd|sdf|8513|dock2
  -GOLD-   2272011233D 1   1.00000     0.00000
 Structure written by MMmdl.
 44 45  0  0  0  0  0  0  0  0  3 V2000
  147.3080  135.1761  162.7630 C   0  0  0  0  0  0  0  0  0  0  0  0
  147.6451  135.6671  161.3972 C   0  0  0  0  0  0  0  0  0  0  0  0
  147.4574  135.1456  160.1483 C   0  0  0  0  0  0  0  0  0  0  0  0
  148.0150  136.1379  159.2985 C   0  0  0  0  0  0  0  0  0  0  0  0
  148.0178  135.9652  157.8889 N   0  0  0  0  0  0  0  0  0  0  0  0
  148.9850  135.4556  157.1041 C   0  0  0  0  0  0  0  0  0  0  0  0
  150.0555  135.0798  157.5968 O   0  0  0  0  0  0  0  0  0  0  0  0
  148.6216  135.4267  155.7926 N   0  5  0  0  0  0  0  0  0  0  0  0
  149.4328  134.8543  154.7187 C   0  0  0  0  0  0  0  0  0  0  0  0
  148.7185  133.6271  154.0937 C   0  0  1  0  0  0  0  0  0  0  0  0
  148.1164  132.6434  155.1294 C   0  0  0  0  0  0  0  0  0  0  0  0
  147.7255  134.0669  153.0633 N   0  3  2  0  0  0  0  0  0  0  0  0
  146.5224  134.7880  153.5744 C   0  0  0  0  0  0  0  0  0  0  0  0
  145.7179  135.3940  152.4150 C   0  0  0  0  0  0  0  0  0  0  0  0
  145.3077  134.3091  151.4109 C   0  0  0  0  0  0  0  0  0  0  0  0
  146.5461  133.5418  150.9179 C   0  0  2  0  0  0  0  0  0  0  0  0
  146.1616  132.4297  149.9317 C   0  0  0  0  0  0  0  0  0  0  0  0
  147.3461  132.9851  152.1138 C   0  0  0  0  0  0  0  0  0  0  0  0
  148.5014  137.1710  159.9705 N   0  0  0  0  0  0  0  0  0  0  0  0
  148.2663  136.8748  161.3183 O   0  0  0  0  0  0  0  0  0  0  0  0
  146.8086  134.2083  162.7167 H   0  0  0  0  0  0  0  0  0  0  0  0
  146.6440  135.8756  163.2710 H   0  0  0  0  0  0  0  0  0  0  0  0
  148.2088  135.0634  163.3665 H   0  0  0  0  0  0  0  0  0  0  0  0
  146.9944  134.2061  159.8860 H   0  0  0  0  0  0  0  0  0  0  0  0
  147.1790  136.2613  157.4126 H   0  0  0  0  0  0  0  0  0  0  0  0
  149.6442  135.5839  153.9363 H   0  0  0  0  0  0  0  0  0  0  0  0
  150.4070  134.5296  155.0881 H   0  0  0  0  0  0  0  0  0  0  0  0
  149.4988  133.0787  153.5635 H   0  0  0  0  0  0  0  0  0  0  0  0
  148.8847  132.2111  155.7728 H   0  0  0  0  0  0  0  0  0  0  0  0
  147.6263  131.8073  154.6304 H   0  0  0  0  0  0  0  0  0  0  0  0
  147.3784  133.1140  155.7814 H   0  0  0  0  0  0  0  0  0  0  0  0
  145.8857  134.1036  154.1367 H   0  0  0  0  0  0  0  0  0  0  0  0
  146.8140  135.5849  154.2591 H   0  0  0  0  0  0  0  0  0  0  0  0
  144.8312  135.8980  152.8003 H   0  0  0  0  0  0  0  0  0  0  0  0
  146.3147  136.1566  151.9127 H   0  0  0  0  0  0  0  0  0  0  0  0
  144.6054  133.6200  151.8820 H   0  0  0  0  0  0  0  0  0  0  0  0
  144.7826  134.7625  150.5694 H   0  0  0  0  0  0  0  0  0  0  0  0
  147.1870  134.2452  150.3837 H   0  0  0  0  0  0  0  0  0  0  0  0
  145.5178  131.6862  150.4026 H   0  0  0  0  0  0  0  0  0  0  0  0
  147.0459  131.9144  149.5557 H   0  0  0  0  0  0  0  0  0  0  0  0
  145.6280  132.8349  149.0715 H   0  0  0  0  0  0  0  0  0  0  0  0
  148.2443  132.4962  151.7345 H   0  0  0  0  0  0  0  0  0  0  0  0
  146.7685  132.2242  152.6408 H   0  0  0  0  0  0  0  0  0  0  0  0
  148.2325  134.7379  152.5038 H   0  0  0  0  0  0  0  0  0  0  0  0
  1  2  1  0  0  0  0
  1 21  1  0  0  0  0
  1 22  1  0  0  0  0
  1 23  1  0  0  0  0
  2 20  1  0  0  0  0
  2  3  2  0  0  0  0
  3  4  1  0  0  0  0
  3 24  1  0  0  0  0
  4  5  1  0  0  0  0
  4 19  2  0  0  0  0
  5  6  1  0  0  0  0
  5 25  1  0  0  0  0
  6  7  2  0  0  0  0
  6  8  1  0  0  0  0
  8  9  1  0  0  0  0
  9 10  1  0  0  0  0
  9 26  1  0  0  0  0
  9 27  1  0  0  0  0
 10 11  1  0  0  0  0
 10 12  1  0  0  0  0
 10 28  1  0  0  0  0
 11 29  1  0  0  0  0
 11 30  1  0  0  0  0
 11 31  1  0  0  0  0
 12 18  1  0  0  0  0
 12 13  1  0  0  0  0
 12 44  1  0  0  0  0
 13 14  1  0  0  0  0
 13 32  1  0  0  0  0
 13 33  1  0  0  0  0
 14 15  1  0  0  0  0
 14 34  1  0  0  0  0
 14 35  1  0  0  0  0
 15 16  1  0  0  0  0
 15 36  1  0  0  0  0
 15 37  1  0  0  0  0
 16 17  1  0  0  0  0
 16 18  1  0  0  0  0
 16 38  1  0  0  0  0
 17 39  1  0  0  0  0
 17 40  1  0  0  0  0
 17 41  1  0  0  0  0
 18 42  1  0  0  0  0
 18 43  1  0  0  0  0
 19 20  1  0  0  0  0
M  CHG  1   8  -1
M  CHG  1  12   1
M  END
> <s_m_source_file>
AV-unprocessed.smi

> <i_m_source_file_index>
2083

> <i_lp_mmshare_version>
43012

> <i_f3d_flags>
0

> <s_epik_input>
W0NIM11jMVtjSF1jKG5vMSlbTkhdQyg9TylbTkhdW0NIMl1bQ0BIXShbQ0gzXSlOMltDSDJdW0NIMl1bQ0gyXVtDQEBIXShbQ0gzXSlbQ0gyXTI=

> <s_epik_cmdline>
J2VwaWtfcHl0aG9uJywgJy1waCcsICc3LjAnLCAnLXRuJywgJzgnLCAnLW1hJywgJzIwMCcsICctbWV0YWxfYmluZGluZycsICctaW1hZScsICc8aW5maWxlLm1hZT4nLCAnLW9tYWUnLCAnPG91dGZpbGUubWFlPic=

> <r_epik_Ionization_Penalty>
6.76934

> <r_epik_Ionization_Penalty_Charging>
6.76934

> <r_epik_Ionization_Penalty_Neutral>
5.77849e-06

> <r_epik_State_Penalty>
6.79457

> <r_epik_Charging_Adjusted_Penalty>
13.5639

> <i_epik_Tot_Q>
0

> <i_epik_Tot_abs_Q>
2

> <r_epik_Metal_State_Penalty>
2.72837

> <b_epik_Metal_Only>
1

> <s_lp_Force_Field>
OPLS_2005

> <r_lp_Energy>
18.0099

> <b_lp_Chiralities_Consistent>
1

> <s_lp_Variant>
AV-unprocessed.smi:2083-24

> <Gold.Version>
5.8.1

> <Gold.Id.Protein>
6NUR|6NUR_protein|mol2

> <Gold.PLP.Fitness>
42.2806

> <Gold.PLP.PLP>
-32.8540

> <Gold.PLP.part.hbond>
-4.7982

> <Gold.PLP.part.metal>
0.0000

> <Gold.PLP.part.buried>
-4.3666

> <Gold.PLP.part.nonpolar>
-24.8879

> <Gold.PLP.part.repulsive>
0.0825

> <Gold.PLP.ligand.clash>
0.0000

> <Gold.PLP.ligand.torsion>
1.0763

> <Gold.PLP.Chemscore.Hbond>
3.7840

> <Gold.PLP.Chemscore.CHOScore>
0.0000

> <Gold.PLP.Chemscore.Metal>
0.0000

> <Gold.Chemscore.Hbonds>
donor molecule, donor type, donor heavy atom, donor atom, acceptor molecule, acceptor atom, score
      L1  H    12    44       P1  7948  2.00
      P1  H  6896  6909       L1     7  0.71
      P1  H  6931  6943       L1    20  0.75

> <Gold.PLP.Chemscore.Internal.Correction>
0.2271

> <Gold.Rescore>
     Score         DG    S(hbond)    S(metal)    S(lipo)     H(rot)  DE(clash)    DE(int)     intcor
     15.29     -16.42       2.15        0.00      65.35       1.52       0.00       1.13       ----

> <Gold.Chemscore.Fitness>
15.2888

> <Gold.Chemscore.DG>
-16.4233

> <Gold.Chemscore.ZeroCoef>
-5.4800

> <Gold.Chemscore.Hbond>
2.1514

> <Gold.Chemscore.Metal>
0.0000

> <Gold.Chemscore.Lipo>
65.3538

> <Gold.Chemscore.Internal_Hbond>
0.0000

> <Gold.Chemscore.DEClash>
0.0000

> <Gold.Chemscore.DEInternal>
1.1346

> <Gold.Chemscore.Rot>
1.5190

> <Gold.Chemscore.Internal.Correction>
   9.000000E+99

> <Gold.Chemscore.Hbonds>
donor molecule, donor type, donor heavy atom, donor atom, acceptor molecule, acceptor atom, score
      L1  H    12    44       P1  7948  0.40
      P1  H  6896  6909       L1     7  0.69
      P1  H  6931  6943       L1    20  0.09

> <Gold.Chemscore.Hbond.Weighted>
-7.1856

> <Gold.Chemscore.Metal.Weighted>
-0.0000

> <Gold.Chemscore.Lipo.Weighted>
-7.6464

> <Gold.Chemscore.Internal_Hbond.Weighted>
0.0000

> <Gold.Chemscore.DEClash.Weighted>
0.0000

> <Gold.Chemscore.DEInternal.Weighted>
1.1346

> <Gold.Chemscore.Rot.Weighted>
3.8886

> <Gold.Chemscore.Internal.Correction.Weighted>
   9.000000E+99

> <Gold.Protein.RotatedTorsions>
[ 6907 6896 6895 6894 ] final   29.47 input  -60.11 | X-H torsion
[ 7974 7965 7964 7962 ] final  -94.57 input  175.53 | X-H torsion
[ 8008 7997 7996 7995 ] final  157.05 input   59.86 | X-H torsion
[ 10167 10162 10161 10158 ] final   67.19 input  -65.29 | X-H torsion
[ 10718 10713 10712 10709 ] final   64.81 input   66.30 | X-H torsion
[ 10763 10752 10751 10750 ] final  -91.22 input  -60.55 | X-H torsion
[ 11005 11000 10999 10996 ] final -149.94 input  -57.11 | X-H torsion

> <Gold.Protein.ActiveResidues>
 VAL166  LYS551  ARG553  GLY616  TRP617  ASP618  TYR619  PRO620  LYS621  CYS622 
 ASP623  PHE694  ASN695  SER759  ASP760  ASP761  ALA762  ILE779  LEU786  VAL792 
 PHE793  MET794  SER795  GLU796  ALA797  LYS798  CYS799  TRP800  GLU811  SER814 

> <Gold.Protein.RotatedAtoms>
  152.0320  134.9762  160.0572 H   0  0  0  0  0  0  0  0  0  0  0  0  # atno 6907 bound_to 6896
  152.1235  133.4362  159.4695 H   0  0  0  0  0  0  0  0  0  0  0  0  # atno 6908 bound_to 6896
  150.6851  134.2425  159.4521 H   0  0  0  0  0  0  0  0  0  0  0  0  # atno 6909 bound_to 6896
  145.3715  140.9506  143.2444 H   0  0  0  0  0  0  0  0  0  0  0  0  # atno 7974 bound_to 7965
  156.2387  140.1896  156.7049 H   0  0  0  0  0  0  0  0  0  0  0  0  # atno 8008 bound_to 7997
  154.6155  140.0616  156.9575 H   0  0  0  0  0  0  0  0  0  0  0  0  # atno 8009 bound_to 7997
  155.1946  140.3287  155.4355 H   0  0  0  0  0  0  0  0  0  0  0  0  # atno 8010 bound_to 7997
  140.0922  144.4978  150.7091 H   0  0  0  0  0  0  0  0  0  0  0  0  # atno 10167 bound_to 10162
  157.6064  130.9180  149.9895 H   0  0  0  0  0  0  0  0  0  0  0  0  # atno 10718 bound_to 10713
  154.6739  135.5275  153.8173 H   0  0  0  0  0  0  0  0  0  0  0  0  # atno 10763 bound_to 10752
  153.0519  135.6535  154.0682 H   0  0  0  0  0  0  0  0  0  0  0  0  # atno 10764 bound_to 10752
  154.0578  135.2964  155.3310 H   0  0  0  0  0  0  0  0  0  0  0  0  # atno 10765 bound_to 10752
  140.7454  134.3467  157.5138 H   0  0  0  0  0  0  0  0  0  0  0  0  # atno 11005 bound_to 11000
  144.8573  139.5231  143.6829 LP  0  0  0  0  0  0  0  0  0  0  0  0  # atno 17320 bound_to 7965
  146.2883  139.7066  142.9179 LP  0  0  0  0  0  0  0  0  0  0  0  0  # atno 17321 bound_to 7965
  140.7022  143.2443  151.4830 LP  0  0  0  0  0  0  0  0  0  0  0  0  # atno 17342 bound_to 10162
  139.5718  144.1910  152.1847 LP  0  0  0  0  0  0  0  0  0  0  0  0  # atno 17343 bound_to 10162
  156.1152  130.3648  149.9980 LP  0  0  0  0  0  0  0  0  0  0  0  0  # atno 17370 bound_to 10713
  156.8070  130.9311  151.3645 LP  0  0  0  0  0  0  0  0  0  0  0  0  # atno 17371 bound_to 10713
  139.8798  134.9108  156.3021 LP  0  0  0  0  0  0  0  0  0  0  0  0  # atno 17394 bound_to 11000
  140.9799  133.7274  156.0657 LP  0  0  0  0  0  0  0  0  0  0  0  0  # atno 17395 bound_to 11000

$$$$
