#       Name:                AV-unprocessed.smi:1417
#       Creating user name   scv26
#       Creation time:       Fri Mar 27 05:41:03 2020


#       File generated by GOLD software.
#

@<TRIPOS>MOLECULE
AV-unprocessed.smi:1417
    47    48     1
SMALL
NO_CHARGES


@<TRIPOS>ATOM
      1 ****        -6.5348   3.7526   1.4111 C.3            1 S1                 0.0000
      2 ****        -5.5588   2.8509   0.7357 C.2            1 S1                 0.0000
      3 ****        -4.7561   1.8448   1.1932 C.2            1 S1                 0.0000
      4 ****        -4.0759   1.4130   0.0218 C.2            1 S1                 0.0000
      5 ****        -3.1735   0.4220  -0.0457 N.pl3          1 S1                -1.0000
      6 ****        -1.8702   0.6685   0.2226 C.2            1 S1                 0.0000
      7 ****        -1.3821   1.7569   0.5363 O.2            1 S1                 0.0000
      8 ****        -1.0841  -0.4136   0.1226 N.am           1 S1                 0.0000
      9 ****         0.3568  -0.4528   0.3588 C.3            1 S1                 0.0000
     10 ****         1.1329  -0.0297  -0.8984 C.3            1 S1                 0.0000
     11 ****         2.6505  -0.1924  -0.6980 C.3            1 S1                 0.0000
     12 ****         2.9847  -1.5809  -0.3448 N.3            1 S1                 0.0000
     13 ****         4.4433  -1.7895  -0.1943 C.3            1 S1                 0.0000
     14 ****         5.2598  -1.5434  -1.4679 C.2            1 S1                 0.0000
     15 ****         5.0228  -2.3493  -2.5061 N.am           1 S1                 0.0000
     16 ****         6.0959  -0.6436  -1.5099 O.2            1 S1                 0.0000
     17 ****         2.3146  -1.9621   0.9032 C.3            1 S1                 0.0000
     18 ****         0.7864  -1.8725   0.7507 C.3            1 S1                 0.0000
     19 ****        -4.4475   2.0853  -1.0549 N.2            1 S1                 0.0000
     20 ****        -5.3933   3.0142  -0.6044 O.3            1 S1                 0.0000
     21 ****        -7.3437   3.1769   1.8608 H              1 S1                 0.0000
     22 ****        -6.9740   4.4575   0.7047 H              1 S1                 0.0000
     23 ****        -6.0473   4.3253   2.2001 H              1 S1                 0.0000
     24 ****        -4.6647   1.4786   2.2046 H              1 S1                 0.0000
     25 ****        -1.5266  -1.2822  -0.1399 H              1 S1                 0.0000
     26 ****         0.6095   0.2201   1.1807 H              1 S1                 0.0000
     27 ****         0.8134  -0.6291  -1.7524 H              1 S1                 0.0000
     28 ****         0.9059   1.0074  -1.1481 H              1 S1                 0.0000
     29 ****         3.1455   0.1045  -1.6225 H              1 S1                 0.0000
     30 ****         3.0023   0.4879   0.0796 H              1 S1                 0.0000
     31 ****         4.8266  -1.1489   0.6024 H              1 S1                 0.0000
     32 ****         4.6339  -2.8173   0.1182 H              1 S1                 0.0000
     33 ****         5.5435  -2.2292  -3.3627 H              1 S1                 0.0000
     34 ****         4.3305  -3.0800  -2.4271 H              1 S1                 0.0000
     35 ****         2.5808  -2.9862   1.1680 H              1 S1                 0.0000
     36 ****         2.6489  -1.3254   1.7243 H              1 S1                 0.0000
     37 ****         0.3056  -2.1630   1.6855 H              1 S1                 0.0000
     38 ****         0.4533  -2.5870  -0.0040 H              1 S1                 0.0000
     39 ****        -3.4651  -0.5014  -0.2950 LP             1 S1                 0.0000
     40 ****        -1.9675   2.5642   0.6123 LP             1 S1                 0.0000
     41 ****        -0.4011   1.8322   0.7147 LP             1 S1                 0.0000
     42 ****         2.6663  -2.1556  -1.0986 LP             1 S1                 0.0000
     43 ****         6.2481  -0.0647  -0.7088 LP             1 S1                 0.0000
     44 ****         6.6239  -0.4903  -2.3451 LP             1 S1                 0.0000
     45 ****        -4.1221   1.9574  -1.9917 LP             1 S1                 0.0000
     46 ****        -5.0709   3.9418  -0.7933 LP             1 S1                 0.0000
     47 ****        -6.2640   2.8622  -1.0722 LP             1 S1                 0.0000
@<TRIPOS>BOND
    1    1    2 1     
    2    1   21 1     
    3    1   22 1     
    4    1   23 1     
    5    2   20 1     
    6    2    3 2     
    7    3    4 1     
    8    3   24 1     
    9    4    5 1     
   10    4   19 2     
   11    5    6 1     
   12    6    7 2     
   13    6    8 am    
   14    8    9 1     
   15    8   25 1     
   16    9   18 1     
   17    9   10 1     
   18    9   26 1     
   19   10   11 1     
   20   10   27 1     
   21   10   28 1     
   22   11   12 1     
   23   11   29 1     
   24   11   30 1     
   25   12   13 1     
   26   12   17 1     
   27   13   14 1     
   28   13   31 1     
   29   13   32 1     
   30   14   15 am    
   31   14   16 2     
   32   15   33 1     
   33   15   34 1     
   34   17   18 1     
   35   17   35 1     
   36   17   36 1     
   37   18   37 1     
   38   18   38 1     
   39   19   20 1     
   40    5   39 1     
   41    7   40 1     
   42    7   41 1     
   43   12   42 1     
   44   16   43 1     
   45   16   44 1     
   46   19   45 1     
   47   20   46 1     
   48   20   47 1     
@<TRIPOS>SUBSTRUCTURE
      1 S1             1
@<TRIPOS>SET
LONE_PAIRS      STATIC     ATOMS    <user>   **** ""
9 39 40 41 42 43 44 45 46 47
DONOR_HYDROGENS      STATIC     ATOMS    <user>   **** ""
3 25 33 34
ATOM$BLUE        STATIC     ATOMS    COLORGROUP SYSTEM
9 39 40 41 42 43 44 45 46 47
ATOM$RED        STATIC     ATOMS    COLORGROUP SYSTEM
3 25 33 34
