AV-unprocessed.smi:1057|AV-procd|sdf|4650|dock8
  -GOLD-   22720 3153D 1   1.00000     0.00000
 Structure written by MMmdl.
 44 45  0  0  0  0  0  0  0  0  1 V2000
  153.7407  136.6566  163.8516 C   0  0  0  0  0  0  0  0  0  0  0  0
  154.5506  137.0295  163.0173 C   0  0  0  0  0  0  0  0  0  0  0  0
  155.5429  137.4680  162.0213 C   0  0  0  0  0  0  0  0  0  0  0  0
  155.0357  137.4012  160.6556 N   0  0  0  0  0  0  0  0  0  0  0  0
  154.4625  136.3270  160.0838 C   0  0  0  0  0  0  0  0  0  0  0  0
  154.3060  135.2610  160.6779 O   0  0  0  0  0  0  0  0  0  0  0  0
  153.9951  136.4411  158.6236 C   0  0  0  0  0  0  0  0  0  0  0  0
  153.0264  137.5090  158.3757 N   0  0  0  0  0  0  0  0  0  0  0  0
  153.2545  138.8184  158.5538 C   0  0  0  0  0  0  0  0  0  0  0  0
  154.3131  139.2737  158.9865 O   0  0  0  0  0  0  0  0  0  0  0  0
  152.1966  139.5500  158.1695 N   0  0  0  0  0  0  0  0  0  0  0  0
  152.0829  140.9675  158.1327 C   0  0  0  0  0  0  0  0  0  0  0  0
  152.7921  141.8145  159.0176 C   0  0  0  0  0  0  0  0  0  0  0  0
  152.6028  143.2060  158.9306 C   0  0  0  0  0  0  0  0  0  0  0  0
  151.7045  143.7008  157.9674 C   0  0  0  0  0  0  0  0  0  0  0  0
  151.0111  142.9061  157.1262 N   0  0  0  0  0  0  0  0  0  0  0  0
  151.1911  141.5659  157.2073 C   0  0  0  0  0  0  0  0  0  0  0  0
  150.4584  140.7618  156.3189 N   0  0  0  0  0  0  0  0  0  0  0  0
  149.2936  141.4319  155.7485 C   0  0  0  0  0  0  0  0  0  0  0  0
  148.4059  140.4265  154.9948 C   0  0  0  0  0  0  0  0  0  0  0  0
  149.2197  139.6571  153.9411 C   0  0  0  0  0  0  0  0  0  0  0  0
  150.4512  139.0036  154.5902 C   0  0  0  0  0  0  0  0  0  0  0  0
  151.2872  140.0455  155.3530 C   0  0  0  0  0  0  0  0  0  0  0  0
  153.0375  136.3262  164.5829 H   0  0  0  0  0  0  0  0  0  0  0  0
  155.8701  138.4776  162.2734 H   0  0  0  0  0  0  0  0  0  0  0  0
  156.4136  136.8176  162.1053 H   0  0  0  0  0  0  0  0  0  0  0  0
  155.1227  138.2387  160.0984 H   0  0  0  0  0  0  0  0  0  0  0  0
  154.8691  136.6301  158.0002 H   0  0  0  0  0  0  0  0  0  0  0  0
  153.5911  135.4796  158.3020 H   0  0  0  0  0  0  0  0  0  0  0  0
  152.1264  137.2281  158.0151 H   0  0  0  0  0  0  0  0  0  0  0  0
  151.4340  139.0442  157.7431 H   0  0  0  0  0  0  0  0  0  0  0  0
  153.4622  141.4197  159.7660 H   0  0  0  0  0  0  0  0  0  0  0  0
  153.1303  143.8783  159.5908 H   0  0  0  0  0  0  0  0  0  0  0  0
  151.5341  144.7629  157.8731 H   0  0  0  0  0  0  0  0  0  0  0  0
  148.7202  141.9139  156.5418 H   0  0  0  0  0  0  0  0  0  0  0  0
  149.6240  142.2184  155.0687 H   0  0  0  0  0  0  0  0  0  0  0  0
  147.9704  139.7220  155.7047 H   0  0  0  0  0  0  0  0  0  0  0  0
  147.5722  140.9453  154.5211 H   0  0  0  0  0  0  0  0  0  0  0  0
  148.5982  138.8997  153.4625 H   0  0  0  0  0  0  0  0  0  0  0  0
  149.5402  140.3417  153.1548 H   0  0  0  0  0  0  0  0  0  0  0  0
  150.1294  138.2207  155.2781 H   0  0  0  0  0  0  0  0  0  0  0  0
  151.0630  138.5170  153.8303 H   0  0  0  0  0  0  0  0  0  0  0  0
  151.7244  140.7564  154.6505 H   0  0  0  0  0  0  0  0  0  0  0  0
  152.1139  139.5546  155.8686 H   0  0  0  0  0  0  0  0  0  0  0  0
  1  2  3  0  0  0  0
  1 24  1  0  0  0  0
  2  3  1  0  0  0  0
  3  4  1  0  0  0  0
  3 25  1  0  0  0  0
  3 26  1  0  0  0  0
  4  5  1  0  0  0  0
  4 27  1  0  0  0  0
  5  6  2  0  0  0  0
  5  7  1  0  0  0  0
  7  8  1  0  0  0  0
  7 28  1  0  0  0  0
  7 29  1  0  0  0  0
  8  9  1  0  0  0  0
  8 30  1  0  0  0  0
  9 10  2  0  0  0  0
  9 11  1  0  0  0  0
 11 12  1  0  0  0  0
 11 31  1  0  0  0  0
 12 17  1  0  0  0  0
 12 13  2  0  0  0  0
 13 14  1  0  0  0  0
 13 32  1  0  0  0  0
 14 15  2  0  0  0  0
 14 33  1  0  0  0  0
 15 16  1  0  0  0  0
 15 34  1  0  0  0  0
 16 17  2  0  0  0  0
 17 18  1  0  0  0  0
 18 23  1  0  0  0  0
 18 19  1  0  0  0  0
 19 20  1  0  0  0  0
 19 35  1  0  0  0  0
 19 36  1  0  0  0  0
 20 21  1  0  0  0  0
 20 37  1  0  0  0  0
 20 38  1  0  0  0  0
 21 22  1  0  0  0  0
 21 39  1  0  0  0  0
 21 40  1  0  0  0  0
 22 23  1  0  0  0  0
 22 41  1  0  0  0  0
 22 42  1  0  0  0  0
 23 43  1  0  0  0  0
 23 44  1  0  0  0  0
M  END
> <s_m_source_file>
AV-unprocessed.smi

> <i_m_source_file_index>
1057

> <i_lp_mmshare_version>
43012

> <i_f3d_flags>
0

> <s_epik_input>
W0NIXSNDW0NIMl1bTkhdQyg9TylbQ0gyXVtOSF1DKD1PKVtOSF1jMVtjSF1bY0hdW2NIXW5jMU4yW0NIMl1bQ0gyXVtDSDJdW0NIMl1bQ0gyXTI=

> <s_epik_cmdline>
J2VwaWtfcHl0aG9uJywgJy1waCcsICc3LjAnLCAnLXRuJywgJzgnLCAnLW1hJywgJzIwMCcsICctbWV0YWxfYmluZGluZycsICctaW1hZScsICc8aW5maWxlLm1hZT4nLCAnLW9tYWUnLCAnPG91dGZpbGUubWFlPic=

> <r_lp_tautomer_probability>
1

> <r_epik_Ionization_Penalty>
0.251144

> <r_epik_Ionization_Penalty_Charging>
0

> <r_epik_Ionization_Penalty_Neutral>
0.251144

> <r_epik_State_Penalty>
0.236346

> <r_epik_Charging_Adjusted_Penalty>
0.236346

> <i_epik_Tot_Q>
0

> <i_epik_Tot_abs_Q>
0

> <r_epik_Metal_State_Penalty>
0.166327

> <b_epik_Metal_Only>
0

> <s_lp_Force_Field>
OPLS_2005

> <r_lp_Energy>
16.5817

> <b_lp_Chiralities_Consistent>
1

> <s_lp_Variant>
AV-unprocessed.smi:1057-1

> <Gold.Version>
5.8.1

> <Gold.Id.Protein>
6NUR|6NUR_protein|mol2

> <Gold.PLP.Fitness>
41.6017

> <Gold.PLP.PLP>
-36.4286

> <Gold.PLP.part.hbond>
-2.0000

> <Gold.PLP.part.metal>
0.0000

> <Gold.PLP.part.buried>
-1.0824

> <Gold.PLP.part.nonpolar>
-34.6811

> <Gold.PLP.part.repulsive>
0.3699

> <Gold.PLP.ligand.clash>
0.0000

> <Gold.PLP.ligand.torsion>
0.5054

> <Gold.PLP.Chemscore.Hbond>
1.9913

> <Gold.PLP.Chemscore.CHOScore>
0.0000

> <Gold.PLP.Chemscore.Metal>
0.0000

> <Gold.Chemscore.Hbonds>
donor molecule, donor type, donor heavy atom, donor atom, acceptor molecule, acceptor atom, score
      P1  H  6896  6907       L1     6  0.93
      P1  H  7997  8009       L1    10  1.00

> <Gold.PLP.Chemscore.Internal.Correction>
0.2102

> <Gold.Rescore>
     Score         DG    S(hbond)    S(metal)    S(lipo)     H(rot)  DE(clash)    DE(int)     intcor
     12.69     -17.01       1.77        0.00      87.01       1.79       0.16       4.15       ----

> <Gold.Chemscore.Fitness>
12.6910

> <Gold.Chemscore.DG>
-17.0055

> <Gold.Chemscore.ZeroCoef>
-5.4800

> <Gold.Chemscore.Hbond>
1.7716

> <Gold.Chemscore.Metal>
0.0000

> <Gold.Chemscore.Lipo>
87.0119

> <Gold.Chemscore.Internal_Hbond>
0.0000

> <Gold.Chemscore.DEClash>
0.1617

> <Gold.Chemscore.DEInternal>
4.1528

> <Gold.Chemscore.Rot>
1.7860

> <Gold.Chemscore.Internal.Correction>
   9.000000E+99

> <Gold.Chemscore.Hbonds>
donor molecule, donor type, donor heavy atom, donor atom, acceptor molecule, acceptor atom, score
      P1  H  6896  6907       L1     6  0.30
      P1  H  7997  8009       L1    10  0.25

> <Gold.Chemscore.Hbond.Weighted>
-5.9172

> <Gold.Chemscore.Metal.Weighted>
-0.0000

> <Gold.Chemscore.Lipo.Weighted>
-10.1804

> <Gold.Chemscore.Internal_Hbond.Weighted>
0.0000

> <Gold.Chemscore.DEClash.Weighted>
0.1617

> <Gold.Chemscore.DEInternal.Weighted>
4.1528

> <Gold.Chemscore.Rot.Weighted>
4.5721

> <Gold.Chemscore.Internal.Correction.Weighted>
   9.000000E+99

> <Gold.Protein.RotatedTorsions>
[ 6907 6896 6895 6894 ] final   56.32 input  -60.11 | X-H torsion
[ 7974 7965 7964 7962 ] final   90.69 input  175.53 | X-H torsion
[ 8008 7997 7996 7995 ] final  122.75 input   59.86 | X-H torsion
[ 10167 10162 10161 10158 ] final   51.64 input  -65.29 | X-H torsion
[ 10718 10713 10712 10709 ] final  166.76 input   66.30 | X-H torsion
[ 10763 10752 10751 10750 ] final   -3.68 input  -60.55 | X-H torsion
[ 11005 11000 10999 10996 ] final  -32.04 input  -57.11 | X-H torsion

> <Gold.Protein.ActiveResidues>
 VAL166  LYS551  ARG553  GLY616  TRP617  ASP618  TYR619  PRO620  LYS621  CYS622 
 ASP623  PHE694  ASN695  SER759  ASP760  ASP761  ALA762  ILE779  LEU786  VAL792 
 PHE793  MET794  SER795  GLU796  ALA797  LYS798  CYS799  TRP800  GLU811  SER814 

> <Gold.Protein.RotatedAtoms>
  152.3624  134.6853  160.0202 H   0  0  0  0  0  0  0  0  0  0  0  0  # atno 6907 bound_to 6896
  151.7172  133.3308  159.3314 H   0  0  0  0  0  0  0  0  0  0  0  0  # atno 6908 bound_to 6896
  150.7614  134.6415  159.6284 H   0  0  0  0  0  0  0  0  0  0  0  0  # atno 6909 bound_to 6896
  145.5157  139.2278  143.2700 H   0  0  0  0  0  0  0  0  0  0  0  0  # atno 7974 bound_to 7965
  156.2740  140.2778  156.1518 H   0  0  0  0  0  0  0  0  0  0  0  0  # atno 8008 bound_to 7997
  155.0845  140.0388  157.2667 H   0  0  0  0  0  0  0  0  0  0  0  0  # atno 8009 bound_to 7997
  154.6937  140.2634  155.6792 H   0  0  0  0  0  0  0  0  0  0  0  0  # atno 8010 bound_to 7997
  140.2597  144.3386  150.6322 H   0  0  0  0  0  0  0  0  0  0  0  0  # atno 10167 bound_to 10162
  157.0612  131.0340  151.2646 H   0  0  0  0  0  0  0  0  0  0  0  0  # atno 10718 bound_to 10713
  153.3746  135.6996  153.6611 H   0  0  0  0  0  0  0  0  0  0  0  0  # atno 10763 bound_to 10752
  153.5247  135.3604  155.2649 H   0  0  0  0  0  0  0  0  0  0  0  0  # atno 10764 bound_to 10752
  154.8685  135.4166  154.3031 H   0  0  0  0  0  0  0  0  0  0  0  0  # atno 10765 bound_to 10752
  140.9518  133.7216  156.1232 H   0  0  0  0  0  0  0  0  0  0  0  0  # atno 11005 bound_to 11000
  146.2138  140.5966  142.9047 LP  0  0  0  0  0  0  0  0  0  0  0  0  # atno 17320 bound_to 7965
  144.7703  140.5623  143.6674 LP  0  0  0  0  0  0  0  0  0  0  0  0  # atno 17321 bound_to 7965
  140.5975  143.2167  151.7136 LP  0  0  0  0  0  0  0  0  0  0  0  0  # atno 17342 bound_to 10162
  139.5020  144.3844  152.0343 LP  0  0  0  0  0  0  0  0  0  0  0  0  # atno 17343 bound_to 10162
  157.4953  130.7847  149.7549 LP  0  0  0  0  0  0  0  0  0  0  0  0  # atno 17370 bound_to 10713
  155.9978  130.3898  150.2727 LP  0  0  0  0  0  0  0  0  0  0  0  0  # atno 17371 bound_to 10713
  140.7591  134.3959  157.5529 LP  0  0  0  0  0  0  0  0  0  0  0  0  # atno 17394 bound_to 11000
  139.8850  134.8950  156.2670 LP  0  0  0  0  0  0  0  0  0  0  0  0  # atno 17395 bound_to 11000

$$$$
