#       Name:                AV-unprocessed.smi:3220
#       Creating user name   scv26
#       Creation time:       Fri Mar 27 18:14:17 2020


#       File generated by GOLD software.
#

@<TRIPOS>MOLECULE
AV-unprocessed.smi:3220
    38    39     1
SMALL
NO_CHARGES


@<TRIPOS>ATOM
      1 ****        -0.6598  -3.0438   1.9347 C.3            1 S1                 0.0000
      2 ****        -0.0781  -2.1770   0.8098 C.3            1 S1                 0.0000
      3 ****         1.4593  -2.3019   0.7424 C.3            1 S1                 0.0000
      4 ****         2.0285  -1.6296  -0.4122 N.pl3          1 S1                 0.0000
      5 ****         2.7022  -0.4270  -0.4589 C.2            1 S1                 0.0000
      6 ****         3.0322  -0.1970  -1.7637 C.2            1 S1                 0.0000
      7 ****         2.5150  -1.3324  -2.4479 C.2            1 S1                 0.0000
      8 ****         1.9188  -2.1901  -1.6358 N.2            1 S1                 0.0000
      9 ****        -0.4772  -0.7870   1.0284 N.am           1 S1                 0.0000
     10 ****        -0.8705   0.0762   0.0784 C.2            1 S1                 0.0000
     11 ****        -0.9646  -0.2208  -1.1129 O.2            1 S1                 0.0000
     12 ****        -1.2048   1.4957   0.5474 C.3            1 S1                 0.0000
     13 ****        -0.5540   2.5982  -0.3088 C.3            1 S1                 0.0000
     14 ****        -1.7271   3.2407  -1.0232 C.3            1 S1                 0.0000
     15 ****        -2.8619   3.0050  -0.0372 C.3            1 S1                 0.0000
     16 ****        -2.6127   1.6869   0.4236 O.3            1 S1                 0.0000
     17 ****        -0.3993  -4.0934   1.7952 H              1 S1                 0.0000
     18 ****        -1.7480  -2.9767   1.9588 H              1 S1                 0.0000
     19 ****        -0.2841  -2.7348   2.9108 H              1 S1                 0.0000
     20 ****        -0.5017  -2.5426  -0.1275 H              1 S1                 0.0000
     21 ****         1.9172  -1.8952   1.6453 H              1 S1                 0.0000
     22 ****         1.7483  -3.3529   0.6950 H              1 S1                 0.0000
     23 ****         2.8812   0.1615   0.4288 H              1 S1                 0.0000
     24 ****         3.5606   0.6533  -2.1685 H              1 S1                 0.0000
     25 ****         2.5555  -1.5579  -3.5033 H              1 S1                 0.0000
     26 ****        -0.4396  -0.4501   1.9795 H              1 S1                 0.0000
     27 ****        -0.9198   1.6269   1.5928 H              1 S1                 0.0000
     28 ****        -0.0678   3.3271   0.3406 H              1 S1                 0.0000
     29 ****         0.1992   2.2333  -1.0089 H              1 S1                 0.0000
     30 ****        -1.5672   4.2955  -1.2480 H              1 S1                 0.0000
     31 ****        -1.9300   2.7164  -1.9581 H              1 S1                 0.0000
     32 ****        -2.8043   3.7030   0.7993 H              1 S1                 0.0000
     33 ****        -3.8471   3.0917  -0.4958 H              1 S1                 0.0000
     34 ****         1.4845  -3.0586  -1.8746 LP             1 S1                 0.0000
     35 ****        -0.7423  -1.1474  -1.4163 LP             1 S1                 0.0000
     36 ****        -1.2632   0.4646  -1.7770 LP             1 S1                 0.0000
     37 ****        -3.0483   1.5552   1.3140 LP             1 S1                 0.0000
     38 ****        -2.9842   1.0275  -0.2300 LP             1 S1                 0.0000
@<TRIPOS>BOND
    1    1    2 1     
    2    1   17 1     
    3    1   18 1     
    4    1   19 1     
    5    2    3 1     
    6    2    9 1     
    7    2   20 1     
    8    3    4 1     
    9    3   21 1     
   10    3   22 1     
   11    4    8 1     
   12    4    5 1     
   13    5    6 2     
   14    5   23 1     
   15    6    7 1     
   16    6   24 1     
   17    7    8 2     
   18    7   25 1     
   19    9   10 am    
   20    9   26 1     
   21   10   11 2     
   22   10   12 1     
   23   12   16 1     
   24   12   13 1     
   25   12   27 1     
   26   13   14 1     
   27   13   28 1     
   28   13   29 1     
   29   14   15 1     
   30   14   30 1     
   31   14   31 1     
   32   15   16 1     
   33   15   32 1     
   34   15   33 1     
   35    8   34 1     
   36   11   35 1     
   37   11   36 1     
   38   16   37 1     
   39   16   38 1     
@<TRIPOS>SUBSTRUCTURE
      1 S1             1
@<TRIPOS>SET
LONE_PAIRS      STATIC     ATOMS    <user>   **** ""
5 34 35 36 37 38
DONOR_HYDROGENS      STATIC     ATOMS    <user>   **** ""
1 26
ATOM$BLUE        STATIC     ATOMS    COLORGROUP SYSTEM
5 34 35 36 37 38
ATOM$RED        STATIC     ATOMS    COLORGROUP SYSTEM
1 26
