AV-unprocessed.smi:16|AV-procd|sdf|89|dock10
  -GOLD-   2262015233D 1   1.00000     0.00000
 Structure written by MMmdl.
 60 64  0  0  0  0  0  0  0  0  2 V2000
  151.8188  144.9644  159.7265 C   0  0  0  0  0  0  0  0  0  0  0  0
  152.4545  144.4046  158.4455 C   0  0  0  0  0  0  0  0  0  0  0  0
  152.4139  142.9211  158.3861 N   0  3  1  0  0  0  0  0  0  0  0  0
  153.0102  142.2987  159.5972 C   0  0  0  0  0  0  0  0  0  0  0  0
  153.0702  140.7681  159.4690 C   0  0  0  0  0  0  0  0  0  0  0  0
  151.6740  140.1991  159.1965 C   0  0  2  0  0  0  0  0  0  0  0  0
  151.7568  138.7889  159.0243 O   0  0  0  0  0  0  0  0  0  0  0  0
  150.4718  138.2067  158.8305 C   0  0  0  0  0  0  0  0  0  0  0  0
  149.8328  138.7930  157.5616 C   0  0  0  0  0  0  0  0  0  0  0  0
  149.7777  140.2508  157.6451 N   0  0  0  0  0  0  0  0  0  0  0  0
  149.1087  140.8133  156.6129 C   0  0  0  0  0  0  0  0  0  0  0  0
  149.5477  140.6405  155.3382 N   0  0  0  0  0  0  0  0  0  0  0  0
  148.8958  141.2191  154.3250 C   0  0  0  0  0  0  0  0  0  0  0  0
  147.8167  142.0042  154.3667 N   0  0  0  0  0  0  0  0  0  0  0  0
  147.3850  142.1892  155.6475 C   0  0  0  0  0  0  0  0  0  0  0  0
  147.9656  141.6285  156.8184 C   0  0  0  0  0  0  0  0  0  0  0  0
  147.2566  142.0275  157.9436 N   0  0  0  0  0  0  0  0  0  0  0  0
  146.3008  142.7762  157.4631 C   0  0  0  0  0  0  0  0  0  0  0  0
  146.3217  142.9519  156.0970 N   0  0  0  0  0  0  0  0  0  0  0  0
  145.3780  143.6904  155.3107 C   0  0  0  0  0  0  0  0  0  0  0  0
  144.9213  145.0902  155.7339 C   0  0  0  0  0  0  0  0  0  0  0  0
  143.5332  144.8106  155.1144 C   0  0  0  0  0  0  0  0  0  0  0  0
  142.3124  145.3432  155.8903 C   0  0  0  0  0  0  0  0  0  0  0  0
  142.3581  145.0193  157.2657 O   0  0  0  0  0  0  0  0  0  0  0  0
  143.3894  145.2868  153.6562 C   0  0  0  0  0  0  0  0  0  0  0  0
  142.2093  144.7868  153.0607 O   0  0  0  0  0  0  0  0  0  0  0  0
  143.8924  143.3170  155.2934 C   0  0  0  0  0  0  0  0  0  0  0  0
  151.0888  140.8439  157.9225 C   0  0  1  0  0  0  0  0  0  0  0  0
  151.0570  142.3821  158.0981 C   0  0  0  0  0  0  0  0  0  0  0  0
  151.0333  140.4156  160.0542 H   0  0  0  0  0  0  0  0  0  0  0  0
  151.7431  140.6078  157.0810 H   0  0  0  0  0  0  0  0  0  0  0  0
  151.7718  146.0529  159.6844 H   0  0  0  0  0  0  0  0  0  0  0  0
  152.3889  144.7038  160.6176 H   0  0  0  0  0  0  0  0  0  0  0  0
  150.8009  144.5956  159.8560 H   0  0  0  0  0  0  0  0  0  0  0  0
  151.9000  144.8108  157.5985 H   0  0  0  0  0  0  0  0  0  0  0  0
  153.4815  144.7567  158.3392 H   0  0  0  0  0  0  0  0  0  0  0  0
  154.0193  142.6828  159.7509 H   0  0  0  0  0  0  0  0  0  0  0  0
  152.4264  142.5795  160.4754 H   0  0  0  0  0  0  0  0  0  0  0  0
  153.7487  140.4912  158.6609 H   0  0  0  0  0  0  0  0  0  0  0  0
  153.4791  140.3335  160.3818 H   0  0  0  0  0  0  0  0  0  0  0  0
  150.5813  137.1268  158.7318 H   0  0  0  0  0  0  0  0  0  0  0  0
  149.8412  138.3851  159.7030 H   0  0  0  0  0  0  0  0  0  0  0  0
  150.4168  138.4913  156.6908 H   0  0  0  0  0  0  0  0  0  0  0  0
  148.8273  138.3907  157.4313 H   0  0  0  0  0  0  0  0  0  0  0  0
  149.2978  141.0307  153.3403 H   0  0  0  0  0  0  0  0  0  0  0  0
  145.5542  143.2304  158.0985 H   0  0  0  0  0  0  0  0  0  0  0  0
  145.7819  143.7069  154.2969 H   0  0  0  0  0  0  0  0  0  0  0  0
  144.9070  145.2073  156.8188 H   0  0  0  0  0  0  0  0  0  0  0  0
  145.4771  145.9035  155.2661 H   0  0  0  0  0  0  0  0  0  0  0  0
  142.2425  146.4279  155.8048 H   0  0  0  0  0  0  0  0  0  0  0  0
  141.3842  144.9355  155.4892 H   0  0  0  0  0  0  0  0  0  0  0  0
  142.1027  145.7821  157.7617 H   0  0  0  0  0  0  0  0  0  0  0  0
  143.3769  146.3757  153.5982 H   0  0  0  0  0  0  0  0  0  0  0  0
  144.2324  144.9607  153.0467 H   0  0  0  0  0  0  0  0  0  0  0  0
  142.3865  143.9225  152.7221 H   0  0  0  0  0  0  0  0  0  0  0  0
  143.6029  142.6691  154.4654 H   0  0  0  0  0  0  0  0  0  0  0  0
  143.5577  142.9007  156.2449 H   0  0  0  0  0  0  0  0  0  0  0  0
  150.3726  142.6597  158.9016 H   0  0  0  0  0  0  0  0  0  0  0  0
  150.6812  142.8468  157.1879 H   0  0  0  0  0  0  0  0  0  0  0  0
  153.0051  142.6515  157.6126 H   0  0  0  0  0  0  0  0  0  0  0  0
  1  2  1  0  0  0  0
  1 32  1  0  0  0  0
  1 33  1  0  0  0  0
  1 34  1  0  0  0  0
  2  3  1  0  0  0  0
  2 35  1  0  0  0  0
  2 36  1  0  0  0  0
  3 29  1  0  0  0  0
  3  4  1  0  0  0  0
  3 60  1  0  0  0  0
  4  5  1  0  0  0  0
  4 37  1  0  0  0  0
  4 38  1  0  0  0  0
  5  6  1  0  0  0  0
  5 39  1  0  0  0  0
  5 40  1  0  0  0  0
  6 30  1  0  0  0  0
  6 28  1  0  0  0  0
  6  7  1  0  0  0  0
  7  8  1  0  0  0  0
  8  9  1  0  0  0  0
  8 41  1  0  0  0  0
  8 42  1  0  0  0  0
  9 10  1  0  0  0  0
  9 43  1  0  0  0  0
  9 44  1  0  0  0  0
 10 11  1  0  0  0  0
 10 28  1  0  0  0  0
 11 16  1  0  0  0  0
 11 12  2  0  0  0  0
 12 13  1  0  0  0  0
 13 14  2  0  0  0  0
 13 45  1  0  0  0  0
 14 15  1  0  0  0  0
 15 19  1  0  0  0  0
 15 16  2  0  0  0  0
 16 17  1  0  0  0  0
 17 18  2  0  0  0  0
 18 19  1  0  0  0  0
 18 46  1  0  0  0  0
 19 20  1  0  0  0  0
 20 27  1  0  0  0  0
 20 21  1  0  0  0  0
 20 47  1  0  0  0  0
 21 22  1  0  0  0  0
 21 48  1  0  0  0  0
 21 49  1  0  0  0  0
 22 23  1  0  0  0  0
 22 25  1  0  0  0  0
 22 27  1  0  0  0  0
 23 24  1  0  0  0  0
 23 50  1  0  0  0  0
 23 51  1  0  0  0  0
 24 52  1  0  0  0  0
 25 26  1  0  0  0  0
 25 53  1  0  0  0  0
 25 54  1  0  0  0  0
 26 55  1  0  0  0  0
 27 56  1  0  0  0  0
 27 57  1  0  0  0  0
 28 31  1  0  0  0  0
 28 29  1  0  0  0  0
 29 58  1  0  0  0  0
 29 59  1  0  0  0  0
M  CHG  1   3   1
M  END
> <s_m_source_file>
AV-unprocessed.smi

> <i_m_source_file_index>
16

> <i_lp_mmshare_version>
43012

> <i_f3d_flags>
0

> <s_epik_input>
W0NIM11bQ0gyXU4oW0NIMl1bQ0gyXTEpW0NIMl1bQ0BASF0oW0NAQEhdMTIpTihbQ0gyXVtDSDJdTzIpYyhuW2NIXW4zKWMoYzM0KW5bY0hdbjRbQ0hdKFtDSDJdNSlbQ0gyXUM1KFtDSDJdW09IXSlbQ0gyXVtPSF0=

> <s_epik_cmdline>
J2VwaWtfcHl0aG9uJywgJy1waCcsICc3LjAnLCAnLXRuJywgJzgnLCAnLW1hJywgJzIwMCcsICctbWV0YWxfYmluZGluZycsICctaW1hZScsICc8aW5maWxlLm1hZT4nLCAnLW9tYWUnLCAnPG91dGZpbGUubWFlPic=

> <r_lp_tautomer_probability>
1

> <r_epik_Ionization_Penalty>
0.0135603

> <r_epik_Ionization_Penalty_Charging>
0.0131385

> <r_epik_Ionization_Penalty_Neutral>
0.000421734

> <r_epik_State_Penalty>
0.0102091

> <r_epik_Charging_Adjusted_Penalty>
0.0233476

> <i_epik_Tot_Q>
1

> <i_epik_Tot_abs_Q>
1

> <r_epik_Metal_State_Penalty>
0.0103746

> <b_epik_Metal_Only>
0

> <s_lp_Force_Field>
OPLS_2005

> <r_lp_Energy>
54.8635

> <b_lp_Chiralities_Consistent>
1

> <s_lp_Variant>
AV-unprocessed.smi:16-3

> <Gold.Version>
5.8.1

> <Gold.Id.Protein>
6NUR|6NUR_protein|mol2

> <Gold.PLP.Fitness>
47.5902

> <Gold.PLP.PLP>
-42.0059

> <Gold.PLP.part.hbond>
-3.0000

> <Gold.PLP.part.metal>
0.0000

> <Gold.PLP.part.buried>
-7.5601

> <Gold.PLP.part.nonpolar>
-32.3875

> <Gold.PLP.part.repulsive>
0.3624

> <Gold.PLP.ligand.clash>
0.0000

> <Gold.PLP.ligand.torsion>
0.5108

> <Gold.PLP.Chemscore.Hbond>
1.0000

> <Gold.PLP.Chemscore.CHOScore>
1.0000

> <Gold.PLP.Chemscore.Metal>
0.0000

> <Gold.Chemscore.Hbonds>
donor molecule, donor type, donor heavy atom, donor atom, acceptor molecule, acceptor atom, score
      L1  H    26    55       P1 10174  1.00
      L1  C    13    45       P1  7957  1.00

> <Gold.PLP.Chemscore.Internal.Correction>
0.6059

> <Gold.Rescore>
     Score         DG    S(hbond)    S(metal)    S(lipo)     H(rot)  DE(clash)    DE(int)     intcor
     11.03     -11.49       1.00        0.00      95.68       3.33       0.08       0.39       ----

> <Gold.Chemscore.Fitness>
11.0296

> <Gold.Chemscore.DG>
-11.4915

> <Gold.Chemscore.ZeroCoef>
-5.4800

> <Gold.Chemscore.Hbond>
0.9968

> <Gold.Chemscore.Metal>
0.0000

> <Gold.Chemscore.Lipo>
95.6794

> <Gold.Chemscore.Internal_Hbond>
0.0000

> <Gold.Chemscore.DEClash>
0.0755

> <Gold.Chemscore.DEInternal>
0.3864

> <Gold.Chemscore.Rot>
3.3251

> <Gold.Chemscore.Internal.Correction>
   9.000000E+99

> <Gold.Chemscore.Hbonds>
donor molecule, donor type, donor heavy atom, donor atom, acceptor molecule, acceptor atom, score
      L1  H    26    55       P1 10174  0.94

> <Gold.Chemscore.Hbond.Weighted>
-3.3292

> <Gold.Chemscore.Metal.Weighted>
-0.0000

> <Gold.Chemscore.Lipo.Weighted>
-11.1945

> <Gold.Chemscore.Internal_Hbond.Weighted>
0.0000

> <Gold.Chemscore.DEClash.Weighted>
0.0755

> <Gold.Chemscore.DEInternal.Weighted>
0.3864

> <Gold.Chemscore.Rot.Weighted>
8.5122

> <Gold.Chemscore.Internal.Correction.Weighted>
   9.000000E+99

> <Gold.Protein.RotatedTorsions>
[ 6907 6896 6895 6894 ] final  105.04 input  -60.11 | X-H torsion
[ 7974 7965 7964 7962 ] final  -29.30 input  175.53 | X-H torsion
[ 8008 7997 7996 7995 ] final -129.70 input   59.86 | X-H torsion
[ 10167 10162 10161 10158 ] final -152.57 input  -65.29 | X-H torsion
[ 10718 10713 10712 10709 ] final  -92.84 input   66.30 | X-H torsion
[ 10763 10752 10751 10750 ] final -145.91 input  -60.55 | X-H torsion
[ 11005 11000 10999 10996 ] final  132.31 input  -57.11 | X-H torsion

> <Gold.Protein.ActiveResidues>
 VAL166  LYS551  ARG553  GLY616  TRP617  ASP618  TYR619  PRO620  LYS621  CYS622 
 ASP623  PHE694  ASN695  SER759  ASP760  ASP761  ALA762  ILE779  LEU786  VAL792 
 PHE793  MET794  SER795  GLU796  ALA797  LYS798  CYS799  TRP800  GLU811  SER814 

> <Gold.Protein.RotatedAtoms>
  152.5244  133.9588  159.7706 H   0  0  0  0  0  0  0  0  0  0  0  0  # atno 6907 bound_to 6896
  150.9883  133.6167  159.2719 H   0  0  0  0  0  0  0  0  0  0  0  0  # atno 6908 bound_to 6896
  151.3320  135.0850  159.9395 H   0  0  0  0  0  0  0  0  0  0  0  0  # atno 6909 bound_to 6896
  146.1227  140.5394  142.8728 H   0  0  0  0  0  0  0  0  0  0  0  0  # atno 7974 bound_to 7965
  155.2836  140.0445  157.3017 H   0  0  0  0  0  0  0  0  0  0  0  0  # atno 8008 bound_to 7997
  154.5582  140.2338  155.8344 H   0  0  0  0  0  0  0  0  0  0  0  0  # atno 8009 bound_to 7997
  156.2025  140.3021  155.9565 H   0  0  0  0  0  0  0  0  0  0  0  0  # atno 8010 bound_to 7997
  139.7170  143.9017  152.2490 H   0  0  0  0  0  0  0  0  0  0  0  0  # atno 10167 bound_to 10162
  156.0006  130.5003  150.5686 H   0  0  0  0  0  0  0  0  0  0  0  0  # atno 10718 bound_to 10713
  154.8361  135.3400  154.6579 H   0  0  0  0  0  0  0  0  0  0  0  0  # atno 10763 bound_to 10752
  153.7194  135.6959  153.5021 H   0  0  0  0  0  0  0  0  0  0  0  0  # atno 10764 bound_to 10752
  153.2393  135.4390  155.0633 H   0  0  0  0  0  0  0  0  0  0  0  0  # atno 10765 bound_to 10752
  139.9782  134.9556  156.9564 H   0  0  0  0  0  0  0  0  0  0  0  0  # atno 11005 bound_to 11000
  144.7612  140.5426  143.6734 LP  0  0  0  0  0  0  0  0  0  0  0  0  # atno 17320 bound_to 7965
  145.5432  139.1475  143.3435 LP  0  0  0  0  0  0  0  0  0  0  0  0  # atno 17321 bound_to 7965
  139.8902  144.6970  150.8779 LP  0  0  0  0  0  0  0  0  0  0  0  0  # atno 17342 bound_to 10162
  140.7746  143.3592  151.1861 LP  0  0  0  0  0  0  0  0  0  0  0  0  # atno 17343 bound_to 10162
  157.3584  131.0745  151.1656 LP  0  0  0  0  0  0  0  0  0  0  0  0  # atno 17370 bound_to 10713
  157.2449  130.6587  149.5906 LP  0  0  0  0  0  0  0  0  0  0  0  0  # atno 17371 bound_to 10713
  140.5150  134.0964  155.7279 LP  0  0  0  0  0  0  0  0  0  0  0  0  # atno 17394 bound_to 11000
  141.1457  133.9059  157.2220 LP  0  0  0  0  0  0  0  0  0  0  0  0  # atno 17395 bound_to 11000

$$$$
