AV-unprocessed.smi:2676|AV-procd|sdf|10364|dock8
  -GOLD-   2272014393D 1   1.00000     0.00000
 Structure written by MMmdl.
 40 41  0  0  0  0  0  0  0  0  1 V2000
  151.8600  139.3268  155.3180 C   0  0  0  0  0  0  0  0  0  0  0  0
  152.4011  138.9920  156.4987 C   0  0  0  0  0  0  0  0  0  0  0  0
  151.7553  139.2595  157.8464 C   0  0  0  0  0  0  0  0  0  0  0  0
  150.3665  138.7495  157.8938 N   0  0  0  0  0  0  0  0  0  0  0  0
  149.3732  139.5084  157.3413 C   0  0  0  0  0  0  0  0  0  0  0  0
  149.6088  140.6021  156.8189 O   0  0  0  0  0  0  0  0  0  0  0  0
  148.1043  139.0044  157.4071 N   0  0  0  0  0  0  0  0  0  0  0  0
  146.9968  139.7988  156.8298 C   0  0  0  0  0  0  0  0  0  0  0  0
  147.2726  140.1659  155.3826 C   0  0  0  0  0  0  0  0  0  0  0  0
  146.6102  141.1118  154.7006 C   0  0  0  0  0  0  0  0  0  0  0  0
  147.7994  137.8223  158.0212 C   0  0  0  0  0  0  0  0  0  0  0  0
  146.6368  137.4135  158.0984 O   0  0  0  0  0  0  0  0  0  0  0  0
  148.8421  137.1205  158.5594 N   0  0  0  0  0  0  0  0  0  0  0  0
  148.5483  135.8448  159.2596 C   0  0  0  0  0  0  0  0  0  0  0  0
  147.8159  136.0320  160.5987 C   0  0  0  0  0  0  0  0  0  0  0  0
  147.5234  137.1560  161.0103 O   0  0  0  0  0  0  0  0  0  0  0  0
  147.5248  134.9055  161.2645 N   0  0  0  0  0  0  0  0  0  0  0  0
  146.8434  134.8348  162.5164 C   0  0  0  0  0  0  0  0  0  0  0  0
  145.6574  133.9007  162.6205 C   0  0  0  0  0  0  0  0  0  0  0  0
  145.4359  135.3877  162.5806 C   0  0  0  0  0  0  0  0  0  0  0  0
  150.1359  137.5607  158.5273 C   0  0  0  0  0  0  0  0  0  0  0  0
  151.0498  136.9200  159.0552 O   0  0  0  0  0  0  0  0  0  0  0  0
  150.9004  139.8189  155.2598 H   0  0  0  0  0  0  0  0  0  0  0  0
  152.3724  139.1111  154.3921 H   0  0  0  0  0  0  0  0  0  0  0  0
  153.3641  138.5025  156.5165 H   0  0  0  0  0  0  0  0  0  0  0  0
  152.3788  138.8055  158.6183 H   0  0  0  0  0  0  0  0  0  0  0  0
  151.8017  140.3266  158.0718 H   0  0  0  0  0  0  0  0  0  0  0  0
  146.0487  139.2600  156.8695 H   0  0  0  0  0  0  0  0  0  0  0  0
  146.8038  140.7037  157.4091 H   0  0  0  0  0  0  0  0  0  0  0  0
  148.0566  139.6111  154.8877 H   0  0  0  0  0  0  0  0  0  0  0  0
  145.8199  141.6861  155.1613 H   0  0  0  0  0  0  0  0  0  0  0  0
  146.8523  141.3245  153.6697 H   0  0  0  0  0  0  0  0  0  0  0  0
  147.9529  135.1765  158.6351 H   0  0  0  0  0  0  0  0  0  0  0  0
  149.4612  135.2746  159.4412 H   0  0  0  0  0  0  0  0  0  0  0  0
  147.8043  134.0277  160.8507 H   0  0  0  0  0  0  0  0  0  0  0  0
  147.4417  134.9521  163.4191 H   0  0  0  0  0  0  0  0  0  0  0  0
  145.3814  133.3272  161.7374 H   0  0  0  0  0  0  0  0  0  0  0  0
  145.5009  133.3947  163.5711 H   0  0  0  0  0  0  0  0  0  0  0  0
  145.1300  135.8744  163.5045 H   0  0  0  0  0  0  0  0  0  0  0  0
  145.0105  135.8072  161.6707 H   0  0  0  0  0  0  0  0  0  0  0  0
  1  2  2  0  0  0  0
  1 23  1  0  0  0  0
  1 24  1  0  0  0  0
  2  3  1  0  0  0  0
  2 25  1  0  0  0  0
  3  4  1  0  0  0  0
  3 26  1  0  0  0  0
  3 27  1  0  0  0  0
  4 21  1  0  0  0  0
  4  5  1  0  0  0  0
  5  6  2  0  0  0  0
  5  7  1  0  0  0  0
  7  8  1  0  0  0  0
  7 11  1  0  0  0  0
  8  9  1  0  0  0  0
  8 28  1  0  0  0  0
  8 29  1  0  0  0  0
  9 10  2  0  0  0  0
  9 30  1  0  0  0  0
 10 31  1  0  0  0  0
 10 32  1  0  0  0  0
 11 12  2  0  0  0  0
 11 13  1  0  0  0  0
 13 14  1  0  0  0  0
 13 21  1  0  0  0  0
 14 15  1  0  0  0  0
 14 33  1  0  0  0  0
 14 34  1  0  0  0  0
 15 16  2  0  0  0  0
 15 17  1  0  0  0  0
 17 18  1  0  0  0  0
 17 35  1  0  0  0  0
 18 20  1  0  0  0  0
 18 19  1  0  0  0  0
 18 36  1  0  0  0  0
 19 20  1  0  0  0  0
 19 37  1  0  0  0  0
 19 38  1  0  0  0  0
 20 39  1  0  0  0  0
 20 40  1  0  0  0  0
 21 22  2  0  0  0  0
M  END
> <s_m_source_file>
AV-unprocessed.smi

> <i_m_source_file_index>
2676

> <i_lp_mmshare_version>
43012

> <i_f3d_flags>
0

> <s_epik_input>
W0NIMl09W0NIXVtDSDJdbjFjKD1PKW4oW0NIMl1bQ0hdPVtDSDJdKWMoPU8pbihjMT1PKVtDSDJdQyg9TylbTkhdW0NIXTJbQ0gyXVtDSDJdMg==

> <s_epik_cmdline>
J2VwaWtfcHl0aG9uJywgJy1waCcsICc3LjAnLCAnLXRuJywgJzgnLCAnLW1hJywgJzIwMCcsICctbWV0YWxfYmluZGluZycsICctaW1hZScsICc8aW5maWxlLm1hZT4nLCAnLW9tYWUnLCAnPG91dGZpbGUubWFlPic=

> <r_lp_tautomer_probability>
1

> <r_epik_Ionization_Penalty>
2.07961e-08

> <r_epik_Ionization_Penalty_Charging>
1.25795e-10

> <r_epik_Ionization_Penalty_Neutral>
2.06703e-08

> <r_epik_State_Penalty>
-0

> <r_epik_Charging_Adjusted_Penalty>
1.25795e-10

> <i_epik_Tot_Q>
0

> <i_epik_Tot_abs_Q>
0

> <r_epik_Metal_State_Penalty>
-0

> <b_epik_Metal_Only>
0

> <s_lp_Force_Field>
OPLS_2005

> <r_lp_Energy>
27.3169

> <b_lp_Chiralities_Consistent>
1

> <s_lp_Variant>
AV-unprocessed.smi:2676-1

> <Gold.Version>
5.8.1

> <Gold.Id.Protein>
6NUR|6NUR_protein|mol2

> <Gold.PLP.Fitness>
38.2983

> <Gold.PLP.PLP>
-30.9070

> <Gold.PLP.part.hbond>
-3.0000

> <Gold.PLP.part.metal>
0.0000

> <Gold.PLP.part.buried>
-4.3553

> <Gold.PLP.part.nonpolar>
-22.9131

> <Gold.PLP.part.repulsive>
0.0832

> <Gold.PLP.ligand.clash>
0.0000

> <Gold.PLP.ligand.torsion>
0.6137

> <Gold.PLP.Chemscore.Hbond>
2.8400

> <Gold.PLP.Chemscore.CHOScore>
0.0000

> <Gold.PLP.Chemscore.Metal>
0.0000

> <Gold.Chemscore.Hbonds>
donor molecule, donor type, donor heavy atom, donor atom, acceptor molecule, acceptor atom, score
      P1  H  6896  6908       L1    22  1.00
      P1  H  6931  6943       L1    16  0.80
      P1  H  6934  6947       L1    16  0.99

> <Gold.PLP.Chemscore.Internal.Correction>
0.0987

> <Gold.Rescore>
     Score         DG    S(hbond)    S(metal)    S(lipo)     H(rot)  DE(clash)    DE(int)     intcor
     13.93     -14.88       2.73        0.00      54.62       2.39       0.03       0.92       ----

> <Gold.Chemscore.Fitness>
13.9256

> <Gold.Chemscore.DG>
-14.8755

> <Gold.Chemscore.ZeroCoef>
-5.4800

> <Gold.Chemscore.Hbond>
2.7314

> <Gold.Chemscore.Metal>
0.0000

> <Gold.Chemscore.Lipo>
54.6211

> <Gold.Chemscore.Internal_Hbond>
0.0000

> <Gold.Chemscore.DEClash>
0.0329

> <Gold.Chemscore.DEInternal>
0.9170

> <Gold.Chemscore.Rot>
2.3899

> <Gold.Chemscore.Internal.Correction>
   9.000000E+99

> <Gold.Chemscore.Hbonds>
donor molecule, donor type, donor heavy atom, donor atom, acceptor molecule, acceptor atom, score
      P1  H  6896  6908       L1    22  0.91
      P1  H  6931  6943       L1    16  0.71
      P1  H  6934  6947       L1    16  0.93

> <Gold.Chemscore.Hbond.Weighted>
-9.1229

> <Gold.Chemscore.Metal.Weighted>
-0.0000

> <Gold.Chemscore.Lipo.Weighted>
-6.3907

> <Gold.Chemscore.Internal_Hbond.Weighted>
0.0000

> <Gold.Chemscore.DEClash.Weighted>
0.0329

> <Gold.Chemscore.DEInternal.Weighted>
0.9170

> <Gold.Chemscore.Rot.Weighted>
6.1181

> <Gold.Chemscore.Internal.Correction.Weighted>
   9.000000E+99

> <Gold.Protein.RotatedTorsions>
[ 6907 6896 6895 6894 ] final -151.80 input  -60.11 | X-H torsion
[ 7974 7965 7964 7962 ] final  159.46 input  175.53 | X-H torsion
[ 8008 7997 7996 7995 ] final  -33.37 input   59.86 | X-H torsion
[ 10167 10162 10161 10158 ] final    9.82 input  -65.29 | X-H torsion
[ 10718 10713 10712 10709 ] final    1.43 input   66.30 | X-H torsion
[ 10763 10752 10751 10750 ] final  111.99 input  -60.55 | X-H torsion
[ 11005 11000 10999 10996 ] final  -88.16 input  -57.11 | X-H torsion

> <Gold.Protein.ActiveResidues>
 VAL166  LYS551  ARG553  GLY616  TRP617  ASP618  TYR619  PRO620  LYS621  CYS622 
 ASP623  PHE694  ASN695  SER759  ASP760  ASP761  ALA762  ILE779  LEU786  VAL792 
 PHE793  MET794  SER795  GLU796  ALA797  LYS798  CYS799  TRP800  GLU811  SER814 

> <Gold.Protein.RotatedAtoms>
  151.2184  133.4516  159.2599 H   0  0  0  0  0  0  0  0  0  0  0  0  # atno 6907 bound_to 6896
  151.0908  134.9915  159.8412 H   0  0  0  0  0  0  0  0  0  0  0  0  # atno 6908 bound_to 6896
  152.5434  134.2118  159.8806 H   0  0  0  0  0  0  0  0  0  0  0  0  # atno 6909 bound_to 6896
  144.7789  139.7621  143.6268 H   0  0  0  0  0  0  0  0  0  0  0  0  # atno 7974 bound_to 7965
  154.4151  140.1712  156.1877 H   0  0  0  0  0  0  0  0  0  0  0  0  # atno 8008 bound_to 7997
  155.9629  140.3392  155.6483 H   0  0  0  0  0  0  0  0  0  0  0  0  # atno 8009 bound_to 7997
  155.6725  140.0713  157.2505 H   0  0  0  0  0  0  0  0  0  0  0  0  # atno 8010 bound_to 7997
  140.6232  143.8159  150.7200 H   0  0  0  0  0  0  0  0  0  0  0  0  # atno 10167 bound_to 10162
  156.8481  130.5544  149.5672 H   0  0  0  0  0  0  0  0  0  0  0  0  # atno 10718 bound_to 10713
  153.4714  135.3700  155.2392 H   0  0  0  0  0  0  0  0  0  0  0  0  # atno 10763 bound_to 10752
  154.8757  135.3932  154.3808 H   0  0  0  0  0  0  0  0  0  0  0  0  # atno 10764 bound_to 10752
  153.4397  135.7084  153.6242 H   0  0  0  0  0  0  0  0  0  0  0  0  # atno 10765 bound_to 10752
  141.1606  133.7553  156.9411 H   0  0  0  0  0  0  0  0  0  0  0  0  # atno 11005 bound_to 11000
  146.1985  139.5266  142.9759 LP  0  0  0  0  0  0  0  0  0  0  0  0  # atno 17320 bound_to 7965
  145.6107  141.0340  143.1968 LP  0  0  0  0  0  0  0  0  0  0  0  0  # atno 17321 bound_to 7965
  140.1754  143.4159  152.1971 LP  0  0  0  0  0  0  0  0  0  0  0  0  # atno 17342 bound_to 10162
  139.5457  144.7296  151.4592 LP  0  0  0  0  0  0  0  0  0  0  0  0  # atno 17343 bound_to 10162
  156.0843  130.5846  150.9620 LP  0  0  0  0  0  0  0  0  0  0  0  0  # atno 17370 bound_to 10713
  157.6319  131.0920  150.8425 LP  0  0  0  0  0  0  0  0  0  0  0  0  # atno 17371 bound_to 10713
  140.1321  134.9349  157.2351 LP  0  0  0  0  0  0  0  0  0  0  0  0  # atno 17394 bound_to 11000
  140.2940  134.3208  155.7307 LP  0  0  0  0  0  0  0  0  0  0  0  0  # atno 17395 bound_to 11000

$$$$
