#       Name:                AV-unprocessed.smi:3290
#       Creating user name   scv26
#       Creation time:       Fri Mar 27 18:54:40 2020


#       File generated by GOLD software.
#

@<TRIPOS>MOLECULE
AV-unprocessed.smi:3290
    46    47     1
SMALL
NO_CHARGES


@<TRIPOS>ATOM
      1 ****        -1.8133   0.5024  -2.0942 C.3            1 S1                 0.0000
      2 ****        -2.3718   1.3850  -0.9635 C.3            1 S1                 0.0000
      3 ****        -3.9052   1.4913  -1.1055 C.3            1 S1                 0.0000
      4 ****        -4.5238   2.3991  -0.0344 C.3            1 S1                 0.0000
      5 ****        -4.1487   1.9154   1.3704 C.3            1 S1                 0.0000
      6 ****        -2.6249   1.8200   1.5261 C.3            1 S1                 0.0000
      7 ****        -1.9832   0.8987   0.4644 C.3            1 S1                 0.0000
      8 ****        -0.4576   0.8280   0.7035 C.3            1 S1                 0.0000
      9 ****         0.1325  -0.4193   0.1772 N.4            1 S1                 1.0000
     10 ****         1.5869  -0.5423   0.4015 C.3            1 S1                 0.0000
     11 ****         2.1380  -1.8589  -0.1735 C.3            1 S1                 0.0000
     12 ****         1.5162  -2.9428   0.4895 O.3            1 S1                 0.0000
     13 ****         3.6525  -1.9190  -0.0518 C.ar           1 S1                 0.0000
     14 ****         4.2756  -2.1808   1.1878 C.ar           1 S1                 0.0000
     15 ****         5.6833  -2.2186   1.2401 C.ar           1 S1                 0.0000
     16 ****         6.4704  -2.0145   0.1623 N.ar           1 S1                 0.0000
     17 ****         5.8697  -1.7620  -1.0200 C.ar           1 S1                 0.0000
     18 ****         4.4706  -1.7022  -1.1804 C.ar           1 S1                 0.0000
     19 ****        -2.0980  -0.5418  -1.9612 H              1 S1                 0.0000
     20 ****        -0.7266   0.5561  -2.1504 H              1 S1                 0.0000
     21 ****        -2.1914   0.8257  -3.0646 H              1 S1                 0.0000
     22 ****        -1.9614   2.3865  -1.1029 H              1 S1                 0.0000
     23 ****        -4.1639   1.8774  -2.0922 H              1 S1                 0.0000
     24 ****        -4.3509   0.4977  -1.0391 H              1 S1                 0.0000
     25 ****        -4.1783   3.4240  -0.1756 H              1 S1                 0.0000
     26 ****        -5.6085   2.4193  -0.1444 H              1 S1                 0.0000
     27 ****        -4.5581   2.5942   2.1192 H              1 S1                 0.0000
     28 ****        -4.5996   0.9398   1.5567 H              1 S1                 0.0000
     29 ****        -2.1907   2.8187   1.4586 H              1 S1                 0.0000
     30 ****        -2.3959   1.4534   2.5275 H              1 S1                 0.0000
     31 ****        -2.3989  -0.0993   0.6159 H              1 S1                 0.0000
     32 ****         0.0388   1.6951   0.2655 H              1 S1                 0.0000
     33 ****        -0.2471   0.8548   1.7736 H              1 S1                 0.0000
     34 ****        -0.3228  -1.2036   0.6225 H              1 S1                 0.0000
     35 ****         2.0840   0.3029  -0.0771 H              1 S1                 0.0000
     36 ****         1.7988  -0.4747   1.4699 H              1 S1                 0.0000
     37 ****         1.8735  -1.9291  -1.2297 H              1 S1                 0.0000
     38 ****         1.8272  -3.7481   0.1032 H              1 S1                 0.0000
     39 ****         3.6925  -2.3488   2.0816 H              1 S1                 0.0000
     40 ****         6.1900  -2.4170   2.1729 H              1 S1                 0.0000
     41 ****         6.5234  -1.6015  -1.8645 H              1 S1                 0.0000
     42 ****         4.0422  -1.4950  -2.1500 H              1 S1                 0.0000
     43 ****        -0.0457  -0.4650  -0.8157 H              1 S1                 0.0000
     44 ****         0.5239  -2.8789   0.3836 LP             1 S1                 0.0000
     45 ****         1.7497  -2.9226   1.4617 LP             1 S1                 0.0000
     46 ****         7.4670  -2.0493   0.2375 LP             1 S1                 0.0000
@<TRIPOS>BOND
    1    1    2 1     
    2    1   19 1     
    3    1   20 1     
    4    1   21 1     
    5    2    7 1     
    6    2    3 1     
    7    2   22 1     
    8    3    4 1     
    9    3   23 1     
   10    3   24 1     
   11    4    5 1     
   12    4   25 1     
   13    4   26 1     
   14    5    6 1     
   15    5   27 1     
   16    5   28 1     
   17    6    7 1     
   18    6   29 1     
   19    6   30 1     
   20    7    8 1     
   21    7   31 1     
   22    8    9 1     
   23    8   32 1     
   24    8   33 1     
   25    9   10 1     
   26    9   34 1     
   27    9   43 1     
   28   10   11 1     
   29   10   35 1     
   30   10   36 1     
   31   11   12 1     
   32   11   13 1     
   33   11   37 1     
   34   12   38 1     
   35   13   18 ar    
   36   13   14 ar    
   37   14   15 ar    
   38   14   39 1     
   39   15   16 ar    
   40   15   40 1     
   41   16   17 ar    
   42   17   18 ar    
   43   17   41 1     
   44   18   42 1     
   45   12   44 1     
   46   12   45 1     
   47   16   46 1     
@<TRIPOS>SUBSTRUCTURE
      1 S1             1
@<TRIPOS>SET
LONE_PAIRS      STATIC     ATOMS    <user>   **** ""
3 44 45 46
DONOR_HYDROGENS      STATIC     ATOMS    <user>   **** ""
3 34 43 38
ATOM$BLUE        STATIC     ATOMS    COLORGROUP SYSTEM
3 44 45 46
ATOM$RED        STATIC     ATOMS    COLORGROUP SYSTEM
3 34 43 38
