AV-unprocessed.smi:3070|AV-procd|sdf|11712|dock8
  -GOLD-   2272017113D 1   1.00000     0.00000
 Structure written by MMmdl.
 21 22  0  0  0  0  0  0  0  0  2 V2000
  147.1249  131.4114  152.9135 C   0  0  0  0  0  0  0  0  0  0  0  0
  147.7399  132.6251  153.0333 N   0  0  0  0  0  0  0  0  0  0  0  0
  146.9903  133.3368  152.2035 C   0  0  0  0  0  0  0  0  0  0  0  0
  146.0089  132.6396  151.6277 N   0  0  0  0  0  0  0  0  0  0  0  0
  144.9926  133.0626  150.6759 C   0  0  1  0  0  0  0  0  0  0  0  0
  145.1131  132.4040  149.3019 C   0  0  0  0  0  0  0  0  0  0  0  0
  143.7200  132.6131  148.7063 C   0  0  0  0  0  0  0  0  0  0  0  0
  142.7803  132.6289  149.8463 N   0  3  0  0  0  0  0  0  0  0  0  0
  143.5596  132.7148  151.0975 C   0  0  0  0  0  0  0  0  0  0  0  0
  146.0819  131.3654  152.0844 N   0  0  0  0  0  0  0  0  0  0  0  0
  147.4551  130.5362  153.4535 H   0  0  0  0  0  0  0  0  0  0  0  0
  147.1600  134.3867  152.0138 H   0  0  0  0  0  0  0  0  0  0  0  0
  145.0693  134.1443  150.5513 H   0  0  0  0  0  0  0  0  0  0  0  0
  145.9038  132.8395  148.6902 H   0  0  0  0  0  0  0  0  0  0  0  0
  145.3118  131.3355  149.3965 H   0  0  0  0  0  0  0  0  0  0  0  0
  143.6687  133.5807  148.2055 H   0  0  0  0  0  0  0  0  0  0  0  0
  143.4561  131.8443  147.9797 H   0  0  0  0  0  0  0  0  0  0  0  0
  142.1681  133.4281  149.7635 H   0  0  0  0  0  0  0  0  0  0  0  0
  143.5132  131.7402  151.5848 H   0  0  0  0  0  0  0  0  0  0  0  0
  143.1371  133.4507  151.7820 H   0  0  0  0  0  0  0  0  0  0  0  0
  142.2316  131.7808  149.8547 H   0  0  0  0  0  0  0  0  0  0  0  0
  1 10  2  0  0  0  0
  1  2  1  0  0  0  0
  1 11  1  0  0  0  0
  2  3  2  0  0  0  0
  3  4  1  0  0  0  0
  3 12  1  0  0  0  0
  4  5  1  0  0  0  0
  4 10  1  0  0  0  0
  5  9  1  0  0  0  0
  5  6  1  0  0  0  0
  5 13  1  0  0  0  0
  6  7  1  0  0  0  0
  6 14  1  0  0  0  0
  6 15  1  0  0  0  0
  7  8  1  0  0  0  0
  7 16  1  0  0  0  0
  7 17  1  0  0  0  0
  8  9  1  0  0  0  0
  8 18  1  0  0  0  0
  8 21  1  0  0  0  0
  9 19  1  0  0  0  0
  9 20  1  0  0  0  0
M  CHG  1   8   1
M  END
> <s_m_source_file>
AV-unprocessed.smi

> <i_m_source_file_index>
3070

> <i_lp_mmshare_version>
43012

> <i_f3d_flags>
0

> <s_epik_input>
bjFbY0hdbltjSF1uMVtDQEBIXTJbQ0gyXVtDSDJdW05IXVtDSDJdMg==

> <s_epik_cmdline>
J2VwaWtfcHl0aG9uJywgJy1waCcsICc3LjAnLCAnLXRuJywgJzgnLCAnLW1hJywgJzIwMCcsICctbWV0YWxfYmluZGluZycsICctaW1hZScsICc8aW5maWxlLm1hZT4nLCAnLW9tYWUnLCAnPG91dGZpbGUubWFlPic=

> <r_lp_tautomer_probability>
1

> <r_epik_Ionization_Penalty>
0.000421274

> <r_epik_Ionization_Penalty_Charging>
0.000420295

> <r_epik_Ionization_Penalty_Neutral>
9.79543e-07

> <r_epik_State_Penalty>
0.000258452

> <r_epik_Charging_Adjusted_Penalty>
0.000678746

> <i_epik_Tot_Q>
1

> <i_epik_Tot_abs_Q>
1

> <r_epik_Metal_State_Penalty>
-0

> <b_epik_Metal_Only>
0

> <s_lp_Force_Field>
OPLS_2005

> <r_lp_Energy>
29.098

> <b_lp_Chiralities_Consistent>
1

> <s_lp_Variant>
AV-unprocessed.smi:3070-2

> <Gold.Version>
5.8.1

> <Gold.Id.Protein>
6NUR|6NUR_protein|mol2

> <Gold.PLP.Fitness>
34.0187

> <Gold.PLP.PLP>
-22.1767

> <Gold.PLP.part.hbond>
-2.0000

> <Gold.PLP.part.metal>
0.0000

> <Gold.PLP.part.buried>
-3.6338

> <Gold.PLP.part.nonpolar>
-16.5643

> <Gold.PLP.part.repulsive>
0.3931

> <Gold.PLP.ligand.clash>
0.0000

> <Gold.PLP.ligand.torsion>
0.0815

> <Gold.PLP.Chemscore.Hbond>
3.0000

> <Gold.PLP.Chemscore.CHOScore>
1.0000

> <Gold.PLP.Chemscore.Metal>
0.0000

> <Gold.Chemscore.Hbonds>
donor molecule, donor type, donor heavy atom, donor atom, acceptor molecule, acceptor atom, score
      L1  H     8    18       P1 10186  2.00
      L1  H     8    21       P1 10952  1.00
      L1  C     3    12       P1  7948  1.00

> <Gold.PLP.Chemscore.Internal.Correction>
0.0050

> <Gold.Rescore>
     Score         DG    S(hbond)    S(metal)    S(lipo)     H(rot)  DE(clash)    DE(int)     intcor
     14.69     -14.98       1.99        0.00      46.17       1.00       0.23       0.06       ----

> <Gold.Chemscore.Fitness>
14.6906

> <Gold.Chemscore.DG>
-14.9759

> <Gold.Chemscore.ZeroCoef>
-5.4800

> <Gold.Chemscore.Hbond>
1.9922

> <Gold.Chemscore.Metal>
0.0000

> <Gold.Chemscore.Lipo>
46.1708

> <Gold.Chemscore.Internal_Hbond>
0.0000

> <Gold.Chemscore.DEClash>
0.2302

> <Gold.Chemscore.DEInternal>
0.0551

> <Gold.Chemscore.Rot>
1.0000

> <Gold.Chemscore.Internal.Correction>
   9.000000E+99

> <Gold.Chemscore.Hbonds>
donor molecule, donor type, donor heavy atom, donor atom, acceptor molecule, acceptor atom, score
      L1  H     8    18       P1 10186  0.94
      L1  H     8    21       P1 10952  0.91

> <Gold.Chemscore.Hbond.Weighted>
-6.6539

> <Gold.Chemscore.Metal.Weighted>
-0.0000

> <Gold.Chemscore.Lipo.Weighted>
-5.4020

> <Gold.Chemscore.Internal_Hbond.Weighted>
0.0000

> <Gold.Chemscore.DEClash.Weighted>
0.2302

> <Gold.Chemscore.DEInternal.Weighted>
0.0551

> <Gold.Chemscore.Rot.Weighted>
2.5600

> <Gold.Chemscore.Internal.Correction.Weighted>
   9.000000E+99

> <Gold.Protein.RotatedTorsions>
[ 6907 6896 6895 6894 ] final  150.25 input  -60.11 | X-H torsion
[ 7974 7965 7964 7962 ] final  -30.65 input  175.53 | X-H torsion
[ 8008 7997 7996 7995 ] final   -5.55 input   59.86 | X-H torsion
[ 10167 10162 10161 10158 ] final  -85.40 input  -65.29 | X-H torsion
[ 10718 10713 10712 10709 ] final  122.75 input   66.30 | X-H torsion
[ 10763 10752 10751 10750 ] final -172.96 input  -60.55 | X-H torsion
[ 11005 11000 10999 10996 ] final -176.84 input  -57.11 | X-H torsion

> <Gold.Protein.ActiveResidues>
 VAL166  LYS551  ARG553  GLY616  TRP617  ASP618  TYR619  PRO620  LYS621  CYS622 
 ASP623  PHE694  ASN695  SER759  ASP760  ASP761  ALA762  ILE779  LEU786  VAL792 
 PHE793  MET794  SER795  GLU796  ALA797  LYS798  CYS799  TRP800  GLU811  SER814 

> <Gold.Protein.RotatedAtoms>
  152.1169  133.4332  159.4656 H   0  0  0  0  0  0  0  0  0  0  0  0  # atno 6907 bound_to 6896
  150.6870  134.2581  159.4547 H   0  0  0  0  0  0  0  0  0  0  0  0  # atno 6908 bound_to 6896
  152.0455  134.9685  160.0625 H   0  0  0  0  0  0  0  0  0  0  0  0  # atno 6909 bound_to 6896
  146.1127  140.5567  142.8771 H   0  0  0  0  0  0  0  0  0  0  0  0  # atno 7974 bound_to 7965
  154.6028  140.2455  155.7771 H   0  0  0  0  0  0  0  0  0  0  0  0  # atno 8008 bound_to 7997
  156.2321  140.2963  156.0169 H   0  0  0  0  0  0  0  0  0  0  0  0  # atno 8009 bound_to 7997
  155.2183  140.0399  157.2935 H   0  0  0  0  0  0  0  0  0  0  0  0  # atno 8010 bound_to 7997
  140.4041  143.2650  151.9104 H   0  0  0  0  0  0  0  0  0  0  0  0  # atno 10167 bound_to 10162
  157.5718  131.1082  150.8352 H   0  0  0  0  0  0  0  0  0  0  0  0  # atno 10718 bound_to 10713
  154.6133  135.2867  155.0408 H   0  0  0  0  0  0  0  0  0  0  0  0  # atno 10763 bound_to 10752
  154.1630  135.6485  153.4994 H   0  0  0  0  0  0  0  0  0  0  0  0  # atno 10764 bound_to 10752
  153.0204  135.5383  154.6895 H   0  0  0  0  0  0  0  0  0  0  0  0  # atno 10765 bound_to 10752
  140.4476  134.6373  157.4786 H   0  0  0  0  0  0  0  0  0  0  0  0  # atno 11005 bound_to 11000
  144.7525  140.5227  143.6791 LP  0  0  0  0  0  0  0  0  0  0  0  0  # atno 17320 bound_to 7965
  145.5631  139.1480  143.3330 LP  0  0  0  0  0  0  0  0  0  0  0  0  # atno 17321 bound_to 7965
  139.4784  144.5604  151.8248 LP  0  0  0  0  0  0  0  0  0  0  0  0  # atno 17342 bound_to 10162
  140.4708  144.1589  150.5918 LP  0  0  0  0  0  0  0  0  0  0  0  0  # atno 17343 bound_to 10162
  156.8822  130.5183  149.5290 LP  0  0  0  0  0  0  0  0  0  0  0  0  # atno 17370 bound_to 10713
  156.0763  130.5785  150.9480 LP  0  0  0  0  0  0  0  0  0  0  0  0  # atno 17371 bound_to 10713
  140.0028  134.6810  155.9503 LP  0  0  0  0  0  0  0  0  0  0  0  0  # atno 17394 bound_to 11000
  141.1678  133.6537  156.4543 LP  0  0  0  0  0  0  0  0  0  0  0  0  # atno 17395 bound_to 11000

$$$$
