AV-unprocessed.smi:2667|AV-procd|sdf|10336|dock4
  -GOLD-   2272014353D 1   1.00000     0.00000
 Structure written by MMmdl.
 45 47  0  0  0  0  0  0  0  0  2 V2000
  147.0870  134.0591  162.4510 C   0  0  0  0  0  0  0  0  0  0  0  0
  146.6887  135.2534  161.5696 C   0  0  0  0  0  0  0  0  0  0  0  0
  147.7619  136.3496  161.4814 C   0  0  0  0  0  0  0  0  0  0  0  0
  148.1779  136.8825  162.5112 O   0  0  0  0  0  0  0  0  0  0  0  0
  148.2558  136.7180  160.1228 C   0  0  0  0  0  0  0  0  0  0  0  0
  149.5887  137.1349  159.8978 C   0  0  0  0  0  0  0  0  0  0  0  0
  150.0206  137.4773  158.6022 C   0  0  0  0  0  0  0  0  0  0  0  0
  149.1397  137.4149  157.5053 C   0  0  0  0  0  0  0  0  0  0  0  0
  149.6475  137.7743  156.2766 O   0  0  0  0  0  0  0  0  0  0  0  0
  150.7507  138.6690  156.2326 C   0  0  0  0  0  0  0  0  0  0  0  0
  150.2992  140.0838  155.8205 C   0  0  2  0  0  0  0  0  0  0  0  0
  149.9195  140.0697  154.4600 O   0  0  0  0  0  0  0  0  0  0  0  0
  151.2734  141.2425  156.1496 C   0  0  0  0  0  0  0  0  0  0  0  0
  151.6686  141.3541  157.5631 N   0  0  0  0  0  0  0  0  0  0  0  0
  151.9343  140.3750  158.4713 C   0  0  0  0  0  0  0  0  0  0  0  0
  152.2572  140.9786  159.6480 N   0  3  0  0  0  0  0  0  0  0  0  0
  152.1781  142.3643  159.4973 C   0  0  0  0  0  0  0  0  0  0  0  0
  152.4060  143.3931  160.4063 C   0  0  0  0  0  0  0  0  0  0  0  0
  152.2295  144.7090  159.9306 C   0  0  0  0  0  0  0  0  0  0  0  0
  151.8389  144.9623  158.5998 C   0  0  0  0  0  0  0  0  0  0  0  0
  151.6101  143.9114  157.6872 C   0  0  0  0  0  0  0  0  0  0  0  0
  151.7924  142.6132  158.1625 C   0  0  0  0  0  0  0  0  0  0  0  0
  147.8059  136.9946  157.7267 C   0  0  0  0  0  0  0  0  0  0  0  0
  147.3722  136.6516  159.0218 C   0  0  0  0  0  0  0  0  0  0  0  0
  146.2910  133.3147  162.4692 H   0  0  0  0  0  0  0  0  0  0  0  0
  147.2721  134.3679  163.4804 H   0  0  0  0  0  0  0  0  0  0  0  0
  147.9867  133.5693  162.0763 H   0  0  0  0  0  0  0  0  0  0  0  0
  146.4712  134.8981  160.5621 H   0  0  0  0  0  0  0  0  0  0  0  0
  145.7708  135.6954  161.9581 H   0  0  0  0  0  0  0  0  0  0  0  0
  150.3021  137.2009  160.7054 H   0  0  0  0  0  0  0  0  0  0  0  0
  151.0420  137.7935  158.4483 H   0  0  0  0  0  0  0  0  0  0  0  0
  151.2451  138.7048  157.2047 H   0  0  0  0  0  0  0  0  0  0  0  0
  151.4801  138.3120  155.5037 H   0  0  0  0  0  0  0  0  0  0  0  0
  149.3789  140.2872  156.3689 H   0  0  0  0  0  0  0  0  0  0  0  0
  149.1676  139.5059  154.3639 H   0  0  0  0  0  0  0  0  0  0  0  0
  152.1768  141.1706  155.5430 H   0  0  0  0  0  0  0  0  0  0  0  0
  150.8072  142.1904  155.8777 H   0  0  0  0  0  0  0  0  0  0  0  0
  151.9107  139.3105  158.2857 H   0  0  0  0  0  0  0  0  0  0  0  0
  152.7022  143.2021  161.4273 H   0  0  0  0  0  0  0  0  0  0  0  0
  152.3956  145.5407  160.6002 H   0  0  0  0  0  0  0  0  0  0  0  0
  151.7126  145.9836  158.2715 H   0  0  0  0  0  0  0  0  0  0  0  0
  151.3115  144.1171  156.6705 H   0  0  0  0  0  0  0  0  0  0  0  0
  147.0936  136.9256  156.9188 H   0  0  0  0  0  0  0  0  0  0  0  0
  146.3479  136.3356  159.1575 H   0  0  0  0  0  0  0  0  0  0  0  0
  152.5089  140.4786  160.4910 H   0  0  0  0  0  0  0  0  0  0  0  0
  1  2  1  0  0  0  0
  1 25  1  0  0  0  0
  1 26  1  0  0  0  0
  1 27  1  0  0  0  0
  2  3  1  0  0  0  0
  2 28  1  0  0  0  0
  2 29  1  0  0  0  0
  3  4  2  0  0  0  0
  3  5  1  0  0  0  0
  5 24  1  0  0  0  0
  5  6  2  0  0  0  0
  6  7  1  0  0  0  0
  6 30  1  0  0  0  0
  7  8  2  0  0  0  0
  7 31  1  0  0  0  0
  8  9  1  0  0  0  0
  8 23  1  0  0  0  0
  9 10  1  0  0  0  0
 10 11  1  0  0  0  0
 10 32  1  0  0  0  0
 10 33  1  0  0  0  0
 11 12  1  0  0  0  0
 11 13  1  0  0  0  0
 11 34  1  0  0  0  0
 12 35  1  0  0  0  0
 13 14  1  0  0  0  0
 13 36  1  0  0  0  0
 13 37  1  0  0  0  0
 14 22  1  0  0  0  0
 14 15  1  0  0  0  0
 15 16  2  0  0  0  0
 15 38  1  0  0  0  0
 16 17  1  0  0  0  0
 16 45  1  0  0  0  0
 17 22  2  0  0  0  0
 17 18  1  0  0  0  0
 18 19  2  0  0  0  0
 18 39  1  0  0  0  0
 19 20  1  0  0  0  0
 19 40  1  0  0  0  0
 20 21  2  0  0  0  0
 20 41  1  0  0  0  0
 21 22  1  0  0  0  0
 21 42  1  0  0  0  0
 23 24  2  0  0  0  0
 23 43  1  0  0  0  0
 24 44  1  0  0  0  0
M  CHG  1  16   1
M  END
> <s_m_source_file>
AV-unprocessed.smi

> <i_m_source_file_index>
2667

> <i_lp_mmshare_version>
43012

> <i_f3d_flags>
0

> <s_epik_input>
W0NIM11bQ0gyXUMoPU8pYzFbY0hdW2NIXWMoW2NIXVtjSF0xKU9bQ0gyXVtDQEhdKFtPSF0pW0NIMl1uKFtjSF1uMiljKGMyMylbY0hdW2NIXVtjSF1bY0hdMw==

> <s_epik_cmdline>
J2VwaWtfcHl0aG9uJywgJy1waCcsICc3LjAnLCAnLXRuJywgJzgnLCAnLW1hJywgJzIwMCcsICctbWV0YWxfYmluZGluZycsICctaW1hZScsICc8aW5maWxlLm1hZT4nLCAnLW9tYWUnLCAnPG91dGZpbGUubWFlPic=

> <r_lp_tautomer_probability>
0.9999

> <r_epik_Ionization_Penalty>
1.40272

> <r_epik_Ionization_Penalty_Charging>
1.40272

> <r_epik_Ionization_Penalty_Neutral>
2.3993e-06

> <r_epik_State_Penalty>
1.48501

> <r_epik_Charging_Adjusted_Penalty>
2.88772

> <i_epik_Tot_Q>
1

> <i_epik_Tot_abs_Q>
1

> <r_epik_Metal_State_Penalty>
5.5274

> <b_epik_Metal_Only>
0

> <s_lp_Force_Field>
OPLS_2005

> <r_lp_Energy>
30.2491

> <b_lp_Chiralities_Consistent>
1

> <s_lp_Variant>
AV-unprocessed.smi:2667-3

> <Gold.Version>
5.8.1

> <Gold.Id.Protein>
6NUR|6NUR_protein|mol2

> <Gold.PLP.Fitness>
50.2001

> <Gold.PLP.PLP>
-47.0644

> <Gold.PLP.part.hbond>
-2.0033

> <Gold.PLP.part.metal>
0.0000

> <Gold.PLP.part.buried>
-5.5092

> <Gold.PLP.part.nonpolar>
-39.7786

> <Gold.PLP.part.repulsive>
0.1537

> <Gold.PLP.ligand.clash>
0.0000

> <Gold.PLP.ligand.torsion>
1.5323

> <Gold.PLP.Chemscore.Hbond>
2.0000

> <Gold.PLP.Chemscore.CHOScore>
0.0000

> <Gold.PLP.Chemscore.Metal>
0.0000

> <Gold.Chemscore.Hbonds>
donor molecule, donor type, donor heavy atom, donor atom, acceptor molecule, acceptor atom, score
      P1  H  6931  6943       L1     4  1.00
      P1  H  7989  7998       L1    12  0.80

> <Gold.PLP.Chemscore.Internal.Correction>
0.2003

> <Gold.Rescore>
     Score         DG    S(hbond)    S(metal)    S(lipo)     H(rot)  DE(clash)    DE(int)     intcor
     16.12     -17.94       1.66        0.00     115.75       2.59       0.47       1.35       ----

> <Gold.Chemscore.Fitness>
16.1224

> <Gold.Chemscore.DG>
-17.9360

> <Gold.Chemscore.ZeroCoef>
-5.4800

> <Gold.Chemscore.Hbond>
1.6577

> <Gold.Chemscore.Metal>
0.0000

> <Gold.Chemscore.Lipo>
115.7506

> <Gold.Chemscore.Internal_Hbond>
0.0000

> <Gold.Chemscore.DEClash>
0.4660

> <Gold.Chemscore.DEInternal>
1.3476

> <Gold.Chemscore.Rot>
2.5873

> <Gold.Chemscore.Internal.Correction>
   9.000000E+99

> <Gold.Chemscore.Hbonds>
donor molecule, donor type, donor heavy atom, donor atom, acceptor molecule, acceptor atom, score
      P1  H  6931  6943       L1     4  0.43
      P1  H  7989  7998       L1    12  0.30

> <Gold.Chemscore.Hbond.Weighted>
-5.5367

> <Gold.Chemscore.Metal.Weighted>
-0.0000

> <Gold.Chemscore.Lipo.Weighted>
-13.5428

> <Gold.Chemscore.Internal_Hbond.Weighted>
0.0000

> <Gold.Chemscore.DEClash.Weighted>
0.4660

> <Gold.Chemscore.DEInternal.Weighted>
1.3476

> <Gold.Chemscore.Rot.Weighted>
6.6235

> <Gold.Chemscore.Internal.Correction.Weighted>
   9.000000E+99

> <Gold.Protein.RotatedTorsions>
[ 6907 6896 6895 6894 ] final  163.34 input  -60.11 | X-H torsion
[ 7974 7965 7964 7962 ] final  121.49 input  175.53 | X-H torsion
[ 8008 7997 7996 7995 ] final  -11.79 input   59.86 | X-H torsion
[ 10167 10162 10161 10158 ] final  -79.78 input  -65.29 | X-H torsion
[ 10718 10713 10712 10709 ] final -118.23 input   66.30 | X-H torsion
[ 10763 10752 10751 10750 ] final -124.38 input  -60.55 | X-H torsion
[ 11005 11000 10999 10996 ] final  -49.88 input  -57.11 | X-H torsion

> <Gold.Protein.ActiveResidues>
 VAL166  LYS551  ARG553  GLY616  TRP617  ASP618  TYR619  PRO620  LYS621  CYS622 
 ASP623  PHE694  ASN695  SER759  ASP760  ASP761  ALA762  ILE779  LEU786  VAL792 
 PHE793  MET794  SER795  GLU796  ALA797  LYS798  CYS799  TRP800  GLU811  SER814 

> <Gold.Protein.RotatedAtoms>
  151.9266  133.3600  159.3915 H   0  0  0  0  0  0  0  0  0  0  0  0  # atno 6907 bound_to 6896
  150.7026  134.4580  159.5377 H   0  0  0  0  0  0  0  0  0  0  0  0  # atno 6908 bound_to 6896
  152.2213  134.8410  160.0536 H   0  0  0  0  0  0  0  0  0  0  0  0  # atno 6909 bound_to 6896
  145.1187  139.3403  143.4725 H   0  0  0  0  0  0  0  0  0  0  0  0  # atno 7974 bound_to 7965
  154.5433  140.2293  155.8604 H   0  0  0  0  0  0  0  0  0  0  0  0  # atno 8008 bound_to 7997
  156.1879  140.3084  155.9237 H   0  0  0  0  0  0  0  0  0  0  0  0  # atno 8009 bound_to 7997
  155.3214  140.0440  157.3030 H   0  0  0  0  0  0  0  0  0  0  0  0  # atno 8010 bound_to 7997
  140.4562  143.2467  151.8416 H   0  0  0  0  0  0  0  0  0  0  0  0  # atno 10167 bound_to 10162
  156.1091  130.6234  150.9264 H   0  0  0  0  0  0  0  0  0  0  0  0  # atno 10718 bound_to 10713
  154.8722  135.4066  154.3095 H   0  0  0  0  0  0  0  0  0  0  0  0  # atno 10763 bound_to 10752
  153.3941  135.7016  153.6478 H   0  0  0  0  0  0  0  0  0  0  0  0  # atno 10764 bound_to 10752
  153.5249  135.3679  155.2620 H   0  0  0  0  0  0  0  0  0  0  0  0  # atno 10765 bound_to 10752
  141.0784  133.6659  156.3649 H   0  0  0  0  0  0  0  0  0  0  0  0  # atno 11005 bound_to 11000
  146.3522  140.1138  142.8603 LP  0  0  0  0  0  0  0  0  0  0  0  0  # atno 17320 bound_to 7965
  145.0764  140.9191  143.4851 LP  0  0  0  0  0  0  0  0  0  0  0  0  # atno 17321 bound_to 7965
  139.4801  144.5061  151.8995 LP  0  0  0  0  0  0  0  0  0  0  0  0  # atno 17342 bound_to 10162
  140.4148  144.2322  150.5888 LP  0  0  0  0  0  0  0  0  0  0  0  0  # atno 17343 bound_to 10162
  157.6270  131.0924  150.8514 LP  0  0  0  0  0  0  0  0  0  0  0  0  # atno 17370 bound_to 10713
  156.8628  130.5119  149.5302 LP  0  0  0  0  0  0  0  0  0  0  0  0  # atno 17371 bound_to 10713
  140.5522  134.6016  157.5411 LP  0  0  0  0  0  0  0  0  0  0  0  0  # atno 17394 bound_to 11000
  139.9597  134.7474  156.0264 LP  0  0  0  0  0  0  0  0  0  0  0  0  # atno 17395 bound_to 11000

$$$$
