#       Name:                AV-unprocessed.smi:48
#       Creating user name   scv26
#       Creation time:       Thu Mar 26 16:32:12 2020


#       File generated by GOLD software.
#

@<TRIPOS>MOLECULE
AV-unprocessed.smi:48
    41    43     1
SMALL
NO_CHARGES


@<TRIPOS>ATOM
      1 ****        -3.4862   0.9399   1.0892 O.3            1 S1                 0.0000
      2 ****        -3.1449  -0.4120   0.8685 C.3            1 S1                 0.0000
      3 ****        -1.6201  -0.5552   0.7206 C.3            1 S1                 0.0000
      4 ****        -1.2035  -0.2326  -0.6048 O.3            1 S1                 0.0000
      5 ****        -0.0509  -0.9432  -0.9469 C.3            1 S1                 0.0000
      6 ****         1.0615   0.0227  -1.2299 N.pl3          1 S1                 0.0000
      7 ****         1.9791  -0.0729  -2.2134 C.2            1 S1                 0.0000
      8 ****         2.8907   0.8940  -2.3025 N.2            1 S1                 0.0000
      9 ****         2.5193   1.7197  -1.2548 C.ar           1 S1                 0.0000
     10 ****         3.0483   2.9373  -0.7621 C.ar           1 S1                 0.0000
     11 ****         4.4239   3.6720  -1.5012 Cl             1 S1                 0.0000
     12 ****         2.4503   3.5153   0.3065 N.ar           1 S1                 0.0000
     13 ****         1.3847   2.9236   0.8599 C.ar           1 S1                 0.0000
     14 ****         0.7786   1.7848   0.5066 N.ar           1 S1                 0.0000
     15 ****         1.3818   1.2014  -0.5711 C.ar           1 S1                 0.0000
     16 ****         0.2619  -1.9266   0.1997 C.3            1 S1                 0.0000
     17 ****         1.3120  -1.5058   1.0524 O.3            1 S1                 0.0000
     18 ****        -1.0592  -1.9655   0.9519 C.3            1 S1                 0.0000
     19 ****        -1.9090  -2.9557   0.4008 O.3            1 S1                 0.0000
     20 ****        -1.1194   0.1157   1.4195 H              1 S1                 0.0000
     21 ****        -0.2252  -1.4502  -1.8968 H              1 S1                 0.0000
     22 ****         0.5345  -2.8987  -0.2135 H              1 S1                 0.0000
     23 ****        -0.9308  -2.1841   2.0129 H              1 S1                 0.0000
     24 ****        -4.4253   1.0035   1.1740 H              1 S1                 0.0000
     25 ****        -3.4937  -0.9797   1.7314 H              1 S1                 0.0000
     26 ****        -3.6679  -0.7949  -0.0083 H              1 S1                 0.0000
     27 ****         1.9782  -0.9029  -2.9049 H              1 S1                 0.0000
     28 ****         0.9558   3.4353   1.7089 H              1 S1                 0.0000
     29 ****         2.1060  -1.4484   0.5434 H              1 S1                 0.0000
     30 ****        -2.7318  -2.9375   0.8650 H              1 S1                 0.0000
     31 ****        -3.1792   1.4954   0.3164 LP             1 S1                 0.0000
     32 ****        -3.0493   1.2652   1.9278 LP             1 S1                 0.0000
     33 ****        -1.0131   0.7476  -0.6597 LP             1 S1                 0.0000
     34 ****        -1.9353  -0.4663  -1.2450 LP             1 S1                 0.0000
     35 ****         3.6433   0.9965  -2.9531 LP             1 S1                 0.0000
     36 ****         2.8010   4.3749   0.6782 LP             1 S1                 0.0000
     37 ****        -0.0197   1.4063   0.9749 LP             1 S1                 0.0000
     38 ****         1.4323  -2.1682   1.7918 LP             1 S1                 0.0000
     39 ****         1.0939  -0.6100   1.4396 LP             1 S1                 0.0000
     40 ****        -1.4858  -3.8563   0.4998 LP             1 S1                 0.0000
     41 ****        -2.0644  -2.7652  -0.5685 LP             1 S1                 0.0000
@<TRIPOS>BOND
    1    1    2 1     
    2    1   24 1     
    3    2    3 1     
    4    2   25 1     
    5    2   26 1     
    6    3   20 1     
    7    3   18 1     
    8    3    4 1     
    9    4    5 1     
   10    5   21 1     
   11    5    6 1     
   12    5   16 1     
   13    6   15 1     
   14    6    7 1     
   15    7    8 2     
   16    7   27 1     
   17    8    9 1     
   18    9   15 ar    
   19    9   10 ar    
   20   10   11 1     
   21   10   12 ar    
   22   12   13 ar    
   23   13   14 ar    
   24   13   28 1     
   25   14   15 ar    
   26   16   22 1     
   27   16   17 1     
   28   16   18 1     
   29   17   29 1     
   30   18   23 1     
   31   18   19 1     
   32   19   30 1     
   33    1   31 1     
   34    1   32 1     
   35    4   33 1     
   36    4   34 1     
   37    8   35 1     
   38   12   36 1     
   39   14   37 1     
   40   17   38 1     
   41   17   39 1     
   42   19   40 1     
   43   19   41 1     
@<TRIPOS>SUBSTRUCTURE
      1 S1             1
@<TRIPOS>SET
LONE_PAIRS      STATIC     ATOMS    <user>   **** ""
11 31 32 33 34 35 36 37 38 39 40 41
DONOR_HYDROGENS      STATIC     ATOMS    <user>   **** ""
3 24 29 30
ATOM$BLUE        STATIC     ATOMS    COLORGROUP SYSTEM
11 31 32 33 34 35 36 37 38 39 40 41
ATOM$RED        STATIC     ATOMS    COLORGROUP SYSTEM
3 24 29 30
