#       Name:                AV-unprocessed.smi:3111
#       Creating user name   scv26
#       Creation time:       Fri Mar 27 17:21:03 2020


#       File generated by GOLD software.
#

@<TRIPOS>MOLECULE
AV-unprocessed.smi:3111
    34    34     1
SMALL
NO_CHARGES


@<TRIPOS>ATOM
      1 ****        -4.1752   2.1615  -0.8076 C.3            1 S1                 0.0000
      2 ****        -3.6405   1.1740   0.1175 N.am           1 S1                 0.0000
      3 ****        -2.3332   0.9646   0.3255 C.2            1 S1                 0.0000
      4 ****        -1.4497   1.6036  -0.2496 O.2            1 S1                 0.0000
      5 ****        -1.9828  -0.1250   1.3483 C.3            1 S1                 0.0000
      6 ****        -0.5694  -0.4934   1.3253 N.am           1 S1                 0.0000
      7 ****        -0.0055  -1.3437   0.4522 C.2            1 S1                 0.0000
      8 ****        -0.6474  -1.9577  -0.4009 O.2            1 S1                 0.0000
      9 ****         1.5207  -1.4954   0.5435 C.3            1 S1                 0.0000
     10 ****         2.0254  -2.8443  -0.0042 C.3            1 S1                 0.0000
     11 ****         2.1894  -0.3584  -0.1115 N.pl3          1 S1                 0.0000
     12 ****         2.9831   0.5868   0.4882 C.2            1 S1                 0.0000
     13 ****         3.3734   1.4564  -0.4975 C.2            1 S1                 0.0000
     14 ****         2.8028   1.0084  -1.6582 N.pl3          1 S1                 1.0000
     15 ****         2.0842  -0.0938  -1.4230 C.2            1 S1                 0.0000
     16 ****        -5.2648   2.1385  -0.7872 H              1 S1                 0.0000
     17 ****        -3.8486   1.9550  -1.8276 H              1 S1                 0.0000
     18 ****        -3.8506   3.1662  -0.5343 H              1 S1                 0.0000
     19 ****        -4.3059   0.6135   0.6304 H              1 S1                 0.0000
     20 ****        -2.2234   0.2440   2.3456 H              1 S1                 0.0000
     21 ****        -2.6057  -1.0055   1.1801 H              1 S1                 0.0000
     22 ****         0.0298  -0.0299   1.9927 H              1 S1                 0.0000
     23 ****         1.7898  -1.4512   1.6004 H              1 S1                 0.0000
     24 ****         1.5483  -3.6803   0.5087 H              1 S1                 0.0000
     25 ****         3.1013  -2.9440   0.1422 H              1 S1                 0.0000
     26 ****         1.8267  -2.9535  -1.0710 H              1 S1                 0.0000
     27 ****         3.2047   0.5735   1.5455 H              1 S1                 0.0000
     28 ****         3.9967   2.3380  -0.4606 H              1 S1                 0.0000
     29 ****         1.5229  -0.6557  -2.1485 H              1 S1                 0.0000
     30 ****         2.9049   1.4478  -2.5646 H              1 S1                 0.0000
     31 ****        -1.6953   2.3165  -0.9064 LP             1 S1                 0.0000
     32 ****        -0.4875   1.4089  -0.0593 LP             1 S1                 0.0000
     33 ****        -1.6376  -1.8341  -0.4666 LP             1 S1                 0.0000
     34 ****        -0.1785  -2.5798  -1.0278 LP             1 S1                 0.0000
@<TRIPOS>BOND
    1    1    2 1     
    2    1   16 1     
    3    1   17 1     
    4    1   18 1     
    5    2    3 am    
    6    2   19 1     
    7    3    4 2     
    8    3    5 1     
    9    5    6 1     
   10    5   20 1     
   11    5   21 1     
   12    6    7 am    
   13    6   22 1     
   14    7    8 2     
   15    7    9 1     
   16    9   10 1     
   17    9   11 1     
   18    9   23 1     
   19   10   24 1     
   20   10   25 1     
   21   10   26 1     
   22   11   15 1     
   23   11   12 1     
   24   12   13 2     
   25   12   27 1     
   26   13   14 1     
   27   13   28 1     
   28   14   15 2     
   29   14   30 1     
   30   15   29 1     
   31    4   31 1     
   32    4   32 1     
   33    8   33 1     
   34    8   34 1     
@<TRIPOS>SUBSTRUCTURE
      1 S1             1
@<TRIPOS>SET
LONE_PAIRS      STATIC     ATOMS    <user>   **** ""
4 31 32 33 34
DONOR_HYDROGENS      STATIC     ATOMS    <user>   **** ""
3 19 22 30
ATOM$BLUE        STATIC     ATOMS    COLORGROUP SYSTEM
4 31 32 33 34
ATOM$RED        STATIC     ATOMS    COLORGROUP SYSTEM
3 19 22 30
