AV-unprocessed.smi:775|AV-procd|sdf|3697|dock3
  -GOLD-   22720 1113D 1   1.00000     0.00000
 Structure written by MMmdl.
 38 39  0  0  0  0  0  0  0  0  1 V2000
  151.2350  141.1976  156.3539 C   0  0  0  0  0  0  0  0  0  0  0  0
  150.5551  141.1003  157.7272 C   0  0  2  0  0  0  0  0  0  0  0  0
  151.5228  141.5459  158.8488 C   0  0  0  0  0  0  0  0  0  0  0  0
  151.6757  142.9873  158.9431 N   0  0  0  0  0  0  0  0  0  0  0  0
  151.2039  143.9555  158.0815 C   0  0  0  0  0  0  0  0  0  0  0  0
  151.5849  145.1670  158.5829 C   0  0  0  0  0  0  0  0  0  0  0  0
  152.3039  144.8325  159.7642 C   0  0  0  0  0  0  0  0  0  0  0  0
  152.3592  143.5275  159.9758 N   0  0  0  0  0  0  0  0  0  0  0  0
  150.1489  139.7084  157.9030 N   0  0  0  0  0  0  0  0  0  0  0  0
  151.2522  138.8441  158.3493 C   0  0  0  0  0  0  0  0  0  0  0  0
  151.0366  137.3618  157.9992 C   0  0  0  0  0  0  0  0  0  0  0  0
  150.5845  136.6079  158.8635 O   0  0  0  0  0  0  0  0  0  0  0  0
  151.3469  136.9277  156.7517 N   0  0  0  0  0  0  0  0  0  0  0  0
  151.8864  137.7746  155.6836 C   0  0  0  0  0  0  0  0  0  0  0  0
  150.7743  137.9879  154.6424 C   0  0  0  0  0  0  0  0  0  0  0  0
  150.1111  136.7312  154.2857 N   0  0  0  0  0  0  0  0  0  0  0  0
  150.1831  135.5869  154.9923 C   0  0  0  0  0  0  0  0  0  0  0  0
  149.6083  134.5649  154.6248 O   0  0  0  0  0  0  0  0  0  0  0  0
  151.0108  135.5701  156.2933 C   0  0  0  0  0  0  0  0  0  0  0  0
  151.5506  142.2203  156.1457 H   0  0  0  0  0  0  0  0  0  0  0  0
  150.5574  140.8970  155.5538 H   0  0  0  0  0  0  0  0  0  0  0  0
  152.1196  140.5615  156.2992 H   0  0  0  0  0  0  0  0  0  0  0  0
  149.6813  141.7542  157.7033 H   0  0  0  0  0  0  0  0  0  0  0  0
  151.2016  141.1507  159.8144 H   0  0  0  0  0  0  0  0  0  0  0  0
  152.5147  141.1307  158.6651 H   0  0  0  0  0  0  0  0  0  0  0  0
  150.6376  143.7035  157.1970 H   0  0  0  0  0  0  0  0  0  0  0  0
  151.3825  146.1432  158.1681 H   0  0  0  0  0  0  0  0  0  0  0  0
  152.7830  145.4944  160.4704 H   0  0  0  0  0  0  0  0  0  0  0  0
  149.3801  139.6692  158.5571 H   0  0  0  0  0  0  0  0  0  0  0  0
  152.1763  139.1781  157.8843 H   0  0  0  0  0  0  0  0  0  0  0  0
  151.3717  138.9368  159.4295 H   0  0  0  0  0  0  0  0  0  0  0  0
  152.2975  138.7261  156.0177 H   0  0  0  0  0  0  0  0  0  0  0  0
  152.7239  137.2498  155.2211 H   0  0  0  0  0  0  0  0  0  0  0  0
  150.0204  138.6695  155.0375 H   0  0  0  0  0  0  0  0  0  0  0  0
  151.1797  138.4502  153.7422 H   0  0  0  0  0  0  0  0  0  0  0  0
  149.5605  136.7284  153.4391 H   0  0  0  0  0  0  0  0  0  0  0  0
  151.9365  135.0240  156.1088 H   0  0  0  0  0  0  0  0  0  0  0  0
  150.4576  134.9923  157.0351 H   0  0  0  0  0  0  0  0  0  0  0  0
  1  2  1  0  0  0  0
  1 20  1  0  0  0  0
  1 21  1  0  0  0  0
  1 22  1  0  0  0  0
  2  3  1  0  0  0  0
  2  9  1  0  0  0  0
  2 23  1  0  0  0  0
  3  4  1  0  0  0  0
  3 24  1  0  0  0  0
  3 25  1  0  0  0  0
  4  8  1  0  0  0  0
  4  5  1  0  0  0  0
  5  6  2  0  0  0  0
  5 26  1  0  0  0  0
  6  7  1  0  0  0  0
  6 27  1  0  0  0  0
  7  8  2  0  0  0  0
  7 28  1  0  0  0  0
  9 10  1  0  0  0  0
  9 29  1  0  0  0  0
 10 11  1  0  0  0  0
 10 30  1  0  0  0  0
 10 31  1  0  0  0  0
 11 12  2  0  0  0  0
 11 13  1  0  0  0  0
 13 19  1  0  0  0  0
 13 14  1  0  0  0  0
 14 15  1  0  0  0  0
 14 32  1  0  0  0  0
 14 33  1  0  0  0  0
 15 16  1  0  0  0  0
 15 34  1  0  0  0  0
 15 35  1  0  0  0  0
 16 17  1  0  0  0  0
 16 36  1  0  0  0  0
 17 18  2  0  0  0  0
 17 19  1  0  0  0  0
 19 37  1  0  0  0  0
 19 38  1  0  0  0  0
M  END
> <s_m_source_file>
AV-unprocessed.smi

> <i_m_source_file_index>
775

> <i_lp_mmshare_version>
43012

> <i_f3d_flags>
0

> <s_epik_input>
bjFbY0hdW2NIXVtjSF1uMVtDSDJdW0NAQEhdKFtDSDNdKVtOSF1bQ0gyXUMoPU8pTjJbQ0gyXVtDSDJdW05IXUMoPU8pW0NIMl0y

> <s_epik_cmdline>
J2VwaWtfcHl0aG9uJywgJy1waCcsICc3LjAnLCAnLXRuJywgJzgnLCAnLW1hJywgJzIwMCcsICctbWV0YWxfYmluZGluZycsICctaW1hZScsICc8aW5maWxlLm1hZT4nLCAnLW9tYWUnLCAnPG91dGZpbGUubWFlPic=

> <r_lp_tautomer_probability>
1

> <r_epik_Ionization_Penalty>
0.836058

> <r_epik_Ionization_Penalty_Charging>
0

> <r_epik_Ionization_Penalty_Neutral>
0.836058

> <r_epik_State_Penalty>
0.870309

> <r_epik_Charging_Adjusted_Penalty>
0.870309

> <i_epik_Tot_Q>
0

> <i_epik_Tot_abs_Q>
0

> <r_epik_Metal_State_Penalty>
0.870266

> <b_epik_Metal_Only>
0

> <s_lp_Force_Field>
OPLS_2005

> <r_lp_Energy>
24.9182

> <b_lp_Chiralities_Consistent>
1

> <s_lp_Variant>
AV-unprocessed.smi:775-3

> <Gold.Version>
5.8.1

> <Gold.Id.Protein>
6NUR|6NUR_protein|mol2

> <Gold.PLP.Fitness>
40.5525

> <Gold.PLP.PLP>
-33.1927

> <Gold.PLP.part.hbond>
-2.9190

> <Gold.PLP.part.metal>
0.0000

> <Gold.PLP.part.buried>
-6.7891

> <Gold.PLP.part.nonpolar>
-23.8813

> <Gold.PLP.part.repulsive>
0.2314

> <Gold.PLP.ligand.clash>
0.0000

> <Gold.PLP.ligand.torsion>
0.8484

> <Gold.PLP.Chemscore.Hbond>
2.0000

> <Gold.PLP.Chemscore.CHOScore>
0.9986

> <Gold.PLP.Chemscore.Metal>
0.0000

> <Gold.Chemscore.Hbonds>
donor molecule, donor type, donor heavy atom, donor atom, acceptor molecule, acceptor atom, score
      L1  H    16    36       P1  7948  1.00
      P1  H  6896  6907       L1    12  1.00
      L1  C     5    26       P1  8028  1.00

> <Gold.PLP.Chemscore.Internal.Correction>
0.0607

> <Gold.Rescore>
     Score         DG    S(hbond)    S(metal)    S(lipo)     H(rot)  DE(clash)    DE(int)     intcor
     14.69     -15.41       1.89        0.00      77.35       2.12       0.02       0.69       ----

> <Gold.Chemscore.Fitness>
14.6926

> <Gold.Chemscore.DG>
-15.4097

> <Gold.Chemscore.ZeroCoef>
-5.4800

> <Gold.Chemscore.Hbond>
1.8912

> <Gold.Chemscore.Metal>
0.0000

> <Gold.Chemscore.Lipo>
77.3522

> <Gold.Chemscore.Internal_Hbond>
0.0000

> <Gold.Chemscore.DEClash>
0.0240

> <Gold.Chemscore.DEInternal>
0.6931

> <Gold.Chemscore.Rot>
2.1239

> <Gold.Chemscore.Internal.Correction>
   9.000000E+99

> <Gold.Chemscore.Hbonds>
donor molecule, donor type, donor heavy atom, donor atom, acceptor molecule, acceptor atom, score
      L1  H    16    36       P1  7948  0.70
      P1  H  6896  6907       L1    12  0.97

> <Gold.Chemscore.Hbond.Weighted>
-6.3166

> <Gold.Chemscore.Metal.Weighted>
-0.0000

> <Gold.Chemscore.Lipo.Weighted>
-9.0502

> <Gold.Chemscore.Internal_Hbond.Weighted>
0.0000

> <Gold.Chemscore.DEClash.Weighted>
0.0240

> <Gold.Chemscore.DEInternal.Weighted>
0.6931

> <Gold.Chemscore.Rot.Weighted>
5.4371

> <Gold.Chemscore.Internal.Correction.Weighted>
   9.000000E+99

> <Gold.Protein.RotatedTorsions>
[ 6907 6896 6895 6894 ] final  -26.18 input  -60.11 | X-H torsion
[ 7974 7965 7964 7962 ] final -154.69 input  175.53 | X-H torsion
[ 8008 7997 7996 7995 ] final  -29.84 input   59.86 | X-H torsion
[ 10167 10162 10161 10158 ] final  -30.34 input  -65.29 | X-H torsion
[ 10718 10713 10712 10709 ] final  -80.34 input   66.30 | X-H torsion
[ 10763 10752 10751 10750 ] final   50.52 input  -60.55 | X-H torsion
[ 11005 11000 10999 10996 ] final  -61.10 input  -57.11 | X-H torsion

> <Gold.Protein.ActiveResidues>
 VAL166  LYS551  ARG553  GLY616  TRP617  ASP618  TYR619  PRO620  LYS621  CYS622 
 ASP623  PHE694  ASN695  SER759  ASP760  ASP761  ALA762  ILE779  LEU786  VAL792 
 PHE793  MET794  SER795  GLU796  ALA797  LYS798  CYS799  TRP800  GLU811  SER814 

> <Gold.Protein.RotatedAtoms>
  151.1646  135.0289  159.8724 H   0  0  0  0  0  0  0  0  0  0  0  0  # atno 6907 bound_to 6896
  152.5450  134.1240  159.8421 H   0  0  0  0  0  0  0  0  0  0  0  0  # atno 6908 bound_to 6896
  151.1339  133.4971  159.2631 H   0  0  0  0  0  0  0  0  0  0  0  0  # atno 6909 bound_to 6896
  144.7677  140.4354  143.5930 H   0  0  0  0  0  0  0  0  0  0  0  0  # atno 7974 bound_to 7965
  154.4274  140.1807  156.1312 H   0  0  0  0  0  0  0  0  0  0  0  0  # atno 8008 bound_to 7997
  156.0066  140.3355  155.6873 H   0  0  0  0  0  0  0  0  0  0  0  0  # atno 8009 bound_to 7997
  155.6169  140.0656  157.2680 H   0  0  0  0  0  0  0  0  0  0  0  0  # atno 8010 bound_to 7997
  140.7250  143.3857  151.1520 H   0  0  0  0  0  0  0  0  0  0  0  0  # atno 10167 bound_to 10162
  156.0072  130.4571  150.3786 H   0  0  0  0  0  0  0  0  0  0  0  0  # atno 10718 bound_to 10713
  152.9784  135.5876  154.4266 H   0  0  0  0  0  0  0  0  0  0  0  0  # atno 10763 bound_to 10752
  154.3884  135.2767  155.2171 H   0  0  0  0  0  0  0  0  0  0  0  0  # atno 10764 bound_to 10752
  154.4055  135.6093  153.5976 H   0  0  0  0  0  0  0  0  0  0  0  0  # atno 10765 bound_to 10752
  141.1312  133.6627  156.5325 H   0  0  0  0  0  0  0  0  0  0  0  0  # atno 11005 bound_to 11000
  145.6419  139.1551  143.2910 LP  0  0  0  0  0  0  0  0  0  0  0  0  # atno 17320 bound_to 7965
  146.1798  140.6515  142.9194 LP  0  0  0  0  0  0  0  0  0  0  0  0  # atno 17321 bound_to 7965
  139.7453  143.8861  152.3062 LP  0  0  0  0  0  0  0  0  0  0  0  0  # atno 17342 bound_to 10162
  139.8696  144.7075  150.9003 LP  0  0  0  0  0  0  0  0  0  0  0  0  # atno 17343 bound_to 10162
  157.1867  131.0405  151.2721 LP  0  0  0  0  0  0  0  0  0  0  0  0  # atno 17370 bound_to 10713
  157.4098  130.7379  149.6830 LP  0  0  0  0  0  0  0  0  0  0  0  0  # atno 17371 bound_to 10713
  140.4205  134.7192  157.4887 LP  0  0  0  0  0  0  0  0  0  0  0  0  # atno 17394 bound_to 11000
  140.0363  134.6332  155.9038 LP  0  0  0  0  0  0  0  0  0  0  0  0  # atno 17395 bound_to 11000

$$$$
