AV-unprocessed.smi:809|AV-procd|sdf|3805|dock5
  -GOLD-   22720 1243D 1   1.00000     0.00000
 Structure written by MMmdl.
 40 41  0  0  0  0  0  0  0  0  2 V2000
  153.8106  141.4063  159.9405 C   0  0  0  0  0  0  0  0  0  0  0  0
  153.0533  142.3879  159.1026 C   0  0  0  0  0  0  0  0  0  0  0  0
  153.2175  143.7514  159.0755 C   0  0  0  0  0  0  0  0  0  0  0  0
  152.1296  144.5189  157.9499 S   0  0  0  0  0  0  0  0  0  0  0  0
  151.4833  142.9341  157.5549 C   0  0  0  0  0  0  0  0  0  0  0  0
  150.4508  142.7628  156.5961 N   0  0  0  0  0  0  0  0  0  0  0  0
  150.3004  141.7664  155.7065 C   0  0  0  0  0  0  0  0  0  0  0  0
  151.0426  140.7901  155.5985 O   0  0  0  0  0  0  0  0  0  0  0  0
  149.2242  141.9676  154.9329 N   0  0  0  0  0  0  0  0  0  0  0  0
  148.7925  141.0919  153.8462 C   0  0  0  0  0  0  0  0  0  0  0  0
  147.8223  139.9692  154.2996 C   0  0  1  0  0  0  0  0  0  0  0  0
  148.4710  139.2480  155.3318 O   0  0  0  0  0  0  0  0  0  0  0  0
  146.5486  140.5946  154.9110 C   0  0  0  0  0  0  0  0  0  0  0  0
  145.4892  139.5442  155.2911 C   0  0  0  0  0  0  0  0  0  0  0  0
  145.1443  138.6925  154.1278 N   0  3  2  0  0  0  0  0  0  0  0  0
  144.0339  137.7612  154.4218 C   0  0  0  0  0  0  0  0  0  0  0  0
  146.3355  137.9977  153.5827 C   0  0  0  0  0  0  0  0  0  0  0  0
  147.4228  139.0025  153.1588 C   0  0  0  0  0  0  0  0  0  0  0  0
  152.0610  141.9333  158.2293 N   0  0  0  0  0  0  0  0  0  0  0  0
  154.4228  141.9096  160.6892 H   0  0  0  0  0  0  0  0  0  0  0  0
  154.4741  140.7969  159.3267 H   0  0  0  0  0  0  0  0  0  0  0  0
  153.1348  140.7325  160.4676 H   0  0  0  0  0  0  0  0  0  0  0  0
  153.9118  144.3493  159.6469 H   0  0  0  0  0  0  0  0  0  0  0  0
  149.7520  143.4909  156.5786 H   0  0  0  0  0  0  0  0  0  0  0  0
  148.6675  142.7929  155.0997 H   0  0  0  0  0  0  0  0  0  0  0  0
  148.3718  141.6689  153.0202 H   0  0  0  0  0  0  0  0  0  0  0  0
  149.7045  140.6409  153.4541 H   0  0  0  0  0  0  0  0  0  0  0  0
  147.8526  138.6564  155.7313 H   0  0  0  0  0  0  0  0  0  0  0  0
  146.8031  141.1956  155.7854 H   0  0  0  0  0  0  0  0  0  0  0  0
  146.1045  141.2845  154.1920 H   0  0  0  0  0  0  0  0  0  0  0  0
  145.8464  138.9197  156.1116 H   0  0  0  0  0  0  0  0  0  0  0  0
  144.5922  140.0505  155.6499 H   0  0  0  0  0  0  0  0  0  0  0  0
  144.3135  137.0512  155.2013 H   0  0  0  0  0  0  0  0  0  0  0  0
  143.7558  137.1988  153.5299 H   0  0  0  0  0  0  0  0  0  0  0  0
  143.1519  138.3076  154.7571 H   0  0  0  0  0  0  0  0  0  0  0  0
  146.7289  137.3050  154.3285 H   0  0  0  0  0  0  0  0  0  0  0  0
  146.0441  137.3973  152.7202 H   0  0  0  0  0  0  0  0  0  0  0  0
  147.0558  139.5819  152.3104 H   0  0  0  0  0  0  0  0  0  0  0  0
  148.2922  138.4515  152.7980 H   0  0  0  0  0  0  0  0  0  0  0  0
  144.8131  139.3126  153.4023 H   0  0  0  0  0  0  0  0  0  0  0  0
  1  2  1  0  0  0  0
  1 20  1  0  0  0  0
  1 21  1  0  0  0  0
  1 22  1  0  0  0  0
  2 19  1  0  0  0  0
  2  3  2  0  0  0  0
  3  4  1  0  0  0  0
  3 23  1  0  0  0  0
  4  5  1  0  0  0  0
  5  6  1  0  0  0  0
  5 19  2  0  0  0  0
  6  7  1  0  0  0  0
  6 24  1  0  0  0  0
  7  8  2  0  0  0  0
  7  9  1  0  0  0  0
  9 10  1  0  0  0  0
  9 25  1  0  0  0  0
 10 11  1  0  0  0  0
 10 26  1  0  0  0  0
 10 27  1  0  0  0  0
 11 18  1  0  0  0  0
 11 12  1  0  0  0  0
 11 13  1  0  0  0  0
 12 28  1  0  0  0  0
 13 14  1  0  0  0  0
 13 29  1  0  0  0  0
 13 30  1  0  0  0  0
 14 15  1  0  0  0  0
 14 31  1  0  0  0  0
 14 32  1  0  0  0  0
 15 16  1  0  0  0  0
 15 17  1  0  0  0  0
 15 40  1  0  0  0  0
 16 33  1  0  0  0  0
 16 34  1  0  0  0  0
 16 35  1  0  0  0  0
 17 18  1  0  0  0  0
 17 36  1  0  0  0  0
 17 37  1  0  0  0  0
 18 38  1  0  0  0  0
 18 39  1  0  0  0  0
M  CHG  1  15   1
M  END
> <s_m_source_file>
AV-unprocessed.smi

> <i_m_source_file_index>
809

> <i_lp_mmshare_version>
43012

> <i_f3d_flags>
0

> <s_epik_input>
W0NIM11jMVtjSF1zYyhuMSlbTkhdQyg9TylbTkhdW0NIMl1DMihbT0hdKVtDSDJdW0NIMl1OKFtDSDNdKVtDSDJdW0NIMl0y

> <s_epik_cmdline>
J2VwaWtfcHl0aG9uJywgJy1waCcsICc3LjAnLCAnLXRuJywgJzgnLCAnLW1hJywgJzIwMCcsICctbWV0YWxfYmluZGluZycsICctaW1hZScsICc8aW5maWxlLm1hZT4nLCAnLW9tYWUnLCAnPG91dGZpbGUubWFlPic=

> <r_lp_tautomer_probability>
0.999

> <r_epik_Ionization_Penalty>
0.00116503

> <r_epik_Ionization_Penalty_Charging>
0.000767707

> <r_epik_Ionization_Penalty_Neutral>
0.00039732

> <r_epik_State_Penalty>
0.000177984

> <r_epik_Charging_Adjusted_Penalty>
0.00094569

> <i_epik_Tot_Q>
1

> <i_epik_Tot_abs_Q>
1

> <r_epik_Metal_State_Penalty>
0.00775393

> <b_epik_Metal_Only>
0

> <s_lp_Force_Field>
OPLS_2005

> <r_lp_Energy>
16.8218

> <b_lp_Chiralities_Consistent>
1

> <s_lp_Variant>
AV-unprocessed.smi:809-1

> <Gold.Version>
5.8.1

> <Gold.Id.Protein>
6NUR|6NUR_protein|mol2

> <Gold.PLP.Fitness>
45.4567

> <Gold.PLP.PLP>
-34.1491

> <Gold.PLP.part.hbond>
-3.6428

> <Gold.PLP.part.metal>
0.0000

> <Gold.PLP.part.buried>
-1.8923

> <Gold.PLP.part.nonpolar>
-27.5959

> <Gold.PLP.part.repulsive>
0.3014

> <Gold.PLP.ligand.clash>
0.0000

> <Gold.PLP.ligand.torsion>
0.4624

> <Gold.PLP.Chemscore.Hbond>
4.0760

> <Gold.PLP.Chemscore.CHOScore>
0.0000

> <Gold.PLP.Chemscore.Metal>
0.0000

> <Gold.Chemscore.Hbonds>
donor molecule, donor type, donor heavy atom, donor atom, acceptor molecule, acceptor atom, score
      L1  H     6    24       P1  8028  0.98
      L1  H     9    25       P1  8028  0.82
      L1  H    15    40       P1 10175  2.00
      P1  H  7989  7998       L1     8  0.51

> <Gold.PLP.Chemscore.Internal.Correction>
0.0045

> <Gold.Rescore>
     Score         DG    S(hbond)    S(metal)    S(lipo)     H(rot)  DE(clash)    DE(int)     intcor
     19.33     -20.25       3.00        0.00      81.02       1.85       0.36       0.56       ----

> <Gold.Chemscore.Fitness>
19.3299

> <Gold.Chemscore.DG>
-20.2490

> <Gold.Chemscore.ZeroCoef>
-5.4800

> <Gold.Chemscore.Hbond>
2.9997

> <Gold.Chemscore.Metal>
0.0000

> <Gold.Chemscore.Lipo>
81.0156

> <Gold.Chemscore.Internal_Hbond>
0.0000

> <Gold.Chemscore.DEClash>
0.3606

> <Gold.Chemscore.DEInternal>
0.5586

> <Gold.Chemscore.Rot>
1.8471

> <Gold.Chemscore.Internal.Correction>
   9.000000E+99

> <Gold.Chemscore.Hbonds>
donor molecule, donor type, donor heavy atom, donor atom, acceptor molecule, acceptor atom, score
      L1  H     6    24       P1  8028  0.93
      L1  H     9    25       P1  8028  0.78
      L1  H    15    40       P1 10175  0.99
      P1  H  7989  7998       L1     8  0.17

> <Gold.Chemscore.Hbond.Weighted>
-10.0188

> <Gold.Chemscore.Metal.Weighted>
-0.0000

> <Gold.Chemscore.Lipo.Weighted>
-9.4788

> <Gold.Chemscore.Internal_Hbond.Weighted>
0.0000

> <Gold.Chemscore.DEClash.Weighted>
0.3606

> <Gold.Chemscore.DEInternal.Weighted>
0.5586

> <Gold.Chemscore.Rot.Weighted>
4.7286

> <Gold.Chemscore.Internal.Correction.Weighted>
   9.000000E+99

> <Gold.Protein.RotatedTorsions>
[ 6907 6896 6895 6894 ] final   82.67 input  -60.11 | X-H torsion
[ 7974 7965 7964 7962 ] final  165.47 input  175.53 | X-H torsion
[ 8008 7997 7996 7995 ] final    8.61 input   59.86 | X-H torsion
[ 10167 10162 10161 10158 ] final   30.86 input  -65.29 | X-H torsion
[ 10718 10713 10712 10709 ] final -117.48 input   66.30 | X-H torsion
[ 10763 10752 10751 10750 ] final -105.80 input  -60.55 | X-H torsion
[ 11005 11000 10999 10996 ] final  -89.10 input  -57.11 | X-H torsion

> <Gold.Protein.ActiveResidues>
 VAL166  LYS551  ARG553  GLY616  TRP617  ASP618  TYR619  PRO620  LYS621  CYS622 
 ASP623  PHE694  ASN695  SER759  ASP760  ASP761  ALA762  ILE779  LEU786  VAL792 
 PHE793  MET794  SER795  GLU796  ALA797  LYS798  CYS799  TRP800  GLU811  SER814 

> <Gold.Protein.RotatedAtoms>
  152.5306  134.3014  159.9079 H   0  0  0  0  0  0  0  0  0  0  0  0  # atno 6907 bound_to 6896
  151.2964  133.4135  159.2644 H   0  0  0  0  0  0  0  0  0  0  0  0  # atno 6908 bound_to 6896
  151.0156  134.9446  159.8088 H   0  0  0  0  0  0  0  0  0  0  0  0  # atno 6909 bound_to 6896
  144.7501  139.8475  143.6369 H   0  0  0  0  0  0  0  0  0  0  0  0  # atno 7974 bound_to 7965
  154.7691  140.2798  155.6152 H   0  0  0  0  0  0  0  0  0  0  0  0  # atno 8008 bound_to 7997
  156.2930  140.2645  156.2417 H   0  0  0  0  0  0  0  0  0  0  0  0  # atno 8009 bound_to 7997
  154.9922  140.0373  157.2314 H   0  0  0  0  0  0  0  0  0  0  0  0  # atno 8010 bound_to 7997
  140.4640  144.0863  150.6220 H   0  0  0  0  0  0  0  0  0  0  0  0  # atno 10167 bound_to 10162
  156.1037  130.6193  150.9169 H   0  0  0  0  0  0  0  0  0  0  0  0  # atno 10718 bound_to 10713
  154.7970  135.4735  154.0185 H   0  0  0  0  0  0  0  0  0  0  0  0  # atno 10763 bound_to 10752
  153.1720  135.6826  153.8602 H   0  0  0  0  0  0  0  0  0  0  0  0  # atno 10764 bound_to 10752
  153.8181  135.3208  155.3385 H   0  0  0  0  0  0  0  0  0  0  0  0  # atno 10765 bound_to 10752
  141.1590  133.7610  156.9546 H   0  0  0  0  0  0  0  0  0  0  0  0  # atno 11005 bound_to 11000
  146.1439  139.4503  143.0091 LP  0  0  0  0  0  0  0  0  0  0  0  0  # atno 17320 bound_to 7965
  145.6975  141.0146  143.1522 LP  0  0  0  0  0  0  0  0  0  0  0  0  # atno 17321 bound_to 7965
  140.4059  143.2681  151.9892 LP  0  0  0  0  0  0  0  0  0  0  0  0  # atno 17342 bound_to 10162
  139.4809  144.5958  151.7693 LP  0  0  0  0  0  0  0  0  0  0  0  0  # atno 17343 bound_to 10162
  157.6211  131.0929  150.8621 LP  0  0  0  0  0  0  0  0  0  0  0  0  # atno 17370 bound_to 10713
  156.8744  130.5157  149.5294 LP  0  0  0  0  0  0  0  0  0  0  0  0  # atno 17371 bound_to 10713
  140.1234  134.9402  157.2235 LP  0  0  0  0  0  0  0  0  0  0  0  0  # atno 17394 bound_to 11000
  140.3044  134.3095  155.7282 LP  0  0  0  0  0  0  0  0  0  0  0  0  # atno 17395 bound_to 11000

$$$$
