AV-unprocessed.smi:1884|AV-procd|sdf|7646|dock10
  -GOLD-   22720 9373D 1   1.00000     0.00000
 Structure written by MMmdl.
 40 42  0  0  0  0  0  0  0  0  1 V2000
  151.4181  140.4327  156.6539 C   0  0  0  0  0  0  0  0  0  0  0  0
  151.6154  141.5243  157.6569 C   0  0  0  0  0  0  0  0  0  0  0  0
  151.2371  142.7813  157.4239 N   0  0  0  0  0  0  0  0  0  0  0  0
  151.6113  143.4302  158.5849 C   0  0  0  0  0  0  0  0  0  0  0  0
  151.4827  144.7863  158.9615 C   0  0  0  0  0  0  0  0  0  0  0  0
  151.9460  145.2251  160.2191 C   0  0  0  0  0  0  0  0  0  0  0  0
  152.5429  144.3163  161.1168 C   0  0  0  0  0  0  0  0  0  0  0  0
  152.6799  142.9605  160.7621 C   0  0  0  0  0  0  0  0  0  0  0  0
  152.2164  142.5276  159.5052 C   0  0  0  0  0  0  0  0  0  0  0  0
  152.1950  141.2942  158.8605 N   0  0  0  0  0  0  0  0  0  0  0  0
  152.6990  140.0321  159.3854 C   0  0  0  0  0  0  0  0  0  0  0  0
  154.0495  140.1853  160.1146 C   0  0  2  0  0  0  0  0  0  0  0  0
  155.1031  139.7602  159.2732 O   0  0  0  0  0  0  0  0  0  0  0  0
  154.1117  139.3682  161.4132 C   0  0  0  0  0  0  0  0  0  0  0  0
  154.1642  137.9846  161.0912 O   0  0  0  0  0  0  0  0  0  0  0  0
  154.2857  137.0795  162.1238 C   0  0  0  0  0  0  0  0  0  0  0  0
  154.6060  135.7510  161.7764 C   0  0  0  0  0  0  0  0  0  0  0  0
  154.7482  134.7597  162.7665 C   0  0  0  0  0  0  0  0  0  0  0  0
  154.5694  135.0892  164.1244 C   0  0  0  0  0  0  0  0  0  0  0  0
  154.7121  134.0684  165.1490 C   0  0  0  0  0  0  0  0  0  0  0  0
  154.8261  133.2558  165.9647 N   0  0  0  0  0  0  0  0  0  0  0  0
  154.2506  136.4132  164.4849 C   0  0  0  0  0  0  0  0  0  0  0  0
  154.1090  137.4033  163.4930 C   0  0  0  0  0  0  0  0  0  0  0  0
  150.9121  140.8159  155.7671 H   0  0  0  0  0  0  0  0  0  0  0  0
  150.8099  139.6331  157.0761 H   0  0  0  0  0  0  0  0  0  0  0  0
  152.3806  140.0226  156.3481 H   0  0  0  0  0  0  0  0  0  0  0  0
  151.0264  145.4905  158.2815 H   0  0  0  0  0  0  0  0  0  0  0  0
  151.8432  146.2641  160.4964 H   0  0  0  0  0  0  0  0  0  0  0  0
  152.8951  144.6607  162.0781 H   0  0  0  0  0  0  0  0  0  0  0  0
  153.1340  142.2618  161.4491 H   0  0  0  0  0  0  0  0  0  0  0  0
  151.9510  139.6076  160.0553 H   0  0  0  0  0  0  0  0  0  0  0  0
  152.7944  139.3272  158.5586 H   0  0  0  0  0  0  0  0  0  0  0  0
  154.2255  141.2353  160.3497 H   0  0  0  0  0  0  0  0  0  0  0  0
  155.7196  139.2665  159.7925 H   0  0  0  0  0  0  0  0  0  0  0  0
  154.9845  139.6616  161.9992 H   0  0  0  0  0  0  0  0  0  0  0  0
  153.2202  139.5658  162.0112 H   0  0  0  0  0  0  0  0  0  0  0  0
  154.7449  135.4885  160.7379 H   0  0  0  0  0  0  0  0  0  0  0  0
  154.9944  133.7481  162.4766 H   0  0  0  0  0  0  0  0  0  0  0  0
  154.1121  136.6780  165.5235 H   0  0  0  0  0  0  0  0  0  0  0  0
  153.8626  138.4051  163.8104 H   0  0  0  0  0  0  0  0  0  0  0  0
  1  2  1  0  0  0  0
  1 24  1  0  0  0  0
  1 25  1  0  0  0  0
  1 26  1  0  0  0  0
  2 10  1  0  0  0  0
  2  3  2  0  0  0  0
  3  4  1  0  0  0  0
  4  9  2  0  0  0  0
  4  5  1  0  0  0  0
  5  6  2  0  0  0  0
  5 27  1  0  0  0  0
  6  7  1  0  0  0  0
  6 28  1  0  0  0  0
  7  8  2  0  0  0  0
  7 29  1  0  0  0  0
  8  9  1  0  0  0  0
  8 30  1  0  0  0  0
  9 10  1  0  0  0  0
 10 11  1  0  0  0  0
 11 12  1  0  0  0  0
 11 31  1  0  0  0  0
 11 32  1  0  0  0  0
 12 13  1  0  0  0  0
 12 14  1  0  0  0  0
 12 33  1  0  0  0  0
 13 34  1  0  0  0  0
 14 15  1  0  0  0  0
 14 35  1  0  0  0  0
 14 36  1  0  0  0  0
 15 16  1  0  0  0  0
 16 23  1  0  0  0  0
 16 17  2  0  0  0  0
 17 18  1  0  0  0  0
 17 37  1  0  0  0  0
 18 19  2  0  0  0  0
 18 38  1  0  0  0  0
 19 20  1  0  0  0  0
 19 22  1  0  0  0  0
 20 21  3  0  0  0  0
 22 23  2  0  0  0  0
 22 39  1  0  0  0  0
 23 40  1  0  0  0  0
M  END
> <s_m_source_file>
AV-unprocessed.smi

> <i_m_source_file_index>
1884

> <i_lp_mmshare_version>
43012

> <i_f3d_flags>
0

> <s_epik_input>
W2NIXTFbY0hdW2NIXVtjSF1jKGMxMiluKGMobjIpW0NIM10pW0NIMl1bQ0BIXShbT0hdKVtDSDJdT2MzW2NIXVtjSF1jKEMjTilbY0hdW2NIXTM=

> <s_epik_cmdline>
J2VwaWtfcHl0aG9uJywgJy1waCcsICc3LjAnLCAnLXRuJywgJzgnLCAnLW1hJywgJzIwMCcsICctbWV0YWxfYmluZGluZycsICctaW1hZScsICc8aW5maWxlLm1hZT4nLCAnLW9tYWUnLCAnPG91dGZpbGUubWFlPic=

> <r_epik_Ionization_Penalty>
0.110799

> <r_epik_Ionization_Penalty_Charging>
0

> <r_epik_Ionization_Penalty_Neutral>
0.110799

> <r_epik_State_Penalty>
0.100537

> <r_epik_Charging_Adjusted_Penalty>
0.100537

> <i_epik_Tot_Q>
0

> <i_epik_Tot_abs_Q>
0

> <r_epik_Metal_State_Penalty>
0.000109561

> <b_epik_Metal_Only>
0

> <s_lp_Force_Field>
OPLS_2005

> <r_lp_Energy>
14.1942

> <b_lp_Chiralities_Consistent>
1

> <s_lp_Variant>
AV-unprocessed.smi:1884-1

> <Gold.Version>
5.8.1

> <Gold.Id.Protein>
6NUR|6NUR_protein|mol2

> <Gold.PLP.Fitness>
53.7570

> <Gold.PLP.PLP>
-52.7491

> <Gold.PLP.part.hbond>
-1.0000

> <Gold.PLP.part.metal>
0.0000

> <Gold.PLP.part.buried>
-7.0521

> <Gold.PLP.part.nonpolar>
-44.9589

> <Gold.PLP.part.repulsive>
0.1824

> <Gold.PLP.ligand.clash>
0.0000

> <Gold.PLP.ligand.torsion>
1.0206

> <Gold.PLP.Chemscore.Hbond>
1.0000

> <Gold.PLP.Chemscore.CHOScore>
0.0000

> <Gold.PLP.Chemscore.Metal>
0.0000

> <Gold.Chemscore.Hbonds>
donor molecule, donor type, donor heavy atom, donor atom, acceptor molecule, acceptor atom, score
      P1  H  7997  8009       L1    13  1.00

> <Gold.PLP.Chemscore.Internal.Correction>
0.0492

> <Gold.Rescore>
     Score         DG    S(hbond)    S(metal)    S(lipo)     H(rot)  DE(clash)    DE(int)     intcor
     18.48     -19.64       0.99        0.00     143.28       2.31       0.10       1.06       ----

> <Gold.Chemscore.Fitness>
18.4835

> <Gold.Chemscore.DG>
-19.6427

> <Gold.Chemscore.ZeroCoef>
-5.4800

> <Gold.Chemscore.Hbond>
0.9920

> <Gold.Chemscore.Metal>
0.0000

> <Gold.Chemscore.Lipo>
143.2794

> <Gold.Chemscore.Internal_Hbond>
0.0000

> <Gold.Chemscore.DEClash>
0.1036

> <Gold.Chemscore.DEInternal>
1.0557

> <Gold.Chemscore.Rot>
2.3102

> <Gold.Chemscore.Internal.Correction>
   9.000000E+99

> <Gold.Chemscore.Hbonds>
donor molecule, donor type, donor heavy atom, donor atom, acceptor molecule, acceptor atom, score
      P1  H  7997  8009       L1    13  0.98

> <Gold.Chemscore.Hbond.Weighted>
-3.3131

> <Gold.Chemscore.Metal.Weighted>
-0.0000

> <Gold.Chemscore.Lipo.Weighted>
-16.7637

> <Gold.Chemscore.Internal_Hbond.Weighted>
0.0000

> <Gold.Chemscore.DEClash.Weighted>
0.1036

> <Gold.Chemscore.DEInternal.Weighted>
1.0557

> <Gold.Chemscore.Rot.Weighted>
5.9141

> <Gold.Chemscore.Internal.Correction.Weighted>
   9.000000E+99

> <Gold.Protein.RotatedTorsions>
[ 6907 6896 6895 6894 ] final  -73.11 input  -60.11 | X-H torsion
[ 7974 7965 7964 7962 ] final  -80.88 input  175.53 | X-H torsion
[ 8008 7997 7996 7995 ] final  116.01 input   59.86 | X-H torsion
[ 10167 10162 10161 10158 ] final   54.74 input  -65.29 | X-H torsion
[ 10718 10713 10712 10709 ] final   -2.50 input   66.30 | X-H torsion
[ 10763 10752 10751 10750 ] final   50.25 input  -60.55 | X-H torsion
[ 11005 11000 10999 10996 ] final  167.08 input  -57.11 | X-H torsion

> <Gold.Protein.ActiveResidues>
 VAL166  LYS551  ARG553  GLY616  TRP617  ASP618  TYR619  PRO620  LYS621  CYS622 
 ASP623  PHE694  ASN695  SER759  ASP760  ASP761  ALA762  ILE779  LEU786  VAL792 
 PHE793  MET794  SER795  GLU796  ALA797  LYS798  CYS799  TRP800  GLU811  SER814 

> <Gold.Protein.RotatedAtoms>
  150.7143  134.5064  159.5585 H   0  0  0  0  0  0  0  0  0  0  0  0  # atno 6907 bound_to 6896
  152.2650  134.7991  160.0433 H   0  0  0  0  0  0  0  0  0  0  0  0  # atno 6908 bound_to 6896
  151.8691  133.3437  159.3765 H   0  0  0  0  0  0  0  0  0  0  0  0  # atno 6909 bound_to 6896
  145.5540  140.9492  143.1483 H   0  0  0  0  0  0  0  0  0  0  0  0  # atno 7974 bound_to 7965
  156.2415  140.2926  156.0457 H   0  0  0  0  0  0  0  0  0  0  0  0  # atno 8008 bound_to 7997
  155.1937  140.0407  157.2922 H   0  0  0  0  0  0  0  0  0  0  0  0  # atno 8009 bound_to 7997
  154.6177  140.2468  155.7595 H   0  0  0  0  0  0  0  0  0  0  0  0  # atno 8010 bound_to 7997
  140.2269  144.3728  150.6429 H   0  0  0  0  0  0  0  0  0  0  0  0  # atno 10167 bound_to 10162
  156.7899  130.5358  149.5737 H   0  0  0  0  0  0  0  0  0  0  0  0  # atno 10718 bound_to 10713
  152.9785  135.5885  154.4221 H   0  0  0  0  0  0  0  0  0  0  0  0  # atno 10763 bound_to 10752
  154.3844  135.2767  155.2194 H   0  0  0  0  0  0  0  0  0  0  0  0  # atno 10764 bound_to 10752
  154.4093  135.6085  153.5998 H   0  0  0  0  0  0  0  0  0  0  0  0  # atno 10765 bound_to 10752
  140.2731  134.7811  157.3692 H   0  0  0  0  0  0  0  0  0  0  0  0  # atno 11005 bound_to 11000
  144.7515  139.7182  143.7271 LP  0  0  0  0  0  0  0  0  0  0  0  0  # atno 17320 bound_to 7965
  146.1897  139.5131  142.9813 LP  0  0  0  0  0  0  0  0  0  0  0  0  # atno 17321 bound_to 7965
  140.6214  143.2176  151.6687 LP  0  0  0  0  0  0  0  0  0  0  0  0  # atno 17342 bound_to 10162
  139.5124  144.3478  152.0680 LP  0  0  0  0  0  0  0  0  0  0  0  0  # atno 17343 bound_to 10162
  156.1165  130.6079  151.0129 LP  0  0  0  0  0  0  0  0  0  0  0  0  # atno 17370 bound_to 10713
  157.6606  131.0881  150.7848 LP  0  0  0  0  0  0  0  0  0  0  0  0  # atno 17371 bound_to 10713
  140.1354  134.5040  155.8072 LP  0  0  0  0  0  0  0  0  0  0  0  0  # atno 17394 bound_to 11000
  141.2174  133.6805  156.7115 LP  0  0  0  0  0  0  0  0  0  0  0  0  # atno 17395 bound_to 11000

$$$$
