#       Name:                AV-unprocessed.smi:1584
#       Creating user name   scv26
#       Creation time:       Fri Mar 27 06:59:22 2020


#       File generated by GOLD software.
#

@<TRIPOS>MOLECULE
AV-unprocessed.smi:1584
    44    45     1
SMALL
NO_CHARGES


@<TRIPOS>ATOM
      1 ****        -3.6108  -2.2775  -0.4084 C.3            1 S1                 0.0000
      2 ****        -2.7129  -1.0741  -0.0910 C.3            1 S1                 0.0000
      3 ****        -2.9763  -0.5361   1.3328 C.3            1 S1                 0.0000
      4 ****        -2.2356   0.6794   1.6233 N.pl3          1 S1                 0.0000
      5 ****        -1.1210   0.8337   2.4210 C.2            1 S1                 0.0000
      6 ****        -0.7655   2.1509   2.3719 C.2            1 S1                 0.0000
      7 ****        -1.7396   2.7316   1.5122 C.2            1 S1                 0.0000
      8 ****        -2.6214   1.8495   1.0704 N.2            1 S1                 0.0000
      9 ****        -1.3136  -1.4713  -0.2435 N.am           1 S1                 0.0000
     10 ****        -0.3415  -0.7196  -0.7849 C.2            1 S1                 0.0000
     11 ****        -0.5420   0.3916  -1.2765 O.2            1 S1                 0.0000
     12 ****         1.0784  -1.3098  -0.7498 C.3            1 S1                 0.0000
     13 ****         1.8990  -0.7869   0.4379 C.3            1 S1                 0.0000
     14 ****         2.3197   0.6755   0.2388 C.3            1 S1                 0.0000
     15 ****         2.9099   0.9308  -1.0812 N.am           1 S1                 0.0000
     16 ****         3.7233   2.1448  -1.1699 C.3            1 S1                 0.0000
     17 ****         2.6995   0.1657  -2.1800 C.2            1 S1                 0.0000
     18 ****         3.1922   0.4398  -3.2750 O.2            1 S1                 0.0000
     19 ****         1.8350  -1.1064  -2.0826 C.3            1 S1                 0.0000
     20 ****        -4.6651  -2.0102  -0.3316 H              1 S1                 0.0000
     21 ****        -3.4266  -3.1044   0.2784 H              1 S1                 0.0000
     22 ****        -3.4376  -2.6403  -1.4220 H              1 S1                 0.0000
     23 ****        -2.9579  -0.2925  -0.8126 H              1 S1                 0.0000
     24 ****        -4.0382  -0.3228   1.4634 H              1 S1                 0.0000
     25 ****        -2.7175  -1.2886   2.0791 H              1 S1                 0.0000
     26 ****        -0.6731   0.0009   2.9426 H              1 S1                 0.0000
     27 ****         0.0650   2.6270   2.8712 H              1 S1                 0.0000
     28 ****        -1.8318   3.7609   1.1986 H              1 S1                 0.0000
     29 ****        -1.0570  -2.3748   0.1271 H              1 S1                 0.0000
     30 ****         0.9626  -2.3864  -0.6123 H              1 S1                 0.0000
     31 ****         1.3403  -0.8896   1.3693 H              1 S1                 0.0000
     32 ****         2.7912  -1.4040   0.5526 H              1 S1                 0.0000
     33 ****         1.4601   1.3353   0.3623 H              1 S1                 0.0000
     34 ****         3.0276   0.9445   1.0239 H              1 S1                 0.0000
     35 ****         3.3456   2.8083  -1.9493 H              1 S1                 0.0000
     36 ****         4.7582   1.8945  -1.4063 H              1 S1                 0.0000
     37 ****         3.7235   2.7115  -0.2381 H              1 S1                 0.0000
     38 ****         2.5069  -1.9523  -2.2316 H              1 S1                 0.0000
     39 ****         1.1459  -1.1292  -2.9285 H              1 S1                 0.0000
     40 ****        -3.3990   2.0127   0.4632 LP             1 S1                 0.0000
     41 ****        -1.4654   0.7753  -1.2852 LP             1 S1                 0.0000
     42 ****         0.2186   0.9102  -1.6670 LP             1 S1                 0.0000
     43 ****         3.7694   1.2503  -3.3748 LP             1 S1                 0.0000
     44 ****         3.0151  -0.1481  -4.0643 LP             1 S1                 0.0000
@<TRIPOS>BOND
    1    1    2 1     
    2    1   20 1     
    3    1   21 1     
    4    1   22 1     
    5    2    3 1     
    6    2    9 1     
    7    2   23 1     
    8    3    4 1     
    9    3   24 1     
   10    3   25 1     
   11    4    8 1     
   12    4    5 1     
   13    5    6 2     
   14    5   26 1     
   15    6    7 1     
   16    6   27 1     
   17    7    8 2     
   18    7   28 1     
   19    9   10 am    
   20    9   29 1     
   21   10   11 2     
   22   10   12 1     
   23   12   19 1     
   24   12   13 1     
   25   12   30 1     
   26   13   14 1     
   27   13   31 1     
   28   13   32 1     
   29   14   15 1     
   30   14   33 1     
   31   14   34 1     
   32   15   16 1     
   33   15   17 am    
   34   16   35 1     
   35   16   36 1     
   36   16   37 1     
   37   17   18 2     
   38   17   19 1     
   39   19   38 1     
   40   19   39 1     
   41    8   40 1     
   42   11   41 1     
   43   11   42 1     
   44   18   43 1     
   45   18   44 1     
@<TRIPOS>SUBSTRUCTURE
      1 S1             1
@<TRIPOS>SET
LONE_PAIRS      STATIC     ATOMS    <user>   **** ""
5 40 41 42 43 44
DONOR_HYDROGENS      STATIC     ATOMS    <user>   **** ""
1 29
ATOM$BLUE        STATIC     ATOMS    COLORGROUP SYSTEM
5 40 41 42 43 44
ATOM$RED        STATIC     ATOMS    COLORGROUP SYSTEM
1 29
