AV-unprocessed.smi:1219|AV-procd|sdf|5112|dock1
  -GOLD-   22720 4163D 1   1.00000     0.00000
 Structure written by MMmdl.
 43 44  0  0  0  0  0  0  0  0  2 V2000
  150.9599  140.6590  156.2675 O   0  0  0  0  0  0  0  0  0  0  0  0
  150.3566  141.7175  156.0907 C   0  0  0  0  0  0  0  0  0  0  0  0
  149.4954  141.9144  155.0822 N   0  0  0  0  0  0  0  0  0  0  0  0
  149.1801  140.9364  154.0459 C   0  0  0  0  0  0  0  0  0  0  0  0
  147.6708  140.6197  153.9816 C   0  0  2  0  0  0  0  0  0  0  0  0
  147.3712  140.1257  152.6907 O   0  0  0  0  0  0  0  0  0  0  0  0
  146.8205  141.8907  154.1858 C   0  0  0  0  0  0  0  0  0  0  0  0
  145.4563  141.5955  154.6955 N   0  3  0  0  0  0  0  0  0  0  0  0
  144.7375  142.8252  155.1199 C   0  0  0  0  0  0  0  0  0  0  0  0
  143.2813  142.5148  155.5046 C   0  0  0  0  0  0  0  0  0  0  0  0
  143.2182  141.4435  156.6006 C   0  0  0  0  0  0  0  0  0  0  0  0
  143.9940  140.1963  156.1577 C   0  0  0  0  0  0  0  0  0  0  0  0
  145.4356  140.5551  155.7590 C   0  0  0  0  0  0  0  0  0  0  0  0
  150.4639  142.8139  156.8616 N   0  0  0  0  0  0  0  0  0  0  0  0
  151.2863  143.0065  158.0036 C   0  0  0  0  0  0  0  0  0  0  0  0
  151.3689  144.3403  158.4635 C   0  0  0  0  0  0  0  0  0  0  0  0
  152.1636  144.6376  159.5876 C   0  0  0  0  0  0  0  0  0  0  0  0
  152.8550  143.5920  160.2246 C   0  0  0  0  0  0  0  0  0  0  0  0
  152.7169  142.2921  159.7041 C   0  0  0  0  0  0  0  0  0  0  0  0
  151.9562  142.0050  158.6266 N   0  0  0  0  0  0  0  0  0  0  0  0
  149.0437  142.8145  155.0115 H   0  0  0  0  0  0  0  0  0  0  0  0
  149.4952  141.3916  153.1067 H   0  0  0  0  0  0  0  0  0  0  0  0
  149.7803  140.0309  154.1552 H   0  0  0  0  0  0  0  0  0  0  0  0
  147.4209  139.8660  154.7278 H   0  0  0  0  0  0  0  0  0  0  0  0
  148.1845  139.9386  152.2441 H   0  0  0  0  0  0  0  0  0  0  0  0
  147.3154  142.5800  154.8716 H   0  0  0  0  0  0  0  0  0  0  0  0
  146.7518  142.4139  153.2303 H   0  0  0  0  0  0  0  0  0  0  0  0
  145.2615  143.2820  155.9612 H   0  0  0  0  0  0  0  0  0  0  0  0
  144.7425  143.5545  154.3090 H   0  0  0  0  0  0  0  0  0  0  0  0
  142.7831  143.4236  155.8434 H   0  0  0  0  0  0  0  0  0  0  0  0
  142.7355  142.1724  154.6243 H   0  0  0  0  0  0  0  0  0  0  0  0
  143.6443  141.8349  157.5254 H   0  0  0  0  0  0  0  0  0  0  0  0
  142.1811  141.1862  156.8180 H   0  0  0  0  0  0  0  0  0  0  0  0
  144.0017  139.4590  156.9610 H   0  0  0  0  0  0  0  0  0  0  0  0
  143.4861  139.7285  155.3132 H   0  0  0  0  0  0  0  0  0  0  0  0
  145.9410  139.6521  155.4191 H   0  0  0  0  0  0  0  0  0  0  0  0
  145.9853  140.9140  156.6307 H   0  0  0  0  0  0  0  0  0  0  0  0
  149.9049  143.6096  156.5918 H   0  0  0  0  0  0  0  0  0  0  0  0
  150.8317  145.1321  157.9619 H   0  0  0  0  0  0  0  0  0  0  0  0
  152.2415  145.6507  159.9535 H   0  0  0  0  0  0  0  0  0  0  0  0
  153.4746  143.7807  161.0888 H   0  0  0  0  0  0  0  0  0  0  0  0
  153.2314  141.4610  160.1633 H   0  0  0  0  0  0  0  0  0  0  0  0
  144.9401  141.2264  153.9090 H   0  0  0  0  0  0  0  0  0  0  0  0
  1  2  2  0  0  0  0
  2  3  1  0  0  0  0
  2 14  1  0  0  0  0
  3  4  1  0  0  0  0
  3 21  1  0  0  0  0
  4  5  1  0  0  0  0
  4 22  1  0  0  0  0
  4 23  1  0  0  0  0
  5  6  1  0  0  0  0
  5  7  1  0  0  0  0
  5 24  1  0  0  0  0
  6 25  1  0  0  0  0
  7  8  1  0  0  0  0
  7 26  1  0  0  0  0
  7 27  1  0  0  0  0
  8 13  1  0  0  0  0
  8  9  1  0  0  0  0
  8 43  1  0  0  0  0
  9 10  1  0  0  0  0
  9 28  1  0  0  0  0
  9 29  1  0  0  0  0
 10 11  1  0  0  0  0
 10 30  1  0  0  0  0
 10 31  1  0  0  0  0
 11 12  1  0  0  0  0
 11 32  1  0  0  0  0
 11 33  1  0  0  0  0
 12 13  1  0  0  0  0
 12 34  1  0  0  0  0
 12 35  1  0  0  0  0
 13 36  1  0  0  0  0
 13 37  1  0  0  0  0
 14 15  1  0  0  0  0
 14 38  1  0  0  0  0
 15 20  1  0  0  0  0
 15 16  2  0  0  0  0
 16 17  1  0  0  0  0
 16 39  1  0  0  0  0
 17 18  2  0  0  0  0
 17 40  1  0  0  0  0
 18 19  1  0  0  0  0
 18 41  1  0  0  0  0
 19 20  2  0  0  0  0
 19 42  1  0  0  0  0
M  CHG  1   8   1
M  END
> <s_m_source_file>
AV-unprocessed.smi

> <i_m_source_file_index>
1219

> <i_lp_mmshare_version>
43012

> <i_f3d_flags>
0

> <s_epik_input>
bjFbY0hdW2NIXVtjSF1bY0hdYzFbTkhdQyg9TylbTkhdW0NIMl1bQ0BIXShbT0hdKVtDSDJdTjJbQ0gyXVtDSDJdW0NIMl1bQ0gyXVtDSDJdMg==

> <s_epik_cmdline>
J2VwaWtfcHl0aG9uJywgJy1waCcsICc3LjAnLCAnLXRuJywgJzgnLCAnLW1hJywgJzIwMCcsICctbWV0YWxfYmluZGluZycsICctaW1hZScsICc8aW5maWxlLm1hZT4nLCAnLW9tYWUnLCAnPG91dGZpbGUubWFlPic=

> <r_epik_Ionization_Penalty>
0.00510026

> <r_epik_Ionization_Penalty_Charging>
0.00506051

> <r_epik_Ionization_Penalty_Neutral>
3.97538e-05

> <r_epik_State_Penalty>
0.00368188

> <r_epik_Charging_Adjusted_Penalty>
0.0087424

> <i_epik_Tot_Q>
1

> <i_epik_Tot_abs_Q>
1

> <r_epik_Metal_State_Penalty>
-0

> <b_epik_Metal_Only>
0

> <s_lp_Force_Field>
OPLS_2005

> <r_lp_Energy>
20.5821

> <b_lp_Chiralities_Consistent>
1

> <s_lp_Variant>
AV-unprocessed.smi:1219-1

> <Gold.Version>
5.8.1

> <Gold.Id.Protein>
6NUR|6NUR_protein|mol2

> <Gold.PLP.Fitness>
52.8955

> <Gold.PLP.PLP>
-39.0500

> <Gold.PLP.part.hbond>
-4.0000

> <Gold.PLP.part.metal>
0.0000

> <Gold.PLP.part.buried>
-4.5773

> <Gold.PLP.part.nonpolar>
-30.9659

> <Gold.PLP.part.repulsive>
0.2637

> <Gold.PLP.ligand.clash>
0.0000

> <Gold.PLP.ligand.torsion>
0.6316

> <Gold.PLP.Chemscore.Hbond>
4.9920

> <Gold.PLP.Chemscore.CHOScore>
0.0000

> <Gold.PLP.Chemscore.Metal>
0.0000

> <Gold.Chemscore.Hbonds>
donor molecule, donor type, donor heavy atom, donor atom, acceptor molecule, acceptor atom, score
      L1  H     3    21       P1  8028  0.99
      L1  H     6    25       P1  7957  1.00
      L1  H     8    43       P1 10175  2.00
      L1  H    14    38       P1  8028  1.00

> <Gold.PLP.Chemscore.Internal.Correction>
0.1327

> <Gold.Rescore>
     Score         DG    S(hbond)    S(metal)    S(lipo)     H(rot)  DE(clash)    DE(int)     intcor
     18.69     -20.64       3.67        0.00      77.47       2.41       0.15       1.79       ----

> <Gold.Chemscore.Fitness>
18.6920

> <Gold.Chemscore.DG>
-20.6403

> <Gold.Chemscore.ZeroCoef>
-5.4800

> <Gold.Chemscore.Hbond>
3.6701

> <Gold.Chemscore.Metal>
0.0000

> <Gold.Chemscore.Lipo>
77.4664

> <Gold.Chemscore.Internal_Hbond>
0.0000

> <Gold.Chemscore.DEClash>
0.1537

> <Gold.Chemscore.DEInternal>
1.7946

> <Gold.Chemscore.Rot>
2.4067

> <Gold.Chemscore.Internal.Correction>
   9.000000E+99

> <Gold.Chemscore.Hbonds>
donor molecule, donor type, donor heavy atom, donor atom, acceptor molecule, acceptor atom, score
      L1  H     3    21       P1  8028  0.90
      L1  H     6    25       P1  7957  1.00
      L1  H     8    43       P1 10175  0.56
      L1  H    14    38       P1  8028  1.00

> <Gold.Chemscore.Hbond.Weighted>
-12.2580

> <Gold.Chemscore.Metal.Weighted>
-0.0000

> <Gold.Chemscore.Lipo.Weighted>
-9.0636

> <Gold.Chemscore.Internal_Hbond.Weighted>
0.0000

> <Gold.Chemscore.DEClash.Weighted>
0.1537

> <Gold.Chemscore.DEInternal.Weighted>
1.7946

> <Gold.Chemscore.Rot.Weighted>
6.1612

> <Gold.Chemscore.Internal.Correction.Weighted>
   9.000000E+99

> <Gold.Protein.RotatedTorsions>
[ 6907 6896 6895 6894 ] final   40.45 input  -60.11 | X-H torsion
[ 7974 7965 7964 7962 ] final  -60.65 input  175.53 | X-H torsion
[ 8008 7997 7996 7995 ] final -123.82 input   59.86 | X-H torsion
[ 10167 10162 10161 10158 ] final  -93.88 input  -65.29 | X-H torsion
[ 10718 10713 10712 10709 ] final   71.59 input   66.30 | X-H torsion
[ 10763 10752 10751 10750 ] final   41.07 input  -60.55 | X-H torsion
[ 11005 11000 10999 10996 ] final  178.51 input  -57.11 | X-H torsion

> <Gold.Protein.ActiveResidues>
 VAL166  LYS551  ARG553  GLY616  TRP617  ASP618  TYR619  PRO620  LYS621  CYS622 
 ASP623  PHE694  ASN695  SER759  ASP760  ASP761  ALA762  ILE779  LEU786  VAL792 
 PHE793  MET794  SER795  GLU796  ALA797  LYS798  CYS799  TRP800  GLU811  SER814 

> <Gold.Protein.RotatedAtoms>
  152.1827  134.8740  160.0524 H   0  0  0  0  0  0  0  0  0  0  0  0  # atno 6907 bound_to 6896
  151.9659  133.3705  159.4061 H   0  0  0  0  0  0  0  0  0  0  0  0  # atno 6908 bound_to 6896
  150.6920  134.4115  159.5208 H   0  0  0  0  0  0  0  0  0  0  0  0  # atno 6909 bound_to 6896
  145.8129  140.8587  143.0172 H   0  0  0  0  0  0  0  0  0  0  0  0  # atno 7974 bound_to 7965
  155.1868  140.0412  157.2893 H   0  0  0  0  0  0  0  0  0  0  0  0  # atno 8008 bound_to 7997
  154.6166  140.2490  155.7574 H   0  0  0  0  0  0  0  0  0  0  0  0  # atno 8009 bound_to 7997
  156.2410  140.2903  156.0454 H   0  0  0  0  0  0  0  0  0  0  0  0  # atno 8010 bound_to 7997
  140.3202  143.3054  152.0055 H   0  0  0  0  0  0  0  0  0  0  0  0  # atno 10167 bound_to 10162
  157.6459  130.9536  150.0810 H   0  0  0  0  0  0  0  0  0  0  0  0  # atno 10718 bound_to 10713
  152.9918  135.6172  154.2728 H   0  0  0  0  0  0  0  0  0  0  0  0  # atno 10763 bound_to 10752
  154.2460  135.2787  155.2837 H   0  0  0  0  0  0  0  0  0  0  0  0  # atno 10764 bound_to 10752
  154.5328  135.5783  153.6831 H   0  0  0  0  0  0  0  0  0  0  0  0  # atno 10765 bound_to 10752
  140.3959  134.6820  157.4534 H   0  0  0  0  0  0  0  0  0  0  0  0  # atno 11005 bound_to 11000
  144.6755  140.0422  143.7480 LP  0  0  0  0  0  0  0  0  0  0  0  0  # atno 17320 bound_to 7965
  145.9757  139.2903  143.1072 LP  0  0  0  0  0  0  0  0  0  0  0  0  # atno 17321 bound_to 7965
  139.4876  144.6317  151.7056 LP  0  0  0  0  0  0  0  0  0  0  0  0  # atno 17342 bound_to 10162
  140.5491  144.0455  150.6119 LP  0  0  0  0  0  0  0  0  0  0  0  0  # atno 17343 bound_to 10162
  156.1786  130.3649  149.9066 LP  0  0  0  0  0  0  0  0  0  0  0  0  # atno 17370 bound_to 10713
  156.7023  130.8938  151.3601 LP  0  0  0  0  0  0  0  0  0  0  0  0  # atno 17371 bound_to 10713
  140.0372  134.6320  155.9028 LP  0  0  0  0  0  0  0  0  0  0  0  0  # atno 17394 bound_to 11000
  141.1874  133.6560  156.5280 LP  0  0  0  0  0  0  0  0  0  0  0  0  # atno 17395 bound_to 11000

$$$$
