#       Name:                AV-unprocessed.smi:3166
#       Creating user name   scv26
#       Creation time:       Fri Mar 27 17:52:39 2020


#       File generated by GOLD software.
#

@<TRIPOS>MOLECULE
AV-unprocessed.smi:3166
    44    45     1
SMALL
NO_CHARGES


@<TRIPOS>ATOM
      1 ****        -1.9434  -0.9740   2.9890 C.3            1 S1                 0.0000
      2 ****        -1.5372  -0.3457   1.6485 C.3            1 S1                 0.0000
      3 ****        -2.2080  -1.0770   0.4595 C.3            1 S1                 0.0000
      4 ****        -2.9824  -0.1762  -0.3748 N.pl3          1 S1                 0.0000
      5 ****        -4.3291   0.1114  -0.2996 C.2            1 S1                 0.0000
      6 ****        -4.6068   1.0164  -1.2836 C.2            1 S1                 0.0000
      7 ****        -3.3494   1.2249  -1.9159 C.2            1 S1                 0.0000
      8 ****        -2.3796   0.5094  -1.3695 N.2            1 S1                 0.0000
      9 ****        -0.0615  -0.3546   1.5355 N.4            1 S1                 1.0000
     10 ****         0.5041   0.5466   0.5075 C.3            1 S1                 0.0000
     11 ****         2.0513   0.5144   0.4862 C.3            1 S1                 0.0000
     12 ****         2.4924   0.9363   1.7629 O.3            1 S1                 0.0000
     13 ****         2.6348  -0.8933   0.2096 C.3            1 S1                 0.0000
     14 ****         2.4016  -1.3484  -1.2418 C.3            1 S1                 0.0000
     15 ****         2.9721  -0.3299  -2.2409 C.3            1 S1                 0.0000
     16 ****         2.4059   1.0773  -1.9951 C.3            1 S1                 0.0000
     17 ****         2.6231   1.5237  -0.5373 C.3            1 S1                 0.0000
     18 ****        -3.0249  -0.9397   3.1255 H              1 S1                 0.0000
     19 ****        -1.4919  -0.4406   3.8262 H              1 S1                 0.0000
     20 ****        -1.6321  -2.0175   3.0511 H              1 S1                 0.0000
     21 ****        -1.8620   0.6961   1.6768 H              1 S1                 0.0000
     22 ****        -1.4743  -1.5916  -0.1633 H              1 S1                 0.0000
     23 ****        -2.8843  -1.8552   0.8162 H              1 S1                 0.0000
     24 ****        -4.9703  -0.3458   0.4398 H              1 S1                 0.0000
     25 ****        -5.5627   1.4620  -1.5165 H              1 S1                 0.0000
     26 ****        -3.1141   1.8704  -2.7493 H              1 S1                 0.0000
     27 ****         0.3190  -0.0597   2.4236 H              1 S1                 0.0000
     28 ****         0.1135   0.2586  -0.4657 H              1 S1                 0.0000
     29 ****         0.1539   1.5624   0.6968 H              1 S1                 0.0000
     30 ****         3.4373   0.9743   1.7574 H              1 S1                 0.0000
     31 ****         3.7100  -0.8818   0.3960 H              1 S1                 0.0000
     32 ****         2.2244  -1.6310   0.8996 H              1 S1                 0.0000
     33 ****         2.8682  -2.3207  -1.4019 H              1 S1                 0.0000
     34 ****         1.3362  -1.4896  -1.4252 H              1 S1                 0.0000
     35 ****         4.0589  -0.3043  -2.1524 H              1 S1                 0.0000
     36 ****         2.7538  -0.6465  -3.2614 H              1 S1                 0.0000
     37 ****         2.8827   1.7877  -2.6710 H              1 S1                 0.0000
     38 ****         1.3437   1.0950  -2.2400 H              1 S1                 0.0000
     39 ****         2.1846   2.5109  -0.3845 H              1 S1                 0.0000
     40 ****         3.6952   1.6429  -0.3720 H              1 S1                 0.0000
     41 ****         0.2486  -1.2982   1.3535 H              1 S1                 0.0000
     42 ****        -1.4157   0.4825  -1.6342 LP             1 S1                 0.0000
     43 ****         2.1852   0.2859   2.4576 LP             1 S1                 0.0000
     44 ****         2.1198   1.8418   1.9661 LP             1 S1                 0.0000
@<TRIPOS>BOND
    1    1    2 1     
    2    1   18 1     
    3    1   19 1     
    4    1   20 1     
    5    2    3 1     
    6    2    9 1     
    7    2   21 1     
    8    3    4 1     
    9    3   22 1     
   10    3   23 1     
   11    4    8 1     
   12    4    5 1     
   13    5    6 2     
   14    5   24 1     
   15    6    7 1     
   16    6   25 1     
   17    7    8 2     
   18    7   26 1     
   19    9   10 1     
   20    9   27 1     
   21    9   41 1     
   22   10   11 1     
   23   10   28 1     
   24   10   29 1     
   25   11   17 1     
   26   11   12 1     
   27   11   13 1     
   28   12   30 1     
   29   13   14 1     
   30   13   31 1     
   31   13   32 1     
   32   14   15 1     
   33   14   33 1     
   34   14   34 1     
   35   15   16 1     
   36   15   35 1     
   37   15   36 1     
   38   16   17 1     
   39   16   37 1     
   40   16   38 1     
   41   17   39 1     
   42   17   40 1     
   43    8   42 1     
   44   12   43 1     
   45   12   44 1     
@<TRIPOS>SUBSTRUCTURE
      1 S1             1
@<TRIPOS>SET
LONE_PAIRS      STATIC     ATOMS    <user>   **** ""
3 42 43 44
DONOR_HYDROGENS      STATIC     ATOMS    <user>   **** ""
3 27 41 30
ATOM$BLUE        STATIC     ATOMS    COLORGROUP SYSTEM
3 42 43 44
ATOM$RED        STATIC     ATOMS    COLORGROUP SYSTEM
3 27 41 30
