AV-unprocessed.smi:1074|AV-procd|sdf|4692|dock3
  -GOLD-   22720 3213D 1   1.00000     0.00000
 Structure written by MMmdl.
 44 45  0  0  0  0  0  0  0  0  1 V2000
  148.7267  141.3589  153.8188 C   0  0  0  0  0  0  0  0  0  0  0  0
  149.6275  140.5236  154.5982 N   0  0  0  0  0  0  0  0  0  0  0  0
  150.4673  140.9864  155.5360 C   0  0  0  0  0  0  0  0  0  0  0  0
  150.5465  142.1800  155.8266 O   0  0  0  0  0  0  0  0  0  0  0  0
  151.3456  139.9372  156.2439 C   0  0  2  0  0  0  0  0  0  0  0  0
  152.2988  139.1988  155.2747 C   0  0  0  0  0  0  0  0  0  0  0  0
  151.6059  138.1138  154.4285 C   0  0  0  0  0  0  0  0  0  0  0  0
  150.8296  137.1176  155.3118 C   0  0  2  0  0  0  0  0  0  0  0  0
  150.1223  136.1414  154.4890 N   0  0  0  0  0  0  0  0  0  0  0  0
  149.8622  134.8736  154.8385 C   0  0  0  0  0  0  0  0  0  0  0  0
  150.2190  134.3792  155.9071 O   0  0  0  0  0  0  0  0  0  0  0  0
  149.1810  134.2391  153.8685 N   0  0  0  0  0  0  0  0  0  0  0  0
  148.6620  132.9148  153.8431 C   0  0  0  0  0  0  0  0  0  0  0  0
  149.1965  131.8185  154.5627 C   0  0  0  0  0  0  0  0  0  0  0  0
  148.5690  130.5626  154.4555 C   0  0  0  0  0  0  0  0  0  0  0  0
  147.4283  130.4363  153.6386 C   0  0  0  0  0  0  0  0  0  0  0  0
  146.8180  129.2024  153.5422 O   0  0  0  0  0  0  0  0  0  0  0  0
  145.7024  129.0669  152.6684 C   0  0  0  0  0  0  0  0  0  0  0  0
  146.9091  131.4813  152.9484 N   0  0  0  0  0  0  0  0  0  0  0  0
  147.5155  132.6821  153.0554 C   0  0  0  0  0  0  0  0  0  0  0  0
  149.8228  137.8531  156.2133 C   0  0  0  0  0  0  0  0  0  0  0  0
  150.5144  138.9290  157.0707 C   0  0  0  0  0  0  0  0  0  0  0  0
  148.1709  140.7448  153.1103 H   0  0  0  0  0  0  0  0  0  0  0  0
  149.2822  142.1102  153.2563 H   0  0  0  0  0  0  0  0  0  0  0  0
  148.0105  141.8668  154.4657 H   0  0  0  0  0  0  0  0  0  0  0  0
  149.6162  139.5314  154.4105 H   0  0  0  0  0  0  0  0  0  0  0  0
  151.9740  140.4841  156.9491 H   0  0  0  0  0  0  0  0  0  0  0  0
  152.7956  139.9132  154.6168 H   0  0  0  0  0  0  0  0  0  0  0  0
  153.0942  138.7315  155.8564 H   0  0  0  0  0  0  0  0  0  0  0  0
  150.9323  138.5743  153.7058 H   0  0  0  0  0  0  0  0  0  0  0  0
  152.3571  137.5839  153.8416 H   0  0  0  0  0  0  0  0  0  0  0  0
  151.5381  136.5937  155.9564 H   0  0  0  0  0  0  0  0  0  0  0  0
  149.7984  136.4611  153.5880 H   0  0  0  0  0  0  0  0  0  0  0  0
  149.0075  134.7793  153.0336 H   0  0  0  0  0  0  0  0  0  0  0  0
  150.0623  131.9055  155.1988 H   0  0  0  0  0  0  0  0  0  0  0  0
  148.9556  129.7103  154.9948 H   0  0  0  0  0  0  0  0  0  0  0  0
  145.3377  128.0406  152.7061 H   0  0  0  0  0  0  0  0  0  0  0  0
  145.9772  129.2827  151.6350 H   0  0  0  0  0  0  0  0  0  0  0  0
  144.8809  129.7208  152.9650 H   0  0  0  0  0  0  0  0  0  0  0  0
  147.0663  133.4864  152.4910 H   0  0  0  0  0  0  0  0  0  0  0  0
  149.0385  138.3058  155.6059 H   0  0  0  0  0  0  0  0  0  0  0  0
  149.3216  137.1385  156.8671 H   0  0  0  0  0  0  0  0  0  0  0  0
  151.1722  138.4367  157.7881 H   0  0  0  0  0  0  0  0  0  0  0  0
  149.7679  139.4555  157.6670 H   0  0  0  0  0  0  0  0  0  0  0  0
  1  2  1  0  0  0  0
  1 23  1  0  0  0  0
  1 24  1  0  0  0  0
  1 25  1  0  0  0  0
  2  3  1  0  0  0  0
  2 26  1  0  0  0  0
  3  4  2  0  0  0  0
  3  5  1  0  0  0  0
  5 22  1  0  0  0  0
  5  6  1  0  0  0  0
  5 27  1  0  0  0  0
  6  7  1  0  0  0  0
  6 28  1  0  0  0  0
  6 29  1  0  0  0  0
  7  8  1  0  0  0  0
  7 30  1  0  0  0  0
  7 31  1  0  0  0  0
  8  9  1  0  0  0  0
  8 21  1  0  0  0  0
  8 32  1  0  0  0  0
  9 10  1  0  0  0  0
  9 33  1  0  0  0  0
 10 11  2  0  0  0  0
 10 12  1  0  0  0  0
 12 13  1  0  0  0  0
 12 34  1  0  0  0  0
 13 20  1  0  0  0  0
 13 14  2  0  0  0  0
 14 15  1  0  0  0  0
 14 35  1  0  0  0  0
 15 16  2  0  0  0  0
 15 36  1  0  0  0  0
 16 17  1  0  0  0  0
 16 19  1  0  0  0  0
 17 18  1  0  0  0  0
 18 37  1  0  0  0  0
 18 38  1  0  0  0  0
 18 39  1  0  0  0  0
 19 20  2  0  0  0  0
 20 40  1  0  0  0  0
 21 22  1  0  0  0  0
 21 41  1  0  0  0  0
 21 42  1  0  0  0  0
 22 43  1  0  0  0  0
 22 44  1  0  0  0  0
M  END
> <s_m_source_file>
AV-unprocessed.smi

> <i_m_source_file_index>
1074

> <i_lp_mmshare_version>
43012

> <i_f3d_flags>
0

> <s_epik_input>
W0NIM11bTkhdQyg9TylbQ0BASF0xW0NIMl1bQ0gyXVtDQEhdKFtDSDJdW0NIMl0xKVtOSF1DKD1PKVtOSF1jMltjSF1bY0hdYyhPW0NIM10pbltjSF0y

> <s_epik_cmdline>
J2VwaWtfcHl0aG9uJywgJy1waCcsICc3LjAnLCAnLXRuJywgJzgnLCAnLW1hJywgJzIwMCcsICctbWV0YWxfYmluZGluZycsICctaW1hZScsICc8aW5maWxlLm1hZT4nLCAnLW9tYWUnLCAnPG91dGZpbGUubWFlPic=

> <r_lp_tautomer_probability>
1

> <r_epik_Ionization_Penalty>
9.85099e-05

> <r_epik_Ionization_Penalty_Charging>
0

> <r_epik_Ionization_Penalty_Neutral>
9.85099e-05

> <r_epik_State_Penalty>
-0

> <r_epik_Charging_Adjusted_Penalty>
0

> <i_epik_Tot_Q>
0

> <i_epik_Tot_abs_Q>
0

> <r_epik_Metal_State_Penalty>
-0

> <b_epik_Metal_Only>
0

> <s_lp_Force_Field>
OPLS_2005

> <r_lp_Energy>
10.6819

> <b_lp_Chiralities_Consistent>
1

> <s_lp_Variant>
AV-unprocessed.smi:1074-2

> <Gold.Version>
5.8.1

> <Gold.Id.Protein>
6NUR|6NUR_protein|mol2

> <Gold.PLP.Fitness>
40.7399

> <Gold.PLP.PLP>
-37.3352

> <Gold.PLP.part.hbond>
-2.8610

> <Gold.PLP.part.metal>
0.0000

> <Gold.PLP.part.buried>
-4.6076

> <Gold.PLP.part.nonpolar>
-31.2795

> <Gold.PLP.part.repulsive>
0.6642

> <Gold.PLP.ligand.clash>
0.0000

> <Gold.PLP.ligand.torsion>
0.5735

> <Gold.PLP.Chemscore.Hbond>
1.5000

> <Gold.PLP.Chemscore.CHOScore>
0.0000

> <Gold.PLP.Chemscore.Metal>
0.0000

> <Gold.Chemscore.Hbonds>
donor molecule, donor type, donor heavy atom, donor atom, acceptor molecule, acceptor atom, score
      L1  H     9    33       P1  7948  1.00
      L1  H    12    34       P1  7948  0.65

> <Gold.PLP.Chemscore.Internal.Correction>
0.0517

> <Gold.Rescore>
     Score         DG    S(hbond)    S(metal)    S(lipo)     H(rot)  DE(clash)    DE(int)     intcor
     12.26     -12.98       1.17        0.00      66.21       1.62       0.05       0.66       ----

> <Gold.Chemscore.Fitness>
12.2622

> <Gold.Chemscore.DG>
-12.9785

> <Gold.Chemscore.ZeroCoef>
-5.4800

> <Gold.Chemscore.Hbond>
1.1712

> <Gold.Chemscore.Metal>
0.0000

> <Gold.Chemscore.Lipo>
66.2052

> <Gold.Chemscore.Internal_Hbond>
0.0000

> <Gold.Chemscore.DEClash>
0.0524

> <Gold.Chemscore.DEInternal>
0.6640

> <Gold.Chemscore.Rot>
1.6248

> <Gold.Chemscore.Internal.Correction>
   9.000000E+99

> <Gold.Chemscore.Hbonds>
donor molecule, donor type, donor heavy atom, donor atom, acceptor molecule, acceptor atom, score
      L1  H     9    33       P1  7948  0.29
      L1  H    12    34       P1  7948  0.06

> <Gold.Chemscore.Hbond.Weighted>
-3.9120

> <Gold.Chemscore.Metal.Weighted>
-0.0000

> <Gold.Chemscore.Lipo.Weighted>
-7.7460

> <Gold.Chemscore.Internal_Hbond.Weighted>
0.0000

> <Gold.Chemscore.DEClash.Weighted>
0.0524

> <Gold.Chemscore.DEInternal.Weighted>
0.6640

> <Gold.Chemscore.Rot.Weighted>
4.1595

> <Gold.Chemscore.Internal.Correction.Weighted>
   9.000000E+99

> <Gold.Protein.RotatedTorsions>
[ 6907 6896 6895 6894 ] final   82.68 input  -60.11 | X-H torsion
[ 7974 7965 7964 7962 ] final -160.42 input  175.53 | X-H torsion
[ 8008 7997 7996 7995 ] final   99.03 input   59.86 | X-H torsion
[ 10167 10162 10161 10158 ] final  156.61 input  -65.29 | X-H torsion
[ 10718 10713 10712 10709 ] final  153.35 input   66.30 | X-H torsion
[ 10763 10752 10751 10750 ] final  152.88 input  -60.55 | X-H torsion
[ 11005 11000 10999 10996 ] final -128.15 input  -57.11 | X-H torsion

> <Gold.Protein.ActiveResidues>
 VAL166  LYS551  ARG553  GLY616  TRP617  ASP618  TYR619  PRO620  LYS621  CYS622 
 ASP623  PHE694  ASN695  SER759  ASP760  ASP761  ALA762  ILE779  LEU786  VAL792 
 PHE793  MET794  SER795  GLU796  ALA797  LYS798  CYS799  TRP800  GLU811  SER814 

> <Gold.Protein.RotatedAtoms>
  152.5306  134.3012  159.9078 H   0  0  0  0  0  0  0  0  0  0  0  0  # atno 6907 bound_to 6896
  151.2963  133.4136  159.2644 H   0  0  0  0  0  0  0  0  0  0  0  0  # atno 6908 bound_to 6896
  151.0157  134.9447  159.8089 H   0  0  0  0  0  0  0  0  0  0  0  0  # atno 6909 bound_to 6896
  144.7428  140.3544  143.6109 H   0  0  0  0  0  0  0  0  0  0  0  0  # atno 7974 bound_to 7965
  156.1065  140.3235  155.8013 H   0  0  0  0  0  0  0  0  0  0  0  0  # atno 8008 bound_to 7997
  155.4748  140.0549  157.2992 H   0  0  0  0  0  0  0  0  0  0  0  0  # atno 8009 bound_to 7997
  154.4731  140.2020  155.9960 H   0  0  0  0  0  0  0  0  0  0  0  0  # atno 8010 bound_to 7997
  139.4821  144.4993  151.8193 H   0  0  0  0  0  0  0  0  0  0  0  0  # atno 10167 bound_to 10162
  157.2458  131.0769  151.1762 H   0  0  0  0  0  0  0  0  0  0  0  0  # atno 10718 bound_to 10713
  154.1272  135.2829  155.3194 H   0  0  0  0  0  0  0  0  0  0  0  0  # atno 10763 bound_to 10752
  154.6381  135.5412  153.7761 H   0  0  0  0  0  0  0  0  0  0  0  0  # atno 10764 bound_to 10752
  153.0293  135.6479  154.1424 H   0  0  0  0  0  0  0  0  0  0  0  0  # atno 10765 bound_to 10752
  140.9540  134.1027  157.4034 H   0  0  0  0  0  0  0  0  0  0  0  0  # atno 11005 bound_to 11000
  145.7243  139.1718  143.2467 LP  0  0  0  0  0  0  0  0  0  0  0  0  # atno 17320 bound_to 7965
  146.1254  140.7255  142.9437 LP  0  0  0  0  0  0  0  0  0  0  0  0  # atno 17321 bound_to 7965
  140.4484  144.1889  150.5895 LP  0  0  0  0  0  0  0  0  0  0  0  0  # atno 17342 bound_to 10162
  140.4610  143.2449  151.9219 LP  0  0  0  0  0  0  0  0  0  0  0  0  # atno 17343 bound_to 10162
  157.3330  130.6994  149.6336 LP  0  0  0  0  0  0  0  0  0  0  0  0  # atno 17370 bound_to 10713
  155.9668  130.4302  150.4865 LP  0  0  0  0  0  0  0  0  0  0  0  0  # atno 17371 bound_to 10713
  139.8856  135.0074  156.6447 LP  0  0  0  0  0  0  0  0  0  0  0  0  # atno 17394 bound_to 11000
  140.7562  133.8855  155.8384 LP  0  0  0  0  0  0  0  0  0  0  0  0  # atno 17395 bound_to 11000

$$$$
