#       Name:                AV-unprocessed.smi:1492
#       Creating user name   scv26
#       Creation time:       Fri Mar 27 06:14:34 2020


#       File generated by GOLD software.
#

@<TRIPOS>MOLECULE
AV-unprocessed.smi:1492
    60    61     1
SMALL
NO_CHARGES


@<TRIPOS>ATOM
      1 ****        -3.8841  -1.2897   0.5121 C.3            1 S1                 0.0000
      2 ****        -2.3691  -1.0230   0.4497 C.3            1 S1                 0.0000
      3 ****        -1.8739  -0.2368  -0.8036 C.3            1 S1                 0.0000
      4 ****        -2.4630   1.1954  -0.7103 C.3            1 S1                 0.0000
      5 ****        -0.3153  -0.1626  -0.7773 C.3            1 S1                 0.0000
      6 ****         0.2207   0.4785   0.4222 N.am           1 S1                 0.0000
      7 ****         0.6882   1.7343   0.5001 C.2            1 S1                 0.0000
      8 ****         0.7070   2.5137  -0.4517 O.2            1 S1                 0.0000
      9 ****         1.1998   2.1811   1.8695 C.3            1 S1                 0.0000
     10 ****         2.4876   1.5075   2.3400 C.2            1 S1                 0.0000
     11 ****         3.7303   1.9603   2.0016 C.2            1 S1                 0.0000
     12 ****         3.9519   3.1788   1.1225 C.3            1 S1                 0.0000
     13 ****         4.8934   1.3231   2.4564 N.2            1 S1                 0.0000
     14 ****         4.7766   0.2821   3.2133 C.2            1 S1                 0.0000
     15 ****         5.9518  -0.4916   3.7726 C.3            1 S1                 0.0000
     16 ****         3.5382  -0.2346   3.5902 N.am           1 S1                 0.0000
     17 ****         2.3662   0.3109   3.1953 C.2            1 S1                 0.0000
     18 ****         1.2978  -0.1941   3.5375 O.2            1 S1                 0.0000
     19 ****        -2.3529  -0.9094  -2.0668 N.4            1 S1                 1.0000
     20 ****        -2.1450  -0.1493  -3.3324 C.3            1 S1                 0.0000
     21 ****        -2.8458  -0.8525  -4.5075 C.3            1 S1                 0.0000
     22 ****        -2.3649  -2.1835  -4.6294 O.3            1 S1                 0.0000
     23 ****        -2.6362  -2.9483  -3.4637 C.3            1 S1                 0.0000
     24 ****        -1.9161  -2.3217  -2.2590 C.3            1 S1                 0.0000
     25 ****         3.5084  -1.0548   4.1781 H              1 S1                 0.0000
     26 ****        -4.1341  -1.8477   1.4146 H              1 S1                 0.0000
     27 ****        -4.2305  -1.8781  -0.3374 H              1 S1                 0.0000
     28 ****        -4.4579  -0.3638   0.5376 H              1 S1                 0.0000
     29 ****        -2.0968  -0.4773   1.3540 H              1 S1                 0.0000
     30 ****        -1.8395  -1.9710   0.5402 H              1 S1                 0.0000
     31 ****        -2.3372   1.6203   0.2859 H              1 S1                 0.0000
     32 ****        -3.5305   1.2104  -0.9313 H              1 S1                 0.0000
     33 ****        -1.9750   1.8849  -1.3993 H              1 S1                 0.0000
     34 ****         0.1145  -1.1635  -0.7968 H              1 S1                 0.0000
     35 ****         0.0679   0.3407  -1.6652 H              1 S1                 0.0000
     36 ****         0.2443  -0.0808   1.2631 H              1 S1                 0.0000
     37 ****         1.3508   3.2605   1.8441 H              1 S1                 0.0000
     38 ****         0.4058   2.0356   2.6033 H              1 S1                 0.0000
     39 ****         3.4463   3.0601   0.1643 H              1 S1                 0.0000
     40 ****         5.0124   3.3350   0.9215 H              1 S1                 0.0000
     41 ****         3.5694   4.0763   1.6090 H              1 S1                 0.0000
     42 ****         6.5582   0.1548   4.4073 H              1 S1                 0.0000
     43 ****         6.5790  -0.8611   2.9610 H              1 S1                 0.0000
     44 ****         5.6259  -1.3456   4.3679 H              1 S1                 0.0000
     45 ****        -2.5471   0.8600  -3.2677 H              1 S1                 0.0000
     46 ****        -1.0805  -0.0588  -3.5492 H              1 S1                 0.0000
     47 ****        -3.9284  -0.8547  -4.3709 H              1 S1                 0.0000
     48 ****        -2.6444  -0.3195  -5.4369 H              1 S1                 0.0000
     49 ****        -3.7120  -3.0060  -3.2899 H              1 S1                 0.0000
     50 ****        -2.2841  -3.9678  -3.6226 H              1 S1                 0.0000
     51 ****        -0.8396  -2.3673  -2.4248 H              1 S1                 0.0000
     52 ****        -2.1329  -2.9322  -1.3849 H              1 S1                 0.0000
     53 ****        -3.3558  -0.9580  -1.9563 H              1 S1                 0.0000
     54 ****         0.3614   2.2221  -1.3436 LP             1 S1                 0.0000
     55 ****         1.0679   3.4388  -0.3334 LP             1 S1                 0.0000
     56 ****         5.7965   1.6677   2.1999 LP             1 S1                 0.0000
     57 ****         0.4344   0.2083   3.2332 LP             1 S1                 0.0000
     58 ****         1.2928  -1.0069   4.1199 LP             1 S1                 0.0000
     59 ****        -1.3763  -2.1587  -4.7780 LP             1 S1                 0.0000
     60 ****        -2.8089  -2.6181  -5.4129 LP             1 S1                 0.0000
@<TRIPOS>BOND
    1    1    2 1     
    2    1   26 1     
    3    1   27 1     
    4    1   28 1     
    5    2    3 1     
    6    2   29 1     
    7    2   30 1     
    8    3    4 1     
    9    3    5 1     
   10    3   19 1     
   11    4   31 1     
   12    4   32 1     
   13    4   33 1     
   14    5    6 1     
   15    5   34 1     
   16    5   35 1     
   17    6    7 am    
   18    6   36 1     
   19    7    8 2     
   20    7    9 1     
   21    9   10 1     
   22    9   37 1     
   23    9   38 1     
   24   10   17 1     
   25   10   11 2     
   26   11   12 1     
   27   11   13 1     
   28   12   39 1     
   29   12   40 1     
   30   12   41 1     
   31   13   14 2     
   32   14   15 1     
   33   14   16 1     
   34   15   42 1     
   35   15   43 1     
   36   15   44 1     
   37   16   25 1     
   38   16   17 am    
   39   17   18 2     
   40   19   24 1     
   41   19   20 1     
   42   19   53 1     
   43   20   21 1     
   44   20   45 1     
   45   20   46 1     
   46   21   22 1     
   47   21   47 1     
   48   21   48 1     
   49   22   23 1     
   50   23   24 1     
   51   23   49 1     
   52   23   50 1     
   53   24   51 1     
   54   24   52 1     
   55    8   54 1     
   56    8   55 1     
   57   13   56 1     
   58   18   57 1     
   59   18   58 1     
   60   22   59 1     
   61   22   60 1     
@<TRIPOS>SUBSTRUCTURE
      1 S1             1
@<TRIPOS>SET
LONE_PAIRS      STATIC     ATOMS    <user>   **** ""
7 54 55 56 57 58 59 60
DONOR_HYDROGENS      STATIC     ATOMS    <user>   **** ""
3 36 25 53
ATOM$BLUE        STATIC     ATOMS    COLORGROUP SYSTEM
7 54 55 56 57 58 59 60
ATOM$RED        STATIC     ATOMS    COLORGROUP SYSTEM
3 36 25 53
