AV-unprocessed.smi:442|AV-procd|sdf|2584|dock6
  -GOLD-   2262022573D 1   1.00000     0.00000
 Structure written by MMmdl.
 37 37  0  0  0  0  0  0  0  0  3 V2000
  150.8801  144.9930  160.9300 C   0  0  0  0  0  0  0  0  0  0  0  0
  150.0983  144.3019  159.8037 C   0  0  0  0  0  0  0  0  0  0  0  0
  150.7351  144.4600  158.4085 C   0  0  1  0  0  0  0  0  0  0  0  0
  152.2488  144.6953  158.5038 C   0  0  0  0  0  0  0  0  0  0  0  0
  150.4946  143.2733  157.5912 N   0  0  0  0  0  0  0  0  0  0  0  0
  150.8178  142.0068  157.9072 C   0  0  0  0  0  0  0  0  0  0  0  0
  151.3909  141.7034  158.9527 O   0  0  0  0  0  0  0  0  0  0  0  0
  150.4579  140.8947  156.9062 C   0  0  0  0  0  0  0  0  0  0  0  0
  150.7896  139.5261  157.3503 N   0  0  0  0  0  0  0  0  0  0  0  0
  149.7509  138.7980  157.9575 C   0  0  0  0  0  0  0  0  0  0  0  0
  149.9240  137.5450  158.4131 C   0  0  0  0  0  0  0  0  0  0  0  0
  148.8418  136.8210  159.0452 N   0  3  0  0  0  0  0  0  0  0  0  0
  147.7599  137.3820  159.1858 O   0  0  0  0  0  0  0  0  0  0  0  0
  149.0356  135.6689  159.4211 O   0  5  0  0  0  0  0  0  0  0  0  0
  151.2329  136.9442  158.2600 C   0  0  0  0  0  0  0  0  0  0  0  0
  152.2527  137.6303  157.6833 C   0  0  0  0  0  0  0  0  0  0  0  0
  153.6067  137.0575  157.5100 C   0  0  0  0  0  0  0  0  0  0  0  0
  154.6043  137.9174  157.7502 N   0  0  0  0  0  0  0  0  0  0  0  0
  153.8856  135.9059  157.1771 O   0  0  0  0  0  0  0  0  0  0  0  0
  152.0526  139.0202  157.1899 C   0  0  0  0  0  0  0  0  0  0  0  0
  152.9291  139.7166  156.6714 O   0  0  0  0  0  0  0  0  0  0  0  0
  150.4177  144.7969  161.8974 H   0  0  0  0  0  0  0  0  0  0  0  0
  150.9094  146.0741  160.7943 H   0  0  0  0  0  0  0  0  0  0  0  0
  151.9078  144.6320  160.9739 H   0  0  0  0  0  0  0  0  0  0  0  0
  150.0212  143.2403  160.0410 H   0  0  0  0  0  0  0  0  0  0  0  0
  149.0763  144.6826  159.7889 H   0  0  0  0  0  0  0  0  0  0  0  0
  150.3006  145.3393  157.9299 H   0  0  0  0  0  0  0  0  0  0  0  0
  152.4718  145.5879  159.0888 H   0  0  0  0  0  0  0  0  0  0  0  0
  152.6872  144.8328  157.5148 H   0  0  0  0  0  0  0  0  0  0  0  0
  152.7536  143.8523  158.9772 H   0  0  0  0  0  0  0  0  0  0  0  0
  150.0283  143.4269  156.7092 H   0  0  0  0  0  0  0  0  0  0  0  0
  149.3906  140.9706  156.6932 H   0  0  0  0  0  0  0  0  0  0  0  0
  150.9425  141.1169  155.9540 H   0  0  0  0  0  0  0  0  0  0  0  0
  148.8151  139.3331  158.0337 H   0  0  0  0  0  0  0  0  0  0  0  0
  151.3714  135.9357  158.6194 H   0  0  0  0  0  0  0  0  0  0  0  0
  155.5645  137.6199  157.6585 H   0  0  0  0  0  0  0  0  0  0  0  0
  154.3900  138.8656  158.0238 H   0  0  0  0  0  0  0  0  0  0  0  0
  1  2  1  0  0  0  0
  1 22  1  0  0  0  0
  1 23  1  0  0  0  0
  1 24  1  0  0  0  0
  2  3  1  0  0  0  0
  2 25  1  0  0  0  0
  2 26  1  0  0  0  0
  3  4  1  0  0  0  0
  3  5  1  0  0  0  0
  3 27  1  0  0  0  0
  4 28  1  0  0  0  0
  4 29  1  0  0  0  0
  4 30  1  0  0  0  0
  5  6  1  0  0  0  0
  5 31  1  0  0  0  0
  6  7  2  0  0  0  0
  6  8  1  0  0  0  0
  8  9  1  0  0  0  0
  8 32  1  0  0  0  0
  8 33  1  0  0  0  0
  9 20  1  0  0  0  0
  9 10  1  0  0  0  0
 10 11  2  0  0  0  0
 10 34  1  0  0  0  0
 11 12  1  0  0  0  0
 11 15  1  0  0  0  0
 12 13  2  0  0  0  0
 12 14  1  0  0  0  0
 15 16  2  0  0  0  0
 15 35  1  0  0  0  0
 16 17  1  0  0  0  0
 16 20  1  0  0  0  0
 17 18  1  0  0  0  0
 17 19  2  0  0  0  0
 18 36  1  0  0  0  0
 18 37  1  0  0  0  0
 20 21  2  0  0  0  0
M  CHG  1  12   1
M  CHG  1  14  -1
M  END
> <s_m_source_file>
AV-unprocessed.smi

> <i_m_source_file_index>
442

> <i_lp_mmshare_version>
43012

> <i_f3d_flags>
0

> <s_epik_input>
W0NIM11bQ0gyXVtDQEhdKFtDSDNdKVtOSF1DKD1PKVtDSDJdbjFbY0hdYyhbTitdKD1PKVtPLV0pW2NIXWMoYzE9TylDKD1PKVtOSDJd

> <s_epik_cmdline>
J2VwaWtfcHl0aG9uJywgJy1waCcsICc3LjAnLCAnLXRuJywgJzgnLCAnLW1hJywgJzIwMCcsICctbWV0YWxfYmluZGluZycsICctaW1hZScsICc8aW5maWxlLm1hZT4nLCAnLW9tYWUnLCAnPG91dGZpbGUubWFlPic=

> <r_lp_tautomer_probability>
1

> <r_epik_Ionization_Penalty>
2.86914e-06

> <r_epik_Ionization_Penalty_Charging>
2.2828e-12

> <r_epik_Ionization_Penalty_Neutral>
2.86914e-06

> <r_epik_State_Penalty>
-0

> <r_epik_Charging_Adjusted_Penalty>
2.2828e-12

> <i_epik_Tot_Q>
0

> <i_epik_Tot_abs_Q>
2

> <r_epik_Metal_State_Penalty>
-0

> <b_epik_Metal_Only>
0

> <s_lp_Force_Field>
OPLS_2005

> <r_lp_Energy>
22.4314

> <b_lp_Chiralities_Consistent>
1

> <s_lp_Variant>
AV-unprocessed.smi:442-2

> <Gold.Version>
5.8.1

> <Gold.Id.Protein>
6NUR|6NUR_protein|mol2

> <Gold.PLP.Fitness>
43.3672

> <Gold.PLP.PLP>
-33.3763

> <Gold.PLP.part.hbond>
-5.3573

> <Gold.PLP.part.metal>
0.0000

> <Gold.PLP.part.buried>
-5.6460

> <Gold.PLP.part.nonpolar>
-24.2022

> <Gold.PLP.part.repulsive>
1.3795

> <Gold.PLP.ligand.clash>
0.0000

> <Gold.PLP.ligand.torsion>
1.4497

> <Gold.PLP.Chemscore.Hbond>
4.2825

> <Gold.PLP.Chemscore.CHOScore>
0.0000

> <Gold.PLP.Chemscore.Metal>
0.0000

> <Gold.Chemscore.Hbonds>
donor molecule, donor type, donor heavy atom, donor atom, acceptor molecule, acceptor atom, score
      L1  H     5    31       P1  8028  0.88
      P1  H  6896  6907       L1    14  1.00
      P1  H  7997  8010       L1    21  0.78
      P1  H 10752 10764       L1    19  1.00

> <Gold.PLP.Chemscore.Internal.Correction>
0.0429

> <Gold.Rescore>
     Score         DG    S(hbond)    S(metal)    S(lipo)     H(rot)  DE(clash)    DE(int)     intcor
     15.52     -20.71       3.76        0.00      67.47       2.03       0.41       4.79       ----

> <Gold.Chemscore.Fitness>
15.5172

> <Gold.Chemscore.DG>
-20.7145

> <Gold.Chemscore.ZeroCoef>
-5.4800

> <Gold.Chemscore.Hbond>
3.7569

> <Gold.Chemscore.Metal>
0.0000

> <Gold.Chemscore.Lipo>
67.4673

> <Gold.Chemscore.Internal_Hbond>
0.0000

> <Gold.Chemscore.DEClash>
0.4073

> <Gold.Chemscore.DEInternal>
4.7900

> <Gold.Chemscore.Rot>
2.0340

> <Gold.Chemscore.Internal.Correction>
   9.000000E+99

> <Gold.Chemscore.Hbonds>
donor molecule, donor type, donor heavy atom, donor atom, acceptor molecule, acceptor atom, score
      L1  H     5    31       P1  8028  0.82
      P1  H  6896  6907       L1    14  0.99
      P1  H  6934  6947       L1    13  0.03
      P1  H  7997  8010       L1    21  0.77
      P1  H 10752 10764       L1    19  0.98

> <Gold.Chemscore.Hbond.Weighted>
-12.5479

> <Gold.Chemscore.Metal.Weighted>
-0.0000

> <Gold.Chemscore.Lipo.Weighted>
-7.8937

> <Gold.Chemscore.Internal_Hbond.Weighted>
0.0000

> <Gold.Chemscore.DEClash.Weighted>
0.4073

> <Gold.Chemscore.DEInternal.Weighted>
4.7900

> <Gold.Chemscore.Rot.Weighted>
5.2071

> <Gold.Chemscore.Internal.Correction.Weighted>
   9.000000E+99

> <Gold.Protein.RotatedTorsions>
[ 6907 6896 6895 6894 ] final  -64.35 input  -60.11 | X-H torsion
[ 7974 7965 7964 7962 ] final  -38.99 input  175.53 | X-H torsion
[ 8008 7997 7996 7995 ] final   94.38 input   59.86 | X-H torsion
[ 10167 10162 10161 10158 ] final  140.74 input  -65.29 | X-H torsion
[ 10718 10713 10712 10709 ] final  -57.04 input   66.30 | X-H torsion
[ 10763 10752 10751 10750 ] final   33.87 input  -60.55 | X-H torsion
[ 11005 11000 10999 10996 ] final  -66.02 input  -57.11 | X-H torsion

> <Gold.Protein.ActiveResidues>
 VAL166  LYS551  ARG553  GLY616  TRP617  ASP618  TYR619  PRO620  LYS621  CYS622 
 ASP623  PHE694  ASN695  SER759  ASP760  ASP761  ALA762  ILE779  LEU786  VAL792 
 PHE793  MET794  SER795  GLU796  ALA797  LYS798  CYS799  TRP800  GLU811  SER814 

> <Gold.Protein.RotatedAtoms>
  150.7591  134.6311  159.6186 H   0  0  0  0  0  0  0  0  0  0  0  0  # atno 6907 bound_to 6896
  152.3588  134.6899  160.0222 H   0  0  0  0  0  0  0  0  0  0  0  0  # atno 6908 bound_to 6896
  151.7296  133.3281  159.3373 H   0  0  0  0  0  0  0  0  0  0  0  0  # atno 6909 bound_to 6896
  146.0437  140.6575  142.9075 H   0  0  0  0  0  0  0  0  0  0  0  0  # atno 7974 bound_to 7965
  156.0572  140.3300  155.7419 H   0  0  0  0  0  0  0  0  0  0  0  0  # atno 8008 bound_to 7997
  155.5510  140.0610  157.2867 H   0  0  0  0  0  0  0  0  0  0  0  0  # atno 8009 bound_to 7997
  154.4464  140.1894  156.0675 H   0  0  0  0  0  0  0  0  0  0  0  0  # atno 8010 bound_to 7997
  139.5040  144.6215  151.6039 H   0  0  0  0  0  0  0  0  0  0  0  0  # atno 10167 bound_to 10162
  156.1241  130.4164  150.0387 H   0  0  0  0  0  0  0  0  0  0  0  0  # atno 10718 bound_to 10713
  153.0191  135.6375  154.1580 H   0  0  0  0  0  0  0  0  0  0  0  0  # atno 10763 bound_to 10752
  154.1316  135.2840  155.3185 H   0  0  0  0  0  0  0  0  0  0  0  0  # atno 10764 bound_to 10752
  154.6190  135.5531  153.7616 H   0  0  0  0  0  0  0  0  0  0  0  0  # atno 10765 bound_to 10752
  141.1471  133.6692  156.6076 H   0  0  0  0  0  0  0  0  0  0  0  0  # atno 11005 bound_to 11000
  144.7087  140.3955  143.7097 LP  0  0  0  0  0  0  0  0  0  0  0  0  # atno 17320 bound_to 7965
  145.6842  139.1625  143.2684 LP  0  0  0  0  0  0  0  0  0  0  0  0  # atno 17321 bound_to 7965
  140.5919  143.9765  150.6330 LP  0  0  0  0  0  0  0  0  0  0  0  0  # atno 17342 bound_to 10162
  140.2948  143.3300  152.1028 LP  0  0  0  0  0  0  0  0  0  0  0  0  # atno 17343 bound_to 10162
  156.8317  130.9394  151.3637 LP  0  0  0  0  0  0  0  0  0  0  0  0  # atno 17370 bound_to 10713
  157.6424  130.8816  149.9473 LP  0  0  0  0  0  0  0  0  0  0  0  0  # atno 17371 bound_to 10713
  140.3640  134.7663  157.4553 LP  0  0  0  0  0  0  0  0  0  0  0  0  # atno 17394 bound_to 11000
  140.0763  134.5793  155.8588 LP  0  0  0  0  0  0  0  0  0  0  0  0  # atno 17395 bound_to 11000

$$$$
