#       Name:                AV-unprocessed.smi:232
#       Creating user name   scv26
#       Creation time:       Thu Mar 26 20:30:20 2020


#       File generated by GOLD software.
#

@<TRIPOS>MOLECULE
AV-unprocessed.smi:232
    59    62     1
SMALL
NO_CHARGES


@<TRIPOS>ATOM
      1 ****        -2.5131  -3.6951   1.7810 C.3            1 S1                 0.0000
      2 ****        -3.6313  -2.6474   1.6929 C.3            1 S1                 0.0000
      3 ****        -3.2339  -1.2124   2.1088 C.3            1 S1                 0.0000
      4 ****        -4.4631  -0.3135   2.2674 C.3            1 S1                 0.0000
      5 ****        -3.8892   1.0873   2.0955 C.3            1 S1                 0.0000
      6 ****        -2.7832   0.9042   1.0476 C.3            1 S1                 0.0000
      7 ****        -1.6357   1.9178   1.2467 C.3            1 S1                 0.0000
      8 ****        -2.4077  -0.5126   1.1244 N.pl3          1 S1                 0.0000
      9 ****        -1.1166  -0.8621   0.9136 C.ar           1 S1                 0.0000
     10 ****        -0.3491  -1.2818   1.9531 N.ar           1 S1                 0.0000
     11 ****         0.9316  -1.6051   1.7504 C.ar           1 S1                 0.0000
     12 ****         1.6312  -1.5730   0.6140 N.ar           1 S1                 0.0000
     13 ****         0.8625  -1.1471  -0.4293 C.ar           1 S1                 0.0000
     14 ****        -0.5095  -0.7777  -0.3674 C.ar           1 S1                 0.0000
     15 ****        -0.9613  -0.4031  -1.6262 N.2            1 S1                 0.0000
     16 ****         0.0874  -0.5397  -2.3908 C.2            1 S1                 0.0000
     17 ****         1.2318  -0.9600  -1.7498 N.pl3          1 S1                 0.0000
     18 ****         2.5328  -1.1869  -2.3545 C.3            1 S1                 0.0000
     19 ****         3.1473   0.0763  -3.0010 C.3            1 S1                 0.0000
     20 ****         4.2597  -0.3790  -3.7442 O.3            1 S1                 0.0000
     21 ****         3.6666   1.1462  -2.0117 C.3            1 S1                 0.0000
     22 ****         2.6358   1.7265  -1.0375 C.3            1 S1                 0.0000
     23 ****         3.1574   3.1198  -0.7236 C.3            1 S1                 0.0000
     24 ****         4.2246   3.3610  -1.7905 C.3            1 S1                 0.0000
     25 ****         4.0325   2.3155  -2.7311 O.3            1 S1                 0.0000
     26 ****        -2.9123  -4.6958   1.6160 H              1 S1                 0.0000
     27 ****        -2.0381  -3.6852   2.7621 H              1 S1                 0.0000
     28 ****        -1.7439  -3.5298   1.0277 H              1 S1                 0.0000
     29 ****        -4.0492  -2.6418   0.6854 H              1 S1                 0.0000
     30 ****        -4.4380  -2.9780   2.3481 H              1 S1                 0.0000
     31 ****        -2.7068  -1.2379   3.0637 H              1 S1                 0.0000
     32 ****        -5.1851  -0.5095   1.4730 H              1 S1                 0.0000
     33 ****        -4.9681  -0.4517   3.2237 H              1 S1                 0.0000
     34 ****        -4.6385   1.8199   1.7945 H              1 S1                 0.0000
     35 ****        -3.4632   1.4161   3.0447 H              1 S1                 0.0000
     36 ****        -3.2152   1.0552   0.0578 H              1 S1                 0.0000
     37 ****        -2.0207   2.9377   1.2486 H              1 S1                 0.0000
     38 ****        -0.8958   1.8592   0.4487 H              1 S1                 0.0000
     39 ****        -1.1218   1.7582   2.1953 H              1 S1                 0.0000
     40 ****         1.4743  -1.9323   2.6248 H              1 S1                 0.0000
     41 ****         0.0576  -0.3253  -3.4493 H              1 S1                 0.0000
     42 ****         3.2113  -1.5981  -1.6058 H              1 S1                 0.0000
     43 ****         2.3995  -1.9639  -3.1089 H              1 S1                 0.0000
     44 ****         2.4353   0.5224  -3.6962 H              1 S1                 0.0000
     45 ****         4.8972  -0.7340  -3.1437 H              1 S1                 0.0000
     46 ****         4.5290   0.7741  -1.4543 H              1 S1                 0.0000
     47 ****         1.6621   1.8106  -1.5214 H              1 S1                 0.0000
     48 ****         2.5183   1.1203  -0.1397 H              1 S1                 0.0000
     49 ****         2.3546   3.8554  -0.7845 H              1 S1                 0.0000
     50 ****         3.5897   3.1746   0.2761 H              1 S1                 0.0000
     51 ****         4.1337   4.3393  -2.2633 H              1 S1                 0.0000
     52 ****         5.2243   3.2798  -1.3611 H              1 S1                 0.0000
     53 ****        -0.7425  -1.3488   2.8700 LP             1 S1                 0.0000
     54 ****         2.5950  -1.8283   0.5374 LP             1 S1                 0.0000
     55 ****        -1.8777  -0.0991  -1.8863 LP             1 S1                 0.0000
     56 ****         4.6618   0.3837  -4.2508 LP             1 S1                 0.0000
     57 ****         3.9689  -1.0888  -4.3857 LP             1 S1                 0.0000
     58 ****         3.3050   2.5630  -3.3709 LP             1 S1                 0.0000
     59 ****         4.8799   2.1528  -3.2366 LP             1 S1                 0.0000
@<TRIPOS>BOND
    1    1    2 1     
    2    1   26 1     
    3    1   27 1     
    4    1   28 1     
    5    2    3 1     
    6    2   29 1     
    7    2   30 1     
    8    3    8 1     
    9    3    4 1     
   10    3   31 1     
   11    4    5 1     
   12    4   32 1     
   13    4   33 1     
   14    5    6 1     
   15    5   34 1     
   16    5   35 1     
   17    6    7 1     
   18    6    8 1     
   19    6   36 1     
   20    7   37 1     
   21    7   38 1     
   22    7   39 1     
   23    8    9 1     
   24    9   14 ar    
   25    9   10 ar    
   26   10   11 ar    
   27   11   12 ar    
   28   11   40 1     
   29   12   13 ar    
   30   13   17 1     
   31   13   14 ar    
   32   14   15 1     
   33   15   16 2     
   34   16   17 1     
   35   16   41 1     
   36   17   18 1     
   37   18   19 1     
   38   18   42 1     
   39   18   43 1     
   40   19   20 1     
   41   19   21 1     
   42   19   44 1     
   43   20   45 1     
   44   21   25 1     
   45   21   22 1     
   46   21   46 1     
   47   22   23 1     
   48   22   47 1     
   49   22   48 1     
   50   23   24 1     
   51   23   49 1     
   52   23   50 1     
   53   24   25 1     
   54   24   51 1     
   55   24   52 1     
   56   10   53 1     
   57   12   54 1     
   58   15   55 1     
   59   20   56 1     
   60   20   57 1     
   61   25   58 1     
   62   25   59 1     
@<TRIPOS>SUBSTRUCTURE
      1 S1             1
@<TRIPOS>SET
LONE_PAIRS      STATIC     ATOMS    <user>   **** ""
7 53 54 55 56 57 58 59
DONOR_HYDROGENS      STATIC     ATOMS    <user>   **** ""
1 45
ATOM$BLUE        STATIC     ATOMS    COLORGROUP SYSTEM
7 53 54 55 56 57 58 59
ATOM$RED        STATIC     ATOMS    COLORGROUP SYSTEM
1 45
