AV-unprocessed.smi:3327|AV-procd|sdf|12787|dock7
  -GOLD-   2272019133D 1   1.00000     0.00000
 Structure written by MMmdl.
 41 42  0  0  0  0  0  0  0  0  2 V2000
  152.2086  145.2345  158.8910 C   0  0  0  0  0  0  0  0  0  0  0  0
  151.9354  143.7462  159.1484 C   0  0  2  0  0  0  0  0  0  0  0  0
  153.0943  143.0833  159.9251 C   0  0  0  0  0  0  0  0  0  0  0  0
  152.8915  141.5640  160.0804 C   0  0  0  0  0  0  0  0  0  0  0  0
  152.5778  140.9118  158.7227 C   0  0  0  0  0  0  0  0  0  0  0  0
  151.3979  141.5715  158.1480 N   0  0  0  0  0  0  0  0  0  0  0  0
  150.1681  141.0160  158.0235 C   0  0  0  0  0  0  0  0  0  0  0  0
  149.9367  139.8495  158.3475 O   0  0  0  0  0  0  0  0  0  0  0  0
  149.0204  141.8659  157.4564 C   0  0  0  0  0  0  0  0  0  0  0  0
  149.0754  141.9774  155.9843 N   0  3  0  0  0  0  0  0  0  0  0  0
  148.0854  141.1417  155.2761 C   0  0  0  0  0  0  0  0  0  0  0  0
  148.7200  140.4074  154.0824 C   0  0  0  0  0  0  0  0  0  0  0  0
  149.8633  139.5941  154.4612 N   0  0  0  0  0  0  0  0  0  0  0  0
  149.9979  138.2229  154.3936 C   0  0  0  0  0  0  0  0  0  0  0  0
  151.2522  137.9148  154.8366 C   0  0  0  0  0  0  0  0  0  0  0  0
  151.8230  139.1809  155.1451 C   0  0  0  0  0  0  0  0  0  0  0  0
  150.9910  140.1839  154.9146 N   0  0  0  0  0  0  0  0  0  0  0  0
  151.6672  142.9812  157.8347 C   0  0  0  0  0  0  0  0  0  0  0  0
  153.0980  145.3740  158.2758 H   0  0  0  0  0  0  0  0  0  0  0  0
  152.3628  145.7726  159.8268 H   0  0  0  0  0  0  0  0  0  0  0  0
  151.3704  145.7041  158.3753 H   0  0  0  0  0  0  0  0  0  0  0  0
  151.0370  143.6794  159.7642 H   0  0  0  0  0  0  0  0  0  0  0  0
  154.0313  143.2609  159.3952 H   0  0  0  0  0  0  0  0  0  0  0  0
  153.2051  143.5455  160.9066 H   0  0  0  0  0  0  0  0  0  0  0  0
  153.7821  141.1125  160.5181 H   0  0  0  0  0  0  0  0  0  0  0  0
  152.0729  141.3727  160.7754 H   0  0  0  0  0  0  0  0  0  0  0  0
  153.4241  141.0389  158.0458 H   0  0  0  0  0  0  0  0  0  0  0  0
  152.4663  139.8356  158.8444 H   0  0  0  0  0  0  0  0  0  0  0  0
  148.0673  141.4192  157.7427 H   0  0  0  0  0  0  0  0  0  0  0  0
  149.0674  142.8689  157.8828 H   0  0  0  0  0  0  0  0  0  0  0  0
  148.9155  142.9435  155.7353 H   0  0  0  0  0  0  0  0  0  0  0  0
  147.6728  140.4134  155.9752 H   0  0  0  0  0  0  0  0  0  0  0  0
  147.2538  141.7637  154.9421 H   0  0  0  0  0  0  0  0  0  0  0  0
  147.9809  139.7685  153.5971 H   0  0  0  0  0  0  0  0  0  0  0  0
  149.0502  141.1288  153.3337 H   0  0  0  0  0  0  0  0  0  0  0  0
  149.1994  137.5862  154.0414 H   0  0  0  0  0  0  0  0  0  0  0  0
  151.6971  136.9342  154.9219 H   0  0  0  0  0  0  0  0  0  0  0  0
  152.8106  139.3997  155.5241 H   0  0  0  0  0  0  0  0  0  0  0  0
  150.8490  143.4529  157.2887 H   0  0  0  0  0  0  0  0  0  0  0  0
  152.5346  143.0445  157.1756 H   0  0  0  0  0  0  0  0  0  0  0  0
  150.0020  141.7169  155.6780 H   0  0  0  0  0  0  0  0  0  0  0  0
  1  2  1  0  0  0  0
  1 19  1  0  0  0  0
  1 20  1  0  0  0  0
  1 21  1  0  0  0  0
  2 18  1  0  0  0  0
  2  3  1  0  0  0  0
  2 22  1  0  0  0  0
  3  4  1  0  0  0  0
  3 23  1  0  0  0  0
  3 24  1  0  0  0  0
  4  5  1  0  0  0  0
  4 25  1  0  0  0  0
  4 26  1  0  0  0  0
  5  6  1  0  0  0  0
  5 27  1  0  0  0  0
  5 28  1  0  0  0  0
  6  7  1  0  0  0  0
  6 18  1  0  0  0  0
  7  8  2  0  0  0  0
  7  9  1  0  0  0  0
  9 10  1  0  0  0  0
  9 29  1  0  0  0  0
  9 30  1  0  0  0  0
 10 11  1  0  0  0  0
 10 31  1  0  0  0  0
 10 41  1  0  0  0  0
 11 12  1  0  0  0  0
 11 32  1  0  0  0  0
 11 33  1  0  0  0  0
 12 13  1  0  0  0  0
 12 34  1  0  0  0  0
 12 35  1  0  0  0  0
 13 17  1  0  0  0  0
 13 14  1  0  0  0  0
 14 15  2  0  0  0  0
 14 36  1  0  0  0  0
 15 16  1  0  0  0  0
 15 37  1  0  0  0  0
 16 17  2  0  0  0  0
 16 38  1  0  0  0  0
 18 39  1  0  0  0  0
 18 40  1  0  0  0  0
M  CHG  1  10   1
M  END
> <s_m_source_file>
AV-unprocessed.smi

> <i_m_source_file_index>
3327

> <i_lp_mmshare_version>
43012

> <i_f3d_flags>
0

> <s_epik_input>
W0NIM11bQ0BASF0xW0NIMl1bQ0gyXVtDSDJdTihbQ0gyXTEpQyg9TylbQ0gyXVtOSF1bQ0gyXVtDSDJdbjJbY0hdW2NIXVtjSF1uMg==

> <s_epik_cmdline>
J2VwaWtfcHl0aG9uJywgJy1waCcsICc3LjAnLCAnLXRuJywgJzgnLCAnLW1hJywgJzIwMCcsICctbWV0YWxfYmluZGluZycsICctaW1hZScsICc8aW5maWxlLm1hZT4nLCAnLW9tYWUnLCAnPG91dGZpbGUubWFlPic=

> <r_lp_tautomer_probability>
1

> <r_epik_Ionization_Penalty>
0.195801

> <r_epik_Ionization_Penalty_Charging>
0.195799

> <r_epik_Ionization_Penalty_Neutral>
2.33113e-06

> <r_epik_State_Penalty>
0.185548

> <r_epik_Charging_Adjusted_Penalty>
0.381347

> <i_epik_Tot_Q>
1

> <i_epik_Tot_abs_Q>
1

> <r_epik_Metal_State_Penalty>
0.186014

> <b_epik_Metal_Only>
0

> <s_lp_Force_Field>
OPLS_2005

> <r_lp_Energy>
21.5547

> <b_lp_Chiralities_Consistent>
1

> <s_lp_Variant>
AV-unprocessed.smi:3327-1

> <Gold.Version>
5.8.1

> <Gold.Id.Protein>
6NUR|6NUR_protein|mol2

> <Gold.PLP.Fitness>
52.3863

> <Gold.PLP.PLP>
-42.2125

> <Gold.PLP.part.hbond>
-2.0000

> <Gold.PLP.part.metal>
0.0000

> <Gold.PLP.part.buried>
-3.6483

> <Gold.PLP.part.nonpolar>
-36.5178

> <Gold.PLP.part.repulsive>
0.1540

> <Gold.PLP.ligand.clash>
0.0000

> <Gold.PLP.ligand.torsion>
0.9323

> <Gold.PLP.Chemscore.Hbond>
3.0000

> <Gold.PLP.Chemscore.CHOScore>
1.0000

> <Gold.PLP.Chemscore.Metal>
0.0000

> <Gold.Chemscore.Hbonds>
donor molecule, donor type, donor heavy atom, donor atom, acceptor molecule, acceptor atom, score
      L1  H    10    31       P1  8028  2.00
      P1  H  7989  7998       L1    17  1.00
      L1  C    14    36       P1  7948  0.93

> <Gold.PLP.Chemscore.Internal.Correction>
0.0384

> <Gold.Rescore>
     Score         DG    S(hbond)    S(metal)    S(lipo)     H(rot)  DE(clash)    DE(int)     intcor
     16.60     -19.09       1.90        0.00     101.42       1.80       0.15       2.34       ----

> <Gold.Chemscore.Fitness>
16.6014

> <Gold.Chemscore.DG>
-19.0923

> <Gold.Chemscore.ZeroCoef>
-5.4800

> <Gold.Chemscore.Hbond>
1.8996

> <Gold.Chemscore.Metal>
0.0000

> <Gold.Chemscore.Lipo>
101.4199

> <Gold.Chemscore.Internal_Hbond>
0.0000

> <Gold.Chemscore.DEClash>
0.1499

> <Gold.Chemscore.DEInternal>
2.3410

> <Gold.Chemscore.Rot>
1.7963

> <Gold.Chemscore.Internal.Correction>
   9.000000E+99

> <Gold.Chemscore.Hbonds>
donor molecule, donor type, donor heavy atom, donor atom, acceptor molecule, acceptor atom, score
      L1  H    10    31       P1  8028  1.00
      P1  H  7989  7998       L1    17  0.14

> <Gold.Chemscore.Hbond.Weighted>
-6.3446

> <Gold.Chemscore.Metal.Weighted>
-0.0000

> <Gold.Chemscore.Lipo.Weighted>
-11.8661

> <Gold.Chemscore.Internal_Hbond.Weighted>
0.0000

> <Gold.Chemscore.DEClash.Weighted>
0.1499

> <Gold.Chemscore.DEInternal.Weighted>
2.3410

> <Gold.Chemscore.Rot.Weighted>
4.5985

> <Gold.Chemscore.Internal.Correction.Weighted>
   9.000000E+99

> <Gold.Protein.RotatedTorsions>
[ 6907 6896 6895 6894 ] final   42.34 input  -60.11 | X-H torsion
[ 7974 7965 7964 7962 ] final   -1.25 input  175.53 | X-H torsion
[ 8008 7997 7996 7995 ] final -158.17 input   59.86 | X-H torsion
[ 10167 10162 10161 10158 ] final   16.38 input  -65.29 | X-H torsion
[ 10718 10713 10712 10709 ] final  -90.30 input   66.30 | X-H torsion
[ 10763 10752 10751 10750 ] final  -25.07 input  -60.55 | X-H torsion
[ 11005 11000 10999 10996 ] final  143.93 input  -57.11 | X-H torsion

> <Gold.Protein.ActiveResidues>
 VAL166  LYS551  ARG553  GLY616  TRP617  ASP618  TYR619  PRO620  LYS621  CYS622 
 ASP623  PHE694  ASN695  SER759  ASP760  ASP761  ALA762  ILE779  LEU786  VAL792 
 PHE793  MET794  SER795  GLU796  ALA797  LYS798  CYS799  TRP800  GLU811  SER814 

> <Gold.Protein.RotatedAtoms>
  152.2067  134.8539  160.0501 H   0  0  0  0  0  0  0  0  0  0  0  0  # atno 6907 bound_to 6896
  151.9373  133.3623  159.3960 H   0  0  0  0  0  0  0  0  0  0  0  0  # atno 6908 bound_to 6896
  150.6967  134.4400  159.5332 H   0  0  0  0  0  0  0  0  0  0  0  0  # atno 6909 bound_to 6896
  146.2419  140.1393  142.8336 H   0  0  0  0  0  0  0  0  0  0  0  0  # atno 7974 bound_to 7965
  155.7435  140.0817  157.2234 H   0  0  0  0  0  0  0  0  0  0  0  0  # atno 8008 bound_to 7997
  154.4019  140.1573  156.2699 H   0  0  0  0  0  0  0  0  0  0  0  0  # atno 8009 bound_to 7997
  155.8997  140.3410  155.6020 H   0  0  0  0  0  0  0  0  0  0  0  0  # atno 8010 bound_to 7997
  140.5801  143.8996  150.6783 H   0  0  0  0  0  0  0  0  0  0  0  0  # atno 10167 bound_to 10162
  155.9987  130.4904  150.5301 H   0  0  0  0  0  0  0  0  0  0  0  0  # atno 10718 bound_to 10713
  153.6939  135.6960  153.5082 H   0  0  0  0  0  0  0  0  0  0  0  0  # atno 10763 bound_to 10752
  153.2393  135.4311  155.0679 H   0  0  0  0  0  0  0  0  0  0  0  0  # atno 10764 bound_to 10752
  154.8364  135.3503  154.6480 H   0  0  0  0  0  0  0  0  0  0  0  0  # atno 10765 bound_to 10752
  140.0593  134.9213  157.1155 H   0  0  0  0  0  0  0  0  0  0  0  0  # atno 11005 bound_to 11000
  145.0260  140.8832  143.5138 LP  0  0  0  0  0  0  0  0  0  0  0  0  # atno 17320 bound_to 7965
  145.1449  139.2549  143.5471 LP  0  0  0  0  0  0  0  0  0  0  0  0  # atno 17321 bound_to 7965
  140.2493  143.3605  152.1419 LP  0  0  0  0  0  0  0  0  0  0  0  0  # atno 17342 bound_to 10162
  139.5165  144.6978  151.5579 LP  0  0  0  0  0  0  0  0  0  0  0  0  # atno 17343 bound_to 10162
  157.3251  131.0689  151.1902 LP  0  0  0  0  0  0  0  0  0  0  0  0  # atno 17370 bound_to 10713
  157.2802  130.6746  149.6062 LP  0  0  0  0  0  0  0  0  0  0  0  0  # atno 17371 bound_to 10713
  140.3796  134.2302  155.7172 LP  0  0  0  0  0  0  0  0  0  0  0  0  # atno 17394 bound_to 11000
  141.1966  133.8079  157.0665 LP  0  0  0  0  0  0  0  0  0  0  0  0  # atno 17395 bound_to 11000

$$$$
