AV-unprocessed.smi:2076|AV-procd|sdf|8460|dock7
  -GOLD-   2272011163D 1   1.00000     0.00000
 Structure written by MMmdl.
 45 46  0  0  0  0  0  0  0  0  2 V2000
  152.4755  139.1821  159.8876 C   0  0  0  0  0  0  0  0  0  0  0  0
  152.4283  140.4447  159.0790 C   0  0  0  0  0  0  0  0  0  0  0  0
  153.0022  141.7095  159.3868 C   0  0  0  0  0  0  0  0  0  0  0  0
  152.6657  142.5008  158.3249 C   0  0  0  0  0  0  0  0  0  0  0  0
  152.9763  143.9371  158.0578 C   0  0  0  0  0  0  0  0  0  0  0  0
  151.9322  141.7138  157.4548 N   0  0  0  0  0  0  0  0  0  0  0  0
  151.3455  142.0663  156.1714 C   0  0  0  0  0  0  0  0  0  0  0  0
  150.5743  140.8874  155.5762 C   0  0  0  0  0  0  0  0  0  0  0  0
  151.1299  139.7994  155.4289 O   0  0  0  0  0  0  0  0  0  0  0  0
  149.2965  141.1192  155.2356 N   0  0  0  0  0  0  0  0  0  0  0  0
  148.3637  140.1261  154.7082 C   0  0  0  0  0  0  0  0  0  0  0  0
  147.0110  140.7328  154.2387 C   0  0  1  0  0  0  0  0  0  0  0  0
  147.2468  142.0006  153.3805 C   0  0  0  0  0  0  0  0  0  0  0  0
  146.1636  139.7249  153.5143 N   0  3  0  0  0  0  0  0  0  0  0  0
  146.8931  138.9736  152.4531 C   0  0  0  0  0  0  0  0  0  0  0  0
  145.9808  137.9577  151.7452 C   0  0  0  0  0  0  0  0  0  0  0  0
  145.4253  137.0658  152.6972 O   0  0  0  0  0  0  0  0  0  0  0  0
  144.6138  137.7577  153.6319 C   0  0  0  0  0  0  0  0  0  0  0  0
  145.4703  138.7638  154.4189 C   0  0  0  0  0  0  0  0  0  0  0  0
  151.7898  140.4533  157.9203 N   0  0  0  0  0  0  0  0  0  0  0  0
  152.9364  139.3547  160.8603 H   0  0  0  0  0  0  0  0  0  0  0  0
  153.0553  138.4122  159.3779 H   0  0  0  0  0  0  0  0  0  0  0  0
  151.4743  138.7873  160.0612 H   0  0  0  0  0  0  0  0  0  0  0  0
  153.5755  141.9931  160.2570 H   0  0  0  0  0  0  0  0  0  0  0  0
  153.5950  144.3557  158.8517 H   0  0  0  0  0  0  0  0  0  0  0  0
  152.0620  144.5277  157.9987 H   0  0  0  0  0  0  0  0  0  0  0  0
  153.5170  144.0513  157.1183 H   0  0  0  0  0  0  0  0  0  0  0  0
  150.6811  142.9230  156.2973 H   0  0  0  0  0  0  0  0  0  0  0  0
  152.1373  142.3792  155.4901 H   0  0  0  0  0  0  0  0  0  0  0  0
  148.9317  142.0478  155.3943 H   0  0  0  0  0  0  0  0  0  0  0  0
  148.8188  139.5463  153.9034 H   0  0  0  0  0  0  0  0  0  0  0  0
  148.2136  139.4367  155.5371 H   0  0  0  0  0  0  0  0  0  0  0  0
  146.4617  141.0393  155.1305 H   0  0  0  0  0  0  0  0  0  0  0  0
  147.8986  142.7180  153.8765 H   0  0  0  0  0  0  0  0  0  0  0  0
  146.3270  142.5505  153.1879 H   0  0  0  0  0  0  0  0  0  0  0  0
  147.7032  141.7509  152.4221 H   0  0  0  0  0  0  0  0  0  0  0  0
  147.2704  139.6450  151.6844 H   0  0  0  0  0  0  0  0  0  0  0  0
  147.7517  138.4622  152.8910 H   0  0  0  0  0  0  0  0  0  0  0  0
  145.1880  138.4639  151.1918 H   0  0  0  0  0  0  0  0  0  0  0  0
  146.5556  137.3823  151.0190 H   0  0  0  0  0  0  0  0  0  0  0  0
  143.7904  138.2600  153.1212 H   0  0  0  0  0  0  0  0  0  0  0  0
  144.1680  137.0329  154.3133 H   0  0  0  0  0  0  0  0  0  0  0  0
  146.2084  138.2328  155.0222 H   0  0  0  0  0  0  0  0  0  0  0  0
  144.8017  139.2809  155.1043 H   0  0  0  0  0  0  0  0  0  0  0  0
  145.4377  140.2471  153.0443 H   0  0  0  0  0  0  0  0  0  0  0  0
  1  2  1  0  0  0  0
  1 21  1  0  0  0  0
  1 22  1  0  0  0  0
  1 23  1  0  0  0  0
  2 20  2  0  0  0  0
  2  3  1  0  0  0  0
  3  4  2  0  0  0  0
  3 24  1  0  0  0  0
  4  5  1  0  0  0  0
  4  6  1  0  0  0  0
  5 25  1  0  0  0  0
  5 26  1  0  0  0  0
  5 27  1  0  0  0  0
  6  7  1  0  0  0  0
  6 20  1  0  0  0  0
  7  8  1  0  0  0  0
  7 28  1  0  0  0  0
  7 29  1  0  0  0  0
  8  9  2  0  0  0  0
  8 10  1  0  0  0  0
 10 11  1  0  0  0  0
 10 30  1  0  0  0  0
 11 12  1  0  0  0  0
 11 31  1  0  0  0  0
 11 32  1  0  0  0  0
 12 13  1  0  0  0  0
 12 14  1  0  0  0  0
 12 33  1  0  0  0  0
 13 34  1  0  0  0  0
 13 35  1  0  0  0  0
 13 36  1  0  0  0  0
 14 19  1  0  0  0  0
 14 15  1  0  0  0  0
 14 45  1  0  0  0  0
 15 16  1  0  0  0  0
 15 37  1  0  0  0  0
 15 38  1  0  0  0  0
 16 17  1  0  0  0  0
 16 39  1  0  0  0  0
 16 40  1  0  0  0  0
 17 18  1  0  0  0  0
 18 19  1  0  0  0  0
 18 41  1  0  0  0  0
 18 42  1  0  0  0  0
 19 43  1  0  0  0  0
 19 44  1  0  0  0  0
M  CHG  1  14   1
M  END
> <s_m_source_file>
AV-unprocessed.smi

> <i_m_source_file_index>
2076

> <i_lp_mmshare_version>
43012

> <i_f3d_flags>
0

> <s_epik_input>
W0NIM11jMVtjSF1jKFtDSDNdKW4objEpW0NIMl1DKD1PKVtOSF1bQ0gyXVtDQEhdKFtDSDNdKU4yW0NIMl1bQ0gyXU9bQ0gyXVtDSDJdMg==

> <s_epik_cmdline>
J2VwaWtfcHl0aG9uJywgJy1waCcsICc3LjAnLCAnLXRuJywgJzgnLCAnLW1hJywgJzIwMCcsICctbWV0YWxfYmluZGluZycsICctaW1hZScsICc8aW5maWxlLm1hZT4nLCAnLW9tYWUnLCAnPG91dGZpbGUubWFlPic=

> <r_lp_tautomer_probability>
1

> <r_epik_Ionization_Penalty>
0.748594

> <r_epik_Ionization_Penalty_Charging>
0.748396

> <r_epik_Ionization_Penalty_Neutral>
0.000197403

> <r_epik_State_Penalty>
0.775162

> <r_epik_Charging_Adjusted_Penalty>
1.52356

> <i_epik_Tot_Q>
1

> <i_epik_Tot_abs_Q>
1

> <r_epik_Metal_State_Penalty>
0.77529

> <b_epik_Metal_Only>
0

> <s_lp_Force_Field>
OPLS_2005

> <r_lp_Energy>
19.0856

> <b_lp_Chiralities_Consistent>
1

> <s_lp_Variant>
AV-unprocessed.smi:2076-4

> <Gold.Version>
5.8.1

> <Gold.Id.Protein>
6NUR|6NUR_protein|mol2

> <Gold.PLP.Fitness>
44.4233

> <Gold.PLP.PLP>
-36.1765

> <Gold.PLP.part.hbond>
-2.0000

> <Gold.PLP.part.metal>
0.0000

> <Gold.PLP.part.buried>
-1.8137

> <Gold.PLP.part.nonpolar>
-32.4324

> <Gold.PLP.part.repulsive>
0.3706

> <Gold.PLP.ligand.clash>
0.0000

> <Gold.PLP.ligand.torsion>
0.4155

> <Gold.PLP.Chemscore.Hbond>
3.0000

> <Gold.PLP.Chemscore.CHOScore>
0.0000

> <Gold.PLP.Chemscore.Metal>
0.0000

> <Gold.Chemscore.Hbonds>
donor molecule, donor type, donor heavy atom, donor atom, acceptor molecule, acceptor atom, score
      L1  H    14    45       P1 10175  2.00

> <Gold.PLP.Chemscore.Internal.Correction>
0.0778

> <Gold.Rescore>
     Score         DG    S(hbond)    S(metal)    S(lipo)     H(rot)  DE(clash)    DE(int)     intcor
     13.75     -16.70       1.35        0.00      96.14       1.78       0.32       2.64       ----

> <Gold.Chemscore.Fitness>
13.7472

> <Gold.Chemscore.DG>
-16.6988

> <Gold.Chemscore.ZeroCoef>
-5.4800

> <Gold.Chemscore.Hbond>
1.3525

> <Gold.Chemscore.Metal>
0.0000

> <Gold.Chemscore.Lipo>
96.1361

> <Gold.Chemscore.Internal_Hbond>
0.0000

> <Gold.Chemscore.DEClash>
0.3163

> <Gold.Chemscore.DEInternal>
2.6353

> <Gold.Chemscore.Rot>
1.7760

> <Gold.Chemscore.Internal.Correction>
   9.000000E+99

> <Gold.Chemscore.Hbonds>
donor molecule, donor type, donor heavy atom, donor atom, acceptor molecule, acceptor atom, score
      L1  H    14    45       P1 10175  0.95

> <Gold.Chemscore.Hbond.Weighted>
-4.5173

> <Gold.Chemscore.Metal.Weighted>
-0.0000

> <Gold.Chemscore.Lipo.Weighted>
-11.2479

> <Gold.Chemscore.Internal_Hbond.Weighted>
0.0000

> <Gold.Chemscore.DEClash.Weighted>
0.3163

> <Gold.Chemscore.DEInternal.Weighted>
2.6353

> <Gold.Chemscore.Rot.Weighted>
4.5464

> <Gold.Chemscore.Internal.Correction.Weighted>
   9.000000E+99

> <Gold.Protein.RotatedTorsions>
[ 6907 6896 6895 6894 ] final   64.63 input  -60.11 | X-H torsion
[ 7974 7965 7964 7962 ] final -115.84 input  175.53 | X-H torsion
[ 8008 7997 7996 7995 ] final  -67.72 input   59.86 | X-H torsion
[ 10167 10162 10161 10158 ] final -128.18 input  -65.29 | X-H torsion
[ 10718 10713 10712 10709 ] final -132.36 input   66.30 | X-H torsion
[ 10763 10752 10751 10750 ] final -167.32 input  -60.55 | X-H torsion
[ 11005 11000 10999 10996 ] final  -38.60 input  -57.11 | X-H torsion

> <Gold.Protein.ActiveResidues>
 VAL166  LYS551  ARG553  GLY616  TRP617  ASP618  TYR619  PRO620  LYS621  CYS622 
 ASP623  PHE694  ASN695  SER759  ASP760  ASP761  ALA762  ILE779  LEU786  VAL792 
 PHE793  MET794  SER795  GLU796  ALA797  LYS798  CYS799  TRP800  GLU811  SER814 

> <Gold.Protein.RotatedAtoms>
  152.4346  134.5710  159.9921 H   0  0  0  0  0  0  0  0  0  0  0  0  # atno 6907 bound_to 6896
  151.5824  133.3370  159.3019 H   0  0  0  0  0  0  0  0  0  0  0  0  # atno 6908 bound_to 6896
  150.8243  134.7502  159.6864 H   0  0  0  0  0  0  0  0  0  0  0  0  # atno 6909 bound_to 6896
  145.1037  140.8568  143.3911 H   0  0  0  0  0  0  0  0  0  0  0  0  # atno 7974 bound_to 7965
  154.4819  140.0887  156.7396 H   0  0  0  0  0  0  0  0  0  0  0  0  # atno 8008 bound_to 7997
  155.4449  140.3455  155.4276 H   0  0  0  0  0  0  0  0  0  0  0  0  # atno 8009 bound_to 7997
  156.1203  140.1472  156.9201 H   0  0  0  0  0  0  0  0  0  0  0  0  # atno 8010 bound_to 7997
  139.9530  143.6035  152.2469 H   0  0  0  0  0  0  0  0  0  0  0  0  # atno 10167 bound_to 10162
  156.2338  130.7054  151.0886 H   0  0  0  0  0  0  0  0  0  0  0  0  # atno 10718 bound_to 10713
  154.6743  135.2944  154.9699 H   0  0  0  0  0  0  0  0  0  0  0  0  # atno 10763 bound_to 10752
  154.0715  135.6617  153.4829 H   0  0  0  0  0  0  0  0  0  0  0  0  # atno 10764 bound_to 10752
  153.0506  135.5176  154.7755 H   0  0  0  0  0  0  0  0  0  0  0  0  # atno 10765 bound_to 10752
  141.0040  133.6941  156.2075 H   0  0  0  0  0  0  0  0  0  0  0  0  # atno 11005 bound_to 11000
  145.0926  139.2879  143.5727 LP  0  0  0  0  0  0  0  0  0  0  0  0  # atno 17320 bound_to 7965
  146.3529  140.0468  142.8639 LP  0  0  0  0  0  0  0  0  0  0  0  0  # atno 17321 bound_to 7965
  139.6613  144.7662  151.1957 LP  0  0  0  0  0  0  0  0  0  0  0  0  # atno 17342 bound_to 10162
  140.7577  143.6005  150.8704 LP  0  0  0  0  0  0  0  0  0  0  0  0  # atno 17343 bound_to 10162
  157.7145  131.0717  150.6378 LP  0  0  0  0  0  0  0  0  0  0  0  0  # atno 17370 bound_to 10713
  156.6448  130.4468  149.5740 LP  0  0  0  0  0  0  0  0  0  0  0  0  # atno 17371 bound_to 10713
  140.6843  134.4734  157.5589 LP  0  0  0  0  0  0  0  0  0  0  0  0  # atno 17394 bound_to 11000
  139.9053  134.8462  156.1730 LP  0  0  0  0  0  0  0  0  0  0  0  0  # atno 17395 bound_to 11000

$$$$
