AV-unprocessed.smi:1839|AV-procd|sdf|7484|dock5
  -GOLD-   22720 9183D 1   1.00000     0.00000
 Structure written by MMmdl.
 46 47  0  0  0  0  0  0  0  0  1 V2000
  153.9595  137.4940  157.2245 C   0  0  0  0  0  0  0  0  0  0  0  0
  152.6660  137.9523  156.7174 N   0  0  0  0  0  0  0  0  0  0  0  0
  152.2957  139.3048  157.1517 C   0  0  0  0  0  0  0  0  0  0  0  0
  151.7967  137.0698  156.1648 C   0  0  0  0  0  0  0  0  0  0  0  0
  151.8645  135.8594  156.3886 O   0  0  0  0  0  0  0  0  0  0  0  0
  150.8250  137.6000  155.3845 N   0  0  0  0  0  0  0  0  0  0  0  0
  151.0826  138.6585  154.3970 C   0  0  0  0  0  0  0  0  0  0  0  0
  149.9359  139.6846  154.4278 C   0  0  0  0  0  0  0  0  0  0  0  0
  148.5772  138.9978  154.2044 C   0  0  0  0  0  0  0  0  0  0  0  0
  148.3882  137.8062  155.1685 C   0  0  1  0  0  0  0  0  0  0  0  0
  147.0855  137.0475  154.8876 C   0  0  0  0  0  0  0  0  0  0  0  0
  146.1334  137.1323  155.6636 O   0  0  0  0  0  0  0  0  0  0  0  0
  147.0501  136.3302  153.7546 N   0  0  0  0  0  0  0  0  0  0  0  0
  145.8738  135.6441  153.2309 C   0  0  0  0  0  0  0  0  0  0  0  0
  145.8470  135.5871  151.6886 C   0  0  0  0  0  0  0  0  0  0  0  0
  145.3776  134.2527  151.1294 C   0  0  0  0  0  0  0  0  0  0  0  0
  144.0333  133.8477  151.2715 C   0  0  0  0  0  0  0  0  0  0  0  0
  143.6534  132.5916  150.7600 C   0  0  0  0  0  0  0  0  0  0  0  0
  144.6272  131.7912  150.1314 C   0  0  0  0  0  0  0  0  0  0  0  0
  145.9433  132.2859  150.0390 C   0  0  0  0  0  0  0  0  0  0  0  0
  146.3162  133.4892  150.5243 N   0  0  0  0  0  0  0  0  0  0  0  0
  149.6001  136.8530  155.0811 C   0  0  0  0  0  0  0  0  0  0  0  0
  154.4124  136.7575  156.5585 H   0  0  0  0  0  0  0  0  0  0  0  0
  153.8425  137.0395  158.2090 H   0  0  0  0  0  0  0  0  0  0  0  0
  154.6647  138.3213  157.3135 H   0  0  0  0  0  0  0  0  0  0  0  0
  151.2271  139.3963  157.3518 H   0  0  0  0  0  0  0  0  0  0  0  0
  152.5696  140.0395  156.3947 H   0  0  0  0  0  0  0  0  0  0  0  0
  152.8087  139.5763  158.0752 H   0  0  0  0  0  0  0  0  0  0  0  0
  152.0375  139.1590  154.5587 H   0  0  0  0  0  0  0  0  0  0  0  0
  151.1504  138.2081  153.4056 H   0  0  0  0  0  0  0  0  0  0  0  0
  149.9306  140.2016  155.3878 H   0  0  0  0  0  0  0  0  0  0  0  0
  150.0964  140.4488  153.6669 H   0  0  0  0  0  0  0  0  0  0  0  0
  147.7715  139.7216  154.3318 H   0  0  0  0  0  0  0  0  0  0  0  0
  148.5235  138.6541  153.1701 H   0  0  0  0  0  0  0  0  0  0  0  0
  148.3422  138.2011  156.1854 H   0  0  0  0  0  0  0  0  0  0  0  0
  147.8793  136.3154  153.1787 H   0  0  0  0  0  0  0  0  0  0  0  0
  145.8884  134.6289  153.6283 H   0  0  0  0  0  0  0  0  0  0  0  0
  144.9632  136.1093  153.6107 H   0  0  0  0  0  0  0  0  0  0  0  0
  145.2028  136.3790  151.3053 H   0  0  0  0  0  0  0  0  0  0  0  0
  146.8434  135.7999  151.2979 H   0  0  0  0  0  0  0  0  0  0  0  0
  143.3111  134.4811  151.7655 H   0  0  0  0  0  0  0  0  0  0  0  0
  142.6340  132.2466  150.8513 H   0  0  0  0  0  0  0  0  0  0  0  0
  144.3723  130.8217  149.7298 H   0  0  0  0  0  0  0  0  0  0  0  0
  146.7171  131.7003  149.5651 H   0  0  0  0  0  0  0  0  0  0  0  0
  149.6815  136.4079  154.0877 H   0  0  0  0  0  0  0  0  0  0  0  0
  149.4582  136.0271  155.7809 H   0  0  0  0  0  0  0  0  0  0  0  0
  1  2  1  0  0  0  0
  1 23  1  0  0  0  0
  1 24  1  0  0  0  0
  1 25  1  0  0  0  0
  2  3  1  0  0  0  0
  2  4  1  0  0  0  0
  3 26  1  0  0  0  0
  3 27  1  0  0  0  0
  3 28  1  0  0  0  0
  4  5  2  0  0  0  0
  4  6  1  0  0  0  0
  6 22  1  0  0  0  0
  6  7  1  0  0  0  0
  7  8  1  0  0  0  0
  7 29  1  0  0  0  0
  7 30  1  0  0  0  0
  8  9  1  0  0  0  0
  8 31  1  0  0  0  0
  8 32  1  0  0  0  0
  9 10  1  0  0  0  0
  9 33  1  0  0  0  0
  9 34  1  0  0  0  0
 10 11  1  0  0  0  0
 10 22  1  0  0  0  0
 10 35  1  0  0  0  0
 11 12  2  0  0  0  0
 11 13  1  0  0  0  0
 13 14  1  0  0  0  0
 13 36  1  0  0  0  0
 14 15  1  0  0  0  0
 14 37  1  0  0  0  0
 14 38  1  0  0  0  0
 15 16  1  0  0  0  0
 15 39  1  0  0  0  0
 15 40  1  0  0  0  0
 16 21  1  0  0  0  0
 16 17  2  0  0  0  0
 17 18  1  0  0  0  0
 17 41  1  0  0  0  0
 18 19  2  0  0  0  0
 18 42  1  0  0  0  0
 19 20  1  0  0  0  0
 19 43  1  0  0  0  0
 20 21  2  0  0  0  0
 20 44  1  0  0  0  0
 22 45  1  0  0  0  0
 22 46  1  0  0  0  0
M  END
> <s_m_source_file>
AV-unprocessed.smi

> <i_m_source_file_index>
1839

> <i_lp_mmshare_version>
43012

> <i_f3d_flags>
0

> <s_epik_input>
W0NIM11OKFtDSDNdKUMoPU8pTjFbQ0gyXVtDSDJdW0NIMl1bQ0BIXShbQ0gyXTEpQyg9TylbTkhdW0NIMl1bQ0gyXWMyW2NIXVtjSF1bY0hdW2NIXW4y

> <s_epik_cmdline>
J2VwaWtfcHl0aG9uJywgJy1waCcsICc3LjAnLCAnLXRuJywgJzgnLCAnLW1hJywgJzIwMCcsICctbWV0YWxfYmluZGluZycsICctaW1hZScsICc8aW5maWxlLm1hZT4nLCAnLW9tYWUnLCAnPG91dGZpbGUubWFlPic=

> <r_epik_Ionization_Penalty>
0.0268631

> <r_epik_Ionization_Penalty_Charging>
0

> <r_epik_Ionization_Penalty_Neutral>
0.0268631

> <r_epik_State_Penalty>
0.0219025

> <r_epik_Charging_Adjusted_Penalty>
0.0219025

> <i_epik_Tot_Q>
0

> <i_epik_Tot_abs_Q>
0

> <r_epik_Metal_State_Penalty>
0.0209511

> <b_epik_Metal_Only>
0

> <s_lp_Force_Field>
OPLS_2005

> <r_lp_Energy>
49.2306

> <b_lp_Chiralities_Consistent>
1

> <s_lp_Variant>
AV-unprocessed.smi:1839-1

> <Gold.Version>
5.8.1

> <Gold.Id.Protein>
6NUR|6NUR_protein|mol2

> <Gold.PLP.Fitness>
39.4834

> <Gold.PLP.PLP>
-32.1664

> <Gold.PLP.part.hbond>
-2.0000

> <Gold.PLP.part.metal>
0.0000

> <Gold.PLP.part.buried>
-3.6022

> <Gold.PLP.part.nonpolar>
-27.1124

> <Gold.PLP.part.repulsive>
0.2208

> <Gold.PLP.ligand.clash>
0.0000

> <Gold.PLP.ligand.torsion>
1.5041

> <Gold.PLP.Chemscore.Hbond>
2.0000

> <Gold.PLP.Chemscore.CHOScore>
1.0000

> <Gold.PLP.Chemscore.Metal>
0.0000

> <Gold.Chemscore.Hbonds>
donor molecule, donor type, donor heavy atom, donor atom, acceptor molecule, acceptor atom, score
      L1  H    13    36       P1  7948  1.00
      P1  H 10752 10765       L1     5  1.00
      L1  C    20    44       P1 10747  1.00

> <Gold.PLP.Chemscore.Internal.Correction>
1.3251

> <Gold.Rescore>
     Score         DG    S(hbond)    S(metal)    S(lipo)     H(rot)  DE(clash)    DE(int)     intcor
     14.77     -17.19       1.71        0.00      84.53       1.52       0.33       2.08       ----

> <Gold.Chemscore.Fitness>
14.7742

> <Gold.Chemscore.DG>
-17.1922

> <Gold.Chemscore.ZeroCoef>
-5.4800

> <Gold.Chemscore.Hbond>
1.7070

> <Gold.Chemscore.Metal>
0.0000

> <Gold.Chemscore.Lipo>
84.5327

> <Gold.Chemscore.Internal_Hbond>
0.0000

> <Gold.Chemscore.DEClash>
0.3334

> <Gold.Chemscore.DEInternal>
2.0846

> <Gold.Chemscore.Rot>
1.5155

> <Gold.Chemscore.Internal.Correction>
   9.000000E+99

> <Gold.Chemscore.Hbonds>
donor molecule, donor type, donor heavy atom, donor atom, acceptor molecule, acceptor atom, score
      L1  H    13    36       P1  7948  1.00
      P1  H 10752 10765       L1     5  0.25

> <Gold.Chemscore.Hbond.Weighted>
-5.7015

> <Gold.Chemscore.Metal.Weighted>
-0.0000

> <Gold.Chemscore.Lipo.Weighted>
-9.8903

> <Gold.Chemscore.Internal_Hbond.Weighted>
0.0000

> <Gold.Chemscore.DEClash.Weighted>
0.3334

> <Gold.Chemscore.DEInternal.Weighted>
2.0846

> <Gold.Chemscore.Rot.Weighted>
3.8796

> <Gold.Chemscore.Internal.Correction.Weighted>
   9.000000E+99

> <Gold.Protein.RotatedTorsions>
[ 6907 6896 6895 6894 ] final -141.05 input  -60.11 | X-H torsion
[ 7974 7965 7964 7962 ] final  144.98 input  175.53 | X-H torsion
[ 8008 7997 7996 7995 ] final  -90.87 input   59.86 | X-H torsion
[ 10167 10162 10161 10158 ] final -115.95 input  -65.29 | X-H torsion
[ 10718 10713 10712 10709 ] final -102.25 input   66.30 | X-H torsion
[ 10763 10752 10751 10750 ] final -131.10 input  -60.55 | X-H torsion
[ 11005 11000 10999 10996 ] final  107.81 input  -57.11 | X-H torsion

> <Gold.Protein.ActiveResidues>
 VAL166  LYS551  ARG553  GLY616  TRP617  ASP618  TYR619  PRO620  LYS621  CYS622 
 ASP623  PHE694  ASN695  SER759  ASP760  ASP761  ALA762  ILE779  LEU786  VAL792 
 PHE793  MET794  SER795  GLU796  ALA797  LYS798  CYS799  TRP800  GLU811  SER814 

> <Gold.Protein.RotatedAtoms>
  151.0687  133.5484  159.2628 H   0  0  0  0  0  0  0  0  0  0  0  0  # atno 6907 bound_to 6896
  151.2431  135.0595  159.9043 H   0  0  0  0  0  0  0  0  0  0  0  0  # atno 6908 bound_to 6896
  152.5408  134.0459  159.8142 H   0  0  0  0  0  0  0  0  0  0  0  0  # atno 6909 bound_to 6896
  144.8790  139.5728  143.5851 H   0  0  0  0  0  0  0  0  0  0  0  0  # atno 7974 bound_to 7965
  154.7038  140.0525  157.0484 H   0  0  0  0  0  0  0  0  0  0  0  0  # atno 8008 bound_to 7997
  155.0648  140.3193  155.4630 H   0  0  0  0  0  0  0  0  0  0  0  0  # atno 8009 bound_to 7997
  156.2768  140.2092  156.5776 H   0  0  0  0  0  0  0  0  0  0  0  0  # atno 8010 bound_to 7997
  140.0845  143.4756  152.1906 H   0  0  0  0  0  0  0  0  0  0  0  0  # atno 10167 bound_to 10162
  156.0222  130.5411  150.7081 H   0  0  0  0  0  0  0  0  0  0  0  0  # atno 10718 bound_to 10713
  154.8752  135.3841  154.4191 H   0  0  0  0  0  0  0  0  0  0  0  0  # atno 10763 bound_to 10752
  153.4897  135.7030  153.5896 H   0  0  0  0  0  0  0  0  0  0  0  0  # atno 10764 bound_to 10752
  153.4276  135.3886  155.2117 H   0  0  0  0  0  0  0  0  0  0  0  0  # atno 10765 bound_to 10752
  139.8834  134.9412  156.5877 H   0  0  0  0  0  0  0  0  0  0  0  0  # atno 11005 bound_to 11000
  146.2982  139.7343  142.9111 LP  0  0  0  0  0  0  0  0  0  0  0  0  # atno 17320 bound_to 7965
  145.3989  141.0382  143.3082 LP  0  0  0  0  0  0  0  0  0  0  0  0  # atno 17321 bound_to 7965
  139.5760  144.7487  151.3764 LP  0  0  0  0  0  0  0  0  0  0  0  0  # atno 17342 bound_to 10162
  140.7060  143.7512  150.7483 LP  0  0  0  0  0  0  0  0  0  0  0  0  # atno 17343 bound_to 10162
  157.4726  131.0894  151.0626 LP  0  0  0  0  0  0  0  0  0  0  0  0  # atno 17370 bound_to 10713
  157.1082  130.6010  149.5476 LP  0  0  0  0  0  0  0  0  0  0  0  0  # atno 17371 bound_to 10713
  140.7979  133.8529  155.8702 LP  0  0  0  0  0  0  0  0  0  0  0  0  # atno 17394 bound_to 11000
  140.9619  134.1645  157.4647 LP  0  0  0  0  0  0  0  0  0  0  0  0  # atno 17395 bound_to 11000

$$$$
