AV-unprocessed.smi:33|AV-procd|sdf|213|dock6
  -GOLD-   2262015523D 1   1.00000     0.00000
 Structure written by MMmdl.
 67 72  0  0  0  0  0  0  0  0  1 V2000
  151.1105  139.9994  157.9891 O   0  0  0  0  0  0  0  0  0  0  0  0
  151.1177  141.2309  157.9322 C   0  0  0  0  0  0  0  0  0  0  0  0
  150.7518  141.9317  156.8405 O   0  0  0  0  0  0  0  0  0  0  0  0
  150.2231  141.2650  155.7054 C   0  0  0  0  0  0  0  0  0  0  0  0
  148.6926  141.3875  155.7177 C   0  0  2  0  0  0  0  0  0  0  0  0
  148.1388  140.1968  156.2833 O   0  0  0  0  0  0  0  0  0  0  0  0
  147.4052  139.4860  155.3332 C   0  0  2  0  0  0  0  0  0  0  0  0
  147.6937  138.0206  155.4512 N   0  0  0  0  0  0  0  0  0  0  0  0
  146.7725  137.0016  155.5517 C   0  0  0  0  0  0  0  0  0  0  0  0
  147.2715  135.7978  155.6285 N   0  0  0  0  0  0  0  0  0  0  0  0
  148.6441  136.0013  155.5786 C   0  0  0  0  0  0  0  0  0  0  0  0
  149.7718  135.1368  155.6095 C   0  0  0  0  0  0  0  0  0  0  0  0
  149.6629  133.7898  155.6950 N   0  0  0  0  0  0  0  0  0  0  0  0
  150.0244  133.1713  156.9790 C   0  0  0  0  0  0  0  0  0  0  0  0
  149.9552  133.8354  158.0150 O   0  0  0  0  0  0  0  0  0  0  0  0
  150.4340  131.7269  157.0407 C   0  0  0  0  0  0  0  0  0  0  0  0
  150.1084  130.9471  158.1721 C   0  0  0  0  0  0  0  0  0  0  0  0
  150.5032  129.5970  158.2414 C   0  0  0  0  0  0  0  0  0  0  0  0
  151.2429  129.0238  157.1896 C   0  0  0  0  0  0  0  0  0  0  0  0
  151.5959  129.8035  156.0720 C   0  0  0  0  0  0  0  0  0  0  0  0
  151.1998  131.1530  156.0009 C   0  0  0  0  0  0  0  0  0  0  0  0
  149.1913  133.0727  154.5011 C   0  0  0  0  0  0  0  0  0  0  0  0
  149.3497  133.5771  153.3878 O   0  0  0  0  0  0  0  0  0  0  0  0
  148.5741  131.7079  154.6238 C   0  0  0  0  0  0  0  0  0  0  0  0
  148.7985  130.7390  153.6214 C   0  0  0  0  0  0  0  0  0  0  0  0
  148.2119  129.4625  153.7231 C   0  0  0  0  0  0  0  0  0  0  0  0
  147.3834  129.1528  154.8183 C   0  0  0  0  0  0  0  0  0  0  0  0
  147.1333  130.1231  155.8070 C   0  0  0  0  0  0  0  0  0  0  0  0
  147.7186  131.3999  155.7057 C   0  0  0  0  0  0  0  0  0  0  0  0
  151.0075  135.6965  155.5438 N   0  0  0  0  0  0  0  0  0  0  0  0
  151.1295  137.0234  155.4497 C   0  0  0  0  0  0  0  0  0  0  0  0
  150.1678  137.9476  155.4055 N   0  0  0  0  0  0  0  0  0  0  0  0
  148.9239  137.3918  155.4741 C   0  0  0  0  0  0  0  0  0  0  0  0
  147.7551  140.0550  153.9530 C   0  0  2  0  0  0  0  0  0  0  0  0
  148.8310  139.3973  153.3076 O   0  0  0  0  0  0  0  0  0  0  0  0
  148.1047  141.4881  154.3049 C   0  0  1  0  0  0  0  0  0  0  0  0
  146.9869  142.2162  154.3406 F   0  0  0  0  0  0  0  0  0  0  0  0
  151.5270  142.1032  159.0703 C   0  0  0  0  0  0  0  0  0  0  0  0
  151.7316  143.4848  158.8460 C   0  0  0  0  0  0  0  0  0  0  0  0
  152.1165  144.3337  159.9019 C   0  0  0  0  0  0  0  0  0  0  0  0
  152.3017  143.8113  161.1953 C   0  0  0  0  0  0  0  0  0  0  0  0
  152.1034  142.4384  161.4311 C   0  0  0  0  0  0  0  0  0  0  0  0
  151.7193  141.5877  160.3762 C   0  0  0  0  0  0  0  0  0  0  0  0
  150.6310  141.7311  154.8082 H   0  0  0  0  0  0  0  0  0  0  0  0
  150.5189  140.2160  155.6862 H   0  0  0  0  0  0  0  0  0  0  0  0
  148.4038  142.2541  156.3140 H   0  0  0  0  0  0  0  0  0  0  0  0
  146.3439  139.5822  155.5667 H   0  0  0  0  0  0  0  0  0  0  0  0
  145.7071  137.1813  155.5603 H   0  0  0  0  0  0  0  0  0  0  0  0
  149.5415  131.3766  158.9856 H   0  0  0  0  0  0  0  0  0  0  0  0
  150.2395  129.0013  159.1027 H   0  0  0  0  0  0  0  0  0  0  0  0
  151.5456  127.9884  157.2434 H   0  0  0  0  0  0  0  0  0  0  0  0
  152.1720  129.3675  155.2691 H   0  0  0  0  0  0  0  0  0  0  0  0
  151.4802  131.7431  155.1402 H   0  0  0  0  0  0  0  0  0  0  0  0
  149.4334  130.9656  152.7770 H   0  0  0  0  0  0  0  0  0  0  0  0
  148.3975  128.7214  152.9598 H   0  0  0  0  0  0  0  0  0  0  0  0
  146.9340  128.1738  154.8961 H   0  0  0  0  0  0  0  0  0  0  0  0
  146.4911  129.8886  156.6428 H   0  0  0  0  0  0  0  0  0  0  0  0
  147.5142  132.1382  156.4676 H   0  0  0  0  0  0  0  0  0  0  0  0
  152.1408  137.3996  155.4009 H   0  0  0  0  0  0  0  0  0  0  0  0
  146.8834  139.9911  153.3009 H   0  0  0  0  0  0  0  0  0  0  0  0
  149.3567  140.0466  152.8655 H   0  0  0  0  0  0  0  0  0  0  0  0
  148.7686  141.9683  153.5848 H   0  0  0  0  0  0  0  0  0  0  0  0
  151.5961  143.9083  157.8612 H   0  0  0  0  0  0  0  0  0  0  0  0
  152.2696  145.3868  159.7185 H   0  0  0  0  0  0  0  0  0  0  0  0
  152.5963  144.4625  162.0050 H   0  0  0  0  0  0  0  0  0  0  0  0
  152.2462  142.0359  162.4231 H   0  0  0  0  0  0  0  0  0  0  0  0
  151.5767  140.5388  160.5913 H   0  0  0  0  0  0  0  0  0  0  0  0
  1  2  2  0  0  0  0
  2  3  1  0  0  0  0
  2 38  1  0  0  0  0
  3  4  1  0  0  0  0
  4  5  1  0  0  0  0
  4 44  1  0  0  0  0
  4 45  1  0  0  0  0
  5 36  1  0  0  0  0
  5  6  1  0  0  0  0
  5 46  1  0  0  0  0
  6  7  1  0  0  0  0
  7  8  1  0  0  0  0
  7 34  1  0  0  0  0
  7 47  1  0  0  0  0
  8 33  1  0  0  0  0
  8  9  1  0  0  0  0
  9 10  2  0  0  0  0
  9 48  1  0  0  0  0
 10 11  1  0  0  0  0
 11 33  2  0  0  0  0
 11 12  1  0  0  0  0
 12 13  1  0  0  0  0
 12 30  2  0  0  0  0
 13 14  1  0  0  0  0
 13 22  1  0  0  0  0
 14 15  2  0  0  0  0
 14 16  1  0  0  0  0
 16 21  1  0  0  0  0
 16 17  2  0  0  0  0
 17 18  1  0  0  0  0
 17 49  1  0  0  0  0
 18 19  2  0  0  0  0
 18 50  1  0  0  0  0
 19 20  1  0  0  0  0
 19 51  1  0  0  0  0
 20 21  2  0  0  0  0
 20 52  1  0  0  0  0
 21 53  1  0  0  0  0
 22 23  2  0  0  0  0
 22 24  1  0  0  0  0
 24 29  1  0  0  0  0
 24 25  2  0  0  0  0
 25 26  1  0  0  0  0
 25 54  1  0  0  0  0
 26 27  2  0  0  0  0
 26 55  1  0  0  0  0
 27 28  1  0  0  0  0
 27 56  1  0  0  0  0
 28 29  2  0  0  0  0
 28 57  1  0  0  0  0
 29 58  1  0  0  0  0
 30 31  1  0  0  0  0
 31 32  2  0  0  0  0
 31 59  1  0  0  0  0
 32 33  1  0  0  0  0
 34 35  1  0  0  0  0
 34 36  1  0  0  0  0
 34 60  1  0  0  0  0
 35 61  1  0  0  0  0
 36 37  1  0  0  0  0
 36 62  1  0  0  0  0
 38 43  1  0  0  0  0
 38 39  2  0  0  0  0
 39 40  1  0  0  0  0
 39 63  1  0  0  0  0
 40 41  2  0  0  0  0
 40 64  1  0  0  0  0
 41 42  1  0  0  0  0
 41 65  1  0  0  0  0
 42 43  2  0  0  0  0
 42 66  1  0  0  0  0
 43 67  1  0  0  0  0
M  END
> <s_m_source_file>
AV-unprocessed.smi

> <i_m_source_file_index>
33

> <i_lp_mmshare_version>
43012

> <i_f3d_flags>
0

> <s_epik_input>
W2NIXTFbY0hdW2NIXVtjSF1bY0hdYzFDKD1PKU9bQ0gyXVtDQEBIXTJPW0NASF0oW0NAQEhdKFtPSF0pW0NAQEhdMkYpbihbY0hdbjMpYyhjMzQpbltjSF1uYzROKEMoPU8pYzVbY0hdW2NIXVtjSF1bY0hdW2NIXTUpQyg9TyljNltjSF1bY0hdW2NIXVtjSF1bY0hdNg==

> <s_epik_cmdline>
J2VwaWtfcHl0aG9uJywgJy1waCcsICc3LjAnLCAnLXRuJywgJzgnLCAnLW1hJywgJzIwMCcsICctbWV0YWxfYmluZGluZycsICctaW1hZScsICc8aW5maWxlLm1hZT4nLCAnLW9tYWUnLCAnPG91dGZpbGUubWFlPic=

> <r_lp_tautomer_probability>
1

> <r_epik_Ionization_Penalty>
0.00067664

> <r_epik_Ionization_Penalty_Charging>
0

> <r_epik_Ionization_Penalty_Neutral>
0.00067664

> <r_epik_State_Penalty>
0.000428095

> <r_epik_Charging_Adjusted_Penalty>
0.000428095

> <i_epik_Tot_Q>
0

> <i_epik_Tot_abs_Q>
0

> <r_epik_Metal_State_Penalty>
-0

> <b_epik_Metal_Only>
0

> <s_epik_Chemistry_Notes>
This compound has an ester and may undergo hydrolysis at high or low pH. This compound contains an acetal/aminal-like group ( X-CH(R)-Y where X, Y are N, S, or O) that may be acid/base labile, releasing an aldehyde.

> <s_lp_Force_Field>
OPLS_2005

> <r_lp_Energy>
74.9187

> <b_lp_Chiralities_Consistent>
1

> <s_lp_Variant>
AV-unprocessed.smi:33-15

> <Gold.Version>
5.8.1

> <Gold.Id.Protein>
6NUR|6NUR_protein|mol2

> <Gold.PLP.Fitness>
64.9064

> <Gold.PLP.PLP>
-61.9028

> <Gold.PLP.part.hbond>
-2.7637

> <Gold.PLP.part.metal>
0.0000

> <Gold.PLP.part.buried>
-8.1175

> <Gold.PLP.part.nonpolar>
-52.4347

> <Gold.PLP.part.repulsive>
1.6856

> <Gold.PLP.ligand.clash>
1.5311

> <Gold.PLP.ligand.torsion>
3.8419

> <Gold.PLP.Chemscore.Hbond>
2.4360

> <Gold.PLP.Chemscore.CHOScore>
0.0000

> <Gold.PLP.Chemscore.Metal>
0.0000

> <Gold.Chemscore.Hbonds>
donor molecule, donor type, donor heavy atom, donor atom, acceptor molecule, acceptor atom, score
      L1  H    35    61       P1  7957  0.46
      P1  H  6896  6909       L1    15  0.93
      P1  H 10752 10763       L1    30  0.31

> <Gold.PLP.Chemscore.Internal.Correction>
4.9105

> <Gold.Rescore>
     Score         DG    S(hbond)    S(metal)    S(lipo)     H(rot)  DE(clash)    DE(int)     intcor
     14.15     -20.75       1.62        0.00     139.52       2.52       0.42       6.18       ----

> <Gold.Chemscore.Fitness>
14.1479

> <Gold.Chemscore.DG>
-20.7470

> <Gold.Chemscore.ZeroCoef>
-5.4800

> <Gold.Chemscore.Hbond>
1.6187

> <Gold.Chemscore.Metal>
0.0000

> <Gold.Chemscore.Lipo>
139.5206

> <Gold.Chemscore.Internal_Hbond>
0.0000

> <Gold.Chemscore.DEClash>
0.4235

> <Gold.Chemscore.DEInternal>
6.1756

> <Gold.Chemscore.Rot>
2.5247

> <Gold.Chemscore.Internal.Correction>
   9.000000E+99

> <Gold.Chemscore.Hbonds>
donor molecule, donor type, donor heavy atom, donor atom, acceptor molecule, acceptor atom, score
      L1  H    35    61       P1  7957  0.46
      P1  H  6896  6909       L1    15  0.86
      P1  H 10752 10763       L1    30  0.01

> <Gold.Chemscore.Hbond.Weighted>
-5.4064

> <Gold.Chemscore.Metal.Weighted>
-0.0000

> <Gold.Chemscore.Lipo.Weighted>
-16.3239

> <Gold.Chemscore.Internal_Hbond.Weighted>
0.0000

> <Gold.Chemscore.DEClash.Weighted>
0.4235

> <Gold.Chemscore.DEInternal.Weighted>
6.1756

> <Gold.Chemscore.Rot.Weighted>
6.4633

> <Gold.Chemscore.Internal.Correction.Weighted>
   9.000000E+99

> <Gold.Protein.RotatedTorsions>
[ 6907 6896 6895 6894 ] final  -12.15 input  -60.11 | X-H torsion
[ 7974 7965 7964 7962 ] final   63.59 input  175.53 | X-H torsion
[ 8008 7997 7996 7995 ] final  -30.63 input   59.86 | X-H torsion
[ 10167 10162 10161 10158 ] final -122.71 input  -65.29 | X-H torsion
[ 10718 10713 10712 10709 ] final  114.66 input   66.30 | X-H torsion
[ 10763 10752 10751 10750 ] final   71.76 input  -60.55 | X-H torsion
[ 11005 11000 10999 10996 ] final -145.43 input  -57.11 | X-H torsion

> <Gold.Protein.ActiveResidues>
 VAL166  LYS551  ARG553  GLY616  TRP617  ASP618  TYR619  PRO620  LYS621  CYS622 
 ASP623  PHE694  ASN695  SER759  ASP760  ASP761  ALA762  ILE779  LEU786  VAL792 
 PHE793  MET794  SER795  GLU796  ALA797  LYS798  CYS799  TRP800  GLU811  SER814 

> <Gold.Protein.RotatedAtoms>
  151.3751  135.0929  159.9477 H   0  0  0  0  0  0  0  0  0  0  0  0  # atno 6907 bound_to 6896
  152.5124  133.9127  159.7506 H   0  0  0  0  0  0  0  0  0  0  0  0  # atno 6908 bound_to 6896
  150.9549  133.6454  159.2794 H   0  0  0  0  0  0  0  0  0  0  0  0  # atno 6909 bound_to 6896
  145.8601  139.3309  143.0824 H   0  0  0  0  0  0  0  0  0  0  0  0  # atno 7974 bound_to 7965
  154.4243  140.1786  156.1438 H   0  0  0  0  0  0  0  0  0  0  0  0  # atno 8008 bound_to 7997
  155.9970  140.3363  155.6784 H   0  0  0  0  0  0  0  0  0  0  0  0  # atno 8009 bound_to 7997
  155.6294  140.0668  157.2644 H   0  0  0  0  0  0  0  0  0  0  0  0  # atno 8010 bound_to 7997
  140.0113  143.5438  152.2261 H   0  0  0  0  0  0  0  0  0  0  0  0  # atno 10167 bound_to 10162
  157.6268  131.1002  150.7218 H   0  0  0  0  0  0  0  0  0  0  0  0  # atno 10718 bound_to 10713
  153.0418  135.5125  154.7642 H   0  0  0  0  0  0  0  0  0  0  0  0  # atno 10763 bound_to 10752
  154.6573  135.2933  154.9913 H   0  0  0  0  0  0  0  0  0  0  0  0  # atno 10764 bound_to 10752
  154.0776  135.6668  153.4886 H   0  0  0  0  0  0  0  0  0  0  0  0  # atno 10765 bound_to 10752
  140.7923  134.2954  157.5009 H   0  0  0  0  0  0  0  0  0  0  0  0  # atno 11005 bound_to 11000
  145.9258  140.9083  143.0381 LP  0  0  0  0  0  0  0  0  0  0  0  0  # atno 17320 bound_to 7965
  144.6727  140.1351  143.7441 LP  0  0  0  0  0  0  0  0  0  0  0  0  # atno 17321 bound_to 7965
  139.6203  144.7627  151.2755 LP  0  0  0  0  0  0  0  0  0  0  0  0  # atno 17342 bound_to 10162
  140.7380  143.6661  150.8122 LP  0  0  0  0  0  0  0  0  0  0  0  0  # atno 17343 bound_to 10162
  156.7565  130.4785  149.5446 LP  0  0  0  0  0  0  0  0  0  0  0  0  # atno 17370 bound_to 10713
  156.1445  130.6267  151.0512 LP  0  0  0  0  0  0  0  0  0  0  0  0  # atno 17371 bound_to 10713
  139.8730  134.9381  156.3707 LP  0  0  0  0  0  0  0  0  0  0  0  0  # atno 17394 bound_to 11000
  140.9377  133.7535  156.0106 LP  0  0  0  0  0  0  0  0  0  0  0  0  # atno 17395 bound_to 11000

$$$$
