AV-unprocessed.smi:1958|AV-procd|sdf|7911|dock9
  -GOLD-   2272010 73D 1   1.00000     0.00000
 Structure written by MMmdl.
 47 48  0  0  0  0  0  0  0  0  3 V2000
  148.3686  141.6879  157.6402 C   0  0  0  0  0  0  0  0  0  0  0  0
  149.3266  142.5648  158.2065 O   0  0  0  0  0  0  0  0  0  0  0  0
  150.3761  142.8762  157.3060 C   0  0  0  0  0  0  0  0  0  0  0  0
  151.3467  143.8498  157.9913 C   0  0  0  0  0  0  0  0  0  0  0  0
  151.9439  143.2591  159.1932 N   0  0  0  0  0  0  0  0  0  0  0  0
  152.5407  142.0284  158.9792 N   0  0  0  0  0  0  0  0  0  0  0  0
  153.1047  141.3944  159.9569 C   0  0  0  0  0  0  0  0  0  0  0  0
  153.7455  140.0570  159.7497 C   0  0  0  0  0  0  0  0  0  0  0  0
  153.5552  139.5226  158.6492 O   0  0  0  0  0  0  0  0  0  0  0  0
  154.4901  139.5373  160.7728 N   0  5  0  0  0  0  0  0  0  0  0  0
  154.2387  138.2595  161.4411 C   0  0  0  0  0  0  0  0  0  0  0  0
  155.4352  137.8647  162.3506 C   0  0  1  0  0  0  0  0  0  0  0  0
  155.6952  138.8477  163.5203 C   0  0  0  0  0  0  0  0  0  0  0  0
  155.3095  136.4438  162.8017 N   0  3  0  0  0  0  0  0  0  0  0  0
  154.1709  136.2161  163.7265 C   0  0  0  0  0  0  0  0  0  0  0  0
  154.2142  134.7837  164.2850 C   0  0  0  0  0  0  0  0  0  0  0  0
  154.2125  133.8468  163.2150 O   0  0  0  0  0  0  0  0  0  0  0  0
  155.3456  134.0014  162.3692 C   0  0  0  0  0  0  0  0  0  0  0  0
  155.3228  135.4019  161.7366 C   0  0  0  0  0  0  0  0  0  0  0  0
  153.1236  141.9687  161.2953 C   0  0  0  0  0  0  0  0  0  0  0  0
  152.5423  143.1729  161.4873 C   0  0  0  0  0  0  0  0  0  0  0  0
  151.9004  143.9063  160.3958 C   0  0  0  0  0  0  0  0  0  0  0  0
  151.3708  145.0074  160.5451 O   0  0  0  0  0  0  0  0  0  0  0  0
  147.5890  141.4752  158.3716 H   0  0  0  0  0  0  0  0  0  0  0  0
  148.8241  140.7410  157.3482 H   0  0  0  0  0  0  0  0  0  0  0  0
  147.8953  142.1341  156.7646 H   0  0  0  0  0  0  0  0  0  0  0  0
  150.9014  141.9648  157.0157 H   0  0  0  0  0  0  0  0  0  0  0  0
  149.9657  143.3234  156.3990 H   0  0  0  0  0  0  0  0  0  0  0  0
  152.1260  144.1562  157.2914 H   0  0  0  0  0  0  0  0  0  0  0  0
  150.8152  144.7668  158.2529 H   0  0  0  0  0  0  0  0  0  0  0  0
  153.3321  138.3011  162.0451 H   0  0  0  0  0  0  0  0  0  0  0  0
  154.0621  137.4587  160.7212 H   0  0  0  0  0  0  0  0  0  0  0  0
  156.3188  137.9037  161.7113 H   0  0  0  0  0  0  0  0  0  0  0  0
  155.9437  139.8482  163.1617 H   0  0  0  0  0  0  0  0  0  0  0  0
  156.5411  138.5183  164.1236 H   0  0  0  0  0  0  0  0  0  0  0  0
  154.8367  138.9476  164.1868 H   0  0  0  0  0  0  0  0  0  0  0  0
  154.2109  136.9244  164.5551 H   0  0  0  0  0  0  0  0  0  0  0  0
  153.2300  136.3875  163.2019 H   0  0  0  0  0  0  0  0  0  0  0  0
  155.0967  134.6368  164.9098 H   0  0  0  0  0  0  0  0  0  0  0  0
  153.3446  134.6007  164.9160 H   0  0  0  0  0  0  0  0  0  0  0  0
  156.2651  133.8421  162.9350 H   0  0  0  0  0  0  0  0  0  0  0  0
  155.3126  133.2374  161.5923 H   0  0  0  0  0  0  0  0  0  0  0  0
  154.4380  135.4944  161.1057 H   0  0  0  0  0  0  0  0  0  0  0  0
  156.1924  135.5223  161.0900 H   0  0  0  0  0  0  0  0  0  0  0  0
  153.5891  141.4563  162.1243 H   0  0  0  0  0  0  0  0  0  0  0  0
  152.5504  143.6090  162.4751 H   0  0  0  0  0  0  0  0  0  0  0  0
  156.1366  136.2825  163.3589 H   0  0  0  0  0  0  0  0  0  0  0  0
  1  2  1  0  0  0  0
  1 24  1  0  0  0  0
  1 25  1  0  0  0  0
  1 26  1  0  0  0  0
  2  3  1  0  0  0  0
  3  4  1  0  0  0  0
  3 27  1  0  0  0  0
  3 28  1  0  0  0  0
  4  5  1  0  0  0  0
  4 29  1  0  0  0  0
  4 30  1  0  0  0  0
  5 22  1  0  0  0  0
  5  6  1  0  0  0  0
  6  7  2  0  0  0  0
  7  8  1  0  0  0  0
  7 20  1  0  0  0  0
  8  9  2  0  0  0  0
  8 10  1  0  0  0  0
 10 11  1  0  0  0  0
 11 12  1  0  0  0  0
 11 31  1  0  0  0  0
 11 32  1  0  0  0  0
 12 13  1  0  0  0  0
 12 14  1  0  0  0  0
 12 33  1  0  0  0  0
 13 34  1  0  0  0  0
 13 35  1  0  0  0  0
 13 36  1  0  0  0  0
 14 19  1  0  0  0  0
 14 15  1  0  0  0  0
 14 47  1  0  0  0  0
 15 16  1  0  0  0  0
 15 37  1  0  0  0  0
 15 38  1  0  0  0  0
 16 17  1  0  0  0  0
 16 39  1  0  0  0  0
 16 40  1  0  0  0  0
 17 18  1  0  0  0  0
 18 19  1  0  0  0  0
 18 41  1  0  0  0  0
 18 42  1  0  0  0  0
 19 43  1  0  0  0  0
 19 44  1  0  0  0  0
 20 21  2  0  0  0  0
 20 45  1  0  0  0  0
 21 22  1  0  0  0  0
 21 46  1  0  0  0  0
 22 23  2  0  0  0  0
M  CHG  1  10  -1
M  CHG  1  14   1
M  END
> <s_m_source_file>
AV-unprocessed.smi

> <i_m_source_file_index>
1958

> <i_lp_mmshare_version>
43012

> <i_f3d_flags>
0

> <s_epik_input>
W0NIM11PW0NIMl1bQ0gyXW4xbmMoW2NIXVtjSF1jMT1PKUMoPU8pW05IXVtDSDJdW0NASF0oW0NIM10pTjJbQ0gyXVtDSDJdT1tDSDJdW0NIMl0y

> <s_epik_cmdline>
J2VwaWtfcHl0aG9uJywgJy1waCcsICc3LjAnLCAnLXRuJywgJzgnLCAnLW1hJywgJzIwMCcsICctbWV0YWxfYmluZGluZycsICctaW1hZScsICc8aW5maWxlLm1hZT4nLCAnLW9tYWUnLCAnPG91dGZpbGUubWFlPic=

> <r_lp_tautomer_probability>
1

> <r_epik_Ionization_Penalty>
6.89388

> <r_epik_Ionization_Penalty_Charging>
6.89388

> <r_epik_Ionization_Penalty_Neutral>
1.08445e-11

> <r_epik_State_Penalty>
7.53214

> <r_epik_Charging_Adjusted_Penalty>
14.426

> <i_epik_Tot_Q>
0

> <i_epik_Tot_abs_Q>
2

> <r_epik_Metal_State_Penalty>
3.44743

> <b_epik_Metal_Only>
1

> <s_lp_Force_Field>
OPLS_2005

> <r_lp_Energy>
43.2643

> <b_lp_Chiralities_Consistent>
1

> <s_lp_Variant>
AV-unprocessed.smi:1958-6

> <Gold.Version>
5.8.1

> <Gold.Id.Protein>
6NUR|6NUR_protein|mol2

> <Gold.PLP.Fitness>
47.8781

> <Gold.PLP.PLP>
-46.1936

> <Gold.PLP.part.hbond>
-1.0000

> <Gold.PLP.part.metal>
0.0000

> <Gold.PLP.part.buried>
-6.9860

> <Gold.PLP.part.nonpolar>
-39.1135

> <Gold.PLP.part.repulsive>
0.3525

> <Gold.PLP.ligand.clash>
0.0000

> <Gold.PLP.ligand.torsion>
0.7881

> <Gold.PLP.Chemscore.Hbond>
1.0000

> <Gold.PLP.Chemscore.CHOScore>
0.0000

> <Gold.PLP.Chemscore.Metal>
0.0000

> <Gold.Chemscore.Hbonds>
donor molecule, donor type, donor heavy atom, donor atom, acceptor molecule, acceptor atom, score
      P1  H  7997  8008       L1     9  1.00

> <Gold.PLP.Chemscore.Internal.Correction>
0.2609

> <Gold.Rescore>
     Score         DG    S(hbond)    S(metal)    S(lipo)     H(rot)  DE(clash)    DE(int)     intcor
     14.45     -15.63       1.00        0.00     103.54       2.07       0.00       1.18       ----

> <Gold.Chemscore.Fitness>
14.4484

> <Gold.Chemscore.DG>
-15.6350

> <Gold.Chemscore.ZeroCoef>
-5.4800

> <Gold.Chemscore.Hbond>
0.9981

> <Gold.Chemscore.Metal>
0.0000

> <Gold.Chemscore.Lipo>
103.5363

> <Gold.Chemscore.Internal_Hbond>
0.0000

> <Gold.Chemscore.DEClash>
0.0036

> <Gold.Chemscore.DEInternal>
1.1830

> <Gold.Chemscore.Rot>
2.0673

> <Gold.Chemscore.Internal.Correction>
   9.000000E+99

> <Gold.Chemscore.Hbonds>
donor molecule, donor type, donor heavy atom, donor atom, acceptor molecule, acceptor atom, score
      P1  H  7997  8008       L1     9  0.94

> <Gold.Chemscore.Hbond.Weighted>
-3.3336

> <Gold.Chemscore.Metal.Weighted>
-0.0000

> <Gold.Chemscore.Lipo.Weighted>
-12.1137

> <Gold.Chemscore.Internal_Hbond.Weighted>
0.0000

> <Gold.Chemscore.DEClash.Weighted>
0.0036

> <Gold.Chemscore.DEInternal.Weighted>
1.1830

> <Gold.Chemscore.Rot.Weighted>
5.2923

> <Gold.Chemscore.Internal.Correction.Weighted>
   9.000000E+99

> <Gold.Protein.RotatedTorsions>
[ 6907 6896 6895 6894 ] final -147.19 input  -60.11 | X-H torsion
[ 7974 7965 7964 7962 ] final  -48.72 input  175.53 | X-H torsion
[ 8008 7997 7996 7995 ] final  -95.51 input   59.86 | X-H torsion
[ 10167 10162 10161 10158 ] final  -61.20 input  -65.29 | X-H torsion
[ 10718 10713 10712 10709 ] final  -54.15 input   66.30 | X-H torsion
[ 10763 10752 10751 10750 ] final   46.90 input  -60.55 | X-H torsion
[ 11005 11000 10999 10996 ] final    1.89 input  -57.11 | X-H torsion

> <Gold.Protein.ActiveResidues>
 VAL166  LYS551  ARG553  GLY616  TRP617  ASP618  TYR619  PRO620  LYS621  CYS622 
 ASP623  PHE694  ASN695  SER759  ASP760  ASP761  ALA762  ILE779  LEU786  VAL792 
 PHE793  MET794  SER795  GLU796  ALA797  LYS798  CYS799  TRP800  GLU811  SER814 

> <Gold.Protein.RotatedAtoms>
  151.1522  133.4899  159.2594 H   0  0  0  0  0  0  0  0  0  0  0  0  # atno 6907 bound_to 6896
  151.1541  135.0241  159.8691 H   0  0  0  0  0  0  0  0  0  0  0  0  # atno 6908 bound_to 6896
  152.5463  134.1403  159.8529 H   0  0  0  0  0  0  0  0  0  0  0  0  # atno 6909 bound_to 6896
  145.9482  140.7597  142.9518 H   0  0  0  0  0  0  0  0  0  0  0  0  # atno 7974 bound_to 7965
  154.7624  140.0479  157.0984 H   0  0  0  0  0  0  0  0  0  0  0  0  # atno 8008 bound_to 7997
  154.9922  140.3114  155.4882 H   0  0  0  0  0  0  0  0  0  0  0  0  # atno 8009 bound_to 7997
  156.2906  140.2216  156.5027 H   0  0  0  0  0  0  0  0  0  0  0  0  # atno 8010 bound_to 7997
  140.6022  143.2364  151.5904 H   0  0  0  0  0  0  0  0  0  0  0  0  # atno 10167 bound_to 10162
  156.1475  130.4152  150.0000 H   0  0  0  0  0  0  0  0  0  0  0  0  # atno 10718 bound_to 10713
  152.9805  135.5993  154.3674 H   0  0  0  0  0  0  0  0  0  0  0  0  # atno 10763 bound_to 10752
  154.3351  135.2768  155.2454 H   0  0  0  0  0  0  0  0  0  0  0  0  # atno 10764 bound_to 10752
  154.4560  135.5978  153.6279 H   0  0  0  0  0  0  0  0  0  0  0  0  # atno 10765 bound_to 10752
  140.6104  133.9754  155.8174 H   0  0  0  0  0  0  0  0  0  0  0  0  # atno 11005 bound_to 11000
  144.6791  140.2392  143.7346 LP  0  0  0  0  0  0  0  0  0  0  0  0  # atno 17320 bound_to 7965
  145.8207  139.2042  143.1939 LP  0  0  0  0  0  0  0  0  0  0  0  0  # atno 17321 bound_to 7965
  139.5299  144.2948  152.1123 LP  0  0  0  0  0  0  0  0  0  0  0  0  # atno 17342 bound_to 10162
  140.2130  144.4543  150.6377 LP  0  0  0  0  0  0  0  0  0  0  0  0  # atno 17343 bound_to 10162
  156.7867  130.9241  151.3646 LP  0  0  0  0  0  0  0  0  0  0  0  0  # atno 17370 bound_to 10713
  157.6629  130.8982  149.9868 LP  0  0  0  0  0  0  0  0  0  0  0  0  # atno 17371 bound_to 10713
  141.0812  134.0060  157.3383 LP  0  0  0  0  0  0  0  0  0  0  0  0  # atno 17394 bound_to 11000
  139.9194  135.0199  156.8008 LP  0  0  0  0  0  0  0  0  0  0  0  0  # atno 17395 bound_to 11000

$$$$
