AV-unprocessed.smi:3028|AV-procd|sdf|11524|dock5
  -GOLD-   2272016463D 1   1.00000     0.00000
 Structure written by MMmdl.
 47 48  0  0  0  0  0  0  0  0  1 V2000
  150.5753  142.8054  158.2089 C   0  0  0  0  0  0  0  0  0  0  0  0
  150.5896  141.6007  157.3126 C   0  0  0  0  0  0  0  0  0  0  0  0
  151.1011  140.3032  157.5989 C   0  0  0  0  0  0  0  0  0  0  0  0
  150.9596  139.4608  156.5894 N   0  0  0  0  0  0  0  0  0  0  0  0
  150.3523  140.1859  155.6231 N   0  0  0  0  0  0  0  0  0  0  0  0
  150.0271  139.5753  154.3399 C   0  0  1  0  0  0  0  0  0  0  0  0
  150.5882  138.1410  154.2830 C   0  0  0  0  0  0  0  0  0  0  0  0
  148.5054  139.6435  154.0371 C   0  0  1  0  0  0  0  0  0  0  0  0
  147.9658  141.0817  153.9272 C   0  0  0  0  0  0  0  0  0  0  0  0
  148.2313  138.9903  152.7604 N   0  0  0  0  0  0  0  0  0  0  0  0
  146.7930  138.9336  152.4676 C   0  0  0  0  0  0  0  0  0  0  0  0
  146.2547  137.4984  152.3624 C   0  0  0  0  0  0  0  0  0  0  0  0
  146.3717  136.7197  153.3080 O   0  0  0  0  0  0  0  0  0  0  0  0
  145.6462  137.1116  151.2282 N   0  0  0  0  0  0  0  0  0  0  0  0
  145.0695  135.8023  150.9281 C   0  0  0  0  0  0  0  0  0  0  0  0
  143.9223  135.5033  151.9047 C   0  0  0  0  0  0  0  0  0  0  0  0
  143.3984  134.0717  151.7037 C   0  0  0  0  0  0  0  0  0  0  0  0
  144.4619  133.1377  151.8565 O   0  0  0  0  0  0  0  0  0  0  0  0
  145.4948  133.3094  150.8919 C   0  0  0  0  0  0  0  0  0  0  0  0
  146.1345  134.6987  151.0464 C   0  0  0  0  0  0  0  0  0  0  0  0
  150.1193  141.4818  156.0353 C   0  0  0  0  0  0  0  0  0  0  0  0
  151.1126  142.6244  159.1401 H   0  0  0  0  0  0  0  0  0  0  0  0
  149.5589  143.0951  158.4759 H   0  0  0  0  0  0  0  0  0  0  0  0
  151.0418  143.6676  157.7318 H   0  0  0  0  0  0  0  0  0  0  0  0
  151.5693  139.9508  158.5063 H   0  0  0  0  0  0  0  0  0  0  0  0
  150.5482  140.1604  153.5799 H   0  0  0  0  0  0  0  0  0  0  0  0
  150.4894  137.7130  153.2854 H   0  0  0  0  0  0  0  0  0  0  0  0
  150.0715  137.4804  154.9800 H   0  0  0  0  0  0  0  0  0  0  0  0
  151.6491  138.1260  154.5350 H   0  0  0  0  0  0  0  0  0  0  0  0
  147.9610  139.1552  154.8481 H   0  0  0  0  0  0  0  0  0  0  0  0
  148.0545  141.6188  154.8717 H   0  0  0  0  0  0  0  0  0  0  0  0
  146.9086  141.0849  153.6585 H   0  0  0  0  0  0  0  0  0  0  0  0
  148.5034  141.6522  153.1690 H   0  0  0  0  0  0  0  0  0  0  0  0
  148.6459  138.0692  152.7590 H   0  0  0  0  0  0  0  0  0  0  0  0
  146.2415  139.4525  153.2527 H   0  0  0  0  0  0  0  0  0  0  0  0
  146.6043  139.4568  151.5298 H   0  0  0  0  0  0  0  0  0  0  0  0
  145.5748  137.8028  150.4954 H   0  0  0  0  0  0  0  0  0  0  0  0
  144.6543  135.7914  149.9195 H   0  0  0  0  0  0  0  0  0  0  0  0
  144.2691  135.6159  152.9331 H   0  0  0  0  0  0  0  0  0  0  0  0
  143.1118  136.2202  151.7675 H   0  0  0  0  0  0  0  0  0  0  0  0
  142.6259  133.8487  152.4399 H   0  0  0  0  0  0  0  0  0  0  0  0
  142.9410  133.9595  150.7195 H   0  0  0  0  0  0  0  0  0  0  0  0
  146.2462  132.5333  151.0389 H   0  0  0  0  0  0  0  0  0  0  0  0
  145.0934  133.1768  149.8860 H   0  0  0  0  0  0  0  0  0  0  0  0
  146.9144  134.8328  150.2968 H   0  0  0  0  0  0  0  0  0  0  0  0
  146.6252  134.7595  152.0191 H   0  0  0  0  0  0  0  0  0  0  0  0
  149.6411  142.2056  155.3920 H   0  0  0  0  0  0  0  0  0  0  0  0
  1  2  1  0  0  0  0
  1 22  1  0  0  0  0
  1 23  1  0  0  0  0
  1 24  1  0  0  0  0
  2 21  2  0  0  0  0
  2  3  1  0  0  0  0
  3  4  2  0  0  0  0
  3 25  1  0  0  0  0
  4  5  1  0  0  0  0
  5  6  1  0  0  0  0
  5 21  1  0  0  0  0
  6  7  1  0  0  0  0
  6  8  1  0  0  0  0
  6 26  1  0  0  0  0
  7 27  1  0  0  0  0
  7 28  1  0  0  0  0
  7 29  1  0  0  0  0
  8  9  1  0  0  0  0
  8 10  1  0  0  0  0
  8 30  1  0  0  0  0
  9 31  1  0  0  0  0
  9 32  1  0  0  0  0
  9 33  1  0  0  0  0
 10 11  1  0  0  0  0
 10 34  1  0  0  0  0
 11 12  1  0  0  0  0
 11 35  1  0  0  0  0
 11 36  1  0  0  0  0
 12 13  2  0  0  0  0
 12 14  1  0  0  0  0
 14 15  1  0  0  0  0
 14 37  1  0  0  0  0
 15 20  1  0  0  0  0
 15 16  1  0  0  0  0
 15 38  1  0  0  0  0
 16 17  1  0  0  0  0
 16 39  1  0  0  0  0
 16 40  1  0  0  0  0
 17 18  1  0  0  0  0
 17 41  1  0  0  0  0
 17 42  1  0  0  0  0
 18 19  1  0  0  0  0
 19 20  1  0  0  0  0
 19 43  1  0  0  0  0
 19 44  1  0  0  0  0
 20 45  1  0  0  0  0
 20 46  1  0  0  0  0
 21 47  1  0  0  0  0
M  END
> <s_m_source_file>
AV-unprocessed.smi

> <i_m_source_file_index>
3028

> <i_lp_mmshare_version>
43012

> <i_f3d_flags>
0

> <s_epik_input>
W0NIM11jMVtjSF1ubihbY0hdMSlbQ0BIXShbQ0gzXSlbQ0BIXShbQ0gzXSlbTkhdW0NIMl1DKD1PKVtOSF1bQ0hdMltDSDJdW0NIMl1PW0NIMl1bQ0gyXTI=

> <s_epik_cmdline>
J2VwaWtfcHl0aG9uJywgJy1waCcsICc3LjAnLCAnLXRuJywgJzgnLCAnLW1hJywgJzIwMCcsICctbWV0YWxfYmluZGluZycsICctaW1hZScsICc8aW5maWxlLm1hZT4nLCAnLW9tYWUnLCAnPG91dGZpbGUubWFlPic=

> <r_lp_tautomer_probability>
1

> <r_epik_Ionization_Penalty>
0.88617

> <r_epik_Ionization_Penalty_Charging>
0

> <r_epik_Ionization_Penalty_Neutral>
0.88617

> <r_epik_State_Penalty>
0.921066

> <r_epik_Charging_Adjusted_Penalty>
0.921066

> <i_epik_Tot_Q>
0

> <i_epik_Tot_abs_Q>
0

> <r_epik_Metal_State_Penalty>
0.917309

> <b_epik_Metal_Only>
0

> <s_lp_Force_Field>
OPLS_2005

> <r_lp_Energy>
18.7055

> <b_lp_Chiralities_Consistent>
1

> <s_lp_Variant>
AV-unprocessed.smi:3028-8

> <Gold.Version>
5.8.1

> <Gold.Id.Protein>
6NUR|6NUR_protein|mol2

> <Gold.PLP.Fitness>
46.7806

> <Gold.PLP.PLP>
-40.0979

> <Gold.PLP.part.hbond>
-2.3761

> <Gold.PLP.part.metal>
0.0000

> <Gold.PLP.part.buried>
-2.1172

> <Gold.PLP.part.nonpolar>
-36.2435

> <Gold.PLP.part.repulsive>
0.7617

> <Gold.PLP.ligand.clash>
0.0000

> <Gold.PLP.ligand.torsion>
0.4383

> <Gold.PLP.Chemscore.Hbond>
1.5280

> <Gold.PLP.Chemscore.CHOScore>
0.9412

> <Gold.PLP.Chemscore.Metal>
0.0000

> <Gold.Chemscore.Hbonds>
donor molecule, donor type, donor heavy atom, donor atom, acceptor molecule, acceptor atom, score
      L1  H    10    34       P1  7948  0.98
      L1  H    14    37       P1 10171  0.53
      L1  C    21    47       P1  8028  0.74

> <Gold.PLP.Chemscore.Internal.Correction>
0.1518

> <Gold.Rescore>
     Score         DG    S(hbond)    S(metal)    S(lipo)     H(rot)  DE(clash)    DE(int)     intcor
     13.80     -16.04       1.42        0.00      91.77       1.92       0.62       1.62       ----

> <Gold.Chemscore.Fitness>
13.8005

> <Gold.Chemscore.DG>
-16.0403

> <Gold.Chemscore.ZeroCoef>
-5.4800

> <Gold.Chemscore.Hbond>
1.4211

> <Gold.Chemscore.Metal>
0.0000

> <Gold.Chemscore.Lipo>
91.7733

> <Gold.Chemscore.Internal_Hbond>
0.0000

> <Gold.Chemscore.DEClash>
0.6162

> <Gold.Chemscore.DEInternal>
1.6236

> <Gold.Chemscore.Rot>
1.9233

> <Gold.Chemscore.Internal.Correction>
   9.000000E+99

> <Gold.Chemscore.Hbonds>
donor molecule, donor type, donor heavy atom, donor atom, acceptor molecule, acceptor atom, score
      L1  H    10    34       P1  7948  0.86
      L1  H    14    37       P1 10171  0.51

> <Gold.Chemscore.Hbond.Weighted>
-4.7464

> <Gold.Chemscore.Metal.Weighted>
-0.0000

> <Gold.Chemscore.Lipo.Weighted>
-10.7375

> <Gold.Chemscore.Internal_Hbond.Weighted>
0.0000

> <Gold.Chemscore.DEClash.Weighted>
0.6162

> <Gold.Chemscore.DEInternal.Weighted>
1.6236

> <Gold.Chemscore.Rot.Weighted>
4.9235

> <Gold.Chemscore.Internal.Correction.Weighted>
   9.000000E+99

> <Gold.Protein.RotatedTorsions>
[ 6907 6896 6895 6894 ] final  174.35 input  -60.11 | X-H torsion
[ 7974 7965 7964 7962 ] final -147.92 input  175.53 | X-H torsion
[ 8008 7997 7996 7995 ] final  162.76 input   59.86 | X-H torsion
[ 10167 10162 10161 10158 ] final  -78.65 input  -65.29 | X-H torsion
[ 10718 10713 10712 10709 ] final   14.95 input   66.30 | X-H torsion
[ 10763 10752 10751 10750 ] final -175.88 input  -60.55 | X-H torsion
[ 11005 11000 10999 10996 ] final  -36.94 input  -57.11 | X-H torsion

> <Gold.Protein.ActiveResidues>
 VAL166  LYS551  ARG553  GLY616  TRP617  ASP618  TYR619  PRO620  LYS621  CYS622 
 ASP623  PHE694  ASN695  SER759  ASP760  ASP761  ALA762  ILE779  LEU786  VAL792 
 PHE793  MET794  SER795  GLU796  ALA797  LYS798  CYS799  TRP800  GLU811  SER814 

> <Gold.Protein.RotatedAtoms>
  151.7537  133.3329  159.3398 H   0  0  0  0  0  0  0  0  0  0  0  0  # atno 6907 bound_to 6896
  150.7525  134.6169  159.6125 H   0  0  0  0  0  0  0  0  0  0  0  0  # atno 6908 bound_to 6896
  152.3451  134.7084  160.0304 H   0  0  0  0  0  0  0  0  0  0  0  0  # atno 6909 bound_to 6896
  144.8062  140.5264  143.5673 H   0  0  0  0  0  0  0  0  0  0  0  0  # atno 7974 bound_to 7965
  156.2007  140.1741  156.7904 H   0  0  0  0  0  0  0  0  0  0  0  0  # atno 8008 bound_to 7997
  154.5588  140.0703  156.8817 H   0  0  0  0  0  0  0  0  0  0  0  0  # atno 8009 bound_to 7997
  155.2887  140.3354  155.4256 H   0  0  0  0  0  0  0  0  0  0  0  0  # atno 8010 bound_to 7997
  140.4663  143.2439  151.8273 H   0  0  0  0  0  0  0  0  0  0  0  0  # atno 10167 bound_to 10162
  157.0464  130.6252  149.5760 H   0  0  0  0  0  0  0  0  0  0  0  0  # atno 10718 bound_to 10713
  154.5791  135.2834  155.0750 H   0  0  0  0  0  0  0  0  0  0  0  0  # atno 10763 bound_to 10752
  154.2093  135.6410  153.5114 H   0  0  0  0  0  0  0  0  0  0  0  0  # atno 10764 bound_to 10752
  153.0082  135.5488  154.6439 H   0  0  0  0  0  0  0  0  0  0  0  0  # atno 10765 bound_to 10752
  140.9914  133.7003  156.1856 H   0  0  0  0  0  0  0  0  0  0  0  0  # atno 11005 bound_to 11000
  145.5432  139.1475  143.3435 LP  0  0  0  0  0  0  0  0  0  0  0  0  # atno 17320 bound_to 7965
  146.2354  140.5572  142.8957 LP  0  0  0  0  0  0  0  0  0  0  0  0  # atno 17321 bound_to 7965
  139.4812  144.4947  151.9140 LP  0  0  0  0  0  0  0  0  0  0  0  0  # atno 17342 bound_to 10162
  140.4032  144.2466  150.5892 LP  0  0  0  0  0  0  0  0  0  0  0  0  # atno 17343 bound_to 10162
  156.0021  130.5102  150.7702 LP  0  0  0  0  0  0  0  0  0  0  0  0  # atno 17370 bound_to 10713
  157.5064  131.0922  151.0252 LP  0  0  0  0  0  0  0  0  0  0  0  0  # atno 17371 bound_to 10713
  140.7034  134.4539  157.5585 LP  0  0  0  0  0  0  0  0  0  0  0  0  # atno 17394 bound_to 11000
  139.8994  134.8592  156.1962 LP  0  0  0  0  0  0  0  0  0  0  0  0  # atno 17395 bound_to 11000

$$$$
