AV-unprocessed.smi:516|AV-procd|sdf|2784|dock3
  -GOLD-   2262023253D 1   1.00000     0.00000
 Structure written by MMmdl.
 44 46  0  0  0  0  0  0  0  0  1 V2000
  154.0901  136.1258  158.7417 C   0  0  0  0  0  0  0  0  0  0  0  0
  153.4683  135.8859  157.4916 O   0  0  0  0  0  0  0  0  0  0  0  0
  152.3563  136.7350  157.2664 C   0  0  0  0  0  0  0  0  0  0  0  0
  152.8662  138.1576  157.0083 C   0  0  0  0  0  0  0  0  0  0  0  0
  151.7746  139.0760  156.7105 N   0  0  0  0  0  0  0  0  0  0  0  0
  151.4676  140.2362  157.3469 C   0  0  0  0  0  0  0  0  0  0  0  0
  152.2504  140.7565  158.5149 C   0  0  0  0  0  0  0  0  0  0  0  0
  151.6832  141.9604  159.1195 N   0  0  0  0  0  0  0  0  0  0  0  0
  152.3417  142.3250  160.3721 C   0  0  0  0  0  0  0  0  0  0  0  0
  151.7433  143.6054  160.9806 C   0  0  0  0  0  0  0  0  0  0  0  0
  151.8168  144.6664  160.0336 O   0  0  0  0  0  0  0  0  0  0  0  0
  151.1448  144.3637  158.8152 C   0  0  0  0  0  0  0  0  0  0  0  0
  151.7463  143.0891  158.1992 C   0  0  0  0  0  0  0  0  0  0  0  0
  150.4013  140.8715  156.8489 N   0  0  0  0  0  0  0  0  0  0  0  0
  149.9978  140.0429  155.8122 C   0  0  0  0  0  0  0  0  0  0  0  0
  150.8041  138.9571  155.7180 C   0  0  0  0  0  0  0  0  0  0  0  0
  150.5967  137.9038  154.7176 C   0  0  0  0  0  0  0  0  0  0  0  0
  151.3097  136.9069  154.6256 O   0  0  0  0  0  0  0  0  0  0  0  0
  149.5341  138.1430  153.9109 N   0  0  0  0  0  0  0  0  0  0  0  0
  148.6856  139.2166  153.9470 C   0  0  0  0  0  0  0  0  0  0  0  0
  147.7609  139.2895  153.1383 O   0  0  0  0  0  0  0  0  0  0  0  0
  148.9127  140.1767  154.9025 N   0  0  0  0  0  0  0  0  0  0  0  0
  148.0651  141.3643  155.0259 C   0  0  0  0  0  0  0  0  0  0  0  0
  149.3453  137.4488  153.2028 H   0  0  0  0  0  0  0  0  0  0  0  0
  154.9364  135.4502  158.8656 H   0  0  0  0  0  0  0  0  0  0  0  0
  153.3974  135.9525  159.5663 H   0  0  0  0  0  0  0  0  0  0  0  0
  154.4634  137.1486  158.8065 H   0  0  0  0  0  0  0  0  0  0  0  0
  151.7811  136.3786  156.4104 H   0  0  0  0  0  0  0  0  0  0  0  0
  151.6967  136.7239  158.1356 H   0  0  0  0  0  0  0  0  0  0  0  0
  153.4193  138.5186  157.8747 H   0  0  0  0  0  0  0  0  0  0  0  0
  153.5762  138.1675  156.1816 H   0  0  0  0  0  0  0  0  0  0  0  0
  152.3362  139.9668  159.2630 H   0  0  0  0  0  0  0  0  0  0  0  0
  153.2655  140.9596  158.1717 H   0  0  0  0  0  0  0  0  0  0  0  0
  152.2520  141.5151  161.0965 H   0  0  0  0  0  0  0  0  0  0  0  0
  153.4090  142.4725  160.1996 H   0  0  0  0  0  0  0  0  0  0  0  0
  150.7053  143.4438  161.2753 H   0  0  0  0  0  0  0  0  0  0  0  0
  152.2913  143.8908  161.8787 H   0  0  0  0  0  0  0  0  0  0  0  0
  150.0773  144.2359  159.0015 H   0  0  0  0  0  0  0  0  0  0  0  0
  151.2528  145.2042  158.1295 H   0  0  0  0  0  0  0  0  0  0  0  0
  152.7831  143.2790  157.9169 H   0  0  0  0  0  0  0  0  0  0  0  0
  151.2118  142.8473  157.2799 H   0  0  0  0  0  0  0  0  0  0  0  0
  147.2514  141.4075  154.3012 H   0  0  0  0  0  0  0  0  0  0  0  0
  148.6662  142.2646  154.8946 H   0  0  0  0  0  0  0  0  0  0  0  0
  147.6188  141.4009  156.0202 H   0  0  0  0  0  0  0  0  0  0  0  0
  1  2  1  0  0  0  0
  1 25  1  0  0  0  0
  1 26  1  0  0  0  0
  1 27  1  0  0  0  0
  2  3  1  0  0  0  0
  3  4  1  0  0  0  0
  3 28  1  0  0  0  0
  3 29  1  0  0  0  0
  4  5  1  0  0  0  0
  4 30  1  0  0  0  0
  4 31  1  0  0  0  0
  5 16  1  0  0  0  0
  5  6  1  0  0  0  0
  6  7  1  0  0  0  0
  6 14  2  0  0  0  0
  7  8  1  0  0  0  0
  7 32  1  0  0  0  0
  7 33  1  0  0  0  0
  8 13  1  0  0  0  0
  8  9  1  0  0  0  0
  9 10  1  0  0  0  0
  9 34  1  0  0  0  0
  9 35  1  0  0  0  0
 10 11  1  0  0  0  0
 10 36  1  0  0  0  0
 10 37  1  0  0  0  0
 11 12  1  0  0  0  0
 12 13  1  0  0  0  0
 12 38  1  0  0  0  0
 12 39  1  0  0  0  0
 13 40  1  0  0  0  0
 13 41  1  0  0  0  0
 14 15  1  0  0  0  0
 15 22  1  0  0  0  0
 15 16  2  0  0  0  0
 16 17  1  0  0  0  0
 17 18  2  0  0  0  0
 17 19  1  0  0  0  0
 19 24  1  0  0  0  0
 19 20  1  0  0  0  0
 20 21  2  0  0  0  0
 20 22  1  0  0  0  0
 22 23  1  0  0  0  0
 23 42  1  0  0  0  0
 23 43  1  0  0  0  0
 23 44  1  0  0  0  0
M  END
> <s_m_source_file>
AV-unprocessed.smi

> <i_m_source_file_index>
516

> <i_lp_mmshare_version>
43012

> <i_f3d_flags>
0

> <s_epik_input>
W0NIM11uMWMoPU8pW25IXWMoPU8pYyhjMTIpbihbQ0gyXVtDSDJdT1tDSDNdKWMobjIpW0NIMl1OM1tDSDJdW0NIMl1PW0NIMl1bQ0gyXTM=

> <s_epik_cmdline>
J2VwaWtfcHl0aG9uJywgJy1waCcsICc3LjAnLCAnLXRuJywgJzgnLCAnLW1hJywgJzIwMCcsICctbWV0YWxfYmluZGluZycsICctaW1hZScsICc8aW5maWxlLm1hZT4nLCAnLW9tYWUnLCAnPG91dGZpbGUubWFlPic=

> <r_epik_Ionization_Penalty>
0.0972048

> <r_epik_Ionization_Penalty_Charging>
0.000199653

> <r_epik_Ionization_Penalty_Neutral>
0.0970052

> <r_epik_State_Penalty>
0.0871068

> <r_epik_Charging_Adjusted_Penalty>
0.0873064

> <i_epik_Tot_Q>
0

> <i_epik_Tot_abs_Q>
0

> <r_epik_Metal_State_Penalty>
0.236525

> <b_epik_Metal_Only>
0

> <s_lp_Force_Field>
OPLS_2005

> <r_lp_Energy>
41.4517

> <b_lp_Chiralities_Consistent>
1

> <s_lp_Variant>
AV-unprocessed.smi:516-1

> <Gold.Version>
5.8.1

> <Gold.Id.Protein>
6NUR|6NUR_protein|mol2

> <Gold.PLP.Fitness>
44.2540

> <Gold.PLP.PLP>
-35.4899

> <Gold.PLP.part.hbond>
-3.2042

> <Gold.PLP.part.metal>
0.0000

> <Gold.PLP.part.buried>
-5.8783

> <Gold.PLP.part.nonpolar>
-28.8778

> <Gold.PLP.part.repulsive>
2.1216

> <Gold.PLP.ligand.clash>
0.0000

> <Gold.PLP.ligand.torsion>
0.1054

> <Gold.PLP.Chemscore.Hbond>
2.9760

> <Gold.PLP.Chemscore.CHOScore>
0.0000

> <Gold.PLP.Chemscore.Metal>
0.0000

> <Gold.Chemscore.Hbonds>
donor molecule, donor type, donor heavy atom, donor atom, acceptor molecule, acceptor atom, score
      L1  H    19    24       P1  7948  1.00
      P1  H 10752 10764       L1    18  0.83
      P1  H 10752 10765       L1     2  0.26

> <Gold.PLP.Chemscore.Internal.Correction>
0.0470

> <Gold.Rescore>
     Score         DG    S(hbond)    S(metal)    S(lipo)     H(rot)  DE(clash)    DE(int)     intcor
     14.27     -16.06       1.97        0.00      79.08       2.04       0.26       1.53       ----

> <Gold.Chemscore.Fitness>
14.2707

> <Gold.Chemscore.DG>
-16.0640

> <Gold.Chemscore.ZeroCoef>
-5.4800

> <Gold.Chemscore.Hbond>
1.9652

> <Gold.Chemscore.Metal>
0.0000

> <Gold.Chemscore.Lipo>
79.0791

> <Gold.Chemscore.Internal_Hbond>
0.0000

> <Gold.Chemscore.DEClash>
0.2599

> <Gold.Chemscore.DEInternal>
1.5334

> <Gold.Chemscore.Rot>
2.0437

> <Gold.Chemscore.Internal.Correction>
   9.000000E+99

> <Gold.Chemscore.Hbonds>
donor molecule, donor type, donor heavy atom, donor atom, acceptor molecule, acceptor atom, score
      L1  H    19    24       P1  7948  0.96
      P1  H 10752 10764       L1    18  0.82
      P1  H 10752 10765       L1     2  0.11

> <Gold.Chemscore.Hbond.Weighted>
-6.5636

> <Gold.Chemscore.Metal.Weighted>
-0.0000

> <Gold.Chemscore.Lipo.Weighted>
-9.2523

> <Gold.Chemscore.Internal_Hbond.Weighted>
0.0000

> <Gold.Chemscore.DEClash.Weighted>
0.2599

> <Gold.Chemscore.DEInternal.Weighted>
1.5334

> <Gold.Chemscore.Rot.Weighted>
5.2319

> <Gold.Chemscore.Internal.Correction.Weighted>
   9.000000E+99

> <Gold.Protein.RotatedTorsions>
[ 6907 6896 6895 6894 ] final   71.22 input  -60.11 | X-H torsion
[ 7974 7965 7964 7962 ] final  164.16 input  175.53 | X-H torsion
[ 8008 7997 7996 7995 ] final  111.21 input   59.86 | X-H torsion
[ 10167 10162 10161 10158 ] final   -3.41 input  -65.29 | X-H torsion
[ 10718 10713 10712 10709 ] final  112.06 input   66.30 | X-H torsion
[ 10763 10752 10751 10750 ] final  -82.79 input  -60.55 | X-H torsion
[ 11005 11000 10999 10996 ] final -176.78 input  -57.11 | X-H torsion

> <Gold.Protein.ActiveResidues>
 VAL166  LYS551  ARG553  GLY616  TRP617  ASP618  TYR619  PRO620  LYS621  CYS622 
 ASP623  PHE694  ASN695  SER759  ASP760  ASP761  ALA762  ILE779  LEU786  VAL792 
 PHE793  MET794  SER795  GLU796  ALA797  LYS798  CYS799  TRP800  GLU811  SER814 

> <Gold.Protein.RotatedAtoms>
  152.4797  134.4753  159.9648 H   0  0  0  0  0  0  0  0  0  0  0  0  # atno 6907 bound_to 6896
  151.4761  133.3551  159.2839 H   0  0  0  0  0  0  0  0  0  0  0  0  # atno 6908 bound_to 6896
  150.8860  134.8284  159.7320 H   0  0  0  0  0  0  0  0  0  0  0  0  # atno 6909 bound_to 6896
  144.7557  139.8285  143.6350 H   0  0  0  0  0  0  0  0  0  0  0  0  # atno 7974 bound_to 7965
  156.2107  140.3024  155.9727 H   0  0  0  0  0  0  0  0  0  0  0  0  # atno 8008 bound_to 7997
  155.2730  140.0434  157.3026 H   0  0  0  0  0  0  0  0  0  0  0  0  # atno 8009 bound_to 7997
  154.5696  140.2344  155.8220 H   0  0  0  0  0  0  0  0  0  0  0  0  # atno 8010 bound_to 7997
  140.6889  143.6543  150.8322 H   0  0  0  0  0  0  0  0  0  0  0  0  # atno 10167 bound_to 10162
  157.6412  131.0961  150.6840 H   0  0  0  0  0  0  0  0  0  0  0  0  # atno 10718 bound_to 10713
  154.5799  135.5579  153.7175 H   0  0  0  0  0  0  0  0  0  0  0  0  # atno 10763 bound_to 10752
  153.0078  135.6317  154.1996 H   0  0  0  0  0  0  0  0  0  0  0  0  # atno 10764 bound_to 10752
  154.1937  135.2881  155.2993 H   0  0  0  0  0  0  0  0  0  0  0  0  # atno 10765 bound_to 10752
  140.4483  134.6367  157.4789 H   0  0  0  0  0  0  0  0  0  0  0  0  # atno 11005 bound_to 11000
  146.1565  139.4664  143.0015 LP  0  0  0  0  0  0  0  0  0  0  0  0  # atno 17320 bound_to 7965
  145.6786  141.0197  143.1618 LP  0  0  0  0  0  0  0  0  0  0  0  0  # atno 17321 bound_to 7965
  140.0253  143.5499  152.2783 LP  0  0  0  0  0  0  0  0  0  0  0  0  # atno 17342 bound_to 10162
  139.6273  144.7639  151.2612 LP  0  0  0  0  0  0  0  0  0  0  0  0  # atno 17343 bound_to 10162
  156.7164  130.4667  149.5534 LP  0  0  0  0  0  0  0  0  0  0  0  0  # atno 17370 bound_to 10713
  156.1695  130.6427  151.0820 LP  0  0  0  0  0  0  0  0  0  0  0  0  # atno 17371 bound_to 10713
  140.0024  134.6816  155.9510 LP  0  0  0  0  0  0  0  0  0  0  0  0  # atno 17394 bound_to 11000
  141.1675  133.6537  156.4533 LP  0  0  0  0  0  0  0  0  0  0  0  0  # atno 17395 bound_to 11000

$$$$
