#       Name:                AV-unprocessed.smi:663
#       Creating user name   scv26
#       Creation time:       Fri Mar 27 00:19:56 2020


#       File generated by GOLD software.
#

@<TRIPOS>MOLECULE
AV-unprocessed.smi:663
    36    37     1
SMALL
NO_CHARGES


@<TRIPOS>ATOM
      1 ****        -3.1214   2.6562   1.0124 N.am           1 S1                 0.0000
      2 ****        -2.1406   2.2732   0.1913 C.2            1 S1                 0.0000
      3 ****        -1.6662   3.0269  -0.6562 O.2            1 S1                 0.0000
      4 ****        -1.6296   0.8358   0.3407 C.3            1 S1                 0.0000
      5 ****        -0.0873   0.7132   0.4129 C.3            1 S1                 0.0000
      6 ****         0.2881  -0.6966   0.3227 N.am           1 S1                 0.0000
      7 ****         0.4308  -1.4162  -0.8003 C.2            1 S1                 0.0000
      8 ****         0.2347  -0.8920  -1.8991 O.2            1 S1                 0.0000
      9 ****         0.7903  -2.7012  -0.5784 N.pl3          1 S1                -1.0000
     10 ****         0.9576  -3.5416  -1.6128 C.2            1 S1                 0.0000
     11 ****         0.0047  -4.4065  -1.9966 N.2            1 S1                 0.0000
     12 ****         0.3816  -5.1892  -3.0796 N.2            1 S1                 0.0000
     13 ****         1.6185  -4.8986  -3.4818 C.2            1 S1                 0.0000
     14 ****         2.4359  -3.6447  -2.5732 S.3            1 S1                 0.0000
     15 ****         0.4825   1.3644   1.6644 C.3            1 S1                 0.0000
     16 ****         0.8432   2.8317   1.7136 C.3            1 S1                 0.0000
     17 ****         1.9319   1.7834   1.7255 C.3            1 S1                 0.0000
     18 ****        -3.4892   3.5944   0.9495 H              1 S1                 0.0000
     19 ****        -3.4912   2.0075   1.6919 H              1 S1                 0.0000
     20 ****        -2.0775   0.3711   1.2206 H              1 S1                 0.0000
     21 ****        -2.0055   0.2787  -0.5185 H              1 S1                 0.0000
     22 ****         0.3487   1.2308  -0.4441 H              1 S1                 0.0000
     23 ****         0.4604  -1.1734   1.1955 H              1 S1                 0.0000
     24 ****         2.0532  -5.4277  -4.3168 H              1 S1                 0.0000
     25 ****         0.0803   0.9480   2.5864 H              1 S1                 0.0000
     26 ****         0.7290   3.4189   0.8047 H              1 S1                 0.0000
     27 ****         0.6454   3.3650   2.6410 H              1 S1                 0.0000
     28 ****         2.4626   1.6177   2.6608 H              1 S1                 0.0000
     29 ****         2.5294   1.6698   0.8231 H              1 S1                 0.0000
     30 ****        -2.0146   3.9599  -0.7468 LP             1 S1                 0.0000
     31 ****        -0.9320   2.7070  -1.2550 LP             1 S1                 0.0000
     32 ****        -0.0310   0.0706  -1.9536 LP             1 S1                 0.0000
     33 ****         0.3414  -1.4294  -2.7356 LP             1 S1                 0.0000
     34 ****         0.9317  -3.0258   0.3568 LP             1 S1                 0.0000
     35 ****        -0.8860  -4.4794  -1.5479 LP             1 S1                 0.0000
     36 ****        -0.2008  -5.8826  -3.5038 LP             1 S1                 0.0000
@<TRIPOS>BOND
    1    1    2 am    
    2    1   18 1     
    3    1   19 1     
    4    2    3 2     
    5    2    4 1     
    6    4    5 1     
    7    4   20 1     
    8    4   21 1     
    9    5    6 1     
   10    5   15 1     
   11    5   22 1     
   12    6    7 am    
   13    6   23 1     
   14    7    8 2     
   15    7    9 1     
   16    9   10 1     
   17   10   14 1     
   18   10   11 2     
   19   11   12 1     
   20   12   13 2     
   21   13   14 1     
   22   13   24 1     
   23   15   17 1     
   24   15   16 1     
   25   15   25 1     
   26   16   17 1     
   27   16   26 1     
   28   16   27 1     
   29   17   28 1     
   30   17   29 1     
   31    3   30 1     
   32    3   31 1     
   33    8   32 1     
   34    8   33 1     
   35    9   34 1     
   36   11   35 1     
   37   12   36 1     
@<TRIPOS>SUBSTRUCTURE
      1 S1             1
@<TRIPOS>SET
LONE_PAIRS      STATIC     ATOMS    <user>   **** ""
7 30 31 32 33 34 35 36
DONOR_HYDROGENS      STATIC     ATOMS    <user>   **** ""
3 18 19 23
ATOM$BLUE        STATIC     ATOMS    COLORGROUP SYSTEM
7 30 31 32 33 34 35 36
ATOM$RED        STATIC     ATOMS    COLORGROUP SYSTEM
3 18 19 23
