AV-unprocessed.smi:3083|AV-procd|sdf|11746|dock10
  -GOLD-   2272017143D 1   1.00000     0.00000
 Structure written by MMmdl.
 28 29  0  0  0  0  0  0  0  0  2 V2000
  142.4741  132.5879  150.4217 N   0  3  0  0  0  0  0  0  0  0  0  0
  143.9387  132.7586  150.4533 C   0  0  2  0  0  0  0  0  0  0  0  0
  144.5943  131.7622  151.4352 C   0  0  0  0  0  0  0  0  0  0  0  0
  146.1175  131.9551  151.5056 C   0  0  0  0  0  0  0  0  0  0  0  0
  146.4891  133.4099  151.8308 C   0  0  0  0  0  0  0  0  0  0  0  0
  145.8777  134.3762  150.8025 C   0  0  0  0  0  0  0  0  0  0  0  0
  144.3433  134.2411  150.6987 C   0  0  2  0  0  0  0  0  0  0  0  0
  143.6728  134.9000  151.8222 N   0  0  0  0  0  0  0  0  0  0  0  0
  143.7940  136.2223  152.2017 C   0  0  0  0  0  0  0  0  0  0  0  0
  143.0329  136.4064  153.3199 C   0  0  0  0  0  0  0  0  0  0  0  0
  142.4876  135.1178  153.5705 C   0  0  0  0  0  0  0  0  0  0  0  0
  142.8767  134.2212  152.6796 N   0  0  0  0  0  0  0  0  0  0  0  0
  142.2483  131.7600  149.8882 H   0  0  0  0  0  0  0  0  0  0  0  0
  142.0484  133.3945  149.9882 H   0  0  0  0  0  0  0  0  0  0  0  0
  144.2896  132.4937  149.4549 H   0  0  0  0  0  0  0  0  0  0  0  0
  144.1710  131.8580  152.4342 H   0  0  0  0  0  0  0  0  0  0  0  0
  144.3767  130.7406  151.1216 H   0  0  0  0  0  0  0  0  0  0  0  0
  146.5417  131.2866  152.2554 H   0  0  0  0  0  0  0  0  0  0  0  0
  146.5652  131.6713  150.5522 H   0  0  0  0  0  0  0  0  0  0  0  0
  146.1504  133.6649  152.8354 H   0  0  0  0  0  0  0  0  0  0  0  0
  147.5739  133.5195  151.8387 H   0  0  0  0  0  0  0  0  0  0  0  0
  146.1515  135.4033  151.0471 H   0  0  0  0  0  0  0  0  0  0  0  0
  146.3195  134.1731  149.8260 H   0  0  0  0  0  0  0  0  0  0  0  0
  144.0370  134.7994  149.8125 H   0  0  0  0  0  0  0  0  0  0  0  0
  144.4077  136.9184  151.6489 H   0  0  0  0  0  0  0  0  0  0  0  0
  142.8947  137.3202  153.8789 H   0  0  0  0  0  0  0  0  0  0  0  0
  141.8290  134.8085  154.3686 H   0  0  0  0  0  0  0  0  0  0  0  0
  142.1241  132.4864  151.3636 H   0  0  0  0  0  0  0  0  0  0  0  0
  1  2  1  0  0  0  0
  1 13  1  0  0  0  0
  1 14  1  0  0  0  0
  1 28  1  0  0  0  0
  2  7  1  0  0  0  0
  2  3  1  0  0  0  0
  2 15  1  0  0  0  0
  3  4  1  0  0  0  0
  3 16  1  0  0  0  0
  3 17  1  0  0  0  0
  4  5  1  0  0  0  0
  4 18  1  0  0  0  0
  4 19  1  0  0  0  0
  5  6  1  0  0  0  0
  5 20  1  0  0  0  0
  5 21  1  0  0  0  0
  6  7  1  0  0  0  0
  6 22  1  0  0  0  0
  6 23  1  0  0  0  0
  7  8  1  0  0  0  0
  7 24  1  0  0  0  0
  8 12  1  0  0  0  0
  8  9  1  0  0  0  0
  9 10  2  0  0  0  0
  9 25  1  0  0  0  0
 10 11  1  0  0  0  0
 10 26  1  0  0  0  0
 11 12  2  0  0  0  0
 11 27  1  0  0  0  0
M  CHG  1   1   1
M  END
> <s_m_source_file>
AV-unprocessed.smi

> <i_m_source_file_index>
3083

> <i_lp_mmshare_version>
43012

> <i_f3d_flags>
0

> <s_epik_input>
W05IMl1bQ0BASF0xW0NIMl1bQ0gyXVtDSDJdW0NIMl1bQ0BIXTFuMltjSF1bY0hdW2NIXW4y

> <s_epik_cmdline>
J2VwaWtfcHl0aG9uJywgJy1waCcsICc3LjAnLCAnLXRuJywgJzgnLCAnLW1hJywgJzIwMCcsICctbWV0YWxfYmluZGluZycsICctaW1hZScsICc8aW5maWxlLm1hZT4nLCAnLW9tYWUnLCAnPG91dGZpbGUubWFlPic=

> <r_lp_tautomer_probability>
1

> <r_epik_Ionization_Penalty>
0.00385053

> <r_epik_Ionization_Penalty_Charging>
0.0038389

> <r_epik_Ionization_Penalty_Neutral>
1.16305e-05

> <r_epik_State_Penalty>
-0

> <r_epik_Charging_Adjusted_Penalty>
0.0038389

> <i_epik_Tot_Q>
1

> <i_epik_Tot_abs_Q>
1

> <r_epik_Metal_State_Penalty>
-0

> <b_epik_Metal_Only>
0

> <s_lp_Force_Field>
OPLS_2005

> <r_lp_Energy>
16.3847

> <b_lp_Chiralities_Consistent>
1

> <s_lp_Variant>
AV-unprocessed.smi:3083-3

> <Gold.Version>
5.8.1

> <Gold.Id.Protein>
6NUR|6NUR_protein|mol2

> <Gold.PLP.Fitness>
37.6955

> <Gold.PLP.PLP>
-25.5443

> <Gold.PLP.part.hbond>
-1.9141

> <Gold.PLP.part.metal>
0.0000

> <Gold.PLP.part.buried>
-5.3596

> <Gold.PLP.part.nonpolar>
-18.8578

> <Gold.PLP.part.repulsive>
0.3055

> <Gold.PLP.ligand.clash>
0.0000

> <Gold.PLP.ligand.torsion>
0.0399

> <Gold.PLP.Chemscore.Hbond>
2.8160

> <Gold.PLP.Chemscore.CHOScore>
1.2395

> <Gold.PLP.Chemscore.Metal>
0.0000

> <Gold.Chemscore.Hbonds>
donor molecule, donor type, donor heavy atom, donor atom, acceptor molecule, acceptor atom, score
      L1  H     1    13       P1 10952  0.86
      L1  H     1    14       P1 10186  1.95
      L1  C     9    25       P1 10171  0.98
      L1  C    11    27       P1 11000  0.26

> <Gold.PLP.Chemscore.Internal.Correction>
0.0646

> <Gold.Rescore>
     Score         DG    S(hbond)    S(metal)    S(lipo)     H(rot)  DE(clash)    DE(int)     intcor
     14.12     -15.53       1.84        0.00      55.09       1.00       0.00       1.41       ----

> <Gold.Chemscore.Fitness>
14.1194

> <Gold.Chemscore.DG>
-15.5274

> <Gold.Chemscore.ZeroCoef>
-5.4800

> <Gold.Chemscore.Hbond>
1.8450

> <Gold.Chemscore.Metal>
0.0000

> <Gold.Chemscore.Lipo>
55.0869

> <Gold.Chemscore.Internal_Hbond>
0.0000

> <Gold.Chemscore.DEClash>
0.0015

> <Gold.Chemscore.DEInternal>
1.4065

> <Gold.Chemscore.Rot>
1.0000

> <Gold.Chemscore.Internal.Correction>
   9.000000E+99

> <Gold.Chemscore.Hbonds>
donor molecule, donor type, donor heavy atom, donor atom, acceptor molecule, acceptor atom, score
      L1  H     1    13       P1 10952  0.77
      L1  H     1    14       P1 10186  0.92

> <Gold.Chemscore.Hbond.Weighted>
-6.1622

> <Gold.Chemscore.Metal.Weighted>
-0.0000

> <Gold.Chemscore.Lipo.Weighted>
-6.4452

> <Gold.Chemscore.Internal_Hbond.Weighted>
0.0000

> <Gold.Chemscore.DEClash.Weighted>
0.0015

> <Gold.Chemscore.DEInternal.Weighted>
1.4065

> <Gold.Chemscore.Rot.Weighted>
2.5600

> <Gold.Chemscore.Internal.Correction.Weighted>
   9.000000E+99

> <Gold.Protein.RotatedTorsions>
[ 6907 6896 6895 6894 ] final  -57.92 input  -60.11 | X-H torsion
[ 7974 7965 7964 7962 ] final  179.52 input  175.53 | X-H torsion
[ 8008 7997 7996 7995 ] final  101.97 input   59.86 | X-H torsion
[ 10167 10162 10161 10158 ] final  -38.86 input  -65.29 | X-H torsion
[ 10718 10713 10712 10709 ] final   10.64 input   66.30 | X-H torsion
[ 10763 10752 10751 10750 ] final  -55.73 input  -60.55 | X-H torsion
[ 11005 11000 10999 10996 ] final  125.96 input  -57.11 | X-H torsion

> <Gold.Protein.ActiveResidues>
 VAL166  LYS551  ARG553  GLY616  TRP617  ASP618  TYR619  PRO620  LYS621  CYS622 
 ASP623  PHE694  ASN695  SER759  ASP760  ASP761  ALA762  ILE779  LEU786  VAL792 
 PHE793  MET794  SER795  GLU796  ALA797  LYS798  CYS799  TRP800  GLU811  SER814 

> <Gold.Protein.RotatedAtoms>
  150.8047  134.7165  159.6632 H   0  0  0  0  0  0  0  0  0  0  0  0  # atno 6907 bound_to 6896
  152.4166  134.6027  160.0014 H   0  0  0  0  0  0  0  0  0  0  0  0  # atno 6908 bound_to 6896
  151.6254  133.3299  159.3133 H   0  0  0  0  0  0  0  0  0  0  0  0  # atno 6909 bound_to 6896
  144.7145  140.0560  143.6434 H   0  0  0  0  0  0  0  0  0  0  0  0  # atno 7974 bound_to 7965
  156.1349  140.3189  155.8405 H   0  0  0  0  0  0  0  0  0  0  0  0  # atno 8008 bound_to 7997
  155.4263  140.0515  157.3039 H   0  0  0  0  0  0  0  0  0  0  0  0  # atno 8009 bound_to 7997
  154.4929  140.2099  155.9523 H   0  0  0  0  0  0  0  0  0  0  0  0  # atno 8010 bound_to 7997
  140.7080  143.3251  151.2700 H   0  0  0  0  0  0  0  0  0  0  0  0  # atno 10167 bound_to 10162
  156.9839  130.6016  149.5679 H   0  0  0  0  0  0  0  0  0  0  0  0  # atno 10718 bound_to 10713
  154.1955  135.6420  153.5072 H   0  0  0  0  0  0  0  0  0  0  0  0  # atno 10763 bound_to 10752
  153.0024  135.5439  154.6371 H   0  0  0  0  0  0  0  0  0  0  0  0  # atno 10764 bound_to 10752
  154.5770  135.2922  155.0744 H   0  0  0  0  0  0  0  0  0  0  0  0  # atno 10765 bound_to 10752
  139.9432  134.9633  156.8635 H   0  0  0  0  0  0  0  0  0  0  0  0  # atno 11005 bound_to 11000
  145.9904  139.3010  143.0988 LP  0  0  0  0  0  0  0  0  0  0  0  0  # atno 17320 bound_to 7965
  145.8909  140.9304  143.0552 LP  0  0  0  0  0  0  0  0  0  0  0  0  # atno 17321 bound_to 7965
  139.6716  144.0010  152.2756 LP  0  0  0  0  0  0  0  0  0  0  0  0  # atno 17342 bound_to 10162
  139.9610  144.6557  150.8079 LP  0  0  0  0  0  0  0  0  0  0  0  0  # atno 17343 bound_to 10162
  156.0233  130.5328  150.8337 LP  0  0  0  0  0  0  0  0  0  0  0  0  # atno 17370 bound_to 10713
  157.5506  131.0943  150.9700 LP  0  0  0  0  0  0  0  0  0  0  0  0  # atno 17371 bound_to 10713
  140.5899  134.0271  155.7496 LP  0  0  0  0  0  0  0  0  0  0  0  0  # atno 17394 bound_to 11000
  141.1074  133.9672  157.2972 LP  0  0  0  0  0  0  0  0  0  0  0  0  # atno 17395 bound_to 11000

$$$$
