AV-unprocessed.smi:3351|AV-procd|sdf|12950|dock5
  -GOLD-   2272019383D 1   1.00000     0.00000
 Structure written by MMmdl.
 34 35  0  0  0  0  0  0  0  0  1 V2000
  145.8821  136.4906  153.1884 C   0  0  0  0  0  0  0  0  0  0  0  0
  146.0427  135.0762  152.6073 C   0  0  1  0  0  0  0  0  0  0  0  0
  145.7017  134.9949  151.1036 C   0  0  0  0  0  0  0  0  0  0  0  0
  145.3396  133.6549  150.6818 N   0  0  0  0  0  0  0  0  0  0  0  0
  144.0660  133.1876  150.3859 C   0  0  0  0  0  0  0  0  0  0  0  0
  144.2045  131.8631  150.0370 C   0  0  0  0  0  0  0  0  0  0  0  0
  145.5457  131.4952  150.1161 N   0  0  0  0  0  0  0  0  0  0  0  0
  146.1561  132.6065  150.5069 C   0  0  0  0  0  0  0  0  0  0  0  0
  147.4094  134.6170  152.8393 N   0  0  0  0  0  0  0  0  0  0  0  0
  147.7538  133.4104  153.3146 C   0  0  0  0  0  0  0  0  0  0  0  0
  146.9339  132.5334  153.5901 O   0  0  0  0  0  0  0  0  0  0  0  0
  149.2575  133.1533  153.4744 C   0  0  0  0  0  0  0  0  0  0  0  0
  149.5551  131.8271  154.0184 N   0  0  0  0  0  0  0  0  0  0  0  0
  149.0048  130.6468  153.3636 C   0  0  0  0  0  0  0  0  0  0  0  0
  149.7426  129.4211  153.9058 C   0  0  0  0  0  0  0  0  0  0  0  0
  150.4221  129.8601  155.5178 S   0  0  0  0  0  0  0  0  0  0  0  0
  150.2754  131.6189  155.1875 C   0  0  0  0  0  0  0  0  0  0  0  0
  150.7630  132.4697  155.9295 O   0  0  0  0  0  0  0  0  0  0  0  0
  144.8493  136.8339  153.1262 H   0  0  0  0  0  0  0  0  0  0  0  0
  146.5052  137.2105  152.6571 H   0  0  0  0  0  0  0  0  0  0  0  0
  146.1669  136.5160  154.2408 H   0  0  0  0  0  0  0  0  0  0  0  0
  145.3611  134.4223  153.1549 H   0  0  0  0  0  0  0  0  0  0  0  0
  144.8769  135.6686  150.8661 H   0  0  0  0  0  0  0  0  0  0  0  0
  146.5516  135.3174  150.5005 H   0  0  0  0  0  0  0  0  0  0  0  0
  143.1917  133.8194  150.4447 H   0  0  0  0  0  0  0  0  0  0  0  0
  143.4483  131.1519  149.7394 H   0  0  0  0  0  0  0  0  0  0  0  0
  147.2232  132.6599  150.6653 H   0  0  0  0  0  0  0  0  0  0  0  0
  148.1496  135.2732  152.6359 H   0  0  0  0  0  0  0  0  0  0  0  0
  149.7311  133.2697  152.4989 H   0  0  0  0  0  0  0  0  0  0  0  0
  149.6968  133.9141  154.1221 H   0  0  0  0  0  0  0  0  0  0  0  0
  147.9427  130.5846  153.6040 H   0  0  0  0  0  0  0  0  0  0  0  0
  149.0948  130.7100  152.2785 H   0  0  0  0  0  0  0  0  0  0  0  0
  149.0948  128.5472  153.9752 H   0  0  0  0  0  0  0  0  0  0  0  0
  150.5752  129.1675  153.2489 H   0  0  0  0  0  0  0  0  0  0  0  0
  1  2  1  0  0  0  0
  1 19  1  0  0  0  0
  1 20  1  0  0  0  0
  1 21  1  0  0  0  0
  2  3  1  0  0  0  0
  2  9  1  0  0  0  0
  2 22  1  0  0  0  0
  3  4  1  0  0  0  0
  3 23  1  0  0  0  0
  3 24  1  0  0  0  0
  4  8  1  0  0  0  0
  4  5  1  0  0  0  0
  5  6  2  0  0  0  0
  5 25  1  0  0  0  0
  6  7  1  0  0  0  0
  6 26  1  0  0  0  0
  7  8  2  0  0  0  0
  8 27  1  0  0  0  0
  9 10  1  0  0  0  0
  9 28  1  0  0  0  0
 10 11  2  0  0  0  0
 10 12  1  0  0  0  0
 12 13  1  0  0  0  0
 12 29  1  0  0  0  0
 12 30  1  0  0  0  0
 13 17  1  0  0  0  0
 13 14  1  0  0  0  0
 14 15  1  0  0  0  0
 14 31  1  0  0  0  0
 14 32  1  0  0  0  0
 15 16  1  0  0  0  0
 15 33  1  0  0  0  0
 15 34  1  0  0  0  0
 16 17  1  0  0  0  0
 17 18  2  0  0  0  0
M  END
> <s_m_source_file>
AV-unprocessed.smi

> <i_m_source_file_index>
3351

> <i_lp_mmshare_version>
43012

> <i_f3d_flags>
0

> <s_epik_input>
W2NIXTFuW2NIXVtjSF1uMVtDSDJdW0NAQEhdKFtDSDNdKVtOSF1DKD1PKVtDSDJdTjJbQ0gyXVtDSDJdU0MyPU8=

> <s_epik_cmdline>
J2VwaWtfcHl0aG9uJywgJy1waCcsICc3LjAnLCAnLXRuJywgJzgnLCAnLW1hJywgJzIwMCcsICctbWV0YWxfYmluZGluZycsICctaW1hZScsICc8aW5maWxlLm1hZT4nLCAnLW9tYWUnLCAnPG91dGZpbGUubWFlPic=

> <r_lp_tautomer_probability>
1

> <r_epik_Ionization_Penalty>
0.618163

> <r_epik_Ionization_Penalty_Charging>
0.618163

> <r_epik_Ionization_Penalty_Neutral>
6.6929e-08

> <r_epik_State_Penalty>
0.633954

> <r_epik_Charging_Adjusted_Penalty>
1.25212

> <i_epik_Tot_Q>
0

> <i_epik_Tot_abs_Q>
0

> <r_epik_Metal_State_Penalty>
0.305924

> <b_epik_Metal_Only>
0

> <s_lp_Force_Field>
OPLS_2005

> <r_lp_Energy>
4.61171

> <b_lp_Chiralities_Consistent>
1

> <s_lp_Variant>
AV-unprocessed.smi:3351-4

> <Gold.Version>
5.8.1

> <Gold.Id.Protein>
6NUR|6NUR_protein|mol2

> <Gold.PLP.Fitness>
41.4402

> <Gold.PLP.PLP>
-31.8391

> <Gold.PLP.part.hbond>
-0.9371

> <Gold.PLP.part.metal>
0.0000

> <Gold.PLP.part.buried>
-4.7467

> <Gold.PLP.part.nonpolar>
-26.6017

> <Gold.PLP.part.repulsive>
0.1874

> <Gold.PLP.ligand.clash>
0.0000

> <Gold.PLP.ligand.torsion>
0.6191

> <Gold.PLP.Chemscore.Hbond>
1.0000

> <Gold.PLP.Chemscore.CHOScore>
2.5995

> <Gold.PLP.Chemscore.Metal>
0.0000

> <Gold.Chemscore.Hbonds>
donor molecule, donor type, donor heavy atom, donor atom, acceptor molecule, acceptor atom, score
      L1  H     9    28       P1  7948  0.78
      L1  C     5    25       P1 10186  1.00
      L1  C     6    26       P1 10952  0.44
      L1  C     8    27       P1 10747  0.96

> <Gold.PLP.Chemscore.Internal.Correction>
0.0408

> <Gold.Rescore>
     Score         DG    S(hbond)    S(metal)    S(lipo)     H(rot)  DE(clash)    DE(int)     intcor
      7.46      -8.99       1.00        0.00      52.62       2.33       0.00       1.53       ----

> <Gold.Chemscore.Fitness>
7.4593

> <Gold.Chemscore.DG>
-8.9949

> <Gold.Chemscore.ZeroCoef>
-5.4800

> <Gold.Chemscore.Hbond>
0.9963

> <Gold.Chemscore.Metal>
0.0000

> <Gold.Chemscore.Lipo>
52.6181

> <Gold.Chemscore.Internal_Hbond>
0.0000

> <Gold.Chemscore.DEClash>
0.0033

> <Gold.Chemscore.DEInternal>
1.5323

> <Gold.Chemscore.Rot>
2.3317

> <Gold.Chemscore.Internal.Correction>
   9.000000E+99

> <Gold.Chemscore.Hbonds>
donor molecule, donor type, donor heavy atom, donor atom, acceptor molecule, acceptor atom, score
      L1  H     9    28       P1  7948  0.74

> <Gold.Chemscore.Hbond.Weighted>
-3.3278

> <Gold.Chemscore.Metal.Weighted>
-0.0000

> <Gold.Chemscore.Lipo.Weighted>
-6.1563

> <Gold.Chemscore.Internal_Hbond.Weighted>
0.0000

> <Gold.Chemscore.DEClash.Weighted>
0.0033

> <Gold.Chemscore.DEInternal.Weighted>
1.5323

> <Gold.Chemscore.Rot.Weighted>
5.9692

> <Gold.Chemscore.Internal.Correction.Weighted>
   9.000000E+99

> <Gold.Protein.RotatedTorsions>
[ 6907 6896 6895 6894 ] final   81.80 input  -60.11 | X-H torsion
[ 7974 7965 7964 7962 ] final   25.93 input  175.53 | X-H torsion
[ 8008 7997 7996 7995 ] final  134.16 input   59.86 | X-H torsion
[ 10167 10162 10161 10158 ] final  -11.21 input  -65.29 | X-H torsion
[ 10718 10713 10712 10709 ] final   77.16 input   66.30 | X-H torsion
[ 10763 10752 10751 10750 ] final  175.37 input  -60.55 | X-H torsion
[ 11005 11000 10999 10996 ] final -112.07 input  -57.11 | X-H torsion

> <Gold.Protein.ActiveResidues>
 VAL166  LYS551  ARG553  GLY616  TRP617  ASP618  TYR619  PRO620  LYS621  CYS622 
 ASP623  PHE694  ASN695  SER759  ASP760  ASP761  ALA762  ILE779  LEU786  VAL792 
 PHE793  MET794  SER795  GLU796  ALA797  LYS798  CYS799  TRP800  GLU811  SER814 

> <Gold.Protein.RotatedAtoms>
  152.5280  134.3148  159.9126 H   0  0  0  0  0  0  0  0  0  0  0  0  # atno 6907 bound_to 6896
  151.3097  133.4079  159.2653 H   0  0  0  0  0  0  0  0  0  0  0  0  # atno 6908 bound_to 6896
  151.0049  134.9368  159.8032 H   0  0  0  0  0  0  0  0  0  0  0  0  # atno 6909 bound_to 6896
  146.1863  139.7397  142.8864 H   0  0  0  0  0  0  0  0  0  0  0  0  # atno 7974 bound_to 7965
  156.2997  140.2503  156.3372 H   0  0  0  0  0  0  0  0  0  0  0  0  # atno 8008 bound_to 7997
  154.9089  140.0404  157.1954 H   0  0  0  0  0  0  0  0  0  0  0  0  # atno 8009 bound_to 7997
  154.8425  140.2893  155.5654 H   0  0  0  0  0  0  0  0  0  0  0  0  # atno 8010 bound_to 7997
  140.7133  143.5664  150.9140 H   0  0  0  0  0  0  0  0  0  0  0  0  # atno 10167 bound_to 10162
  157.6700  130.9808  150.1601 H   0  0  0  0  0  0  0  0  0  0  0  0  # atno 10718 bound_to 10713
  154.4667  135.2769  155.1673 H   0  0  0  0  0  0  0  0  0  0  0  0  # atno 10763 bound_to 10752
  154.3439  135.6164  153.5613 H   0  0  0  0  0  0  0  0  0  0  0  0  # atno 10764 bound_to 10752
  152.9860  135.5795  154.5040 H   0  0  0  0  0  0  0  0  0  0  0  0  # atno 10765 bound_to 10752
  141.0697  133.9401  157.2510 H   0  0  0  0  0  0  0  0  0  0  0  0  # atno 11005 bound_to 11000
  145.3928  141.0374  143.3114 LP  0  0  0  0  0  0  0  0  0  0  0  0  # atno 17320 bound_to 7965
  144.8404  139.5482  143.6903 LP  0  0  0  0  0  0  0  0  0  0  0  0  # atno 17321 bound_to 7965
  139.9390  143.6404  152.3058 LP  0  0  0  0  0  0  0  0  0  0  0  0  # atno 17342 bound_to 10162
  139.6882  144.7649  151.1486 LP  0  0  0  0  0  0  0  0  0  0  0  0  # atno 17343 bound_to 10162
  156.2379  130.3688  149.8370 LP  0  0  0  0  0  0  0  0  0  0  0  0  # atno 17370 bound_to 10713
  156.6178  130.8614  151.3469 LP  0  0  0  0  0  0  0  0  0  0  0  0  # atno 17371 bound_to 10713
  139.9511  135.0175  156.8995 LP  0  0  0  0  0  0  0  0  0  0  0  0  # atno 17394 bound_to 11000
  140.5700  134.0452  155.7427 LP  0  0  0  0  0  0  0  0  0  0  0  0  # atno 17395 bound_to 11000

$$$$
