AV-unprocessed.smi:3134|AV-procd|sdf|11942|dock4
  -GOLD-   2272017333D 1   1.00000     0.00000
 Structure written by MMmdl.
 37 37  0  0  0  0  0  0  0  0  2 V2000
  146.7687  138.8842  151.7901 C   0  0  0  0  0  0  0  0  0  0  0  0
  146.9717  138.8694  153.3138 C   0  0  0  0  0  0  0  0  0  0  0  0
  147.8977  140.0027  153.7741 C   0  0  0  0  0  0  0  0  0  0  0  0
  147.5230  137.5869  153.7420 N   0  0  0  0  0  0  0  0  0  0  0  0
  147.0815  136.8636  154.7826 C   0  0  0  0  0  0  0  0  0  0  0  0
  146.1554  137.2225  155.5113 O   0  0  0  0  0  0  0  0  0  0  0  0
  147.7973  135.5315  155.0456 C   0  0  1  0  0  0  0  0  0  0  0  0
  146.9626  134.6655  156.0012 C   0  0  0  0  0  0  0  0  0  0  0  0
  148.0334  134.8011  153.7811 N   0  3  0  0  0  0  0  0  0  0  0  0
  146.8287  134.1872  153.1806 C   0  0  0  0  0  0  0  0  0  0  0  0
  147.1965  133.3000  151.9803 C   0  0  0  0  0  0  0  0  0  0  0  0
  146.0508  133.0255  151.1295 N   0  0  0  0  0  0  0  0  0  0  0  0
  146.0209  132.3749  149.9138 C   0  0  0  0  0  0  0  0  0  0  0  0
  144.7214  132.3556  149.4950 C   0  0  0  0  0  0  0  0  0  0  0  0
  144.0219  133.0384  150.5289 C   0  0  0  0  0  0  0  0  0  0  0  0
  144.8215  133.4441  151.5018 N   0  0  0  0  0  0  0  0  0  0  0  0
  146.3528  139.8370  151.4611 H   0  0  0  0  0  0  0  0  0  0  0  0
  146.0795  138.1007  151.4729 H   0  0  0  0  0  0  0  0  0  0  0  0
  147.7106  138.7330  151.2619 H   0  0  0  0  0  0  0  0  0  0  0  0
  146.0029  139.0184  153.7940 H   0  0  0  0  0  0  0  0  0  0  0  0
  147.4929  140.9759  153.4949 H   0  0  0  0  0  0  0  0  0  0  0  0
  148.8884  139.9146  153.3268 H   0  0  0  0  0  0  0  0  0  0  0  0
  148.0186  139.9963  154.8579 H   0  0  0  0  0  0  0  0  0  0  0  0
  148.2932  137.2217  153.2005 H   0  0  0  0  0  0  0  0  0  0  0  0
  148.7630  135.7254  155.5164 H   0  0  0  0  0  0  0  0  0  0  0  0
  146.7954  135.1732  156.9522 H   0  0  0  0  0  0  0  0  0  0  0  0
  147.4692  133.7250  156.2200 H   0  0  0  0  0  0  0  0  0  0  0  0
  145.9868  134.4246  155.5767 H   0  0  0  0  0  0  0  0  0  0  0  0
  148.4318  135.4359  153.1043 H   0  0  0  0  0  0  0  0  0  0  0  0
  146.2919  133.5940  153.9222 H   0  0  0  0  0  0  0  0  0  0  0  0
  146.1493  134.9815  152.8697 H   0  0  0  0  0  0  0  0  0  0  0  0
  147.9609  133.7878  151.3743 H   0  0  0  0  0  0  0  0  0  0  0  0
  147.6198  132.3539  152.3203 H   0  0  0  0  0  0  0  0  0  0  0  0
  146.9146  131.9794  149.4538 H   0  0  0  0  0  0  0  0  0  0  0  0
  144.3295  131.9223  148.5868 H   0  0  0  0  0  0  0  0  0  0  0  0
  142.9654  133.2510  150.6003 H   0  0  0  0  0  0  0  0  0  0  0  0
  148.7049  134.0713  153.9754 H   0  0  0  0  0  0  0  0  0  0  0  0
  1  2  1  0  0  0  0
  1 17  1  0  0  0  0
  1 18  1  0  0  0  0
  1 19  1  0  0  0  0
  2  3  1  0  0  0  0
  2  4  1  0  0  0  0
  2 20  1  0  0  0  0
  3 21  1  0  0  0  0
  3 22  1  0  0  0  0
  3 23  1  0  0  0  0
  4  5  1  0  0  0  0
  4 24  1  0  0  0  0
  5  6  2  0  0  0  0
  5  7  1  0  0  0  0
  7  8  1  0  0  0  0
  7  9  1  0  0  0  0
  7 25  1  0  0  0  0
  8 26  1  0  0  0  0
  8 27  1  0  0  0  0
  8 28  1  0  0  0  0
  9 10  1  0  0  0  0
  9 29  1  0  0  0  0
  9 37  1  0  0  0  0
 10 11  1  0  0  0  0
 10 30  1  0  0  0  0
 10 31  1  0  0  0  0
 11 12  1  0  0  0  0
 11 32  1  0  0  0  0
 11 33  1  0  0  0  0
 12 16  1  0  0  0  0
 12 13  1  0  0  0  0
 13 14  2  0  0  0  0
 13 34  1  0  0  0  0
 14 15  1  0  0  0  0
 14 35  1  0  0  0  0
 15 16  2  0  0  0  0
 15 36  1  0  0  0  0
M  CHG  1   9   1
M  END
> <s_m_source_file>
AV-unprocessed.smi

> <i_m_source_file_index>
3134

> <i_lp_mmshare_version>
43012

> <i_f3d_flags>
0

> <s_epik_input>
W0NIM11bQ0hdKFtDSDNdKVtOSF1DKD1PKVtDQEhdKFtDSDNdKVtOSF1bQ0gyXVtDSDJdbjFbY0hdW2NIXVtjSF1uMQ==

> <s_epik_cmdline>
J2VwaWtfcHl0aG9uJywgJy1waCcsICc3LjAnLCAnLXRuJywgJzgnLCAnLW1hJywgJzIwMCcsICctbWV0YWxfYmluZGluZycsICctaW1hZScsICc8aW5maWxlLm1hZT4nLCAnLW9tYWUnLCAnPG91dGZpbGUubWFlPic=

> <r_lp_tautomer_probability>
1

> <r_epik_Ionization_Penalty>
0.20398

> <r_epik_Ionization_Penalty_Charging>
0.203977

> <r_epik_Ionization_Penalty_Neutral>
3.23345e-06

> <r_epik_State_Penalty>
0.193898

> <r_epik_Charging_Adjusted_Penalty>
0.397875

> <i_epik_Tot_Q>
1

> <i_epik_Tot_abs_Q>
1

> <r_epik_Metal_State_Penalty>
0.194184

> <b_epik_Metal_Only>
0

> <s_lp_Force_Field>
OPLS_2005

> <r_lp_Energy>
4.47428

> <b_lp_Chiralities_Consistent>
1

> <s_lp_Variant>
AV-unprocessed.smi:3134-2

> <Gold.Version>
5.8.1

> <Gold.Id.Protein>
6NUR|6NUR_protein|mol2

> <Gold.PLP.Fitness>
39.9709

> <Gold.PLP.PLP>
-26.4460

> <Gold.PLP.part.hbond>
-2.0000

> <Gold.PLP.part.metal>
0.0000

> <Gold.PLP.part.buried>
-0.9989

> <Gold.PLP.part.nonpolar>
-22.6206

> <Gold.PLP.part.repulsive>
0.1205

> <Gold.PLP.ligand.clash>
0.0000

> <Gold.PLP.ligand.torsion>
0.8138

> <Gold.PLP.Chemscore.Hbond>
3.0000

> <Gold.PLP.Chemscore.CHOScore>
2.0000

> <Gold.PLP.Chemscore.Metal>
0.0000

> <Gold.Chemscore.Hbonds>
donor molecule, donor type, donor heavy atom, donor atom, acceptor molecule, acceptor atom, score
      L1  H     4    24       P1  7948  1.00
      L1  H     9    29       P1  7948  2.00
      L1  C    13    34       P1 10747  1.00
      L1  C    15    36       P1 10186  1.00

> <Gold.PLP.Chemscore.Internal.Correction>
0.1524

> <Gold.Rescore>
     Score         DG    S(hbond)    S(metal)    S(lipo)     H(rot)  DE(clash)    DE(int)     intcor
     13.49     -14.37       1.96        0.00      66.73       2.13       0.01       0.88       ----

> <Gold.Chemscore.Fitness>
13.4870

> <Gold.Chemscore.DG>
-14.3700

> <Gold.Chemscore.ZeroCoef>
-5.4800

> <Gold.Chemscore.Hbond>
1.9592

> <Gold.Chemscore.Metal>
0.0000

> <Gold.Chemscore.Lipo>
66.7321

> <Gold.Chemscore.Internal_Hbond>
0.0000

> <Gold.Chemscore.DEClash>
0.0073

> <Gold.Chemscore.DEInternal>
0.8757

> <Gold.Chemscore.Rot>
2.1334

> <Gold.Chemscore.Internal.Correction>
   9.000000E+99

> <Gold.Chemscore.Hbonds>
donor molecule, donor type, donor heavy atom, donor atom, acceptor molecule, acceptor atom, score
      L1  H     4    24       P1  7948  0.97
      L1  H     9    29       P1  7948  0.93

> <Gold.Chemscore.Hbond.Weighted>
-6.5439

> <Gold.Chemscore.Metal.Weighted>
-0.0000

> <Gold.Chemscore.Lipo.Weighted>
-7.8077

> <Gold.Chemscore.Internal_Hbond.Weighted>
0.0000

> <Gold.Chemscore.DEClash.Weighted>
0.0073

> <Gold.Chemscore.DEInternal.Weighted>
0.8757

> <Gold.Chemscore.Rot.Weighted>
5.4615

> <Gold.Chemscore.Internal.Correction.Weighted>
   9.000000E+99

> <Gold.Protein.RotatedTorsions>
[ 6907 6896 6895 6894 ] final -175.19 input  -60.11 | X-H torsion
[ 7974 7965 7964 7962 ] final  123.06 input  175.53 | X-H torsion
[ 8008 7997 7996 7995 ] final  144.37 input   59.86 | X-H torsion
[ 10167 10162 10161 10158 ] final  -71.41 input  -65.29 | X-H torsion
[ 10718 10713 10712 10709 ] final -153.84 input   66.30 | X-H torsion
[ 10763 10752 10751 10750 ] final -116.42 input  -60.55 | X-H torsion
[ 11005 11000 10999 10996 ] final -138.62 input  -57.11 | X-H torsion

> <Gold.Protein.ActiveResidues>
 VAL166  LYS551  ARG553  GLY616  TRP617  ASP618  TYR619  PRO620  LYS621  CYS622 
 ASP623  PHE694  ASN695  SER759  ASP760  ASP761  ALA762  ILE779  LEU786  VAL792 
 PHE793  MET794  SER795  GLU796  ALA797  LYS798  CYS799  TRP800  GLU811  SER814 

> <Gold.Protein.RotatedAtoms>
  151.5846  133.3373  159.3015 H   0  0  0  0  0  0  0  0  0  0  0  0  # atno 6907 bound_to 6896
  150.8294  134.7543  159.6852 H   0  0  0  0  0  0  0  0  0  0  0  0  # atno 6908 bound_to 6896
  152.4379  134.5655  159.9958 H   0  0  0  0  0  0  0  0  0  0  0  0  # atno 6909 bound_to 6896
  145.1003  139.3523  143.4815 H   0  0  0  0  0  0  0  0  0  0  0  0  # atno 7974 bound_to 7965
  156.2909  140.2237  156.5041 H   0  0  0  0  0  0  0  0  0  0  0  0  # atno 8008 bound_to 7997
  154.7664  140.0469  157.1037 H   0  0  0  0  0  0  0  0  0  0  0  0  # atno 8009 bound_to 7997
  154.9927  140.3092  155.4903 H   0  0  0  0  0  0  0  0  0  0  0  0  # atno 8010 bound_to 7997
  140.5275  143.2325  151.7321 H   0  0  0  0  0  0  0  0  0  0  0  0  # atno 10167 bound_to 10162
  156.4912  130.8348  151.2571 H   0  0  0  0  0  0  0  0  0  0  0  0  # atno 10718 bound_to 10713
  154.8518  135.4346  154.1818 H   0  0  0  0  0  0  0  0  0  0  0  0  # atno 10763 bound_to 10752
  153.2907  135.6961  153.7302 H   0  0  0  0  0  0  0  0  0  0  0  0  # atno 10764 bound_to 10752
  153.6471  135.3458  155.3063 H   0  0  0  0  0  0  0  0  0  0  0  0  # atno 10765 bound_to 10752
  140.8598  134.2183  157.4714 H   0  0  0  0  0  0  0  0  0  0  0  0  # atno 11005 bound_to 11000
  146.3530  140.0877  142.8614 LP  0  0  0  0  0  0  0  0  0  0  0  0  # atno 17320 bound_to 7965
  145.0963  140.9317  143.4739 LP  0  0  0  0  0  0  0  0  0  0  0  0  # atno 17321 bound_to 7965
  139.4943  144.4164  152.0025 LP  0  0  0  0  0  0  0  0  0  0  0  0  # atno 17342 bound_to 10162
  140.3264  144.3368  150.5997 LP  0  0  0  0  0  0  0  0  0  0  0  0  # atno 17343 bound_to 10162
  157.7473  131.0013  150.2957 LP  0  0  0  0  0  0  0  0  0  0  0  0  # atno 17370 bound_to 10713
  156.3424  130.3817  149.7397 LP  0  0  0  0  0  0  0  0  0  0  0  0  # atno 17371 bound_to 10713
  139.8706  134.9724  156.4771 LP  0  0  0  0  0  0  0  0  0  0  0  0  # atno 17394 bound_to 11000
  140.8696  133.7998  155.9350 LP  0  0  0  0  0  0  0  0  0  0  0  0  # atno 17395 bound_to 11000

$$$$
