AV-unprocessed.smi:3134|AV-procd|sdf|11941|dock2
  -GOLD-   2272017333D 1   1.00000     0.00000
 Structure written by MMmdl.
 37 37  0  0  0  0  0  0  0  0  2 V2000
  143.6749  136.3532  152.2328 C   0  0  0  0  0  0  0  0  0  0  0  0
  145.1388  136.4129  151.7693 C   0  0  0  0  0  0  0  0  0  0  0  0
  145.7848  135.0210  151.7524 C   0  0  0  0  0  0  0  0  0  0  0  0
  145.9132  137.2967  152.6360 N   0  0  0  0  0  0  0  0  0  0  0  0
  146.6798  138.3177  152.2210 C   0  0  0  0  0  0  0  0  0  0  0  0
  146.8081  138.6305  151.0367 O   0  0  0  0  0  0  0  0  0  0  0  0
  147.4010  139.1173  153.3153 C   0  0  2  0  0  0  0  0  0  0  0  0
  147.0574  140.6093  153.1875 C   0  0  0  0  0  0  0  0  0  0  0  0
  148.8698  138.9353  153.2550 N   0  3  0  0  0  0  0  0  0  0  0  0
  149.5840  139.1779  154.5264 C   0  0  0  0  0  0  0  0  0  0  0  0
  149.6050  140.6744  154.8681 C   0  0  0  0  0  0  0  0  0  0  0  0
  150.3830  140.9411  156.0622 N   0  0  0  0  0  0  0  0  0  0  0  0
  150.6441  142.1540  156.6645 C   0  0  0  0  0  0  0  0  0  0  0  0
  151.4162  141.9038  157.7626 C   0  0  0  0  0  0  0  0  0  0  0  0
  151.5741  140.4897  157.7502 C   0  0  0  0  0  0  0  0  0  0  0  0
  150.9532  139.9162  156.7318 N   0  0  0  0  0  0  0  0  0  0  0  0
  143.0868  135.7014  151.5862 H   0  0  0  0  0  0  0  0  0  0  0  0
  143.2106  137.3397  152.2103 H   0  0  0  0  0  0  0  0  0  0  0  0
  143.5952  135.9708  153.2509 H   0  0  0  0  0  0  0  0  0  0  0  0
  145.1643  136.8022  150.7498 H   0  0  0  0  0  0  0  0  0  0  0  0
  145.2438  134.3467  151.0877 H   0  0  0  0  0  0  0  0  0  0  0  0
  145.7918  134.5727  152.7465 H   0  0  0  0  0  0  0  0  0  0  0  0
  146.8160  135.0694  151.4011 H   0  0  0  0  0  0  0  0  0  0  0  0
  145.8596  137.1163  153.6284 H   0  0  0  0  0  0  0  0  0  0  0  0
  147.0553  138.7736  154.2919 H   0  0  0  0  0  0  0  0  0  0  0  0
  145.9814  140.7766  153.2527 H   0  0  0  0  0  0  0  0  0  0  0  0
  147.4004  141.0201  152.2367 H   0  0  0  0  0  0  0  0  0  0  0  0
  147.5244  141.1876  153.9853 H   0  0  0  0  0  0  0  0  0  0  0  0
  149.0620  137.9942  152.9420 H   0  0  0  0  0  0  0  0  0  0  0  0
  149.0919  138.6184  155.3231 H   0  0  0  0  0  0  0  0  0  0  0  0
  150.6060  138.8036  154.4541 H   0  0  0  0  0  0  0  0  0  0  0  0
  150.0300  141.2466  154.0422 H   0  0  0  0  0  0  0  0  0  0  0  0
  148.5915  141.0471  155.0247 H   0  0  0  0  0  0  0  0  0  0  0  0
  150.2644  143.0838  156.2669 H   0  0  0  0  0  0  0  0  0  0  0  0
  151.8077  142.6214  158.4683 H   0  0  0  0  0  0  0  0  0  0  0  0
  152.1171  139.8673  158.4462 H   0  0  0  0  0  0  0  0  0  0  0  0
  149.2353  139.5837  152.5726 H   0  0  0  0  0  0  0  0  0  0  0  0
  1  2  1  0  0  0  0
  1 17  1  0  0  0  0
  1 18  1  0  0  0  0
  1 19  1  0  0  0  0
  2  3  1  0  0  0  0
  2  4  1  0  0  0  0
  2 20  1  0  0  0  0
  3 21  1  0  0  0  0
  3 22  1  0  0  0  0
  3 23  1  0  0  0  0
  4  5  1  0  0  0  0
  4 24  1  0  0  0  0
  5  6  2  0  0  0  0
  5  7  1  0  0  0  0
  7  8  1  0  0  0  0
  7  9  1  0  0  0  0
  7 25  1  0  0  0  0
  8 26  1  0  0  0  0
  8 27  1  0  0  0  0
  8 28  1  0  0  0  0
  9 10  1  0  0  0  0
  9 29  1  0  0  0  0
  9 37  1  0  0  0  0
 10 11  1  0  0  0  0
 10 30  1  0  0  0  0
 10 31  1  0  0  0  0
 11 12  1  0  0  0  0
 11 32  1  0  0  0  0
 11 33  1  0  0  0  0
 12 16  1  0  0  0  0
 12 13  1  0  0  0  0
 13 14  2  0  0  0  0
 13 34  1  0  0  0  0
 14 15  1  0  0  0  0
 14 35  1  0  0  0  0
 15 16  2  0  0  0  0
 15 36  1  0  0  0  0
M  CHG  1   9   1
M  END
> <s_m_source_file>
AV-unprocessed.smi

> <i_m_source_file_index>
3134

> <i_lp_mmshare_version>
43012

> <i_f3d_flags>
0

> <s_epik_input>
W0NIM11bQ0hdKFtDSDNdKVtOSF1DKD1PKVtDQEhdKFtDSDNdKVtOSF1bQ0gyXVtDSDJdbjFbY0hdW2NIXVtjSF1uMQ==

> <s_epik_cmdline>
J2VwaWtfcHl0aG9uJywgJy1waCcsICc3LjAnLCAnLXRuJywgJzgnLCAnLW1hJywgJzIwMCcsICctbWV0YWxfYmluZGluZycsICctaW1hZScsICc8aW5maWxlLm1hZT4nLCAnLW9tYWUnLCAnPG91dGZpbGUubWFlPic=

> <r_lp_tautomer_probability>
1

> <r_epik_Ionization_Penalty>
0.20398

> <r_epik_Ionization_Penalty_Charging>
0.203977

> <r_epik_Ionization_Penalty_Neutral>
3.23345e-06

> <r_epik_State_Penalty>
0.193898

> <r_epik_Charging_Adjusted_Penalty>
0.397875

> <i_epik_Tot_Q>
1

> <i_epik_Tot_abs_Q>
1

> <r_epik_Metal_State_Penalty>
0.194184

> <b_epik_Metal_Only>
0

> <s_lp_Force_Field>
OPLS_2005

> <r_lp_Energy>
4.26542

> <b_lp_Chiralities_Consistent>
1

> <s_lp_Variant>
AV-unprocessed.smi:3134-1

> <Gold.Version>
5.8.1

> <Gold.Id.Protein>
6NUR|6NUR_protein|mol2

> <Gold.PLP.Fitness>
45.3948

> <Gold.PLP.PLP>
-31.4398

> <Gold.PLP.part.hbond>
-2.8154

> <Gold.PLP.part.metal>
0.0000

> <Gold.PLP.part.buried>
-2.8136

> <Gold.PLP.part.nonpolar>
-26.7950

> <Gold.PLP.part.repulsive>
0.8030

> <Gold.PLP.ligand.clash>
0.0000

> <Gold.PLP.ligand.torsion>
0.4430

> <Gold.PLP.Chemscore.Hbond>
3.9183

> <Gold.PLP.Chemscore.CHOScore>
1.0000

> <Gold.PLP.Chemscore.Metal>
0.0000

> <Gold.Chemscore.Hbonds>
donor molecule, donor type, donor heavy atom, donor atom, acceptor molecule, acceptor atom, score
      L1  H     9    29       P1  7948  1.95
      L1  H     9    37       P1  7957  0.99
      P1  H  7954  7966       L1     6  0.99
      L1  C    13    34       P1  8028  1.00

> <Gold.PLP.Chemscore.Internal.Correction>
0.0862

> <Gold.Rescore>
     Score         DG    S(hbond)    S(metal)    S(lipo)     H(rot)  DE(clash)    DE(int)     intcor
     16.22     -16.96       2.89        0.00      62.35       2.13       0.32       0.42       ----

> <Gold.Chemscore.Fitness>
16.2157

> <Gold.Chemscore.DG>
-16.9594

> <Gold.Chemscore.ZeroCoef>
-5.4800

> <Gold.Chemscore.Hbond>
2.8879

> <Gold.Chemscore.Metal>
0.0000

> <Gold.Chemscore.Lipo>
62.3545

> <Gold.Chemscore.Internal_Hbond>
0.0000

> <Gold.Chemscore.DEClash>
0.3245

> <Gold.Chemscore.DEInternal>
0.4193

> <Gold.Chemscore.Rot>
2.1334

> <Gold.Chemscore.Internal.Correction>
   9.000000E+99

> <Gold.Chemscore.Hbonds>
donor molecule, donor type, donor heavy atom, donor atom, acceptor molecule, acceptor atom, score
      L1  H     9    29       P1  7948  0.91
      L1  H     9    37       P1  7957  0.90
      P1  H  7954  7966       L1     6  0.92

> <Gold.Chemscore.Hbond.Weighted>
-9.6455

> <Gold.Chemscore.Metal.Weighted>
-0.0000

> <Gold.Chemscore.Lipo.Weighted>
-7.2955

> <Gold.Chemscore.Internal_Hbond.Weighted>
0.0000

> <Gold.Chemscore.DEClash.Weighted>
0.3245

> <Gold.Chemscore.DEInternal.Weighted>
0.4193

> <Gold.Chemscore.Rot.Weighted>
5.4615

> <Gold.Chemscore.Internal.Correction.Weighted>
   9.000000E+99

> <Gold.Protein.RotatedTorsions>
[ 6907 6896 6895 6894 ] final   72.75 input  -60.11 | X-H torsion
[ 7974 7965 7964 7962 ] final   -1.80 input  175.53 | X-H torsion
[ 8008 7997 7996 7995 ] final -107.82 input   59.86 | X-H torsion
[ 10167 10162 10161 10158 ] final   80.50 input  -65.29 | X-H torsion
[ 10718 10713 10712 10709 ] final   70.15 input   66.30 | X-H torsion
[ 10763 10752 10751 10750 ] final   33.53 input  -60.55 | X-H torsion
[ 11005 11000 10999 10996 ] final  -41.39 input  -57.11 | X-H torsion

> <Gold.Protein.ActiveResidues>
 VAL166  LYS551  ARG553  GLY616  TRP617  ASP618  TYR619  PRO620  LYS621  CYS622 
 ASP623  PHE694  ASN695  SER759  ASP760  ASP761  ALA762  ILE779  LEU786  VAL792 
 PHE793  MET794  SER795  GLU796  ALA797  LYS798  CYS799  TRP800  GLU811  SER814 

> <Gold.Protein.RotatedAtoms>
  152.4885  134.4524  159.9578 H   0  0  0  0  0  0  0  0  0  0  0  0  # atno 6907 bound_to 6896
  151.4516  133.3610  159.2804 H   0  0  0  0  0  0  0  0  0  0  0  0  # atno 6908 bound_to 6896
  150.9018  134.8454  159.7425 H   0  0  0  0  0  0  0  0  0  0  0  0  # atno 6909 bound_to 6896
  146.2412  140.1475  142.8334 H   0  0  0  0  0  0  0  0  0  0  0  0  # atno 7974 bound_to 7965
  154.9351  140.0404  157.2068 H   0  0  0  0  0  0  0  0  0  0  0  0  # atno 8008 bound_to 7997
  154.8123  140.2870  155.5823 H   0  0  0  0  0  0  0  0  0  0  0  0  # atno 8009 bound_to 7997
  156.2972  140.2534  156.3014 H   0  0  0  0  0  0  0  0  0  0  0  0  # atno 8010 bound_to 7997
  139.9491  144.6038  150.8178 H   0  0  0  0  0  0  0  0  0  0  0  0  # atno 10167 bound_to 10162
  157.6384  130.9462  150.0611 H   0  0  0  0  0  0  0  0  0  0  0  0  # atno 10718 bound_to 10713
  153.0207  135.6384  154.1527 H   0  0  0  0  0  0  0  0  0  0  0  0  # atno 10763 bound_to 10752
  154.1261  135.2843  155.3198 H   0  0  0  0  0  0  0  0  0  0  0  0  # atno 10764 bound_to 10752
  154.6228  135.5519  153.7656 H   0  0  0  0  0  0  0  0  0  0  0  0  # atno 10765 bound_to 10752
  141.0242  133.6849  156.2450 H   0  0  0  0  0  0  0  0  0  0  0  0  # atno 11005 bound_to 11000
  145.0195  140.8782  143.5175 LP  0  0  0  0  0  0  0  0  0  0  0  0  # atno 17320 bound_to 7965
  145.1521  139.2508  143.5435 LP  0  0  0  0  0  0  0  0  0  0  0  0  # atno 17321 bound_to 7965
  140.7588  143.3115  151.2833 LP  0  0  0  0  0  0  0  0  0  0  0  0  # atno 17342 bound_to 10162
  139.6643  144.0134  152.2712 LP  0  0  0  0  0  0  0  0  0  0  0  0  # atno 17343 bound_to 10162
  156.1644  130.3644  149.9254 LP  0  0  0  0  0  0  0  0  0  0  0  0  # atno 17370 bound_to 10713
  156.7244  130.9019  151.3621 LP  0  0  0  0  0  0  0  0  0  0  0  0  # atno 17371 bound_to 10713
  140.6520  134.5057  157.5578 LP  0  0  0  0  0  0  0  0  0  0  0  0  # atno 17394 bound_to 11000
  139.9165  134.8235  156.1349 LP  0  0  0  0  0  0  0  0  0  0  0  0  # atno 17395 bound_to 11000

$$$$
