#       Name:                AV-unprocessed.smi:81
#       Creating user name   scv26
#       Creation time:       Thu Mar 26 17:17:01 2020


#       File generated by GOLD software.
#

@<TRIPOS>MOLECULE
AV-unprocessed.smi:81
    71    74     1
SMALL
NO_CHARGES


@<TRIPOS>ATOM
      1 ****        -1.9143  -0.4909  -4.0928 C.3            1 S1                 0.0000
      2 ****        -1.8272  -1.2575  -2.7629 C.3            1 S1                 0.0000
      3 ****        -2.2716  -2.7145  -2.9517 C.3            1 S1                 0.0000
      4 ****        -2.6630  -0.5790  -1.6526 C.3            1 S1                 0.0000
      5 ****        -2.2176   0.7730  -1.2965 N.pl3          1 S1                 0.0000
      6 ****        -0.9118   0.8908  -0.9520 C.ar           1 S1                 0.0000
      7 ****        -0.1758   1.8179  -1.6145 N.ar           1 S1                 0.0000
      8 ****         1.1232   1.9648  -1.3404 C.ar           1 S1                 0.0000
      9 ****         1.8711   1.2931  -0.4636 N.ar           1 S1                 0.0000
     10 ****         1.1421   0.3424   0.1893 C.ar           1 S1                 0.0000
     11 ****        -0.2443   0.0772   0.0084 C.ar           1 S1                 0.0000
     12 ****        -0.6403  -0.9491   0.8558 N.2            1 S1                 0.0000
     13 ****         0.4477  -1.2715   1.4992 C.2            1 S1                 0.0000
     14 ****         1.5766  -0.5649   1.1424 N.pl3          1 S1                 0.0000
     15 ****         2.9230  -0.6896   1.6933 C.3            1 S1                 0.0000
     16 ****         3.5741  -2.0953   1.5715 C.3            1 S1                 0.0000
     17 ****         2.8651  -2.9778   2.4248 O.3            1 S1                 0.0000
     18 ****         5.0301  -2.1037   2.0095 C.3            1 S1                 0.0000
     19 ****         5.5564  -3.3878   1.3839 C.3            1 S1                 0.0000
     20 ****         4.8755  -3.4826   0.1406 O.3            1 S1                 0.0000
     21 ****         3.6470  -2.7516   0.1675 C.3            1 S1                 0.0000
     22 ****         3.7364  -1.7887  -1.0277 C.3            1 S1                 0.0000
     23 ****        -3.2017   1.6424  -0.6286 C.3            1 S1                 0.0000
     24 ****        -2.9048   3.1601  -0.6846 C.3            1 S1                 0.0000
     25 ****        -2.0376   3.6782   0.4795 C.3            1 S1                 0.0000
     26 ****        -2.5967   3.2683   1.7885 N.4            1 S1                 1.0000
     27 ****        -1.8679   3.8744   2.9233 C.3            1 S1                 0.0000
     28 ****        -2.6927   1.7948   1.9049 C.3            1 S1                 0.0000
     29 ****        -3.5922   1.2049   0.8033 C.3            1 S1                 0.0000
     30 ****        -2.9430  -0.4320  -4.4495 H              1 S1                 0.0000
     31 ****        -1.3215  -0.9795  -4.8664 H              1 S1                 0.0000
     32 ****        -1.5393   0.5277  -3.9916 H              1 S1                 0.0000
     33 ****        -0.7802  -1.2892  -2.4607 H              1 S1                 0.0000
     34 ****        -3.3121  -2.7743  -3.2727 H              1 S1                 0.0000
     35 ****        -2.1763  -3.2774  -2.0226 H              1 S1                 0.0000
     36 ****        -1.6617  -3.2174  -3.7027 H              1 S1                 0.0000
     37 ****        -3.7025  -0.5311  -1.9789 H              1 S1                 0.0000
     38 ****        -2.6657  -1.2052  -0.7613 H              1 S1                 0.0000
     39 ****         1.6379   2.7268  -1.9073 H              1 S1                 0.0000
     40 ****         0.4440  -2.0399   2.2574 H              1 S1                 0.0000
     41 ****         3.5601   0.0468   1.2031 H              1 S1                 0.0000
     42 ****         2.8819  -0.3893   2.7411 H              1 S1                 0.0000
     43 ****         3.2635  -3.8330   2.3662 H              1 S1                 0.0000
     44 ****         5.5585  -1.2512   1.5803 H              1 S1                 0.0000
     45 ****         5.1639  -2.0686   3.0915 H              1 S1                 0.0000
     46 ****         6.6379  -3.3772   1.2477 H              1 S1                 0.0000
     47 ****         5.2993  -4.2518   1.9982 H              1 S1                 0.0000
     48 ****         2.8121  -3.4355   0.0055 H              1 S1                 0.0000
     49 ****         2.7918  -1.2822  -1.2112 H              1 S1                 0.0000
     50 ****         3.9793  -2.3330  -1.9405 H              1 S1                 0.0000
     51 ****         4.5090  -1.0340  -0.8792 H              1 S1                 0.0000
     52 ****        -4.0987   1.5097  -1.2347 H              1 S1                 0.0000
     53 ****        -2.4664   3.4333  -1.6448 H              1 S1                 0.0000
     54 ****        -3.8584   3.6879  -0.6416 H              1 S1                 0.0000
     55 ****        -1.0107   3.3240   0.4022 H              1 S1                 0.0000
     56 ****        -1.9911   4.7667   0.4307 H              1 S1                 0.0000
     57 ****        -0.8314   3.5351   2.9481 H              1 S1                 0.0000
     58 ****        -2.3383   3.6087   3.8705 H              1 S1                 0.0000
     59 ****        -1.8702   4.9619   2.8455 H              1 S1                 0.0000
     60 ****        -1.6933   1.3661   1.8724 H              1 S1                 0.0000
     61 ****        -3.1075   1.5349   2.8795 H              1 S1                 0.0000
     62 ****        -4.6105   1.5473   0.9917 H              1 S1                 0.0000
     63 ****        -3.6310   0.1189   0.8882 H              1 S1                 0.0000
     64 ****        -3.5406   3.6260   1.8279 H              1 S1                 0.0000
     65 ****        -0.6068   2.3929  -2.3099 LP             1 S1                 0.0000
     66 ****         2.8434   1.4647  -0.3048 LP             1 S1                 0.0000
     67 ****        -1.5516  -1.3496   0.9511 LP             1 S1                 0.0000
     68 ****         1.9088  -3.0301   2.1373 LP             1 S1                 0.0000
     69 ****         2.9122  -2.6470   3.3673 LP             1 S1                 0.0000
     70 ****         4.6789  -4.4441  -0.0513 LP             1 S1                 0.0000
     71 ****         5.4603  -3.1115  -0.5808 LP             1 S1                 0.0000
@<TRIPOS>BOND
    1    1    2 1     
    2    1   30 1     
    3    1   31 1     
    4    1   32 1     
    5    2    3 1     
    6    2    4 1     
    7    2   33 1     
    8    3   34 1     
    9    3   35 1     
   10    3   36 1     
   11    4    5 1     
   12    4   37 1     
   13    4   38 1     
   14    5    6 1     
   15    5   23 1     
   16    6   11 ar    
   17    6    7 ar    
   18    7    8 ar    
   19    8    9 ar    
   20    8   39 1     
   21    9   10 ar    
   22   10   14 1     
   23   10   11 ar    
   24   11   12 1     
   25   12   13 2     
   26   13   14 1     
   27   13   40 1     
   28   14   15 1     
   29   15   16 1     
   30   15   41 1     
   31   15   42 1     
   32   16   21 1     
   33   16   17 1     
   34   16   18 1     
   35   17   43 1     
   36   18   19 1     
   37   18   44 1     
   38   18   45 1     
   39   19   20 1     
   40   19   46 1     
   41   19   47 1     
   42   20   21 1     
   43   21   22 1     
   44   21   48 1     
   45   22   49 1     
   46   22   50 1     
   47   22   51 1     
   48   23   29 1     
   49   23   24 1     
   50   23   52 1     
   51   24   25 1     
   52   24   53 1     
   53   24   54 1     
   54   25   26 1     
   55   25   55 1     
   56   25   56 1     
   57   26   27 1     
   58   26   28 1     
   59   26   64 1     
   60   27   57 1     
   61   27   58 1     
   62   27   59 1     
   63   28   29 1     
   64   28   60 1     
   65   28   61 1     
   66   29   62 1     
   67   29   63 1     
   68    7   65 1     
   69    9   66 1     
   70   12   67 1     
   71   17   68 1     
   72   17   69 1     
   73   20   70 1     
   74   20   71 1     
@<TRIPOS>SUBSTRUCTURE
      1 S1             1
@<TRIPOS>SET
LONE_PAIRS      STATIC     ATOMS    <user>   **** ""
7 65 66 67 68 69 70 71
DONOR_HYDROGENS      STATIC     ATOMS    <user>   **** ""
2 43 64
ATOM$BLUE        STATIC     ATOMS    COLORGROUP SYSTEM
7 65 66 67 68 69 70 71
ATOM$RED        STATIC     ATOMS    COLORGROUP SYSTEM
2 43 64
