#       Name:                AV-unprocessed.smi:1809
#       Creating user name   scv26
#       Creation time:       Fri Mar 27 08:57:13 2020


#       File generated by GOLD software.
#

@<TRIPOS>MOLECULE
AV-unprocessed.smi:1809
    46    48     1
SMALL
NO_CHARGES


@<TRIPOS>ATOM
      1 ****        -7.3092  -1.0565   1.6255 C.3            1 S1                 0.0000
      2 ****        -5.8866  -1.4877   1.7340 C.2            1 S1                 0.0000
      3 ****        -5.5251  -2.7689   1.8800 N.2            1 S1                 0.0000
      4 ****        -4.1479  -2.9237   1.9645 N.2            1 S1                 0.0000
      5 ****        -3.5082  -1.7540   1.8786 C.2            1 S1                 0.0000
      6 ****        -2.0931  -1.7607   1.9551 N.am           1 S1                 0.0000
      7 ****        -1.2565  -0.7140   1.8711 C.2            1 S1                 0.0000
      8 ****        -1.5923   0.4559   1.6871 O.2            1 S1                 0.0000
      9 ****         0.0200  -1.1004   2.0039 N.am           1 S1                 0.0000
     10 ****         1.1744  -0.2102   1.9432 C.3            1 S1                 0.0000
     11 ****         1.5153   0.1857   0.4957 C.3            1 S1                 0.0000
     12 ****         2.6998   1.1690   0.4312 C.3            1 S1                 0.0000
     13 ****         3.1150   1.4438  -0.9645 N.4            1 S1                 1.0000
     14 ****         2.3094   2.4372  -1.7086 C.3            1 S1                 0.0000
     15 ****         2.3638   2.0173  -3.1861 C.3            1 S1                 0.0000
     16 ****         3.2948   0.8014  -3.2319 C.3            1 S1                 0.0000
     17 ****         3.2472   0.2397  -1.8103 C.3            1 S1                 0.0000
     18 ****         2.0603  -0.7282  -1.6039 C.3            1 S1                 0.0000
     19 ****         1.8743  -0.9904  -0.2205 O.3            1 S1                 0.0000
     20 ****        -4.5507  -0.3447   1.6835 S.3            1 S1                 0.0000
     21 ****        -7.9700  -1.9214   1.5582 H              1 S1                 0.0000
     22 ****        -7.4467  -0.4425   0.7354 H              1 S1                 0.0000
     23 ****        -7.5879  -0.4709   2.5016 H              1 S1                 0.0000
     24 ****        -1.6717  -2.6675   2.0938 H              1 S1                 0.0000
     25 ****         0.2092  -2.0812   2.1512 H              1 S1                 0.0000
     26 ****         0.9809   0.6800   2.5443 H              1 S1                 0.0000
     27 ****         2.0224  -0.7166   2.4050 H              1 S1                 0.0000
     28 ****         0.6363   0.6410   0.0366 H              1 S1                 0.0000
     29 ****         2.4618   2.1046   0.9391 H              1 S1                 0.0000
     30 ****         3.5553   0.7388   0.9534 H              1 S1                 0.0000
     31 ****         1.2755   2.4479  -1.3616 H              1 S1                 0.0000
     32 ****         2.7208   3.4350  -1.5542 H              1 S1                 0.0000
     33 ****         1.3660   1.7386  -3.5275 H              1 S1                 0.0000
     34 ****         2.7174   2.8220  -3.8314 H              1 S1                 0.0000
     35 ****         3.0079   0.0742  -3.9925 H              1 S1                 0.0000
     36 ****         4.3098   1.1311  -3.4583 H              1 S1                 0.0000
     37 ****         4.1759  -0.2753  -1.5609 H              1 S1                 0.0000
     38 ****         1.1372  -0.3276  -2.0263 H              1 S1                 0.0000
     39 ****         2.2536  -1.6695  -2.1186 H              1 S1                 0.0000
     40 ****         4.0401   1.8470  -0.9168 H              1 S1                 0.0000
     41 ****        -6.1740  -3.5285   1.9233 LP             1 S1                 0.0000
     42 ****        -3.6895  -3.8054   2.0764 LP             1 S1                 0.0000
     43 ****        -2.5596   0.6886   1.5867 LP             1 S1                 0.0000
     44 ****        -0.8977   1.1737   1.6381 LP             1 S1                 0.0000
     45 ****         1.1474  -1.6688  -0.1143 LP             1 S1                 0.0000
     46 ****         2.7262  -1.3526   0.1579 LP             1 S1                 0.0000
@<TRIPOS>BOND
    1    1    2 1     
    2    1   21 1     
    3    1   22 1     
    4    1   23 1     
    5    2   20 1     
    6    2    3 2     
    7    3    4 1     
    8    4    5 2     
    9    5    6 1     
   10    5   20 1     
   11    6    7 am    
   12    6   24 1     
   13    7    8 2     
   14    7    9 am    
   15    9   10 1     
   16    9   25 1     
   17   10   11 1     
   18   10   26 1     
   19   10   27 1     
   20   11   19 1     
   21   11   12 1     
   22   11   28 1     
   23   12   13 1     
   24   12   29 1     
   25   12   30 1     
   26   13   17 1     
   27   13   14 1     
   28   13   40 1     
   29   14   15 1     
   30   14   31 1     
   31   14   32 1     
   32   15   16 1     
   33   15   33 1     
   34   15   34 1     
   35   16   17 1     
   36   16   35 1     
   37   16   36 1     
   38   17   18 1     
   39   17   37 1     
   40   18   19 1     
   41   18   38 1     
   42   18   39 1     
   43    3   41 1     
   44    4   42 1     
   45    8   43 1     
   46    8   44 1     
   47   19   45 1     
   48   19   46 1     
@<TRIPOS>SUBSTRUCTURE
      1 S1             1
@<TRIPOS>SET
LONE_PAIRS      STATIC     ATOMS    <user>   **** ""
6 41 42 43 44 45 46
DONOR_HYDROGENS      STATIC     ATOMS    <user>   **** ""
3 24 25 40
ATOM$BLUE        STATIC     ATOMS    COLORGROUP SYSTEM
6 41 42 43 44 45 46
ATOM$RED        STATIC     ATOMS    COLORGROUP SYSTEM
3 24 25 40
