AV-unprocessed.smi:287|AV-procd|sdf|2177|dock7
  -GOLD-   2262021543D 1   1.00000     0.00000
 Structure written by MMmdl.
 55 58  0  0  0  0  0  0  0  0  1 V2000
  141.9390  135.8991  162.8712 C   0  0  0  0  0  0  0  0  0  0  0  0
  143.3698  135.5542  162.6379 C   0  0  0  0  0  0  0  0  0  0  0  0
  144.5041  136.2937  162.4710 C   0  0  0  0  0  0  0  0  0  0  0  0
  145.5827  135.3809  162.2699 C   0  0  0  0  0  0  0  0  0  0  0  0
  147.0426  135.7487  162.0408 C   0  0  1  0  0  0  0  0  0  0  0  0
  147.5434  136.6303  163.1963 C   0  0  0  0  0  0  0  0  0  0  0  0
  147.8948  134.6195  162.0301 O   0  0  0  0  0  0  0  0  0  0  0  0
  147.2721  136.4643  160.6895 C   0  0  0  0  0  0  0  0  0  0  0  0
  148.0614  135.6705  159.7532 N   0  0  0  0  0  0  0  0  0  0  0  0
  148.7457  136.2737  158.7593 C   0  0  0  0  0  0  0  0  0  0  0  0
  149.8338  135.6833  158.1990 N   0  0  0  0  0  0  0  0  0  0  0  0
  150.4958  136.2995  157.2145 C   0  0  0  0  0  0  0  0  0  0  0  0
  150.2428  137.4836  156.6514 N   0  0  0  0  0  0  0  0  0  0  0  0
  149.1494  138.0769  157.2124 C   0  0  0  0  0  0  0  0  0  0  0  0
  148.3530  137.5428  158.2621 C   0  0  0  0  0  0  0  0  0  0  0  0
  147.3268  138.4268  158.5698 N   0  0  0  0  0  0  0  0  0  0  0  0
  147.5077  139.4219  157.7426 C   0  0  0  0  0  0  0  0  0  0  0  0
  148.5810  139.2881  156.8866 N   0  0  0  0  0  0  0  0  0  0  0  0
  149.0672  140.2171  155.8216 C   0  0  2  0  0  0  0  0  0  0  0  0
  148.1717  141.2893  155.7459 O   0  0  0  0  0  0  0  0  0  0  0  0
  147.5487  141.3492  154.4627 C   0  0  2  0  0  0  0  0  0  0  0  0
  146.0928  141.8199  154.6035 C   0  0  0  0  0  0  0  0  0  0  0  0
  145.2693  140.7392  154.9845 O   0  0  0  0  0  0  0  0  0  0  0  0
  147.6791  139.9211  153.9329 C   0  0  1  0  0  0  0  0  0  0  0  0
  147.5936  139.8319  152.5238 O   0  0  0  0  0  0  0  0  0  0  0  0
  149.0377  139.4966  154.4679 C   0  0  1  0  0  0  0  0  0  0  0  0
  150.1174  139.9122  153.6510 O   0  0  0  0  0  0  0  0  0  0  0  0
  145.0074  134.1358  162.3549 C   0  0  0  0  0  0  0  0  0  0  0  0
  145.5350  132.7417  162.2673 C   0  0  0  0  0  0  0  0  0  0  0  0
  143.6657  134.2321  162.5702 O   0  0  0  0  0  0  0  0  0  0  0  0
  150.0581  140.5256  156.1575 H   0  0  0  0  0  0  0  0  0  0  0  0
  148.1229  142.0257  153.8263 H   0  0  0  0  0  0  0  0  0  0  0  0
  146.9060  139.2917  154.3770 H   0  0  0  0  0  0  0  0  0  0  0  0
  149.1064  138.4148  154.5918 H   0  0  0  0  0  0  0  0  0  0  0  0
  141.7792  136.9741  162.7865 H   0  0  0  0  0  0  0  0  0  0  0  0
  141.6242  135.5878  163.8672 H   0  0  0  0  0  0  0  0  0  0  0  0
  141.2976  135.4046  162.1414 H   0  0  0  0  0  0  0  0  0  0  0  0
  144.5549  137.3724  162.4833 H   0  0  0  0  0  0  0  0  0  0  0  0
  146.9643  137.5516  163.2691 H   0  0  0  0  0  0  0  0  0  0  0  0
  148.5888  136.9111  163.0613 H   0  0  0  0  0  0  0  0  0  0  0  0
  147.4605  136.1143  164.1540 H   0  0  0  0  0  0  0  0  0  0  0  0
  148.6817  134.8336  162.5073 H   0  0  0  0  0  0  0  0  0  0  0  0
  146.3031  136.6464  160.2221 H   0  0  0  0  0  0  0  0  0  0  0  0
  147.7331  137.4417  160.8407 H   0  0  0  0  0  0  0  0  0  0  0  0
  148.0491  134.6706  159.8977 H   0  0  0  0  0  0  0  0  0  0  0  0
  151.3486  135.7665  156.8206 H   0  0  0  0  0  0  0  0  0  0  0  0
  146.8542  140.2815  157.7366 H   0  0  0  0  0  0  0  0  0  0  0  0
  146.0181  142.5776  155.3841 H   0  0  0  0  0  0  0  0  0  0  0  0
  145.7269  142.2700  153.6806 H   0  0  0  0  0  0  0  0  0  0  0  0
  144.6910  140.5344  154.2658 H   0  0  0  0  0  0  0  0  0  0  0  0
  148.3900  140.1843  152.1559 H   0  0  0  0  0  0  0  0  0  0  0  0
  149.8720  139.7902  152.7464 H   0  0  0  0  0  0  0  0  0  0  0  0
  146.4094  132.6178  162.9059 H   0  0  0  0  0  0  0  0  0  0  0  0
  145.8247  132.5021  161.2443 H   0  0  0  0  0  0  0  0  0  0  0  0
  144.7860  132.0157  162.5841 H   0  0  0  0  0  0  0  0  0  0  0  0
  1  2  1  0  0  0  0
  1 35  1  0  0  0  0
  1 36  1  0  0  0  0
  1 37  1  0  0  0  0
  2 30  1  0  0  0  0
  2  3  2  0  0  0  0
  3  4  1  0  0  0  0
  3 38  1  0  0  0  0
  4  5  1  0  0  0  0
  4 28  2  0  0  0  0
  5  6  1  0  0  0  0
  5  7  1  0  0  0  0
  5  8  1  0  0  0  0
  6 39  1  0  0  0  0
  6 40  1  0  0  0  0
  6 41  1  0  0  0  0
  7 42  1  0  0  0  0
  8  9  1  0  0  0  0
  8 43  1  0  0  0  0
  8 44  1  0  0  0  0
  9 10  1  0  0  0  0
  9 45  1  0  0  0  0
 10 15  1  0  0  0  0
 10 11  2  0  0  0  0
 11 12  1  0  0  0  0
 12 13  2  0  0  0  0
 12 46  1  0  0  0  0
 13 14  1  0  0  0  0
 14 18  1  0  0  0  0
 14 15  2  0  0  0  0
 15 16  1  0  0  0  0
 16 17  2  0  0  0  0
 17 18  1  0  0  0  0
 17 47  1  0  0  0  0
 18 19  1  0  0  0  0
 19 31  1  0  0  0  0
 19 26  1  0  0  0  0
 19 20  1  0  0  0  0
 20 21  1  0  0  0  0
 21 32  1  0  0  0  0
 21 22  1  0  0  0  0
 21 24  1  0  0  0  0
 22 23  1  0  0  0  0
 22 48  1  0  0  0  0
 22 49  1  0  0  0  0
 23 50  1  0  0  0  0
 24 33  1  0  0  0  0
 24 25  1  0  0  0  0
 24 26  1  0  0  0  0
 25 51  1  0  0  0  0
 26 34  1  0  0  0  0
 26 27  1  0  0  0  0
 27 52  1  0  0  0  0
 28 29  1  0  0  0  0
 28 30  1  0  0  0  0
 29 53  1  0  0  0  0
 29 54  1  0  0  0  0
 29 55  1  0  0  0  0
M  END
> <s_m_source_file>
AV-unprocessed.smi

> <i_m_source_file_index>
287

> <i_lp_mmshare_version>
43012

> <i_f3d_flags>
0

> <s_epik_input>
W0NIM11jMVtjSF1jKGMobzEpW0NIM10pW0NAQF0oW0NIM10pKFtPSF0pW0NIMl1bTkhdYyhuW2NIXW4yKWMoYzIzKW5bY0hdbjNbQ0BASF00T1tDQEhdKFtDSDJdW09IXSlbQ0BASF0oW09IXSlbQ0BIXTRbT0hd

> <s_epik_cmdline>
J2VwaWtfcHl0aG9uJywgJy1waCcsICc3LjAnLCAnLXRuJywgJzgnLCAnLW1hJywgJzIwMCcsICctbWV0YWxfYmluZGluZycsICctaW1hZScsICc8aW5maWxlLm1hZT4nLCAnLW9tYWUnLCAnPG91dGZpbGUubWFlPic=

> <r_lp_tautomer_probability>
1

> <r_epik_Ionization_Penalty>
0.000992612

> <r_epik_Ionization_Penalty_Charging>
0

> <r_epik_Ionization_Penalty_Neutral>
0.000992612

> <r_epik_State_Penalty>
-0

> <r_epik_Charging_Adjusted_Penalty>
0

> <i_epik_Tot_Q>
0

> <i_epik_Tot_abs_Q>
0

> <r_epik_Metal_State_Penalty>
-0

> <b_epik_Metal_Only>
0

> <s_epik_Chemistry_Notes>
This compound contains an acetal/aminal-like group ( X-CH(R)-Y where X, Y are N, S, or O) that may be acid/base labile, releasing an aldehyde.

> <s_lp_Force_Field>
OPLS_2005

> <r_lp_Energy>
40.3349

> <b_lp_Chiralities_Consistent>
1

> <s_lp_Variant>
AV-unprocessed.smi:287-1

> <Gold.Version>
5.8.1

> <Gold.Id.Protein>
6NUR|6NUR_protein|mol2

> <Gold.PLP.Fitness>
52.2994

> <Gold.PLP.PLP>
-41.3556

> <Gold.PLP.part.hbond>
-5.4926

> <Gold.PLP.part.metal>
0.0000

> <Gold.PLP.part.buried>
-8.3314

> <Gold.PLP.part.nonpolar>
-28.7917

> <Gold.PLP.part.repulsive>
0.2768

> <Gold.PLP.ligand.clash>
0.0000

> <Gold.PLP.ligand.torsion>
1.7297

> <Gold.PLP.Chemscore.Hbond>
4.7418

> <Gold.PLP.Chemscore.CHOScore>
0.0000

> <Gold.PLP.Chemscore.Metal>
0.0000

> <Gold.Chemscore.Hbonds>
donor molecule, donor type, donor heavy atom, donor atom, acceptor molecule, acceptor atom, score
      L1  H    23    50       P1 10175  0.98
      L1  H    25    51       P1  7957  0.98
      L1  H    27    52       P1  7957  1.00
      P1  H  6896  6907       L1    11  1.00
      P1  H  6934  6947       L1    16  0.02
      P1  H  7989  7998       L1    27  0.80

> <Gold.PLP.Chemscore.Internal.Correction>
0.1780

> <Gold.Rescore>
     Score         DG    S(hbond)    S(metal)    S(lipo)     H(rot)  DE(clash)    DE(int)     intcor
     11.94     -16.03       4.12        0.00      87.78       5.27       0.07       4.02       ----

> <Gold.Chemscore.Fitness>
11.9417

> <Gold.Chemscore.DG>
-16.0315

> <Gold.Chemscore.ZeroCoef>
-5.4800

> <Gold.Chemscore.Hbond>
4.1214

> <Gold.Chemscore.Metal>
0.0000

> <Gold.Chemscore.Lipo>
87.7769

> <Gold.Chemscore.Internal_Hbond>
0.0000

> <Gold.Chemscore.DEClash>
0.0733

> <Gold.Chemscore.DEInternal>
4.0166

> <Gold.Chemscore.Rot>
5.2672

> <Gold.Chemscore.Internal.Correction>
   9.000000E+99

> <Gold.Chemscore.Hbonds>
donor molecule, donor type, donor heavy atom, donor atom, acceptor molecule, acceptor atom, score
      L1  H    23    50       P1 10175  0.91
      L1  H    25    51       P1  7957  0.90
      L1  H    27    52       P1  7957  0.99
      P1  H  6896  6907       L1    11  0.67
      P1  H  6934  6947       L1    16  0.02
      P1  H  7989  7998       L1    27  0.20

> <Gold.Chemscore.Hbond.Weighted>
-13.7656

> <Gold.Chemscore.Metal.Weighted>
-0.0000

> <Gold.Chemscore.Lipo.Weighted>
-10.2699

> <Gold.Chemscore.Internal_Hbond.Weighted>
0.0000

> <Gold.Chemscore.DEClash.Weighted>
0.0733

> <Gold.Chemscore.DEInternal.Weighted>
4.0166

> <Gold.Chemscore.Rot.Weighted>
13.4839

> <Gold.Chemscore.Internal.Correction.Weighted>
   9.000000E+99

> <Gold.Protein.RotatedTorsions>
[ 6907 6896 6895 6894 ] final  -70.06 input  -60.11 | X-H torsion
[ 7974 7965 7964 7962 ] final  139.33 input  175.53 | X-H torsion
[ 8008 7997 7996 7995 ] final  -20.82 input   59.86 | X-H torsion
[ 10167 10162 10161 10158 ] final -100.35 input  -65.29 | X-H torsion
[ 10718 10713 10712 10709 ] final   80.83 input   66.30 | X-H torsion
[ 10763 10752 10751 10750 ] final  157.00 input  -60.55 | X-H torsion
[ 11005 11000 10999 10996 ] final -153.86 input  -57.11 | X-H torsion

> <Gold.Protein.ActiveResidues>
 VAL166  LYS551  ARG553  GLY616  TRP617  ASP618  TYR619  PRO620  LYS621  CYS622 
 ASP623  PHE694  ASN695  SER759  ASP760  ASP761  ALA762  ILE779  LEU786  VAL792 
 PHE793  MET794  SER795  GLU796  ALA797  LYS798  CYS799  TRP800  GLU811  SER814 

> <Gold.Protein.RotatedAtoms>
  150.7275  134.5507  159.5792 H   0  0  0  0  0  0  0  0  0  0  0  0  # atno 6907 bound_to 6896
  152.2995  134.7625  160.0370 H   0  0  0  0  0  0  0  0  0  0  0  0  # atno 6908 bound_to 6896
  151.8210  133.3359  159.3621 H   0  0  0  0  0  0  0  0  0  0  0  0  # atno 6909 bound_to 6896
  144.9288  139.5073  143.5628 H   0  0  0  0  0  0  0  0  0  0  0  0  # atno 7974 bound_to 7965
  154.4745  140.2051  155.9913 H   0  0  0  0  0  0  0  0  0  0  0  0  # atno 8008 bound_to 7997
  156.1066  140.3235  155.7984 H   0  0  0  0  0  0  0  0  0  0  0  0  # atno 8009 bound_to 7997
  155.4707  140.0531  157.2970 H   0  0  0  0  0  0  0  0  0  0  0  0  # atno 8010 bound_to 7997
  140.2528  143.3460  152.0698 H   0  0  0  0  0  0  0  0  0  0  0  0  # atno 10167 bound_to 10162
  157.6817  130.9977  150.2137 H   0  0  0  0  0  0  0  0  0  0  0  0  # atno 10718 bound_to 10713
  154.1932  135.2794  155.3015 H   0  0  0  0  0  0  0  0  0  0  0  0  # atno 10763 bound_to 10752
  154.5912  135.5559  153.7284 H   0  0  0  0  0  0  0  0  0  0  0  0  # atno 10764 bound_to 10752
  153.0107  135.6369  154.2071 H   0  0  0  0  0  0  0  0  0  0  0  0  # atno 10765 bound_to 10752
  140.7035  134.3911  157.5207 H   0  0  0  0  0  0  0  0  0  0  0  0  # atno 11005 bound_to 11000
  146.3238  139.8223  142.8924 LP  0  0  0  0  0  0  0  0  0  0  0  0  # atno 17320 bound_to 7965
  145.3175  141.0235  143.3519 LP  0  0  0  0  0  0  0  0  0  0  0  0  # atno 17321 bound_to 7965
  139.5041  144.6768  151.6108 LP  0  0  0  0  0  0  0  0  0  0  0  0  # atno 17342 bound_to 10162
  140.6027  143.9581  150.6397 LP  0  0  0  0  0  0  0  0  0  0  0  0  # atno 17343 bound_to 10162
  156.2803  130.3732  149.7942 LP  0  0  0  0  0  0  0  0  0  0  0  0  # atno 17370 bound_to 10713
  156.5632  130.8393  151.3335 LP  0  0  0  0  0  0  0  0  0  0  0  0  # atno 17371 bound_to 10713
  139.8890  134.8841  156.2443 LP  0  0  0  0  0  0  0  0  0  0  0  0  # atno 17394 bound_to 11000
  141.0143  133.7077  156.1163 LP  0  0  0  0  0  0  0  0  0  0  0  0  # atno 17395 bound_to 11000

$$$$
