AV-unprocessed.smi:2945|AV-procd|sdf|11278|dock4
  -GOLD-   2272016173D 1   1.00000     0.00000
 Structure written by MMmdl.
 36 37  0  0  0  0  0  0  0  0  1 V2000
  148.8256  123.8637  150.4942 C   0  0  0  0  0  0  0  0  0  0  0  0
  148.5656  125.2162  151.0638 C   0  0  0  0  0  0  0  0  0  0  0  0
  148.0880  126.3771  150.5239 C   0  0  0  0  0  0  0  0  0  0  0  0
  148.0933  127.2696  151.6286 C   0  0  0  0  0  0  0  0  0  0  0  0
  147.6545  128.6099  151.4815 N   0  0  0  0  0  0  0  0  0  0  0  0
  146.8069  129.2879  152.2736 C   0  0  0  0  0  0  0  0  0  0  0  0
  146.2762  128.8410  153.2908 O   0  0  0  0  0  0  0  0  0  0  0  0
  146.6106  130.5326  151.8140 N   0  0  0  0  0  0  0  0  0  0  0  0
  145.7440  131.5506  152.4123 C   0  0  2  0  0  0  0  0  0  0  0  0
  144.5055  131.7696  151.5200 C   0  0  0  0  0  0  0  0  0  0  0  0
  144.8592  132.4683  150.1957 C   0  0  0  0  0  0  0  0  0  0  0  0
  145.6007  133.7901  150.4452 C   0  0  0  0  0  0  0  0  0  0  0  0
  146.8494  133.5764  151.3159 C   0  0  0  0  0  0  0  0  0  0  0  0
  146.5002  132.8830  152.6493 C   0  0  2  0  0  0  0  0  0  0  0  0
  147.7402  132.7211  153.5450 C   0  0  0  0  0  0  0  0  0  0  0  0
  148.5359  126.7056  152.7418 N   0  0  0  0  0  0  0  0  0  0  0  0
  148.8414  125.3867  152.3854 O   0  0  0  0  0  0  0  0  0  0  0  0
  148.4860  123.8044  149.4599 H   0  0  0  0  0  0  0  0  0  0  0  0
  148.3030  123.0962  151.0651 H   0  0  0  0  0  0  0  0  0  0  0  0
  149.8912  123.6348  150.5141 H   0  0  0  0  0  0  0  0  0  0  0  0
  147.7827  126.5551  149.5034 H   0  0  0  0  0  0  0  0  0  0  0  0
  148.0186  129.1038  150.6806 H   0  0  0  0  0  0  0  0  0  0  0  0
  147.0977  130.8029  150.9724 H   0  0  0  0  0  0  0  0  0  0  0  0
  145.3834  131.1928  153.3782 H   0  0  0  0  0  0  0  0  0  0  0  0
  144.0109  130.8183  151.3204 H   0  0  0  0  0  0  0  0  0  0  0  0
  143.7799  132.3794  152.0598 H   0  0  0  0  0  0  0  0  0  0  0  0
  145.4781  131.8114  149.5836 H   0  0  0  0  0  0  0  0  0  0  0  0
  143.9513  132.6554  149.6219 H   0  0  0  0  0  0  0  0  0  0  0  0
  145.8835  134.2422  149.4942 H   0  0  0  0  0  0  0  0  0  0  0  0
  144.9303  134.4971  150.9356 H   0  0  0  0  0  0  0  0  0  0  0  0
  147.5808  132.9827  150.7663 H   0  0  0  0  0  0  0  0  0  0  0  0
  147.3230  134.5392  151.5108 H   0  0  0  0  0  0  0  0  0  0  0  0
  145.8164  133.5441  153.1842 H   0  0  0  0  0  0  0  0  0  0  0  0
  148.5124  132.1212  153.0629 H   0  0  0  0  0  0  0  0  0  0  0  0
  147.4817  132.2373  154.4872 H   0  0  0  0  0  0  0  0  0  0  0  0
  148.1791  133.6904  153.7826 H   0  0  0  0  0  0  0  0  0  0  0  0
  1  2  1  0  0  0  0
  1 18  1  0  0  0  0
  1 19  1  0  0  0  0
  1 20  1  0  0  0  0
  2 17  1  0  0  0  0
  2  3  2  0  0  0  0
  3  4  1  0  0  0  0
  3 21  1  0  0  0  0
  4  5  1  0  0  0  0
  4 16  2  0  0  0  0
  5  6  1  0  0  0  0
  5 22  1  0  0  0  0
  6  7  2  0  0  0  0
  6  8  1  0  0  0  0
  8  9  1  0  0  0  0
  8 23  1  0  0  0  0
  9 14  1  0  0  0  0
  9 10  1  0  0  0  0
  9 24  1  0  0  0  0
 10 11  1  0  0  0  0
 10 25  1  0  0  0  0
 10 26  1  0  0  0  0
 11 12  1  0  0  0  0
 11 27  1  0  0  0  0
 11 28  1  0  0  0  0
 12 13  1  0  0  0  0
 12 29  1  0  0  0  0
 12 30  1  0  0  0  0
 13 14  1  0  0  0  0
 13 31  1  0  0  0  0
 13 32  1  0  0  0  0
 14 15  1  0  0  0  0
 14 33  1  0  0  0  0
 15 34  1  0  0  0  0
 15 35  1  0  0  0  0
 15 36  1  0  0  0  0
 16 17  1  0  0  0  0
M  END
> <s_m_source_file>
AV-unprocessed.smi

> <i_m_source_file_index>
2945

> <i_lp_mmshare_version>
43012

> <i_f3d_flags>
0

> <s_epik_input>
W0NIM11jMVtjSF1jKG5vMSlbTkhdQyg9TylbTkhdW0NAQEhdMltDSDJdW0NIMl1bQ0gyXVtDSDJdW0NASF0yW0NIM10=

> <s_epik_cmdline>
J2VwaWtfcHl0aG9uJywgJy1waCcsICc3LjAnLCAnLXRuJywgJzgnLCAnLW1hJywgJzIwMCcsICctbWV0YWxfYmluZGluZycsICctaW1hZScsICc8aW5maWxlLm1hZT4nLCAnLW9tYWUnLCAnPG91dGZpbGUubWFlPic=

> <r_lp_tautomer_probability>
1

> <r_epik_Ionization_Penalty>
2.357e-05

> <r_epik_Ionization_Penalty_Charging>
0

> <r_epik_Ionization_Penalty_Neutral>
2.357e-05

> <r_epik_State_Penalty>
-0

> <r_epik_Charging_Adjusted_Penalty>
0

> <i_epik_Tot_Q>
0

> <i_epik_Tot_abs_Q>
0

> <r_epik_Metal_State_Penalty>
-0

> <b_epik_Metal_Only>
0

> <s_lp_Force_Field>
OPLS_2005

> <r_lp_Energy>
7.46694

> <b_lp_Chiralities_Consistent>
1

> <s_lp_Variant>
AV-unprocessed.smi:2945-3

> <Gold.Version>
5.8.1

> <Gold.Id.Protein>
6NUR|6NUR_protein|mol2

> <Gold.PLP.Fitness>
35.7826

> <Gold.PLP.PLP>
-31.7064

> <Gold.PLP.part.hbond>
-2.0000

> <Gold.PLP.part.metal>
0.0000

> <Gold.PLP.part.buried>
-5.2786

> <Gold.PLP.part.nonpolar>
-24.4537

> <Gold.PLP.part.repulsive>
0.3474

> <Gold.PLP.ligand.clash>
0.0000

> <Gold.PLP.ligand.torsion>
0.4852

> <Gold.PLP.Chemscore.Hbond>
1.6800

> <Gold.PLP.Chemscore.CHOScore>
0.0000

> <Gold.PLP.Chemscore.Metal>
0.0000

> <Gold.Chemscore.Hbonds>
donor molecule, donor type, donor heavy atom, donor atom, acceptor molecule, acceptor atom, score
      L1  H     5    22       P1 10747  0.78
      L1  H     8    23       P1 10747  0.77

> <Gold.PLP.Chemscore.Internal.Correction>
0.0067

> <Gold.Rescore>
     Score         DG    S(hbond)    S(metal)    S(lipo)     H(rot)  DE(clash)    DE(int)     intcor
     13.05     -13.84       1.04        0.00      63.57       1.00       0.21       0.58       ----

> <Gold.Chemscore.Fitness>
13.0502

> <Gold.Chemscore.DG>
-13.8406

> <Gold.Chemscore.ZeroCoef>
-5.4800

> <Gold.Chemscore.Hbond>
1.0428

> <Gold.Chemscore.Metal>
0.0000

> <Gold.Chemscore.Lipo>
63.5689

> <Gold.Chemscore.Internal_Hbond>
0.0000

> <Gold.Chemscore.DEClash>
0.2136

> <Gold.Chemscore.DEInternal>
0.5767

> <Gold.Chemscore.Rot>
1.0000

> <Gold.Chemscore.Internal.Correction>
   9.000000E+99

> <Gold.Chemscore.Hbonds>
donor molecule, donor type, donor heavy atom, donor atom, acceptor molecule, acceptor atom, score
      L1  H     5    22       P1 10747  0.20
      L1  H     8    23       P1 10747  0.75

> <Gold.Chemscore.Hbond.Weighted>
-3.4830

> <Gold.Chemscore.Metal.Weighted>
-0.0000

> <Gold.Chemscore.Lipo.Weighted>
-7.4376

> <Gold.Chemscore.Internal_Hbond.Weighted>
0.0000

> <Gold.Chemscore.DEClash.Weighted>
0.2136

> <Gold.Chemscore.DEInternal.Weighted>
0.5767

> <Gold.Chemscore.Rot.Weighted>
2.5600

> <Gold.Chemscore.Internal.Correction.Weighted>
   9.000000E+99

> <Gold.Protein.RotatedTorsions>
[ 6907 6896 6895 6894 ] final -131.06 input  -60.11 | X-H torsion
[ 7974 7965 7964 7962 ] final  161.80 input  175.53 | X-H torsion
[ 8008 7997 7996 7995 ] final -103.02 input   59.86 | X-H torsion
[ 10167 10162 10161 10158 ] final -179.98 input  -65.29 | X-H torsion
[ 10718 10713 10712 10709 ] final  163.04 input   66.30 | X-H torsion
[ 10763 10752 10751 10750 ] final   -7.17 input  -60.55 | X-H torsion
[ 11005 11000 10999 10996 ] final   62.26 input  -57.11 | X-H torsion

> <Gold.Protein.ActiveResidues>
 VAL166  LYS551  ARG553  GLY616  TRP617  ASP618  TYR619  PRO620  LYS621  CYS622 
 ASP623  PHE694  ASN695  SER759  ASP760  ASP761  ALA762  ILE779  LEU786  VAL792 
 PHE793  MET794  SER795  GLU796  ALA797  LYS798  CYS799  TRP800  GLU811  SER814 

> <Gold.Protein.RotatedAtoms>
  150.9468  133.6594  159.2779 H   0  0  0  0  0  0  0  0  0  0  0  0  # atno 6907 bound_to 6896
  151.3964  135.0963  159.9552 H   0  0  0  0  0  0  0  0  0  0  0  0  # atno 6908 bound_to 6896
  152.5093  133.8971  159.7477 H   0  0  0  0  0  0  0  0  0  0  0  0  # atno 6909 bound_to 6896
  144.7668  139.7949  143.6312 H   0  0  0  0  0  0  0  0  0  0  0  0  # atno 7974 bound_to 7965
  154.8650  140.0425  157.1689 H   0  0  0  0  0  0  0  0  0  0  0  0  # atno 8008 bound_to 7997
  154.8799  140.2971  155.5410 H   0  0  0  0  0  0  0  0  0  0  0  0  # atno 8009 bound_to 7997
  156.2999  140.2413  156.3800 H   0  0  0  0  0  0  0  0  0  0  0  0  # atno 8010 bound_to 7997
  139.5362  144.2491  152.0799 H   0  0  0  0  0  0  0  0  0  0  0  0  # atno 10167 bound_to 10162
  157.1140  131.0475  151.2444 H   0  0  0  0  0  0  0  0  0  0  0  0  # atno 10718 bound_to 10713
  153.4226  135.7010  153.6284 H   0  0  0  0  0  0  0  0  0  0  0  0  # atno 10763 bound_to 10752
  153.4732  135.3710  155.2402 H   0  0  0  0  0  0  0  0  0  0  0  0  # atno 10764 bound_to 10752
  154.8722  135.4048  154.3597 H   0  0  0  0  0  0  0  0  0  0  0  0  # atno 10765 bound_to 10752
  140.0105  134.6304  155.9789 H   0  0  0  0  0  0  0  0  0  0  0  0  # atno 11005 bound_to 11000
  146.1782  139.4962  142.9884 LP  0  0  0  0  0  0  0  0  0  0  0  0  # atno 17320 bound_to 7965
  145.6446  141.0277  143.1793 LP  0  0  0  0  0  0  0  0  0  0  0  0  # atno 17321 bound_to 7965
  140.1962  144.4703  150.6454 LP  0  0  0  0  0  0  0  0  0  0  0  0  # atno 17342 bound_to 10162
  140.6569  143.2240  151.5947 LP  0  0  0  0  0  0  0  0  0  0  0  0  # atno 17343 bound_to 10162
  157.4534  130.7611  149.7171 LP  0  0  0  0  0  0  0  0  0  0  0  0  # atno 17370 bound_to 10713
  155.9844  130.3992  150.3316 LP  0  0  0  0  0  0  0  0  0  0  0  0  # atno 17371 bound_to 10713
  141.1707  133.6537  156.4642 LP  0  0  0  0  0  0  0  0  0  0  0  0  # atno 17394 bound_to 11000
  140.4564  134.6882  157.5064 LP  0  0  0  0  0  0  0  0  0  0  0  0  # atno 17395 bound_to 11000

$$$$
