AV-unprocessed.smi:535|AV-procd|sdf|2861|dock2
  -GOLD-   2262023353D 1   1.00000     0.00000
 Structure written by MMmdl.
 45 47  0  0  0  0  0  0  0  0  2 V2000
  151.2960  135.5409  156.5472 C   0  0  0  0  0  0  0  0  0  0  0  0
  152.2420  136.5415  156.2142 O   0  0  0  0  0  0  0  0  0  0  0  0
  152.1195  137.6957  157.0281 C   0  0  0  0  0  0  0  0  0  0  0  0
  152.3353  138.9428  156.1544 C   0  0  0  0  0  0  0  0  0  0  0  0
  151.8371  140.1611  156.7881 N   0  0  0  0  0  0  0  0  0  0  0  0
  150.7644  140.9334  156.4450 C   0  0  0  0  0  0  0  0  0  0  0  0
  149.9332  140.6709  155.3460 N   0  0  0  0  0  0  0  0  0  0  0  0
  149.9073  139.4690  154.5083 C   0  0  0  0  0  0  0  0  0  0  0  0
  148.4812  138.9175  154.3333 C   0  0  0  0  0  0  0  0  0  0  0  0
  147.5647  139.9835  153.7221 C   0  0  0  0  0  0  0  0  0  0  0  0
  147.6533  141.2836  154.5377 C   0  0  2  0  0  0  0  0  0  0  0  0
  146.8120  142.4023  153.9087 C   0  0  0  0  0  0  0  0  0  0  0  0
  149.1282  141.7070  154.6935 C   0  0  0  0  0  0  0  0  0  0  0  0
  150.5443  141.9584  157.2730 N   0  0  0  0  0  0  0  0  0  0  0  0
  151.5596  141.8433  158.2068 C   0  0  0  0  0  0  0  0  0  0  0  0
  152.3438  140.7647  157.9459 C   0  0  0  0  0  0  0  0  0  0  0  0
  153.4896  140.3613  158.7932 C   0  0  0  0  0  0  0  0  0  0  0  0
  154.1536  139.3604  158.5322 O   0  0  0  0  0  0  0  0  0  0  0  0
  153.6812  141.2159  159.8475 N   0  5  0  0  0  0  0  0  0  0  0  0
  152.9162  142.3236  160.1419 C   0  0  0  0  0  0  0  0  0  0  0  0
  153.1574  143.0407  161.1138 O   0  0  0  0  0  0  0  0  0  0  0  0
  151.8538  142.6490  159.3406 N   0  0  0  0  0  0  0  0  0  0  0  0
  151.0194  143.8183  159.6318 C   0  0  0  0  0  0  0  0  0  0  0  0
  151.4360  134.6748  155.9007 H   0  0  0  0  0  0  0  0  0  0  0  0
  150.2759  135.9022  156.4103 H   0  0  0  0  0  0  0  0  0  0  0  0
  151.4157  135.2125  157.5804 H   0  0  0  0  0  0  0  0  0  0  0  0
  151.1341  137.7182  157.4933 H   0  0  0  0  0  0  0  0  0  0  0  0
  152.8478  137.6559  157.8381 H   0  0  0  0  0  0  0  0  0  0  0  0
  153.3868  139.0630  155.9078 H   0  0  0  0  0  0  0  0  0  0  0  0
  151.8396  138.8192  155.1920 H   0  0  0  0  0  0  0  0  0  0  0  0
  150.3244  139.7183  153.5317 H   0  0  0  0  0  0  0  0  0  0  0  0
  150.5590  138.6997  154.9105 H   0  0  0  0  0  0  0  0  0  0  0  0
  148.4990  138.0324  153.6969 H   0  0  0  0  0  0  0  0  0  0  0  0
  148.0801  138.5992  155.2955 H   0  0  0  0  0  0  0  0  0  0  0  0
  147.8651  140.1724  152.6906 H   0  0  0  0  0  0  0  0  0  0  0  0
  146.5367  139.6212  153.6883 H   0  0  0  0  0  0  0  0  0  0  0  0
  147.2518  141.0886  155.5335 H   0  0  0  0  0  0  0  0  0  0  0  0
  147.1686  142.6520  152.9090 H   0  0  0  0  0  0  0  0  0  0  0  0
  146.8517  143.3093  154.5126 H   0  0  0  0  0  0  0  0  0  0  0  0
  145.7658  142.1072  153.8259 H   0  0  0  0  0  0  0  0  0  0  0  0
  149.1723  142.6275  155.2763 H   0  0  0  0  0  0  0  0  0  0  0  0
  149.5630  141.9401  153.7206 H   0  0  0  0  0  0  0  0  0  0  0  0
  151.6228  144.7267  159.6369 H   0  0  0  0  0  0  0  0  0  0  0  0
  150.5473  143.7163  160.6099 H   0  0  0  0  0  0  0  0  0  0  0  0
  150.2248  143.9618  158.9000 H   0  0  0  0  0  0  0  0  0  0  0  0
  1  2  1  0  0  0  0
  1 24  1  0  0  0  0
  1 25  1  0  0  0  0
  1 26  1  0  0  0  0
  2  3  1  0  0  0  0
  3  4  1  0  0  0  0
  3 27  1  0  0  0  0
  3 28  1  0  0  0  0
  4  5  1  0  0  0  0
  4 29  1  0  0  0  0
  4 30  1  0  0  0  0
  5 16  1  0  0  0  0
  5  6  1  0  0  0  0
  6  7  1  0  0  0  0
  6 14  2  0  0  0  0
  7 13  1  0  0  0  0
  7  8  1  0  0  0  0
  8  9  1  0  0  0  0
  8 31  1  0  0  0  0
  8 32  1  0  0  0  0
  9 10  1  0  0  0  0
  9 33  1  0  0  0  0
  9 34  1  0  0  0  0
 10 11  1  0  0  0  0
 10 35  1  0  0  0  0
 10 36  1  0  0  0  0
 11 12  1  0  0  0  0
 11 13  1  0  0  0  0
 11 37  1  0  0  0  0
 12 38  1  0  0  0  0
 12 39  1  0  0  0  0
 12 40  1  0  0  0  0
 13 41  1  0  0  0  0
 13 42  1  0  0  0  0
 14 15  1  0  0  0  0
 15 22  1  0  0  0  0
 15 16  2  0  0  0  0
 16 17  1  0  0  0  0
 17 18  2  0  0  0  0
 17 19  1  0  0  0  0
 19 20  1  0  0  0  0
 20 21  2  0  0  0  0
 20 22  1  0  0  0  0
 22 23  1  0  0  0  0
 23 43  1  0  0  0  0
 23 44  1  0  0  0  0
 23 45  1  0  0  0  0
M  CHG  1  19  -1
M  END
> <s_m_source_file>
AV-unprocessed.smi

> <i_m_source_file_index>
535

> <i_lp_mmshare_version>
43012

> <i_f3d_flags>
0

> <s_epik_input>
W0NIM11uMWMoPU8pW25IXWMoPU8pYyhjMTIpbihbQ0gyXVtDSDJdT1tDSDNdKWMobjIpTjNbQ0gyXVtDSDJdW0NIMl1bQ0BASF0oW0NIM10pW0NIMl0z

> <s_epik_cmdline>
J2VwaWtfcHl0aG9uJywgJy1waCcsICc3LjAnLCAnLXRuJywgJzgnLCAnLW1hJywgJzIwMCcsICctbWV0YWxfYmluZGluZycsICctaW1hZScsICc8aW5maWxlLm1hZT4nLCAnLW9tYWUnLCAnPG91dGZpbGUubWFlPic=

> <r_lp_tautomer_probability>
1

> <r_epik_Ionization_Penalty>
5.11375

> <r_epik_Ionization_Penalty_Charging>
0.0788329

> <r_epik_Ionization_Penalty_Neutral>
5.03492

> <r_epik_State_Penalty>
5.02848

> <r_epik_Charging_Adjusted_Penalty>
5.10731

> <i_epik_Tot_Q>
-1

> <i_epik_Tot_abs_Q>
1

> <r_epik_Metal_State_Penalty>
1.14014

> <b_epik_Metal_Only>
1

> <s_lp_Force_Field>
OPLS_2005

> <r_lp_Energy>
42.0611

> <b_lp_Chiralities_Consistent>
1

> <s_lp_Variant>
AV-unprocessed.smi:535-4

> <Gold.Version>
5.8.1

> <Gold.Id.Protein>
6NUR|6NUR_protein|mol2

> <Gold.PLP.Fitness>
43.6669

> <Gold.PLP.PLP>
-39.3736

> <Gold.PLP.part.hbond>
-2.0000

> <Gold.PLP.part.metal>
0.0000

> <Gold.PLP.part.buried>
-4.2213

> <Gold.PLP.part.nonpolar>
-33.0931

> <Gold.PLP.part.repulsive>
0.1632

> <Gold.PLP.ligand.clash>
0.6576

> <Gold.PLP.ligand.torsion>
0.5656

> <Gold.PLP.Chemscore.Hbond>
1.9920

> <Gold.PLP.Chemscore.CHOScore>
0.0000

> <Gold.PLP.Chemscore.Metal>
0.0000

> <Gold.Chemscore.Hbonds>
donor molecule, donor type, donor heavy atom, donor atom, acceptor molecule, acceptor atom, score
      P1  H  7997  8010       L1    18  0.85
      P1  H 10752 10764       L1     2  0.55

> <Gold.PLP.Chemscore.Internal.Correction>
0.1060

> <Gold.Rescore>
     Score         DG    S(hbond)    S(metal)    S(lipo)     H(rot)  DE(clash)    DE(int)     intcor
     10.53     -12.99       0.96        0.00      68.06       1.44       0.53       1.93       ----

> <Gold.Chemscore.Fitness>
10.5312

> <Gold.Chemscore.DG>
-12.9850

> <Gold.Chemscore.ZeroCoef>
-5.4800

> <Gold.Chemscore.Hbond>
0.9645

> <Gold.Chemscore.Metal>
0.0000

> <Gold.Chemscore.Lipo>
68.0601

> <Gold.Chemscore.Internal_Hbond>
0.0000

> <Gold.Chemscore.DEClash>
0.5289

> <Gold.Chemscore.DEInternal>
1.9250

> <Gold.Chemscore.Rot>
1.4372

> <Gold.Chemscore.Internal.Correction>
   9.000000E+99

> <Gold.Chemscore.Hbonds>
donor molecule, donor type, donor heavy atom, donor atom, acceptor molecule, acceptor atom, score
      P1  H  7997  8010       L1    18  0.15
      P1  H 10752 10764       L1     2  0.07

> <Gold.Chemscore.Hbond.Weighted>
-3.2214

> <Gold.Chemscore.Metal.Weighted>
-0.0000

> <Gold.Chemscore.Lipo.Weighted>
-7.9630

> <Gold.Chemscore.Internal_Hbond.Weighted>
0.0000

> <Gold.Chemscore.DEClash.Weighted>
0.5289

> <Gold.Chemscore.DEInternal.Weighted>
1.9250

> <Gold.Chemscore.Rot.Weighted>
3.6793

> <Gold.Chemscore.Internal.Correction.Weighted>
   9.000000E+99

> <Gold.Protein.RotatedTorsions>
[ 6907 6896 6895 6894 ] final  115.97 input  -60.11 | X-H torsion
[ 7974 7965 7964 7962 ] final -148.71 input  175.53 | X-H torsion
[ 8008 7997 7996 7995 ] final    5.18 input   59.86 | X-H torsion
[ 10167 10162 10161 10158 ] final -120.95 input  -65.29 | X-H torsion
[ 10718 10713 10712 10709 ] final   27.55 input   66.30 | X-H torsion
[ 10763 10752 10751 10750 ] final  -57.34 input  -60.55 | X-H torsion
[ 11005 11000 10999 10996 ] final  -44.71 input  -57.11 | X-H torsion

> <Gold.Protein.ActiveResidues>
 VAL166  LYS551  ARG553  GLY616  TRP617  ASP618  TYR619  PRO620  LYS621  CYS622 
 ASP623  PHE694  ASN695  SER759  ASP760  ASP761  ALA762  ILE779  LEU786  VAL792 
 PHE793  MET794  SER795  GLU796  ALA797  LYS798  CYS799  TRP800  GLU811  SER814 

> <Gold.Protein.RotatedAtoms>
  152.4708  133.8025  159.6959 H   0  0  0  0  0  0  0  0  0  0  0  0  # atno 6907 bound_to 6896
  150.8696  133.7515  159.2972 H   0  0  0  0  0  0  0  0  0  0  0  0  # atno 6908 bound_to 6896
  151.5055  135.1066  159.9892 H   0  0  0  0  0  0  0  0  0  0  0  0  # atno 6909 bound_to 6896
  144.8013  140.5161  143.5705 H   0  0  0  0  0  0  0  0  0  0  0  0  # atno 7974 bound_to 7965
  154.7251  140.2719  155.6506 H   0  0  0  0  0  0  0  0  0  0  0  0  # atno 8008 bound_to 7997
  156.2834  140.2727  156.1859 H   0  0  0  0  0  0  0  0  0  0  0  0  # atno 8009 bound_to 7997
  155.0456  140.0371  157.2515 H   0  0  0  0  0  0  0  0  0  0  0  0  # atno 8010 bound_to 7997
  140.0303  143.5254  152.2179 H   0  0  0  0  0  0  0  0  0  0  0  0  # atno 10167 bound_to 10162
  157.2217  130.6982  149.6273 H   0  0  0  0  0  0  0  0  0  0  0  0  # atno 10718 bound_to 10713
  154.2209  135.6378  153.5144 H   0  0  0  0  0  0  0  0  0  0  0  0  # atno 10763 bound_to 10752
  152.9969  135.5496  154.6115 H   0  0  0  0  0  0  0  0  0  0  0  0  # atno 10764 bound_to 10752
  154.5575  135.2906  155.0925 H   0  0  0  0  0  0  0  0  0  0  0  0  # atno 10765 bound_to 10752
  141.0468  133.6758  156.2910 H   0  0  0  0  0  0  0  0  0  0  0  0  # atno 11005 bound_to 11000
  145.5547  139.1477  143.3374 LP  0  0  0  0  0  0  0  0  0  0  0  0  # atno 17320 bound_to 7965
  146.2294  140.5685  142.8982 LP  0  0  0  0  0  0  0  0  0  0  0  0  # atno 17321 bound_to 7965
  139.6080  144.7601  151.3017 LP  0  0  0  0  0  0  0  0  0  0  0  0  # atno 17342 bound_to 10162
  140.7305  143.6879  150.7946 LP  0  0  0  0  0  0  0  0  0  0  0  0  # atno 17343 bound_to 10162
  155.9682  130.4517  150.5748 LP  0  0  0  0  0  0  0  0  0  0  0  0  # atno 17370 bound_to 10713
  157.3569  131.0743  151.1668 LP  0  0  0  0  0  0  0  0  0  0  0  0  # atno 17371 bound_to 10713
  140.6131  134.5438  157.5536 LP  0  0  0  0  0  0  0  0  0  0  0  0  # atno 17394 bound_to 11000
  139.9318  134.7949  156.0910 LP  0  0  0  0  0  0  0  0  0  0  0  0  # atno 17395 bound_to 11000

$$$$
