AV-unprocessed.smi:1220|AV-procd|sdf|5114|dock8
  -GOLD-   22720 4173D 1   1.00000     0.00000
 Structure written by MMmdl.
 35 36  0  0  0  0  0  0  0  0  1 V2000
  143.8889  136.1363  151.6602 C   0  0  0  0  0  0  0  0  0  0  0  0
  145.4232  136.1344  151.6917 C   0  0  2  0  0  0  0  0  0  0  0  0
  145.9749  134.7540  152.1095 C   0  0  0  0  0  0  0  0  0  0  0  0
  145.6484  133.7056  151.1587 N   0  0  0  0  0  0  0  0  0  0  0  0
  146.5082  132.8876  150.4559 C   0  0  0  0  0  0  0  0  0  0  0  0
  145.7436  132.0739  149.6703 C   0  0  0  0  0  0  0  0  0  0  0  0
  144.4105  132.4707  149.9704 C   0  0  0  0  0  0  0  0  0  0  0  0
  144.3565  133.4445  150.8648 N   0  0  0  0  0  0  0  0  0  0  0  0
  145.8809  137.1746  152.6124 N   0  0  0  0  0  0  0  0  0  0  0  0
  146.5210  138.3028  152.2650 C   0  0  0  0  0  0  0  0  0  0  0  0
  146.7596  138.6156  151.0984 O   0  0  0  0  0  0  0  0  0  0  0  0
  146.9846  139.2025  153.4161 C   0  0  2  0  0  0  0  0  0  0  0  0
  147.2744  140.6477  152.9563 C   0  0  0  0  0  0  0  0  0  0  0  0
  148.0311  141.3702  154.0759 C   0  0  0  0  0  0  0  0  0  0  0  0
  149.0738  140.0932  154.8740 S   0  0  0  0  0  0  0  0  0  0  0  0
  150.4515  140.1990  154.3708 O   0  0  0  0  0  0  0  0  0  0  0  0
  148.7936  140.0819  156.3175 O   0  0  0  0  0  0  0  0  0  0  0  0
  148.2600  138.6556  154.0812 C   0  0  0  0  0  0  0  0  0  0  0  0
  143.5108  135.3907  150.9603 H   0  0  0  0  0  0  0  0  0  0  0  0
  143.5034  137.1067  151.3456 H   0  0  0  0  0  0  0  0  0  0  0  0
  143.4702  135.9128  152.6421 H   0  0  0  0  0  0  0  0  0  0  0  0
  145.7649  136.3573  150.6792 H   0  0  0  0  0  0  0  0  0  0  0  0
  147.0587  134.7944  152.2259 H   0  0  0  0  0  0  0  0  0  0  0  0
  145.5696  134.4664  153.0807 H   0  0  0  0  0  0  0  0  0  0  0  0
  147.5803  132.9580  150.5656 H   0  0  0  0  0  0  0  0  0  0  0  0
  146.0840  131.3125  148.9843 H   0  0  0  0  0  0  0  0  0  0  0  0
  143.4866  132.0823  149.5683 H   0  0  0  0  0  0  0  0  0  0  0  0
  145.7275  137.0058  153.5959 H   0  0  0  0  0  0  0  0  0  0  0  0
  146.2023  139.2484  154.1760 H   0  0  0  0  0  0  0  0  0  0  0  0
  147.9016  140.6379  152.0636 H   0  0  0  0  0  0  0  0  0  0  0  0
  146.3586  141.1788  152.6954 H   0  0  0  0  0  0  0  0  0  0  0  0
  148.6489  142.1921  153.7141 H   0  0  0  0  0  0  0  0  0  0  0  0
  147.3390  141.7561  154.8244 H   0  0  0  0  0  0  0  0  0  0  0  0
  148.0476  137.8943  154.8320 H   0  0  0  0  0  0  0  0  0  0  0  0
  148.9557  138.2360  153.3527 H   0  0  0  0  0  0  0  0  0  0  0  0
  1  2  1  0  0  0  0
  1 19  1  0  0  0  0
  1 20  1  0  0  0  0
  1 21  1  0  0  0  0
  2  3  1  0  0  0  0
  2  9  1  0  0  0  0
  2 22  1  0  0  0  0
  3  4  1  0  0  0  0
  3 23  1  0  0  0  0
  3 24  1  0  0  0  0
  4  8  1  0  0  0  0
  4  5  1  0  0  0  0
  5  6  2  0  0  0  0
  5 25  1  0  0  0  0
  6  7  1  0  0  0  0
  6 26  1  0  0  0  0
  7  8  2  0  0  0  0
  7 27  1  0  0  0  0
  9 10  1  0  0  0  0
  9 28  1  0  0  0  0
 10 11  2  0  0  0  0
 10 12  1  0  0  0  0
 12 18  1  0  0  0  0
 12 13  1  0  0  0  0
 12 29  1  0  0  0  0
 13 14  1  0  0  0  0
 13 30  1  0  0  0  0
 13 31  1  0  0  0  0
 14 15  1  0  0  0  0
 14 32  1  0  0  0  0
 14 33  1  0  0  0  0
 15 16  2  0  0  0  0
 15 17  2  0  0  0  0
 15 18  1  0  0  0  0
 18 34  1  0  0  0  0
 18 35  1  0  0  0  0
M  END
> <s_m_source_file>
AV-unprocessed.smi

> <i_m_source_file_index>
1220

> <i_lp_mmshare_version>
43012

> <i_f3d_flags>
0

> <s_epik_input>
bjFbY0hdW2NIXVtjSF1uMVtDSDJdW0NAQEhdKFtDSDNdKVtOSF1DKD1PKVtDQEBIXShbQ0gyXTIpW0NIMl1bQ0gyXVMyKD1PKT1P

> <s_epik_cmdline>
J2VwaWtfcHl0aG9uJywgJy1waCcsICc3LjAnLCAnLXRuJywgJzgnLCAnLW1hJywgJzIwMCcsICctbWV0YWxfYmluZGluZycsICctaW1hZScsICc8aW5maWxlLm1hZT4nLCAnLW9tYWUnLCAnPG91dGZpbGUubWFlPic=

> <r_lp_tautomer_probability>
1

> <r_epik_Ionization_Penalty>
0.000293905

> <r_epik_Ionization_Penalty_Charging>
0

> <r_epik_Ionization_Penalty_Neutral>
0.000293905

> <r_epik_State_Penalty>
-0

> <r_epik_Charging_Adjusted_Penalty>
0

> <i_epik_Tot_Q>
0

> <i_epik_Tot_abs_Q>
0

> <r_epik_Metal_State_Penalty>
-0

> <b_epik_Metal_Only>
0

> <s_lp_Force_Field>
OPLS_2005

> <r_lp_Energy>
3.03909

> <b_lp_Chiralities_Consistent>
1

> <s_lp_Variant>
AV-unprocessed.smi:1220-1

> <Gold.Version>
5.8.1

> <Gold.Id.Protein>
6NUR|6NUR_protein|mol2

> <Gold.PLP.Fitness>
40.5607

> <Gold.PLP.PLP>
-33.4798

> <Gold.PLP.part.hbond>
-2.0818

> <Gold.PLP.part.metal>
0.0000

> <Gold.PLP.part.buried>
-3.8861

> <Gold.PLP.part.nonpolar>
-29.2865

> <Gold.PLP.part.repulsive>
0.8117

> <Gold.PLP.ligand.clash>
0.0000

> <Gold.PLP.ligand.torsion>
0.5897

> <Gold.PLP.Chemscore.Hbond>
2.0000

> <Gold.PLP.Chemscore.CHOScore>
0.7497

> <Gold.PLP.Chemscore.Metal>
0.0000

> <Gold.Chemscore.Hbonds>
donor molecule, donor type, donor heavy atom, donor atom, acceptor molecule, acceptor atom, score
      P1  H  7954  7966       L1    11  1.00
      P1  H  7989  7998       L1    16  1.00
      L1  C     5    25       P1 10747  0.79

> <Gold.PLP.Chemscore.Internal.Correction>
0.0112

> <Gold.Rescore>
     Score         DG    S(hbond)    S(metal)    S(lipo)     H(rot)  DE(clash)    DE(int)     intcor
     13.28     -15.71       1.93        0.00      70.59       1.75       0.61       1.81       ----

> <Gold.Chemscore.Fitness>
13.2849

> <Gold.Chemscore.DG>
-15.7087

> <Gold.Chemscore.ZeroCoef>
-5.4800

> <Gold.Chemscore.Hbond>
1.9279

> <Gold.Chemscore.Metal>
0.0000

> <Gold.Chemscore.Lipo>
70.5922

> <Gold.Chemscore.Internal_Hbond>
0.0000

> <Gold.Chemscore.DEClash>
0.6090

> <Gold.Chemscore.DEInternal>
1.8148

> <Gold.Chemscore.Rot>
1.7460

> <Gold.Chemscore.Internal.Correction>
   9.000000E+99

> <Gold.Chemscore.Hbonds>
donor molecule, donor type, donor heavy atom, donor atom, acceptor molecule, acceptor atom, score
      P1  H  7954  7966       L1    11  0.92
      P1  H  7989  7998       L1    16  0.98

> <Gold.Chemscore.Hbond.Weighted>
-6.4391

> <Gold.Chemscore.Metal.Weighted>
-0.0000

> <Gold.Chemscore.Lipo.Weighted>
-8.2593

> <Gold.Chemscore.Internal_Hbond.Weighted>
0.0000

> <Gold.Chemscore.DEClash.Weighted>
0.6090

> <Gold.Chemscore.DEInternal.Weighted>
1.8148

> <Gold.Chemscore.Rot.Weighted>
4.4697

> <Gold.Chemscore.Internal.Correction.Weighted>
   9.000000E+99

> <Gold.Protein.RotatedTorsions>
[ 6907 6896 6895 6894 ] final  -89.19 input  -60.11 | X-H torsion
[ 7974 7965 7964 7962 ] final -140.42 input  175.53 | X-H torsion
[ 8008 7997 7996 7995 ] final   72.17 input   59.86 | X-H torsion
[ 10167 10162 10161 10158 ] final -104.69 input  -65.29 | X-H torsion
[ 10718 10713 10712 10709 ] final   59.34 input   66.30 | X-H torsion
[ 10763 10752 10751 10750 ] final -135.09 input  -60.55 | X-H torsion
[ 11005 11000 10999 10996 ] final   66.60 input  -57.11 | X-H torsion

> <Gold.Protein.ActiveResidues>
 VAL166  LYS551  ARG553  GLY616  TRP617  ASP618  TYR619  PRO620  LYS621  CYS622 
 ASP623  PHE694  ASN695  SER759  ASP760  ASP761  ALA762  ILE779  LEU786  VAL792 
 PHE793  MET794  SER795  GLU796  ALA797  LYS798  CYS799  TRP800  GLU811  SER814 

> <Gold.Protein.RotatedAtoms>
  150.6872  134.2625  159.4554 H   0  0  0  0  0  0  0  0  0  0  0  0  # atno 6907 bound_to 6896
  152.0554  134.9625  160.0584 H   0  0  0  0  0  0  0  0  0  0  0  0  # atno 6908 bound_to 6896
  152.1073  133.4247  159.4651 H   0  0  0  0  0  0  0  0  0  0  0  0  # atno 6909 bound_to 6896
  144.8598  140.6202  143.5335 H   0  0  0  0  0  0  0  0  0  0  0  0  # atno 7974 bound_to 7965
  155.7648  140.3486  155.5216 H   0  0  0  0  0  0  0  0  0  0  0  0  # atno 8008 bound_to 7997
  155.8879  140.1013  157.1460 H   0  0  0  0  0  0  0  0  0  0  0  0  # atno 8009 bound_to 7997
  154.4030  140.1310  156.4266 H   0  0  0  0  0  0  0  0  0  0  0  0  # atno 8010 bound_to 7997
  140.2065  143.3778  152.1086 H   0  0  0  0  0  0  0  0  0  0  0  0  # atno 10167 bound_to 10162
  157.5667  130.8877  149.9200 H   0  0  0  0  0  0  0  0  0  0  0  0  # atno 10718 bound_to 10713
  154.8709  135.3714  154.4841 H   0  0  0  0  0  0  0  0  0  0  0  0  # atno 10763 bound_to 10752
  153.5493  135.7025  153.5604 H   0  0  0  0  0  0  0  0  0  0  0  0  # atno 10764 bound_to 10752
  153.3730  135.4016  155.1766 H   0  0  0  0  0  0  0  0  0  0  0  0  # atno 10765 bound_to 10752
  139.9822  134.6725  156.0241 H   0  0  0  0  0  0  0  0  0  0  0  0  # atno 11005 bound_to 11000
  145.4334  139.1546  143.4010 LP  0  0  0  0  0  0  0  0  0  0  0  0  # atno 17320 bound_to 7965
  146.2852  140.4451  142.8761 LP  0  0  0  0  0  0  0  0  0  0  0  0  # atno 17321 bound_to 7965
  139.5196  144.7022  151.5460 LP  0  0  0  0  0  0  0  0  0  0  0  0  # atno 17342 bound_to 10162
  140.6353  143.8996  150.6642 LP  0  0  0  0  0  0  0  0  0  0  0  0  # atno 17343 bound_to 10162
  156.0715  130.3684  150.0766 LP  0  0  0  0  0  0  0  0  0  0  0  0  # atno 17370 bound_to 10713
  156.8923  130.9593  151.3587 LP  0  0  0  0  0  0  0  0  0  0  0  0  # atno 17371 bound_to 10713
  141.1492  133.6551  156.3962 LP  0  0  0  0  0  0  0  0  0  0  0  0  # atno 17394 bound_to 11000
  140.5074  134.6428  157.5271 LP  0  0  0  0  0  0  0  0  0  0  0  0  # atno 17395 bound_to 11000

$$$$
