AV-unprocessed.smi:2906|AV-procd|sdf|11164|dock2
  -GOLD-   2272016 53D 1   1.00000     0.00000
 Structure written by MMmdl.
 39 40  0  0  0  0  0  0  0  0  2 V2000
  151.9571  145.1586  160.0269 C   0  0  0  0  0  0  0  0  0  0  0  0
  152.5504  144.6475  158.7038 C   0  0  0  0  0  0  0  0  0  0  0  0
  151.8532  143.3903  158.1568 C   0  0  0  0  0  0  0  0  0  0  0  0
  150.9422  143.5032  157.3347 O   0  0  0  0  0  0  0  0  0  0  0  0
  152.2705  142.1861  158.6004 N   0  0  0  0  0  0  0  0  0  0  0  0
  153.3337  142.0175  159.5874 C   0  0  0  0  0  0  0  0  0  0  0  0
  153.3267  140.5369  159.9654 C   0  0  0  0  0  0  0  0  0  0  0  0
  152.6837  139.8340  158.7701 C   0  0  1  0  0  0  0  0  0  0  0  0
  151.9549  138.6283  159.1537 N   0  0  0  0  0  0  0  0  0  0  0  0
  151.2279  137.8604  158.3293 C   0  0  0  0  0  0  0  0  0  0  0  0
  151.1305  138.1606  157.1369 O   0  0  0  0  0  0  0  0  0  0  0  0
  150.6628  136.7908  158.9350 N   0  5  0  0  0  0  0  0  0  0  0  0
  149.3282  136.7254  159.0701 C   0  0  0  0  0  0  0  0  0  0  0  0
  148.7258  136.3811  160.2137 N   0  0  0  0  0  0  0  0  0  0  0  0
  147.3307  136.3797  160.1333 C   0  0  0  0  0  0  0  0  0  0  0  0
  146.5112  136.0204  161.3352 C   0  0  0  0  0  0  0  0  0  0  0  0
  146.8546  134.6289  161.8786 C   0  0  0  0  0  0  0  0  0  0  0  0
  146.8638  136.7184  158.8897 C   0  0  0  0  0  0  0  0  0  0  0  0
  148.1650  137.0532  157.7837 S   0  0  0  0  0  0  0  0  0  0  0  0
  151.7446  140.8896  158.1750 C   0  0  0  0  0  0  0  0  0  0  0  0
  152.4798  146.0549  160.3614 H   0  0  0  0  0  0  0  0  0  0  0  0
  152.0461  144.4129  160.8180 H   0  0  0  0  0  0  0  0  0  0  0  0
  150.9024  145.4139  159.9194 H   0  0  0  0  0  0  0  0  0  0  0  0
  152.4879  145.4394  157.9567 H   0  0  0  0  0  0  0  0  0  0  0  0
  153.6085  144.4292  158.8502 H   0  0  0  0  0  0  0  0  0  0  0  0
  154.2866  142.2907  159.1321 H   0  0  0  0  0  0  0  0  0  0  0  0
  153.1827  142.6495  160.4637 H   0  0  0  0  0  0  0  0  0  0  0  0
  154.3232  140.1555  160.1911 H   0  0  0  0  0  0  0  0  0  0  0  0
  152.7119  140.3996  160.8565 H   0  0  0  0  0  0  0  0  0  0  0  0
  153.4535  139.5950  158.0337 H   0  0  0  0  0  0  0  0  0  0  0  0
  152.0081  138.3482  160.1220 H   0  0  0  0  0  0  0  0  0  0  0  0
  146.6609  136.7602  162.1224 H   0  0  0  0  0  0  0  0  0  0  0  0
  145.4496  136.0575  161.0887 H   0  0  0  0  0  0  0  0  0  0  0  0
  146.2443  134.3899  162.7496 H   0  0  0  0  0  0  0  0  0  0  0  0
  147.9010  134.5706  162.1793 H   0  0  0  0  0  0  0  0  0  0  0  0
  146.6791  133.8590  161.1265 H   0  0  0  0  0  0  0  0  0  0  0  0
  145.8395  136.7889  158.5570 H   0  0  0  0  0  0  0  0  0  0  0  0
  150.7312  140.7808  158.5655 H   0  0  0  0  0  0  0  0  0  0  0  0
  151.7005  140.7982  157.0890 H   0  0  0  0  0  0  0  0  0  0  0  0
  1  2  1  0  0  0  0
  1 21  1  0  0  0  0
  1 22  1  0  0  0  0
  1 23  1  0  0  0  0
  2  3  1  0  0  0  0
  2 24  1  0  0  0  0
  2 25  1  0  0  0  0
  3  4  2  0  0  0  0
  3  5  1  0  0  0  0
  5 20  1  0  0  0  0
  5  6  1  0  0  0  0
  6  7  1  0  0  0  0
  6 26  1  0  0  0  0
  6 27  1  0  0  0  0
  7  8  1  0  0  0  0
  7 28  1  0  0  0  0
  7 29  1  0  0  0  0
  8  9  1  0  0  0  0
  8 20  1  0  0  0  0
  8 30  1  0  0  0  0
  9 10  1  0  0  0  0
  9 31  1  0  0  0  0
 10 11  2  0  0  0  0
 10 12  1  0  0  0  0
 12 13  1  0  0  0  0
 13 19  1  0  0  0  0
 13 14  2  0  0  0  0
 14 15  1  0  0  0  0
 15 16  1  0  0  0  0
 15 18  2  0  0  0  0
 16 17  1  0  0  0  0
 16 32  1  0  0  0  0
 16 33  1  0  0  0  0
 17 34  1  0  0  0  0
 17 35  1  0  0  0  0
 17 36  1  0  0  0  0
 18 19  1  0  0  0  0
 18 37  1  0  0  0  0
 20 38  1  0  0  0  0
 20 39  1  0  0  0  0
M  CHG  1  12  -1
M  END
> <s_m_source_file>
AV-unprocessed.smi

> <i_m_source_file_index>
2906

> <i_lp_mmshare_version>
43012

> <i_f3d_flags>
0

> <s_epik_input>
W0NIM11bQ0gyXUMoPU8pTjFbQ0gyXVtDSDJdW0NASF0oW0NIMl0xKVtOSF1DKD1PKVtOSF1jMm5jKFtjSF1zMilbQ0gyXVtDSDNd

> <s_epik_cmdline>
J2VwaWtfcHl0aG9uJywgJy1waCcsICc3LjAnLCAnLXRuJywgJzgnLCAnLW1hJywgJzIwMCcsICctbWV0YWxfYmluZGluZycsICctaW1hZScsICc8aW5maWxlLm1hZT4nLCAnLW9tYWUnLCAnPG91dGZpbGUubWFlPic=

> <r_lp_tautomer_probability>
1

> <r_epik_Ionization_Penalty>
7.20119

> <r_epik_Ionization_Penalty_Charging>
5.87168

> <r_epik_Ionization_Penalty_Neutral>
1.32951

> <r_epik_State_Penalty>
5.87165

> <r_epik_Charging_Adjusted_Penalty>
11.7433

> <i_epik_Tot_Q>
-1

> <i_epik_Tot_abs_Q>
1

> <r_epik_Metal_State_Penalty>
1.83511

> <b_epik_Metal_Only>
1

> <s_lp_Force_Field>
OPLS_2005

> <r_lp_Energy>
20.3379

> <b_lp_Chiralities_Consistent>
1

> <s_lp_Variant>
AV-unprocessed.smi:2906-3

> <Gold.Version>
5.8.1

> <Gold.Id.Protein>
6NUR|6NUR_protein|mol2

> <Gold.PLP.Fitness>
45.6004

> <Gold.PLP.PLP>
-39.3320

> <Gold.PLP.part.hbond>
-2.0000

> <Gold.PLP.part.metal>
0.0000

> <Gold.PLP.part.buried>
-5.4670

> <Gold.PLP.part.nonpolar>
-34.7001

> <Gold.PLP.part.repulsive>
1.9764

> <Gold.PLP.ligand.clash>
0.0000

> <Gold.PLP.ligand.torsion>
1.4112

> <Gold.PLP.Chemscore.Hbond>
3.0000

> <Gold.PLP.Chemscore.CHOScore>
0.0000

> <Gold.PLP.Chemscore.Metal>
0.0000

> <Gold.Chemscore.Hbonds>
donor molecule, donor type, donor heavy atom, donor atom, acceptor molecule, acceptor atom, score
      P1  H  6896  6908       L1    12  1.70

> <Gold.PLP.Chemscore.Internal.Correction>
0.0907

> <Gold.Rescore>
     Score         DG    S(hbond)    S(metal)    S(lipo)     H(rot)  DE(clash)    DE(int)     intcor
     12.07     -14.64       0.96        0.00      81.31       1.39       0.04       2.53       ----

> <Gold.Chemscore.Fitness>
12.0729

> <Gold.Chemscore.DG>
-14.6382

> <Gold.Chemscore.ZeroCoef>
-5.4800

> <Gold.Chemscore.Hbond>
0.9556

> <Gold.Chemscore.Metal>
0.0000

> <Gold.Chemscore.Lipo>
81.3113

> <Gold.Chemscore.Internal_Hbond>
0.0000

> <Gold.Chemscore.DEClash>
0.0359

> <Gold.Chemscore.DEInternal>
2.5294

> <Gold.Chemscore.Rot>
1.3856

> <Gold.Chemscore.Internal.Correction>
   9.000000E+99

> <Gold.Chemscore.Hbonds>
donor molecule, donor type, donor heavy atom, donor atom, acceptor molecule, acceptor atom, score
      P1  H  6896  6908       L1    12  0.14

> <Gold.Chemscore.Hbond.Weighted>
-3.1918

> <Gold.Chemscore.Metal.Weighted>
-0.0000

> <Gold.Chemscore.Lipo.Weighted>
-9.5134

> <Gold.Chemscore.Internal_Hbond.Weighted>
0.0000

> <Gold.Chemscore.DEClash.Weighted>
0.0359

> <Gold.Chemscore.DEInternal.Weighted>
2.5294

> <Gold.Chemscore.Rot.Weighted>
3.5471

> <Gold.Chemscore.Internal.Correction.Weighted>
   9.000000E+99

> <Gold.Protein.RotatedTorsions>
[ 6907 6896 6895 6894 ] final -152.08 input  -60.11 | X-H torsion
[ 7974 7965 7964 7962 ] final    9.56 input  175.53 | X-H torsion
[ 8008 7997 7996 7995 ] final  -30.78 input   59.86 | X-H torsion
[ 10167 10162 10161 10158 ] final   85.67 input  -65.29 | X-H torsion
[ 10718 10713 10712 10709 ] final  -90.31 input   66.30 | X-H torsion
[ 10763 10752 10751 10750 ] final  110.27 input  -60.55 | X-H torsion
[ 11005 11000 10999 10996 ] final  -15.66 input  -57.11 | X-H torsion

> <Gold.Protein.ActiveResidues>
 VAL166  LYS551  ARG553  GLY616  TRP617  ASP618  TYR619  PRO620  LYS621  CYS622 
 ASP623  PHE694  ASN695  SER759  ASP760  ASP761  ALA762  ILE779  LEU786  VAL792 
 PHE793  MET794  SER795  GLU796  ALA797  LYS798  CYS799  TRP800  GLU811  SER814 

> <Gold.Protein.RotatedAtoms>
  151.2225  133.4494  159.2600 H   0  0  0  0  0  0  0  0  0  0  0  0  # atno 6907 bound_to 6896
  151.0871  134.9894  159.8395 H   0  0  0  0  0  0  0  0  0  0  0  0  # atno 6908 bound_to 6896
  152.5431  134.2161  159.8822 H   0  0  0  0  0  0  0  0  0  0  0  0  # atno 6909 bound_to 6896
  146.2401  139.9765  142.8441 H   0  0  0  0  0  0  0  0  0  0  0  0  # atno 7974 bound_to 7965
  154.4237  140.1782  156.1462 H   0  0  0  0  0  0  0  0  0  0  0  0  # atno 8008 bound_to 7997
  155.9952  140.3365  155.6767 H   0  0  0  0  0  0  0  0  0  0  0  0  # atno 8009 bound_to 7997
  155.6318  140.0670  157.2637 H   0  0  0  0  0  0  0  0  0  0  0  0  # atno 8010 bound_to 7997
  139.8953  144.6361  150.8695 H   0  0  0  0  0  0  0  0  0  0  0  0  # atno 10167 bound_to 10162
  155.9987  130.4905  150.5304 H   0  0  0  0  0  0  0  0  0  0  0  0  # atno 10718 bound_to 10713
  153.4465  135.3754  155.2259 H   0  0  0  0  0  0  0  0  0  0  0  0  # atno 10763 bound_to 10752
  154.8755  135.3875  154.4089 H   0  0  0  0  0  0  0  0  0  0  0  0  # atno 10764 bound_to 10752
  153.4642  135.7087  153.6095 H   0  0  0  0  0  0  0  0  0  0  0  0  # atno 10765 bound_to 10752
  140.7988  133.8230  155.9450 H   0  0  0  0  0  0  0  0  0  0  0  0  # atno 11005 bound_to 11000
  145.1632  140.9683  143.4365 LP  0  0  0  0  0  0  0  0  0  0  0  0  # atno 17320 bound_to 7965
  145.0097  139.3521  143.6126 LP  0  0  0  0  0  0  0  0  0  0  0  0  # atno 17321 bound_to 7965
  140.7718  143.3478  151.2075 LP  0  0  0  0  0  0  0  0  0  0  0  0  # atno 17342 bound_to 10162
  139.7073  143.9434  152.2932 LP  0  0  0  0  0  0  0  0  0  0  0  0  # atno 17343 bound_to 10162
  157.3254  131.0689  151.1901 LP  0  0  0  0  0  0  0  0  0  0  0  0  # atno 17370 bound_to 10713
  157.2800  130.6745  149.6061 LP  0  0  0  0  0  0  0  0  0  0  0  0  # atno 17371 bound_to 10713
  140.9315  134.2015  157.4860 LP  0  0  0  0  0  0  0  0  0  0  0  0  # atno 17394 bound_to 11000
  139.8723  134.9835  156.5199 LP  0  0  0  0  0  0  0  0  0  0  0  0  # atno 17395 bound_to 11000

$$$$
