AV-unprocessed.smi:856|AV-procd|sdf|3960|dock10
  -GOLD-   22720 1433D 1   1.00000     0.00000
 Structure written by MMmdl.
 42 44  0  0  0  0  0  0  0  0  1 V2000
  154.9947  139.7178  160.9085 C   0  0  0  0  0  0  0  0  0  0  0  0
  154.0404  140.7322  160.4221 N   0  0  0  0  0  0  0  0  0  0  0  0
  153.5330  140.5900  159.1571 C   0  0  0  0  0  0  0  0  0  0  0  0
  153.8262  139.6815  158.3790 O   0  0  0  0  0  0  0  0  0  0  0  0
  152.5805  141.6394  158.7789 C   0  0  0  0  0  0  0  0  0  0  0  0
  152.2533  142.6673  159.5987 C   0  0  0  0  0  0  0  0  0  0  0  0
  151.3400  143.5253  158.9965 N   0  0  0  0  0  0  0  0  0  0  0  0
  151.1588  142.9482  157.8078 C   0  0  0  0  0  0  0  0  0  0  0  0
  151.8610  141.8162  157.5972 N   0  0  0  0  0  0  0  0  0  0  0  0
  151.8365  141.0024  156.3914 C   0  0  0  0  0  0  0  0  0  0  0  0
  150.4161  140.5228  156.0258 C   0  0  1  0  0  0  0  0  0  0  0  0
  150.3782  139.8716  154.7715 O   0  0  0  0  0  0  0  0  0  0  0  0
  149.7935  139.5953  157.0809 C   0  0  0  0  0  0  0  0  0  0  0  0
  148.4279  139.3750  156.7694 O   0  0  0  0  0  0  0  0  0  0  0  0
  147.6047  140.4979  157.0377 C   0  0  0  0  0  0  0  0  0  0  0  0
  147.2331  141.1147  155.7261 C   0  0  0  0  0  0  0  0  0  0  0  0
  146.4627  142.1940  155.3911 C   0  0  0  0  0  0  0  0  0  0  0  0
  146.4914  142.2865  153.9720 C   0  0  0  0  0  0  0  0  0  0  0  0
  147.2785  141.2563  153.5434 C   0  0  0  0  0  0  0  0  0  0  0  0
  147.7390  140.5327  154.5992 O   0  0  0  0  0  0  0  0  0  0  0  0
  152.8479  142.7289  160.8835 N   0  0  0  0  0  0  0  0  0  0  0  0
  152.4737  143.8581  161.7404 C   0  0  0  0  0  0  0  0  0  0  0  0
  153.7338  141.7625  161.2955 C   0  0  0  0  0  0  0  0  0  0  0  0
  154.2439  141.8134  162.4181 O   0  0  0  0  0  0  0  0  0  0  0  0
  155.1986  138.9060  160.2095 H   0  0  0  0  0  0  0  0  0  0  0  0
  154.6214  139.2501  161.8211 H   0  0  0  0  0  0  0  0  0  0  0  0
  155.9563  140.1795  161.1378 H   0  0  0  0  0  0  0  0  0  0  0  0
  150.4923  143.3626  157.0654 H   0  0  0  0  0  0  0  0  0  0  0  0
  152.2917  141.5613  155.5751 H   0  0  0  0  0  0  0  0  0  0  0  0
  152.4826  140.1385  156.5524 H   0  0  0  0  0  0  0  0  0  0  0  0
  149.7739  141.3990  155.9279 H   0  0  0  0  0  0  0  0  0  0  0  0
  149.7405  139.1749  154.8177 H   0  0  0  0  0  0  0  0  0  0  0  0
  150.3178  138.6384  157.0787 H   0  0  0  0  0  0  0  0  0  0  0  0
  149.9007  140.0201  158.0806 H   0  0  0  0  0  0  0  0  0  0  0  0
  146.7076  140.1919  157.5778 H   0  0  0  0  0  0  0  0  0  0  0  0
  148.1383  141.2238  157.6527 H   0  0  0  0  0  0  0  0  0  0  0  0
  145.9427  142.8391  156.0838 H   0  0  0  0  0  0  0  0  0  0  0  0
  145.9995  143.0146  153.3441 H   0  0  0  0  0  0  0  0  0  0  0  0
  147.6001  140.9101  152.5722 H   0  0  0  0  0  0  0  0  0  0  0  0
  152.9447  143.8547  162.7238 H   0  0  0  0  0  0  0  0  0  0  0  0
  151.3948  143.8630  161.8994 H   0  0  0  0  0  0  0  0  0  0  0  0
  152.7440  144.7968  161.2555 H   0  0  0  0  0  0  0  0  0  0  0  0
  1  2  1  0  0  0  0
  1 25  1  0  0  0  0
  1 26  1  0  0  0  0
  1 27  1  0  0  0  0
  2 23  1  0  0  0  0
  2  3  1  0  0  0  0
  3  4  2  0  0  0  0
  3  5  1  0  0  0  0
  5  9  1  0  0  0  0
  5  6  2  0  0  0  0
  6  7  1  0  0  0  0
  6 21  1  0  0  0  0
  7  8  2  0  0  0  0
  8  9  1  0  0  0  0
  8 28  1  0  0  0  0
  9 10  1  0  0  0  0
 10 11  1  0  0  0  0
 10 29  1  0  0  0  0
 10 30  1  0  0  0  0
 11 12  1  0  0  0  0
 11 13  1  0  0  0  0
 11 31  1  0  0  0  0
 12 32  1  0  0  0  0
 13 14  1  0  0  0  0
 13 33  1  0  0  0  0
 13 34  1  0  0  0  0
 14 15  1  0  0  0  0
 15 16  1  0  0  0  0
 15 35  1  0  0  0  0
 15 36  1  0  0  0  0
 16 20  1  0  0  0  0
 16 17  2  0  0  0  0
 17 18  1  0  0  0  0
 17 37  1  0  0  0  0
 18 19  2  0  0  0  0
 18 38  1  0  0  0  0
 19 20  1  0  0  0  0
 19 39  1  0  0  0  0
 21 22  1  0  0  0  0
 21 23  1  0  0  0  0
 22 40  1  0  0  0  0
 22 41  1  0  0  0  0
 22 42  1  0  0  0  0
 23 24  2  0  0  0  0
M  END
> <s_m_source_file>
AV-unprocessed.smi

> <i_m_source_file_index>
856

> <i_lp_mmshare_version>
43012

> <i_f3d_flags>
0

> <s_epik_input>
Tz1jMW4oW0NIM10pYyg9TyluKFtDSDNdKWMoYzEyKW5bY0hdbjJbQ0gyXVtDQEhdKFtPSF0pW0NIMl1PW0NIMl1jM1tjSF1bY0hdW2NIXW8z

> <s_epik_cmdline>
J2VwaWtfcHl0aG9uJywgJy1waCcsICc3LjAnLCAnLXRuJywgJzgnLCAnLW1hJywgJzIwMCcsICctbWV0YWxfYmluZGluZycsICctaW1hZScsICc8aW5maWxlLm1hZT4nLCAnLW9tYWUnLCAnPG91dGZpbGUubWFlPic=

> <r_lp_tautomer_probability>
1

> <r_epik_Ionization_Penalty>
1.33189e-06

> <r_epik_Ionization_Penalty_Charging>
3.64616e-09

> <r_epik_Ionization_Penalty_Neutral>
1.32824e-06

> <r_epik_State_Penalty>
-0

> <r_epik_Charging_Adjusted_Penalty>
3.64616e-09

> <i_epik_Tot_Q>
0

> <i_epik_Tot_abs_Q>
0

> <r_epik_Metal_State_Penalty>
-0

> <b_epik_Metal_Only>
0

> <s_lp_Force_Field>
OPLS_2005

> <r_lp_Energy>
33.5774

> <b_lp_Chiralities_Consistent>
1

> <s_lp_Variant>
AV-unprocessed.smi:856-2

> <Gold.Version>
5.8.1

> <Gold.Id.Protein>
6NUR|6NUR_protein|mol2

> <Gold.PLP.Fitness>
55.2840

> <Gold.PLP.PLP>
-44.0852

> <Gold.PLP.part.hbond>
-3.0000

> <Gold.PLP.part.metal>
0.0000

> <Gold.PLP.part.buried>
-7.7104

> <Gold.PLP.part.nonpolar>
-32.0735

> <Gold.PLP.part.repulsive>
0.1736

> <Gold.PLP.ligand.clash>
0.0000

> <Gold.PLP.ligand.torsion>
0.4281

> <Gold.PLP.Chemscore.Hbond>
1.9913

> <Gold.PLP.Chemscore.CHOScore>
1.9999

> <Gold.PLP.Chemscore.Metal>
0.0000

> <Gold.Chemscore.Hbonds>
donor molecule, donor type, donor heavy atom, donor atom, acceptor molecule, acceptor atom, score
      P1  H  7989  7998       L1    12  0.96
      P1  H  7997  8008       L1     4  1.00
      L1  C     8    28       P1  8028  1.00
      L1  C    19    39       P1  7957  0.87

> <Gold.PLP.Chemscore.Internal.Correction>
0.0815

> <Gold.Rescore>
     Score         DG    S(hbond)    S(metal)    S(lipo)     H(rot)  DE(clash)    DE(int)     intcor
      9.12     -11.28       1.91        0.00      64.17       3.16       0.97       1.19       ----

> <Gold.Chemscore.Fitness>
9.1240

> <Gold.Chemscore.DG>
-11.2795

> <Gold.Chemscore.ZeroCoef>
-5.4800

> <Gold.Chemscore.Hbond>
1.9104

> <Gold.Chemscore.Metal>
0.0000

> <Gold.Chemscore.Lipo>
64.1705

> <Gold.Chemscore.Internal_Hbond>
0.0000

> <Gold.Chemscore.DEClash>
0.9694

> <Gold.Chemscore.DEInternal>
1.1860

> <Gold.Chemscore.Rot>
3.1599

> <Gold.Chemscore.Internal.Correction>
   9.000000E+99

> <Gold.Chemscore.Hbonds>
donor molecule, donor type, donor heavy atom, donor atom, acceptor molecule, acceptor atom, score
      P1  H  7989  7998       L1    12  0.60
      P1  H  7997  8008       L1     4  0.91

> <Gold.Chemscore.Hbond.Weighted>
-6.3808

> <Gold.Chemscore.Metal.Weighted>
-0.0000

> <Gold.Chemscore.Lipo.Weighted>
-7.5079

> <Gold.Chemscore.Internal_Hbond.Weighted>
0.0000

> <Gold.Chemscore.DEClash.Weighted>
0.9694

> <Gold.Chemscore.DEInternal.Weighted>
1.1860

> <Gold.Chemscore.Rot.Weighted>
8.0893

> <Gold.Chemscore.Internal.Correction.Weighted>
   9.000000E+99

> <Gold.Protein.RotatedTorsions>
[ 6907 6896 6895 6894 ] final  168.62 input  -60.11 | X-H torsion
[ 7974 7965 7964 7962 ] final  108.74 input  175.53 | X-H torsion
[ 8008 7997 7996 7995 ] final -102.39 input   59.86 | X-H torsion
[ 10167 10162 10161 10158 ] final   77.13 input  -65.29 | X-H torsion
[ 10718 10713 10712 10709 ] final -169.43 input   66.30 | X-H torsion
[ 10763 10752 10751 10750 ] final  -73.65 input  -60.55 | X-H torsion
[ 11005 11000 10999 10996 ] final -171.02 input  -57.11 | X-H torsion

> <Gold.Protein.ActiveResidues>
 VAL166  LYS551  ARG553  GLY616  TRP617  ASP618  TYR619  PRO620  LYS621  CYS622 
 ASP623  PHE694  ASN695  SER759  ASP760  ASP761  ALA762  ILE779  LEU786  VAL792 
 PHE793  MET794  SER795  GLU796  ALA797  LYS798  CYS799  TRP800  GLU811  SER814 

> <Gold.Protein.RotatedAtoms>
  151.8448  133.3429  159.3654 H   0  0  0  0  0  0  0  0  0  0  0  0  # atno 6907 bound_to 6896
  150.7224  134.5357  159.5731 H   0  0  0  0  0  0  0  0  0  0  0  0  # atno 6908 bound_to 6896
  152.2838  134.7800  160.0442 H   0  0  0  0  0  0  0  0  0  0  0  0  # atno 6909 bound_to 6896
  145.2768  139.2647  143.3937 H   0  0  0  0  0  0  0  0  0  0  0  0  # atno 7974 bound_to 7965
  154.8560  140.0429  157.1634 H   0  0  0  0  0  0  0  0  0  0  0  0  # atno 8008 bound_to 7997
  154.8892  140.2984  155.5360 H   0  0  0  0  0  0  0  0  0  0  0  0  # atno 8009 bound_to 7997
  156.2997  140.2397  156.3905 H   0  0  0  0  0  0  0  0  0  0  0  0  # atno 8010 bound_to 7997
  139.9848  144.5800  150.7869 H   0  0  0  0  0  0  0  0  0  0  0  0  # atno 10167 bound_to 10162
  156.7114  130.9235  151.3089 H   0  0  0  0  0  0  0  0  0  0  0  0  # atno 10718 bound_to 10713
  154.4624  135.5890  153.6265 H   0  0  0  0  0  0  0  0  0  0  0  0  # atno 10763 bound_to 10752
  152.9825  135.6047  154.3469 H   0  0  0  0  0  0  0  0  0  0  0  0  # atno 10764 bound_to 10752
  154.3342  135.2842  155.2435 H   0  0  0  0  0  0  0  0  0  0  0  0  # atno 10765 bound_to 10752
  140.5129  134.5784  157.5024 H   0  0  0  0  0  0  0  0  0  0  0  0  # atno 11005 bound_to 11000
  146.3229  140.3224  142.8634 LP  0  0  0  0  0  0  0  0  0  0  0  0  # atno 17320 bound_to 7965
  144.9288  140.7951  143.5702 LP  0  0  0  0  0  0  0  0  0  0  0  0  # atno 17321 bound_to 7965
  140.7476  143.2909  151.3334 LP  0  0  0  0  0  0  0  0  0  0  0  0  # atno 17342 bound_to 10162
  139.6383  144.0588  152.2533 LP  0  0  0  0  0  0  0  0  0  0  0  0  # atno 17343 bound_to 10162
  157.6934  130.9257  150.0578 LP  0  0  0  0  0  0  0  0  0  0  0  0  # atno 17370 bound_to 10713
  156.1658  130.3645  149.9234 LP  0  0  0  0  0  0  0  0  0  0  0  0  # atno 17371 bound_to 10713
  139.9649  134.7390  156.0160 LP  0  0  0  0  0  0  0  0  0  0  0  0  # atno 17394 bound_to 11000
  141.1376  133.6571  156.3637 LP  0  0  0  0  0  0  0  0  0  0  0  0  # atno 17395 bound_to 11000

$$$$
