AV-unprocessed.smi:2458|AV-procd|sdf|9709|dock10
  -GOLD-   2272013353D 1   1.00000     0.00000
 Structure written by MMmdl.
 47 48  0  0  0  0  0  0  0  0  1 V2000
  152.4479  144.4639  157.9273 C   0  0  0  0  0  0  0  0  0  0  0  0
  152.0043  144.2640  159.3896 C   0  0  0  0  0  0  0  0  0  0  0  0
  151.7489  145.6459  160.0222 C   0  0  0  0  0  0  0  0  0  0  0  0
  153.0082  143.4028  160.2116 C   0  0  1  0  0  0  0  0  0  0  0  0
  152.4911  143.0987  161.6396 C   0  0  0  0  0  0  0  0  0  0  0  0
  153.4706  142.2341  162.4495 C   0  0  0  0  0  0  0  0  0  0  0  0
  153.7805  140.9110  161.7264 C   0  0  2  0  0  0  0  0  0  0  0  0
  154.7669  140.0511  162.5271 C   0  0  0  0  0  0  0  0  0  0  0  0
  154.5515  138.8508  162.6988 O   0  0  0  0  0  0  0  0  0  0  0  0
  155.8372  140.6840  163.0304 N   0  0  0  0  0  0  0  0  0  0  0  0
  156.8497  140.0711  163.8849 C   0  0  0  0  0  0  0  0  0  0  0  0
  156.3024  139.6680  165.2732 C   0  0  1  0  0  0  0  0  0  0  0  0
  157.2470  138.8231  165.8972 O   0  0  0  0  0  0  0  0  0  0  0  0
  155.9429  140.8659  166.1423 C   0  0  0  0  0  0  0  0  0  0  0  0
  155.5424  140.6884  167.4836 C   0  0  0  0  0  0  0  0  0  0  0  0
  155.1935  141.8194  168.2458 C   0  0  0  0  0  0  0  0  0  0  0  0
  155.2608  143.0866  167.6339 C   0  0  0  0  0  0  0  0  0  0  0  0
  155.6419  143.2710  166.3517 N   0  0  0  0  0  0  0  0  0  0  0  0
  155.9739  142.1806  165.6275 C   0  0  0  0  0  0  0  0  0  0  0  0
  154.3340  141.2080  160.3215 C   0  0  0  0  0  0  0  0  0  0  0  0
  153.3588  142.0700  159.5046 C   0  0  0  0  0  0  0  0  0  0  0  0
  153.9323  143.9749  160.3113 H   0  0  0  0  0  0  0  0  0  0  0  0
  152.8475  140.3546  161.6178 H   0  0  0  0  0  0  0  0  0  0  0  0
  153.4484  144.8936  157.8713 H   0  0  0  0  0  0  0  0  0  0  0  0
  151.7705  145.1356  157.3993 H   0  0  0  0  0  0  0  0  0  0  0  0
  152.4486  143.5289  157.3684 H   0  0  0  0  0  0  0  0  0  0  0  0
  151.0485  143.7387  159.3659 H   0  0  0  0  0  0  0  0  0  0  0  0
  152.6808  146.1916  160.1730 H   0  0  0  0  0  0  0  0  0  0  0  0
  151.2422  145.5689  160.9834 H   0  0  0  0  0  0  0  0  0  0  0  0
  151.1083  146.2576  159.3864 H   0  0  0  0  0  0  0  0  0  0  0  0
  152.3276  144.0211  162.1953 H   0  0  0  0  0  0  0  0  0  0  0  0
  151.5246  142.5960  161.5819 H   0  0  0  0  0  0  0  0  0  0  0  0
  154.3894  142.7983  162.6179 H   0  0  0  0  0  0  0  0  0  0  0  0
  153.0479  142.0325  163.4348 H   0  0  0  0  0  0  0  0  0  0  0  0
  155.9372  141.6709  162.8419 H   0  0  0  0  0  0  0  0  0  0  0  0
  157.3028  139.2144  163.3832 H   0  0  0  0  0  0  0  0  0  0  0  0
  157.6422  140.8107  164.0051 H   0  0  0  0  0  0  0  0  0  0  0  0
  155.3999  139.0722  165.1304 H   0  0  0  0  0  0  0  0  0  0  0  0
  156.8678  138.4874  166.6950 H   0  0  0  0  0  0  0  0  0  0  0  0
  155.4925  139.7018  167.9210 H   0  0  0  0  0  0  0  0  0  0  0  0
  154.8792  141.7179  169.2740 H   0  0  0  0  0  0  0  0  0  0  0  0
  154.9996  143.9755  168.1888 H   0  0  0  0  0  0  0  0  0  0  0  0
  156.2657  142.3633  164.6036 H   0  0  0  0  0  0  0  0  0  0  0  0
  155.2939  141.7220  160.3945 H   0  0  0  0  0  0  0  0  0  0  0  0
  154.5246  140.2751  159.7891 H   0  0  0  0  0  0  0  0  0  0  0  0
  152.4463  141.5040  159.3125 H   0  0  0  0  0  0  0  0  0  0  0  0
  153.8174  142.2562  158.5344 H   0  0  0  0  0  0  0  0  0  0  0  0
  1  2  1  0  0  0  0
  1 24  1  0  0  0  0
  1 25  1  0  0  0  0
  1 26  1  0  0  0  0
  2  3  1  0  0  0  0
  2  4  1  0  0  0  0
  2 27  1  0  0  0  0
  3 28  1  0  0  0  0
  3 29  1  0  0  0  0
  3 30  1  0  0  0  0
  4 22  1  0  0  0  0
  4 21  1  0  0  0  0
  4  5  1  0  0  0  0
  5  6  1  0  0  0  0
  5 31  1  0  0  0  0
  5 32  1  0  0  0  0
  6  7  1  0  0  0  0
  6 33  1  0  0  0  0
  6 34  1  0  0  0  0
  7 23  1  0  0  0  0
  7  8  1  0  0  0  0
  7 20  1  0  0  0  0
  8  9  2  0  0  0  0
  8 10  1  0  0  0  0
 10 11  1  0  0  0  0
 10 35  1  0  0  0  0
 11 12  1  0  0  0  0
 11 36  1  0  0  0  0
 11 37  1  0  0  0  0
 12 13  1  0  0  0  0
 12 14  1  0  0  0  0
 12 38  1  0  0  0  0
 13 39  1  0  0  0  0
 14 19  1  0  0  0  0
 14 15  2  0  0  0  0
 15 16  1  0  0  0  0
 15 40  1  0  0  0  0
 16 17  2  0  0  0  0
 16 41  1  0  0  0  0
 17 18  1  0  0  0  0
 17 42  1  0  0  0  0
 18 19  2  0  0  0  0
 19 43  1  0  0  0  0
 20 21  1  0  0  0  0
 20 44  1  0  0  0  0
 20 45  1  0  0  0  0
 21 46  1  0  0  0  0
 21 47  1  0  0  0  0
M  END
> <s_m_source_file>
AV-unprocessed.smi

> <i_m_source_file_index>
2458

> <i_lp_mmshare_version>
43012

> <i_f3d_flags>
0

> <s_epik_input>
W0NIM11bQ0hdKFtDSDNdKVtDQEhdMVtDSDJdW0NIMl1bQ0BASF0oW0NIMl1bQ0gyXTEpQyg9TylbTkhdW0NIMl1bQ0BIXShbT0hdKWMyW2NIXVtjSF1bY0hdbltjSF0y

> <s_epik_cmdline>
J2VwaWtfcHl0aG9uJywgJy1waCcsICc3LjAnLCAnLXRuJywgJzgnLCAnLW1hJywgJzIwMCcsICctbWV0YWxfYmluZGluZycsICctaW1hZScsICc8aW5maWxlLm1hZT4nLCAnLW9tYWUnLCAnPG91dGZpbGUubWFlPic=

> <r_epik_Ionization_Penalty>
0.00169206

> <r_epik_Ionization_Penalty_Charging>
0

> <r_epik_Ionization_Penalty_Neutral>
0.00169206

> <r_epik_State_Penalty>
0.0011427

> <r_epik_Charging_Adjusted_Penalty>
0.0011427

> <i_epik_Tot_Q>
0

> <i_epik_Tot_abs_Q>
0

> <r_epik_Metal_State_Penalty>
-0

> <b_epik_Metal_Only>
0

> <s_lp_Force_Field>
OPLS_2005

> <r_lp_Energy>
14.1606

> <b_lp_Chiralities_Consistent>
1

> <s_lp_Variant>
AV-unprocessed.smi:2458-2

> <Gold.Version>
5.8.1

> <Gold.Id.Protein>
6NUR|6NUR_protein|mol2

> <Gold.PLP.Fitness>
52.5800

> <Gold.PLP.PLP>
-53.7549

> <Gold.PLP.part.hbond>
-0.7984

> <Gold.PLP.part.metal>
0.0000

> <Gold.PLP.part.buried>
-6.3092

> <Gold.PLP.part.nonpolar>
-45.6641

> <Gold.PLP.part.repulsive>
0.0046

> <Gold.PLP.ligand.clash>
0.0000

> <Gold.PLP.ligand.torsion>
0.6177

> <Gold.PLP.Chemscore.Hbond>
0.0000

> <Gold.PLP.Chemscore.CHOScore>
0.0000

> <Gold.PLP.Chemscore.Metal>
0.0000

> <Gold.PLP.Chemscore.Internal.Correction>
0.0605

> <Gold.Rescore>
     Score         DG    S(hbond)    S(metal)    S(lipo)     H(rot)  DE(clash)    DE(int)     intcor
     15.46     -17.45       0.00        0.00     147.34       2.06       1.51       0.47       ----

> <Gold.Chemscore.Fitness>
15.4632

> <Gold.Chemscore.DG>
-17.4477

> <Gold.Chemscore.ZeroCoef>
-5.4800

> <Gold.Chemscore.Hbond>
0.0000

> <Gold.Chemscore.Metal>
0.0000

> <Gold.Chemscore.Lipo>
147.3353

> <Gold.Chemscore.Internal_Hbond>
0.0000

> <Gold.Chemscore.DEClash>
1.5139

> <Gold.Chemscore.DEInternal>
0.4706

> <Gold.Chemscore.Rot>
2.0588

> <Gold.Chemscore.Internal.Correction>
   9.000000E+99

> <Gold.Chemscore.Hbond.Weighted>
-0.0000

> <Gold.Chemscore.Metal.Weighted>
-0.0000

> <Gold.Chemscore.Lipo.Weighted>
-17.2382

> <Gold.Chemscore.Internal_Hbond.Weighted>
0.0000

> <Gold.Chemscore.DEClash.Weighted>
1.5139

> <Gold.Chemscore.DEInternal.Weighted>
0.4706

> <Gold.Chemscore.Rot.Weighted>
5.2705

> <Gold.Chemscore.Internal.Correction.Weighted>
   9.000000E+99

> <Gold.Protein.RotatedTorsions>
[ 6907 6896 6895 6894 ] final -149.19 input  -60.11 | X-H torsion
[ 7974 7965 7964 7962 ] final   69.81 input  175.53 | X-H torsion
[ 8008 7997 7996 7995 ] final   -8.53 input   59.86 | X-H torsion
[ 10167 10162 10161 10158 ] final  149.82 input  -65.29 | X-H torsion
[ 10718 10713 10712 10709 ] final  152.19 input   66.30 | X-H torsion
[ 10763 10752 10751 10750 ] final  102.91 input  -60.55 | X-H torsion
[ 11005 11000 10999 10996 ] final  157.73 input  -57.11 | X-H torsion

> <Gold.Protein.ActiveResidues>
 VAL166  LYS551  ARG553  GLY616  TRP617  ASP618  TYR619  PRO620  LYS621  CYS622 
 ASP623  PHE694  ASN695  SER759  ASP760  ASP761  ALA762  ILE779  LEU786  VAL792 
 PHE793  MET794  SER795  GLU796  ALA797  LYS798  CYS799  TRP800  GLU811  SER814 

> <Gold.Protein.RotatedAtoms>
  151.1806  133.4727  159.2593 H   0  0  0  0  0  0  0  0  0  0  0  0  # atno 6907 bound_to 6896
  151.1263  135.0106  159.8572 H   0  0  0  0  0  0  0  0  0  0  0  0  # atno 6908 bound_to 6896
  152.5458  134.1713  159.8651 H   0  0  0  0  0  0  0  0  0  0  0  0  # atno 6909 bound_to 6896
  145.7859  139.2910  143.1238 H   0  0  0  0  0  0  0  0  0  0  0  0  # atno 7974 bound_to 7965
  154.5732  140.2378  155.8161 H   0  0  0  0  0  0  0  0  0  0  0  0  # atno 8008 bound_to 7997
  156.2123  140.3022  155.9718 H   0  0  0  0  0  0  0  0  0  0  0  0  # atno 8009 bound_to 7997
  155.2674  140.0417  157.2994 H   0  0  0  0  0  0  0  0  0  0  0  0  # atno 8010 bound_to 7997
  139.4857  144.5572  151.7297 H   0  0  0  0  0  0  0  0  0  0  0  0  # atno 10167 bound_to 10162
  157.2610  131.0798  151.1666 H   0  0  0  0  0  0  0  0  0  0  0  0  # atno 10718 bound_to 10713
  153.3457  135.3994  155.1607 H   0  0  0  0  0  0  0  0  0  0  0  0  # atno 10763 bound_to 10752
  154.8652  135.3644  154.5287 H   0  0  0  0  0  0  0  0  0  0  0  0  # atno 10764 bound_to 10752
  153.5735  135.7078  153.5554 H   0  0  0  0  0  0  0  0  0  0  0  0  # atno 10765 bound_to 10752
  140.1798  134.8484  157.2789 H   0  0  0  0  0  0  0  0  0  0  0  0  # atno 11005 bound_to 11000
  146.0027  140.8506  143.0011 LP  0  0  0  0  0  0  0  0  0  0  0  0  # atno 17320 bound_to 7965
  144.6789  140.2375  143.7348 LP  0  0  0  0  0  0  0  0  0  0  0  0  # atno 17321 bound_to 7965
  140.5135  144.0989  150.6002 LP  0  0  0  0  0  0  0  0  0  0  0  0  # atno 17342 bound_to 10162
  140.3922  143.2746  152.0046 LP  0  0  0  0  0  0  0  0  0  0  0  0  # atno 17343 bound_to 10162
  157.3176  130.6921  149.6250 LP  0  0  0  0  0  0  0  0  0  0  0  0  # atno 17370 bound_to 10713
  155.9664  130.4345  150.5051 LP  0  0  0  0  0  0  0  0  0  0  0  0  # atno 17371 bound_to 10713
  140.2281  134.3942  155.7534 LP  0  0  0  0  0  0  0  0  0  0  0  0  # atno 17394 bound_to 11000
  141.2222  133.7200  156.8597 LP  0  0  0  0  0  0  0  0  0  0  0  0  # atno 17395 bound_to 11000

$$$$
