#       Name:                AV-unprocessed.smi:2208
#       Creating user name   scv26
#       Creation time:       Fri Mar 27 12:16:24 2020


#       File generated by GOLD software.
#

@<TRIPOS>MOLECULE
AV-unprocessed.smi:2208
    42    43     1
SMALL
NO_CHARGES


@<TRIPOS>ATOM
      1 ****        -3.3198   3.1635   0.3603 C.3            1 S1                 0.0000
      2 ****        -3.0654   1.7239   0.7059 C.2            1 S1                 0.0000
      3 ****        -3.9826   0.8214   0.4021 N.2            1 S1                 0.0000
      4 ****        -3.4672  -0.4077   0.8233 O.3            1 S1                 0.0000
      5 ****        -2.2448  -0.1950   1.3719 C.2            1 S1                 0.0000
      6 ****        -1.5215  -1.4009   1.8688 C.3            1 S1                 0.0000
      7 ****        -1.9287   1.1362   1.3346 C.2            1 S1                 0.0000
      8 ****        -0.6744   1.8164   1.8230 C.3            1 S1                 0.0000
      9 ****         0.4208   1.6697   0.7681 C.2            1 S1                 0.0000
     10 ****         0.4579   2.4375  -0.1931 O.2            1 S1                 0.0000
     11 ****         1.2877   0.6617   0.9473 N.am           1 S1                 0.0000
     12 ****         2.3315   0.2749   0.0071 C.3            1 S1                 0.0000
     13 ****         1.7660  -0.6244  -1.1039 C.3            1 S1                 0.0000
     14 ****         2.8012  -1.0571  -2.1375 C.3            1 S1                 0.0000
     15 ****         2.1405  -2.2834  -2.7268 C.3            1 S1                 0.0000
     16 ****         1.4547  -2.9038  -1.5102 C.3            1 S1                 0.0000
     17 ****         1.2859  -1.8512  -0.5631 O.3            1 S1                 0.0000
     18 ****        -3.3402   3.3070  -0.7203 H              1 S1                 0.0000
     19 ****        -2.5477   3.8183   0.7628 H              1 S1                 0.0000
     20 ****        -4.2769   3.4999   0.7598 H              1 S1                 0.0000
     21 ****        -1.0489  -1.9320   1.0427 H              1 S1                 0.0000
     22 ****        -2.2064  -2.0880   2.3657 H              1 S1                 0.0000
     23 ****        -0.7441  -1.1266   2.5820 H              1 S1                 0.0000
     24 ****        -0.8360   2.8766   2.0173 H              1 S1                 0.0000
     25 ****        -0.3345   1.3906   2.7681 H              1 S1                 0.0000
     26 ****         1.1776   0.0825   1.7670 H              1 S1                 0.0000
     27 ****         2.7974   1.1630  -0.4231 H              1 S1                 0.0000
     28 ****         3.1128  -0.2513   0.5562 H              1 S1                 0.0000
     29 ****         0.9386  -0.1287  -1.6150 H              1 S1                 0.0000
     30 ****         3.0110  -0.2857  -2.8789 H              1 S1                 0.0000
     31 ****         3.7387  -1.3334  -1.6528 H              1 S1                 0.0000
     32 ****         1.3940  -1.9839  -3.4638 H              1 S1                 0.0000
     33 ****         2.8448  -2.9602  -3.2111 H              1 S1                 0.0000
     34 ****         0.4970  -3.3548  -1.7701 H              1 S1                 0.0000
     35 ****         2.0817  -3.6754  -1.0629 H              1 S1                 0.0000
     36 ****        -4.8651   0.9848  -0.0391 LP             1 S1                 0.0000
     37 ****        -3.3833  -1.0246   0.0407 LP             1 S1                 0.0000
     38 ****        -4.0767  -0.8139   1.5041 LP             1 S1                 0.0000
     39 ****        -0.2293   3.1583  -0.2842 LP             1 S1                 0.0000
     40 ****         1.1752   2.3406  -0.8831 LP             1 S1                 0.0000
     41 ****         0.3151  -1.7577  -0.3421 LP             1 S1                 0.0000
     42 ****         1.7975  -2.0689   0.2680 LP             1 S1                 0.0000
@<TRIPOS>BOND
    1    1    2 1     
    2    1   18 1     
    3    1   19 1     
    4    1   20 1     
    5    2    7 1     
    6    2    3 2     
    7    3    4 1     
    8    4    5 1     
    9    5    6 1     
   10    5    7 2     
   11    6   21 1     
   12    6   22 1     
   13    6   23 1     
   14    7    8 1     
   15    8    9 1     
   16    8   24 1     
   17    8   25 1     
   18    9   10 2     
   19    9   11 am    
   20   11   12 1     
   21   11   26 1     
   22   12   13 1     
   23   12   27 1     
   24   12   28 1     
   25   13   17 1     
   26   13   14 1     
   27   13   29 1     
   28   14   15 1     
   29   14   30 1     
   30   14   31 1     
   31   15   16 1     
   32   15   32 1     
   33   15   33 1     
   34   16   17 1     
   35   16   34 1     
   36   16   35 1     
   37    3   36 1     
   38    4   37 1     
   39    4   38 1     
   40   10   39 1     
   41   10   40 1     
   42   17   41 1     
   43   17   42 1     
@<TRIPOS>SUBSTRUCTURE
      1 S1             1
@<TRIPOS>SET
LONE_PAIRS      STATIC     ATOMS    <user>   **** ""
7 36 37 38 39 40 41 42
DONOR_HYDROGENS      STATIC     ATOMS    <user>   **** ""
1 26
ATOM$BLUE        STATIC     ATOMS    COLORGROUP SYSTEM
7 36 37 38 39 40 41 42
ATOM$RED        STATIC     ATOMS    COLORGROUP SYSTEM
1 26
