AV-unprocessed.smi:3228|AV-procd|sdf|12326|dock5
  -GOLD-   2272018173D 1   1.00000     0.00000
 Structure written by MMmdl.
 30 31  0  0  0  0  0  0  0  0  2 V2000
  153.9245  139.7377  158.1293 O   0  0  0  0  0  0  0  0  0  0  0  0
  152.8194  140.0924  157.7120 C   0  0  0  0  0  0  0  0  0  0  0  0
  152.1796  141.1105  158.3021 N   0  0  0  0  0  0  0  0  0  0  0  0
  152.6803  141.8718  159.4400 C   0  0  0  0  0  0  0  0  0  0  0  0
  151.8323  143.1343  159.6755 C   0  0  1  0  0  0  0  0  0  0  0  0
  152.3053  143.9943  160.8570 C   0  0  0  0  0  0  0  0  0  0  0  0
  151.8481  145.4297  160.5543 C   0  0  0  0  0  0  0  0  0  0  0  0
  151.3349  145.4265  159.1079 C   0  0  0  0  0  0  0  0  0  0  0  0
  151.8421  144.1165  158.5004 C   0  0  2  0  0  0  0  0  0  0  0  0
  151.0182  143.6888  157.4355 O   0  0  0  0  0  0  0  0  0  0  0  0
  152.1405  139.5498  156.6755 N   0  5  0  0  0  0  0  0  0  0  0  0
  151.6720  140.3371  155.6938 C   0  0  0  0  0  0  0  0  0  0  0  0
  151.4122  141.6386  155.8639 N   0  0  0  0  0  0  0  0  0  0  0  0
  150.9402  142.2661  154.7096 C   0  0  0  0  0  0  0  0  0  0  0  0
  150.8469  141.4247  153.6329 C   0  0  0  0  0  0  0  0  0  0  0  0
  151.3514  139.8092  154.0393 S   0  0  0  0  0  0  0  0  0  0  0  0
  151.2768  141.3716  157.9341 H   0  0  0  0  0  0  0  0  0  0  0  0
  152.6739  141.2394  160.3293 H   0  0  0  0  0  0  0  0  0  0  0  0
  153.7184  142.1516  159.2543 H   0  0  0  0  0  0  0  0  0  0  0  0
  150.7993  142.8380  159.8686 H   0  0  0  0  0  0  0  0  0  0  0  0
  151.9162  143.6303  161.8086 H   0  0  0  0  0  0  0  0  0  0  0  0
  153.3942  143.9719  160.9234 H   0  0  0  0  0  0  0  0  0  0  0  0
  151.0618  145.7477  161.2397 H   0  0  0  0  0  0  0  0  0  0  0  0
  152.6816  146.1232  160.6710 H   0  0  0  0  0  0  0  0  0  0  0  0
  150.2438  145.4366  159.1191 H   0  0  0  0  0  0  0  0  0  0  0  0
  151.6647  146.2999  158.5444 H   0  0  0  0  0  0  0  0  0  0  0  0
  152.8611  144.2537  158.1353 H   0  0  0  0  0  0  0  0  0  0  0  0
  151.0459  144.3430  156.7542 H   0  0  0  0  0  0  0  0  0  0  0  0
  150.6960  143.3175  154.7445 H   0  0  0  0  0  0  0  0  0  0  0  0
  150.5154  141.6541  152.6316 H   0  0  0  0  0  0  0  0  0  0  0  0
  1  2  2  0  0  0  0
  2  3  1  0  0  0  0
  2 11  1  0  0  0  0
  3  4  1  0  0  0  0
  3 17  1  0  0  0  0
  4  5  1  0  0  0  0
  4 18  1  0  0  0  0
  4 19  1  0  0  0  0
  5  9  1  0  0  0  0
  5  6  1  0  0  0  0
  5 20  1  0  0  0  0
  6  7  1  0  0  0  0
  6 21  1  0  0  0  0
  6 22  1  0  0  0  0
  7  8  1  0  0  0  0
  7 23  1  0  0  0  0
  7 24  1  0  0  0  0
  8  9  1  0  0  0  0
  8 25  1  0  0  0  0
  8 26  1  0  0  0  0
  9 10  1  0  0  0  0
  9 27  1  0  0  0  0
 10 28  1  0  0  0  0
 11 12  1  0  0  0  0
 12 16  1  0  0  0  0
 12 13  2  0  0  0  0
 13 14  1  0  0  0  0
 14 15  2  0  0  0  0
 14 29  1  0  0  0  0
 15 16  1  0  0  0  0
 15 30  1  0  0  0  0
M  CHG  1  11  -1
M  END
> <s_m_source_file>
AV-unprocessed.smi

> <i_m_source_file_index>
3228

> <i_lp_mmshare_version>
43012

> <i_f3d_flags>
0

> <s_epik_input>
czFbY0hdW2NIXW5jMVtOSF1DKD1PKVtOSF1bQ0gyXVtDQEBIXTJbQ0gyXVtDSDJdW0NIMl1bQ0BIXTJbT0hd

> <s_epik_cmdline>
J2VwaWtfcHl0aG9uJywgJy1waCcsICc3LjAnLCAnLXRuJywgJzgnLCAnLW1hJywgJzIwMCcsICctbWV0YWxfYmluZGluZycsICctaW1hZScsICc8aW5maWxlLm1hZT4nLCAnLW9tYWUnLCAnPG91dGZpbGUubWFlPic=

> <r_lp_tautomer_probability>
0.999

> <r_epik_Ionization_Penalty>
8.49756

> <r_epik_Ionization_Penalty_Charging>
6.79645

> <r_epik_Ionization_Penalty_Neutral>
1.70111

> <r_epik_State_Penalty>
6.79662

> <r_epik_Charging_Adjusted_Penalty>
13.5931

> <i_epik_Tot_Q>
-1

> <i_epik_Tot_abs_Q>
1

> <r_epik_Metal_State_Penalty>
2.71629

> <b_epik_Metal_Only>
1

> <s_lp_Force_Field>
OPLS_2005

> <r_lp_Energy>
17.8369

> <b_lp_Chiralities_Consistent>
1

> <s_lp_Variant>
AV-unprocessed.smi:3228-8

> <Gold.Version>
5.8.1

> <Gold.Id.Protein>
6NUR|6NUR_protein|mol2

> <Gold.PLP.Fitness>
44.7965

> <Gold.PLP.PLP>
-34.0986

> <Gold.PLP.part.hbond>
-1.9892

> <Gold.PLP.part.metal>
0.0000

> <Gold.PLP.part.buried>
-2.5111

> <Gold.PLP.part.nonpolar>
-27.5176

> <Gold.PLP.part.repulsive>
0.1577

> <Gold.PLP.ligand.clash>
0.0000

> <Gold.PLP.ligand.torsion>
0.6528

> <Gold.PLP.Chemscore.Hbond>
1.9920

> <Gold.PLP.Chemscore.CHOScore>
1.9999

> <Gold.PLP.Chemscore.Metal>
0.0000

> <Gold.Chemscore.Hbonds>
donor molecule, donor type, donor heavy atom, donor atom, acceptor molecule, acceptor atom, score
      L1  H    10    28       P1  8028  0.01
      P1  H  7997  8008       L1     1  0.39
      L1  C    14    29       P1  8028  1.00
      L1  C    15    30       P1  7957  0.89

> <Gold.PLP.Chemscore.Internal.Correction>
0.0279

> <Gold.Rescore>
     Score         DG    S(hbond)    S(metal)    S(lipo)     H(rot)  DE(clash)    DE(int)     intcor
     12.02     -14.71       0.98        0.00      91.19       1.85       0.02       2.66       ----

> <Gold.Chemscore.Fitness>
12.0224

> <Gold.Chemscore.DG>
-14.7058

> <Gold.Chemscore.ZeroCoef>
-5.4800

> <Gold.Chemscore.Hbond>
0.9844

> <Gold.Chemscore.Metal>
0.0000

> <Gold.Chemscore.Lipo>
91.1883

> <Gold.Chemscore.Internal_Hbond>
0.0000

> <Gold.Chemscore.DEClash>
0.0242

> <Gold.Chemscore.DEInternal>
2.6592

> <Gold.Chemscore.Rot>
1.8481

> <Gold.Chemscore.Internal.Correction>
   9.000000E+99

> <Gold.Chemscore.Hbonds>
donor molecule, donor type, donor heavy atom, donor atom, acceptor molecule, acceptor atom, score
      L1  H    10    28       P1  8028  0.03
      P1  H  7997  8008       L1     1  0.07

> <Gold.Chemscore.Hbond.Weighted>
-3.2881

> <Gold.Chemscore.Metal.Weighted>
-0.0000

> <Gold.Chemscore.Lipo.Weighted>
-10.6690

> <Gold.Chemscore.Internal_Hbond.Weighted>
0.0000

> <Gold.Chemscore.DEClash.Weighted>
0.0242

> <Gold.Chemscore.DEInternal.Weighted>
2.6592

> <Gold.Chemscore.Rot.Weighted>
4.7313

> <Gold.Chemscore.Internal.Correction.Weighted>
   9.000000E+99

> <Gold.Protein.RotatedTorsions>
[ 6907 6896 6895 6894 ] final  164.56 input  -60.11 | X-H torsion
[ 7974 7965 7964 7962 ] final   87.81 input  175.53 | X-H torsion
[ 8008 7997 7996 7995 ] final  -86.68 input   59.86 | X-H torsion
[ 10167 10162 10161 10158 ] final -114.95 input  -65.29 | X-H torsion
[ 10718 10713 10712 10709 ] final  -66.04 input   66.30 | X-H torsion
[ 10763 10752 10751 10750 ] final  157.19 input  -60.55 | X-H torsion
[ 11005 11000 10999 10996 ] final -172.87 input  -57.11 | X-H torsion

> <Gold.Protein.ActiveResidues>
 VAL166  LYS551  ARG553  GLY616  TRP617  ASP618  TYR619  PRO620  LYS621  CYS622 
 ASP623  PHE694  ASN695  SER759  ASP760  ASP761  ALA762  ILE779  LEU786  VAL792 
 PHE793  MET794  SER795  GLU796  ALA797  LYS798  CYS799  TRP800  GLU811  SER814 

> <Gold.Protein.RotatedAtoms>
  151.9079  133.3554  159.3853 H   0  0  0  0  0  0  0  0  0  0  0  0  # atno 6907 bound_to 6896
  150.7065  134.4762  159.5458 H   0  0  0  0  0  0  0  0  0  0  0  0  # atno 6908 bound_to 6896
  152.2362  134.8273  160.0517 H   0  0  0  0  0  0  0  0  0  0  0  0  # atno 6909 bound_to 6896
  145.5540  139.2298  143.2497 H   0  0  0  0  0  0  0  0  0  0  0  0  # atno 7974 bound_to 7965
  154.6546  140.0575  156.9994 H   0  0  0  0  0  0  0  0  0  0  0  0  # atno 8008 bound_to 7997
  155.1320  140.3257  155.4453 H   0  0  0  0  0  0  0  0  0  0  0  0  # atno 8009 bound_to 7997
  156.2591  140.1979  156.6439 H   0  0  0  0  0  0  0  0  0  0  0  0  # atno 8010 bound_to 7997
  140.0954  143.4661  152.1845 H   0  0  0  0  0  0  0  0  0  0  0  0  # atno 10167 bound_to 10162
  156.0635  130.4256  150.1651 H   0  0  0  0  0  0  0  0  0  0  0  0  # atno 10718 bound_to 10713
  154.1963  135.2792  155.3005 H   0  0  0  0  0  0  0  0  0  0  0  0  # atno 10763 bound_to 10752
  154.5889  135.5566  153.7262 H   0  0  0  0  0  0  0  0  0  0  0  0  # atno 10764 bound_to 10752
  153.0099  135.6363  154.2101 H   0  0  0  0  0  0  0  0  0  0  0  0  # atno 10765 bound_to 10752
  140.4921  134.5975  157.4958 H   0  0  0  0  0  0  0  0  0  0  0  0  # atno 11005 bound_to 11000
  146.1897  140.6363  142.9151 LP  0  0  0  0  0  0  0  0  0  0  0  0  # atno 17320 bound_to 7965
  144.7515  140.5203  143.6798 LP  0  0  0  0  0  0  0  0  0  0  0  0  # atno 17321 bound_to 7965
  139.5701  144.7458  151.3914 LP  0  0  0  0  0  0  0  0  0  0  0  0  # atno 17342 bound_to 10162
  140.7006  143.7640  150.7397 LP  0  0  0  0  0  0  0  0  0  0  0  0  # atno 17343 bound_to 10162
  156.9715  130.9836  151.3457 LP  0  0  0  0  0  0  0  0  0  0  0  0  # atno 17370 bound_to 10713
  157.5660  130.8278  149.8328 LP  0  0  0  0  0  0  0  0  0  0  0  0  # atno 17371 bound_to 10713
  139.9763  134.7210  155.9944 LP  0  0  0  0  0  0  0  0  0  0  0  0  # atno 17394 bound_to 11000
  141.1479  133.6553  156.3922 LP  0  0  0  0  0  0  0  0  0  0  0  0  # atno 17395 bound_to 11000

$$$$
