AV-unprocessed.smi:1239|AV-procd|sdf|5187|dock9
  -GOLD-   22720 4273D 1   1.00000     0.00000
 Structure written by MMmdl.
 47 48  0  0  0  0  0  0  0  0  1 V2000
  146.4366  141.6567  154.6674 C   0  0  0  0  0  0  0  0  0  0  0  0
  147.6203  140.6681  154.5636 C   0  0  2  0  0  0  0  0  0  0  0  0
  148.8650  141.4590  154.0878 C   0  0  0  0  0  0  0  0  0  0  0  0
  149.4476  142.2520  155.1681 N   0  0  0  0  0  0  0  0  0  0  0  0
  150.0990  141.7613  156.2316 C   0  0  0  0  0  0  0  0  0  0  0  0
  150.2918  140.5600  156.4171 O   0  0  0  0  0  0  0  0  0  0  0  0
  150.4858  142.7466  157.0602 N   0  0  0  0  0  0  0  0  0  0  0  0
  151.2067  142.6454  158.2814 C   0  0  0  0  0  0  0  0  0  0  0  0
  152.2161  141.6686  158.3754 C   0  0  0  0  0  0  0  0  0  0  0  0
  152.9373  141.5330  159.5768 C   0  0  0  0  0  0  0  0  0  0  0  0
  152.6257  142.3786  160.6702 C   0  0  0  0  0  0  0  0  0  0  0  0
  153.3226  142.2869  161.8969 N   0  0  0  0  0  0  0  0  0  0  0  0
  153.1059  143.2925  162.9323 C   0  0  0  0  0  0  0  0  0  0  0  0
  154.2690  141.2022  162.1243 C   0  0  0  0  0  0  0  0  0  0  0  0
  151.6424  143.3072  160.5814 N   0  0  0  0  0  0  0  0  0  0  0  0
  150.9536  143.4347  159.4278 C   0  0  0  0  0  0  0  0  0  0  0  0
  147.3184  139.4675  153.7531 N   0  0  0  0  0  0  0  0  0  0  0  0
  146.3255  138.5953  154.3880 C   0  0  0  0  0  0  0  0  0  0  0  0
  145.9930  137.3582  153.5357 C   0  0  0  0  0  0  0  0  0  0  0  0
  145.5380  137.7684  152.2532 O   0  0  0  0  0  0  0  0  0  0  0  0
  146.5000  138.5614  151.5706 C   0  0  0  0  0  0  0  0  0  0  0  0
  146.8352  139.8057  152.4109 C   0  0  0  0  0  0  0  0  0  0  0  0
  146.7334  142.5767  155.1717 H   0  0  0  0  0  0  0  0  0  0  0  0
  145.6096  141.2474  155.2467 H   0  0  0  0  0  0  0  0  0  0  0  0
  146.0559  141.9305  153.6828 H   0  0  0  0  0  0  0  0  0  0  0  0
  147.8384  140.3379  155.5806 H   0  0  0  0  0  0  0  0  0  0  0  0
  149.5959  140.7578  153.6817 H   0  0  0  0  0  0  0  0  0  0  0  0
  148.6268  142.1201  153.2555 H   0  0  0  0  0  0  0  0  0  0  0  0
  149.3280  143.2525  155.1042 H   0  0  0  0  0  0  0  0  0  0  0  0
  150.1845  143.6777  156.8121 H   0  0  0  0  0  0  0  0  0  0  0  0
  152.4426  141.0290  157.5348 H   0  0  0  0  0  0  0  0  0  0  0  0
  153.7133  140.7849  159.6341 H   0  0  0  0  0  0  0  0  0  0  0  0
  152.0629  143.2958  163.2505 H   0  0  0  0  0  0  0  0  0  0  0  0
  153.3579  144.2860  162.5600 H   0  0  0  0  0  0  0  0  0  0  0  0
  153.7218  143.0999  163.8106 H   0  0  0  0  0  0  0  0  0  0  0  0
  155.0778  141.2402  161.3943 H   0  0  0  0  0  0  0  0  0  0  0  0
  153.7709  140.2356  162.0449 H   0  0  0  0  0  0  0  0  0  0  0  0
  154.7140  141.2653  163.1173 H   0  0  0  0  0  0  0  0  0  0  0  0
  150.1728  144.1781  159.4521 H   0  0  0  0  0  0  0  0  0  0  0  0
  146.6882  138.2388  155.3506 H   0  0  0  0  0  0  0  0  0  0  0  0
  145.4103  139.1566  154.5827 H   0  0  0  0  0  0  0  0  0  0  0  0
  146.8675  136.7142  153.4316 H   0  0  0  0  0  0  0  0  0  0  0  0
  145.2147  136.7656  154.0165 H   0  0  0  0  0  0  0  0  0  0  0  0
  147.3981  137.9729  151.3768 H   0  0  0  0  0  0  0  0  0  0  0  0
  146.0954  138.8563  150.6023 H   0  0  0  0  0  0  0  0  0  0  0  0
  145.9507  140.4402  152.4850 H   0  0  0  0  0  0  0  0  0  0  0  0
  147.5868  140.3751  151.8662 H   0  0  0  0  0  0  0  0  0  0  0  0
  1  2  1  0  0  0  0
  1 23  1  0  0  0  0
  1 24  1  0  0  0  0
  1 25  1  0  0  0  0
  2  3  1  0  0  0  0
  2 17  1  0  0  0  0
  2 26  1  0  0  0  0
  3  4  1  0  0  0  0
  3 27  1  0  0  0  0
  3 28  1  0  0  0  0
  4  5  1  0  0  0  0
  4 29  1  0  0  0  0
  5  6  2  0  0  0  0
  5  7  1  0  0  0  0
  7  8  1  0  0  0  0
  7 30  1  0  0  0  0
  8 16  1  0  0  0  0
  8  9  2  0  0  0  0
  9 10  1  0  0  0  0
  9 31  1  0  0  0  0
 10 11  2  0  0  0  0
 10 32  1  0  0  0  0
 11 12  1  0  0  0  0
 11 15  1  0  0  0  0
 12 13  1  0  0  0  0
 12 14  1  0  0  0  0
 13 33  1  0  0  0  0
 13 34  1  0  0  0  0
 13 35  1  0  0  0  0
 14 36  1  0  0  0  0
 14 37  1  0  0  0  0
 14 38  1  0  0  0  0
 15 16  2  0  0  0  0
 16 39  1  0  0  0  0
 17 22  1  0  0  0  0
 17 18  1  0  0  0  0
 18 19  1  0  0  0  0
 18 40  1  0  0  0  0
 18 41  1  0  0  0  0
 19 20  1  0  0  0  0
 19 42  1  0  0  0  0
 19 43  1  0  0  0  0
 20 21  1  0  0  0  0
 21 22  1  0  0  0  0
 21 44  1  0  0  0  0
 21 45  1  0  0  0  0
 22 46  1  0  0  0  0
 22 47  1  0  0  0  0
M  END
> <s_m_source_file>
AV-unprocessed.smi

> <i_m_source_file_index>
1239

> <i_lp_mmshare_version>
43012

> <i_f3d_flags>
0

> <s_epik_input>
W0NIMl0xW0NIMl1PW0NIMl1bQ0gyXU4xW0NASF0oW0NIM10pW0NIMl1bTkhdQyg9TylbTkhdYzJbY0hdW2NIXWMoTihbQ0gzXSlbQ0gzXSluW2NIXTI=

> <s_epik_cmdline>
J2VwaWtfcHl0aG9uJywgJy1waCcsICc3LjAnLCAnLXRuJywgJzgnLCAnLW1hJywgJzIwMCcsICctbWV0YWxfYmluZGluZycsICctaW1hZScsICc8aW5maWxlLm1hZT4nLCAnLW9tYWUnLCAnPG91dGZpbGUubWFlPic=

> <r_lp_tautomer_probability>
1

> <r_epik_Ionization_Penalty>
0.87526

> <r_epik_Ionization_Penalty_Charging>
0

> <r_epik_Ionization_Penalty_Neutral>
0.87526

> <r_epik_State_Penalty>
0.859346

> <r_epik_Charging_Adjusted_Penalty>
0.859346

> <i_epik_Tot_Q>
0

> <i_epik_Tot_abs_Q>
0

> <r_epik_Metal_State_Penalty>
0.538105

> <b_epik_Metal_Only>
0

> <s_lp_Force_Field>
OPLS_2005

> <r_lp_Energy>
39.6376

> <b_lp_Chiralities_Consistent>
1

> <s_lp_Variant>
AV-unprocessed.smi:1239-3

> <Gold.Version>
5.8.1

> <Gold.Id.Protein>
6NUR|6NUR_protein|mol2

> <Gold.PLP.Fitness>
46.2930

> <Gold.PLP.PLP>
-41.7626

> <Gold.PLP.part.hbond>
-2.2941

> <Gold.PLP.part.metal>
0.0000

> <Gold.PLP.part.buried>
-2.1967

> <Gold.PLP.part.nonpolar>
-38.3095

> <Gold.PLP.part.repulsive>
0.8185

> <Gold.PLP.ligand.clash>
0.0000

> <Gold.PLP.ligand.torsion>
0.6400

> <Gold.PLP.Chemscore.Hbond>
1.9199

> <Gold.PLP.Chemscore.CHOScore>
0.0000

> <Gold.PLP.Chemscore.Metal>
0.0000

> <Gold.Chemscore.Hbonds>
donor molecule, donor type, donor heavy atom, donor atom, acceptor molecule, acceptor atom, score
      L1  H     4    29       P1  8028  1.00
      L1  H     7    30       P1  8028  0.90

> <Gold.PLP.Chemscore.Internal.Correction>
0.0506

> <Gold.Rescore>
     Score         DG    S(hbond)    S(metal)    S(lipo)     H(rot)  DE(clash)    DE(int)     intcor
     17.53     -19.69       1.91        0.00      98.41       1.44       0.46       1.70       ----

> <Gold.Chemscore.Fitness>
17.5269

> <Gold.Chemscore.DG>
-19.6936

> <Gold.Chemscore.ZeroCoef>
-5.4800

> <Gold.Chemscore.Hbond>
1.9095

> <Gold.Chemscore.Metal>
0.0000

> <Gold.Chemscore.Lipo>
98.4139

> <Gold.Chemscore.Internal_Hbond>
0.0000

> <Gold.Chemscore.DEClash>
0.4638

> <Gold.Chemscore.DEInternal>
1.7029

> <Gold.Chemscore.Rot>
1.4370

> <Gold.Chemscore.Internal.Correction>
   9.000000E+99

> <Gold.Chemscore.Hbonds>
donor molecule, donor type, donor heavy atom, donor atom, acceptor molecule, acceptor atom, score
      L1  H     4    29       P1  8028  0.98
      L1  H     7    30       P1  8028  0.84

> <Gold.Chemscore.Hbond.Weighted>
-6.3777

> <Gold.Chemscore.Metal.Weighted>
-0.0000

> <Gold.Chemscore.Lipo.Weighted>
-11.5144

> <Gold.Chemscore.Internal_Hbond.Weighted>
0.0000

> <Gold.Chemscore.DEClash.Weighted>
0.4638

> <Gold.Chemscore.DEInternal.Weighted>
1.7029

> <Gold.Chemscore.Rot.Weighted>
3.6786

> <Gold.Chemscore.Internal.Correction.Weighted>
   9.000000E+99

> <Gold.Protein.RotatedTorsions>
[ 6907 6896 6895 6894 ] final  109.70 input  -60.11 | X-H torsion
[ 7974 7965 7964 7962 ] final   34.20 input  175.53 | X-H torsion
[ 8008 7997 7996 7995 ] final   16.42 input   59.86 | X-H torsion
[ 10167 10162 10161 10158 ] final  115.93 input  -65.29 | X-H torsion
[ 10718 10713 10712 10709 ] final  172.27 input   66.30 | X-H torsion
[ 10763 10752 10751 10750 ] final  124.44 input  -60.55 | X-H torsion
[ 11005 11000 10999 10996 ] final   25.43 input  -57.11 | X-H torsion

> <Gold.Protein.ActiveResidues>
 VAL166  LYS551  ARG553  GLY616  TRP617  ASP618  TYR619  PRO620  LYS621  CYS622 
 ASP623  PHE694  ASN695  SER759  ASP760  ASP761  ALA762  ILE779  LEU786  VAL792 
 PHE793  MET794  SER795  GLU796  ALA797  LYS798  CYS799  TRP800  GLU811  SER814 

> <Gold.Protein.RotatedAtoms>
  152.5055  133.8906  159.7391 H   0  0  0  0  0  0  0  0  0  0  0  0  # atno 6907 bound_to 6896
  150.9345  133.6719  159.2810 H   0  0  0  0  0  0  0  0  0  0  0  0  # atno 6908 bound_to 6896
  151.4051  135.0981  159.9620 H   0  0  0  0  0  0  0  0  0  0  0  0  # atno 6909 bound_to 6896
  146.1369  139.6299  142.9189 H   0  0  0  0  0  0  0  0  0  0  0  0  # atno 7974 bound_to 7965
  154.8766  140.2967  155.5449 H   0  0  0  0  0  0  0  0  0  0  0  0  # atno 8008 bound_to 7997
  156.3022  140.2450  156.3697 H   0  0  0  0  0  0  0  0  0  0  0  0  # atno 8009 bound_to 7997
  154.8760  140.0399  157.1743 H   0  0  0  0  0  0  0  0  0  0  0  0  # atno 8010 bound_to 7997
  139.6283  144.7111  151.2487 H   0  0  0  0  0  0  0  0  0  0  0  0  # atno 10167 bound_to 10162
  156.9814  131.0120  151.2880 H   0  0  0  0  0  0  0  0  0  0  0  0  # atno 10718 bound_to 10713
  153.6615  135.3345  155.3128 H   0  0  0  0  0  0  0  0  0  0  0  0  # atno 10763 bound_to 10752
  154.8513  135.4364  154.1800 H   0  0  0  0  0  0  0  0  0  0  0  0  # atno 10764 bound_to 10752
  153.2767  135.7005  153.7501 H   0  0  0  0  0  0  0  0  0  0  0  0  # atno 10765 bound_to 10752
  140.3479  134.2260  155.7683 H   0  0  0  0  0  0  0  0  0  0  0  0  # atno 11005 bound_to 11000
  145.5135  141.0434  143.2474 LP  0  0  0  0  0  0  0  0  0  0  0  0  # atno 17320 bound_to 7965
  144.7749  139.6651  143.7179 LP  0  0  0  0  0  0  0  0  0  0  0  0  # atno 17321 bound_to 7965
  140.7424  143.6528  150.8233 LP  0  0  0  0  0  0  0  0  0  0  0  0  # atno 17342 bound_to 10162
  140.0149  143.5603  152.2824 LP  0  0  0  0  0  0  0  0  0  0  0  0  # atno 17343 bound_to 10162
  157.5524  130.8191  149.8161 LP  0  0  0  0  0  0  0  0  0  0  0  0  # atno 17370 bound_to 10713
  156.0243  130.3785  150.1869 LP  0  0  0  0  0  0  0  0  0  0  0  0  # atno 17371 bound_to 10713
  141.2020  133.7948  157.0411 LP  0  0  0  0  0  0  0  0  0  0  0  0  # atno 17394 bound_to 11000
  140.0727  134.9693  157.1494 LP  0  0  0  0  0  0  0  0  0  0  0  0  # atno 17395 bound_to 11000

$$$$
