#       Name:                AV-unprocessed.smi:2749
#       Creating user name   scv26
#       Creation time:       Fri Mar 27 15:03:53 2020


#       File generated by GOLD software.
#

@<TRIPOS>MOLECULE
AV-unprocessed.smi:2749
    37    39     1
SMALL
NO_CHARGES


@<TRIPOS>ATOM
      1 ****        -2.8103  -1.3768  -0.5462 O.2            1 S1                 0.0000
      2 ****        -1.5937  -1.2128  -0.6190 C.2            1 S1                 0.0000
      3 ****        -0.7503  -2.2635  -0.7053 N.am           1 S1                 0.0000
      4 ****        -0.9994  -3.6674  -0.7228 C.ar           1 S1                 0.0000
      5 ****         0.1619  -4.4713  -0.6606 C.ar           1 S1                 0.0000
      6 ****         0.0399  -5.8744  -0.6857 C.ar           1 S1                 0.0000
      7 ****        -1.2443  -6.4390  -0.7789 C.ar           1 S1                 0.0000
      8 ****        -1.4121  -7.7822  -0.8071 F              1 S1                 0.0000
      9 ****        -2.3499  -5.5716  -0.8431 C.ar           1 S1                 0.0000
     10 ****        -2.2333  -4.2269  -0.8174 N.ar           1 S1                 0.0000
     11 ****        -1.0247   0.0028  -0.6289 N.am           1 S1                 0.0000
     12 ****        -1.7380   1.2699  -0.5077 C.3            1 S1                 0.0000
     13 ****        -0.8653   2.4571  -0.9248 C.3            1 S1                 0.0000
     14 ****        -0.8594   3.3124   0.3492 C.3            1 S1                 0.0000
     15 ****        -0.0057   2.6839   1.4599 C.3            1 S1                 0.0000
     16 ****        -0.8903   1.5251   1.9163 C.3            1 S1                 0.0000
     17 ****        -2.0816   1.6416   0.9499 C.3            1 S1                 0.0000
     18 ****        -2.1638   3.0527   0.8389 O.3            1 S1                 0.0000
     19 ****         0.2186  -2.0111  -0.8345 H              1 S1                 0.0000
     20 ****         1.1417  -4.0206  -0.5920 H              1 S1                 0.0000
     21 ****         0.9158  -6.5040  -0.6355 H              1 S1                 0.0000
     22 ****        -3.3530  -5.9648  -0.9170 H              1 S1                 0.0000
     23 ****        -0.0175   0.0501  -0.6919 H              1 S1                 0.0000
     24 ****        -2.6438   1.2564  -1.1168 H              1 S1                 0.0000
     25 ****         0.1422   2.1765  -1.2358 H              1 S1                 0.0000
     26 ****        -1.3330   2.9984  -1.7480 H              1 S1                 0.0000
     27 ****        -0.6469   4.3669   0.1716 H              1 S1                 0.0000
     28 ****         0.9682   2.3545   1.0959 H              1 S1                 0.0000
     29 ****         0.1536   3.3883   2.2768 H              1 S1                 0.0000
     30 ****        -0.3865   0.5591   1.8753 H              1 S1                 0.0000
     31 ****        -1.2191   1.6849   2.9437 H              1 S1                 0.0000
     32 ****        -2.9933   1.1718   1.3197 H              1 S1                 0.0000
     33 ****        -3.1913  -2.3014  -0.5502 LP             1 S1                 0.0000
     34 ****        -3.4185  -0.5856  -0.4829 LP             1 S1                 0.0000
     35 ****        -3.0475  -3.6485  -0.8676 LP             1 S1                 0.0000
     36 ****        -2.8709   3.3374   0.1918 LP             1 S1                 0.0000
     37 ****        -2.3261   3.4897   1.7236 LP             1 S1                 0.0000
@<TRIPOS>BOND
    1    1    2 2     
    2    2    3 am    
    3    2   11 am    
    4    3    4 1     
    5    3   19 1     
    6    4   10 ar    
    7    4    5 ar    
    8    5    6 ar    
    9    5   20 1     
   10    6    7 ar    
   11    6   21 1     
   12    7    8 1     
   13    7    9 ar    
   14    9   10 ar    
   15    9   22 1     
   16   11   12 1     
   17   11   23 1     
   18   12   17 1     
   19   12   13 1     
   20   12   24 1     
   21   13   14 1     
   22   13   25 1     
   23   13   26 1     
   24   14   18 1     
   25   14   15 1     
   26   14   27 1     
   27   15   16 1     
   28   15   28 1     
   29   15   29 1     
   30   16   17 1     
   31   16   30 1     
   32   16   31 1     
   33   17   18 1     
   34   17   32 1     
   35    1   33 1     
   36    1   34 1     
   37   10   35 1     
   38   18   36 1     
   39   18   37 1     
@<TRIPOS>SUBSTRUCTURE
      1 S1             1
@<TRIPOS>SET
LONE_PAIRS      STATIC     ATOMS    <user>   **** ""
5 33 34 35 36 37
DONOR_HYDROGENS      STATIC     ATOMS    <user>   **** ""
2 19 23
ATOM$BLUE        STATIC     ATOMS    COLORGROUP SYSTEM
5 33 34 35 36 37
ATOM$RED        STATIC     ATOMS    COLORGROUP SYSTEM
2 19 23
