#       Name:                AV-unprocessed.smi:1235
#       Creating user name   scv26
#       Creation time:       Fri Mar 27 04:25:11 2020


#       File generated by GOLD software.
#

@<TRIPOS>MOLECULE
AV-unprocessed.smi:1235
    57    58     1
SMALL
NO_CHARGES


@<TRIPOS>ATOM
      1 ****        -6.0705  -2.4903   4.0602 C.3            1 S1                 0.0000
      2 ****        -5.7831  -2.1537   2.7141 O.3            1 S1                 0.0000
      3 ****        -5.1913  -0.8717   2.5898 C.3            1 S1                 0.0000
      4 ****        -4.9291  -0.5870   1.1033 C.3            1 S1                 0.0000
      5 ****        -4.2596   0.7035   0.9118 N.am           1 S1                 0.0000
      6 ****        -2.8835   0.6119   0.7859 N.2            1 S1                 0.0000
      7 ****        -2.1738   1.6801   0.6136 C.2            1 S1                 0.0000
      8 ****        -0.6922   1.6229   0.4704 C.2            1 S1                 0.0000
      9 ****        -0.0155   2.6355   0.2832 O.2            1 S1                 0.0000
     10 ****        -0.1508   0.3943   0.5575 N.am           1 S1                 0.0000
     11 ****         1.2728   0.0968   0.4534 C.3            1 S1                 0.0000
     12 ****         1.7475   0.1232  -1.0143 C.3            1 S1                 0.0000
     13 ****         3.1873  -0.2349  -1.1637 N.4            1 S1                 1.0000
     14 ****         4.0702   0.8706  -0.6885 C.3            1 S1                 0.0000
     15 ****         5.5529   0.4761  -0.7071 C.3            1 S1                 0.0000
     16 ****         5.9742   0.0565  -2.1145 C.3            1 S1                 0.0000
     17 ****         5.0666  -1.0780  -2.5950 C.3            1 S1                 0.0000
     18 ****         3.5702  -0.6946  -2.5403 C.3            1 S1                 0.0000
     19 ****         2.7435  -1.9014  -3.0337 C.3            1 S1                 0.0000
     20 ****        -2.8018   2.9890   0.5513 C.2            1 S1                 0.0000
     21 ****        -4.1446   3.0629   0.6819 C.2            1 S1                 0.0000
     22 ****        -4.9707   1.8708   0.8802 C.2            1 S1                 0.0000
     23 ****        -6.1937   1.9132   1.0100 O.2            1 S1                 0.0000
     24 ****        -6.5126  -3.4858   4.1023 H              1 S1                 0.0000
     25 ****        -6.7804  -1.7879   4.4995 H              1 S1                 0.0000
     26 ****        -5.1643  -2.4987   4.6676 H              1 S1                 0.0000
     27 ****        -5.8538  -0.1137   3.0111 H              1 S1                 0.0000
     28 ****        -4.2548  -0.8394   3.1493 H              1 S1                 0.0000
     29 ****        -4.3169  -1.3877   0.6842 H              1 S1                 0.0000
     30 ****        -5.8667  -0.6176   0.5453 H              1 S1                 0.0000
     31 ****        -0.7732  -0.3857   0.7158 H              1 S1                 0.0000
     32 ****         1.8213   0.8019   1.0772 H              1 S1                 0.0000
     33 ****         1.4431  -0.8921   0.8798 H              1 S1                 0.0000
     34 ****         1.1101  -0.5763  -1.5485 H              1 S1                 0.0000
     35 ****         1.5688   1.0991  -1.4681 H              1 S1                 0.0000
     36 ****         3.9142   1.7529  -1.3116 H              1 S1                 0.0000
     37 ****         3.8149   1.1614   0.3286 H              1 S1                 0.0000
     38 ****         6.1659   1.3125  -0.3697 H              1 S1                 0.0000
     39 ****         5.7282  -0.3411  -0.0059 H              1 S1                 0.0000
     40 ****         5.9038   0.9059  -2.7954 H              1 S1                 0.0000
     41 ****         7.0164  -0.2647  -2.1178 H              1 S1                 0.0000
     42 ****         5.3463  -1.3502  -3.6135 H              1 S1                 0.0000
     43 ****         5.2426  -1.9640  -1.9827 H              1 S1                 0.0000
     44 ****         3.4047   0.1353  -3.2294 H              1 S1                 0.0000
     45 ****         3.1727  -2.3198  -3.9449 H              1 S1                 0.0000
     46 ****         1.7183  -1.6338  -3.2863 H              1 S1                 0.0000
     47 ****         2.7178  -2.6983  -2.2898 H              1 S1                 0.0000
     48 ****        -2.2170   3.8858   0.4063 H              1 S1                 0.0000
     49 ****        -4.6248   4.0294   0.6391 H              1 S1                 0.0000
     50 ****         3.3506  -1.0229  -0.5535 H              1 S1                 0.0000
     51 ****        -6.6356  -2.1654   2.1916 LP             1 S1                 0.0000
     52 ****        -5.1537  -2.8351   2.3405 LP             1 S1                 0.0000
     53 ****        -2.4372  -0.2820   0.8283 LP             1 S1                 0.0000
     54 ****        -0.4595   3.5295   0.2233 LP             1 S1                 0.0000
     55 ****         0.9776   2.5632   0.1912 LP             1 S1                 0.0000
     56 ****        -6.7117   1.0686   1.1458 LP             1 S1                 0.0000
     57 ****        -6.6696   2.7922   0.9797 LP             1 S1                 0.0000
@<TRIPOS>BOND
    1    1    2 1     
    2    1   24 1     
    3    1   25 1     
    4    1   26 1     
    5    2    3 1     
    6    3    4 1     
    7    3   27 1     
    8    3   28 1     
    9    4    5 1     
   10    4   29 1     
   11    4   30 1     
   12    5   22 am    
   13    5    6 1     
   14    6    7 2     
   15    7    8 1     
   16    7   20 1     
   17    8    9 2     
   18    8   10 am    
   19   10   11 1     
   20   10   31 1     
   21   11   12 1     
   22   11   32 1     
   23   11   33 1     
   24   12   13 1     
   25   12   34 1     
   26   12   35 1     
   27   13   18 1     
   28   13   14 1     
   29   13   50 1     
   30   14   15 1     
   31   14   36 1     
   32   14   37 1     
   33   15   16 1     
   34   15   38 1     
   35   15   39 1     
   36   16   17 1     
   37   16   40 1     
   38   16   41 1     
   39   17   18 1     
   40   17   42 1     
   41   17   43 1     
   42   18   19 1     
   43   18   44 1     
   44   19   45 1     
   45   19   46 1     
   46   19   47 1     
   47   20   21 2     
   48   20   48 1     
   49   21   22 1     
   50   21   49 1     
   51   22   23 2     
   52    2   51 1     
   53    2   52 1     
   54    6   53 1     
   55    9   54 1     
   56    9   55 1     
   57   23   56 1     
   58   23   57 1     
@<TRIPOS>SUBSTRUCTURE
      1 S1             1
@<TRIPOS>SET
LONE_PAIRS      STATIC     ATOMS    <user>   **** ""
7 51 52 53 54 55 56 57
DONOR_HYDROGENS      STATIC     ATOMS    <user>   **** ""
2 31 50
ATOM$BLUE        STATIC     ATOMS    COLORGROUP SYSTEM
7 51 52 53 54 55 56 57
ATOM$RED        STATIC     ATOMS    COLORGROUP SYSTEM
2 31 50
