AV-unprocessed.smi:110|AV-procd|sdf|1065|dock7
  -GOLD-   2262018143D 1   1.00000     0.00000
 Structure written by MMmdl.
 46 50  0  0  0  0  0  0  0  0  1 V2000
  147.1040  132.0891  155.7105 O   0  0  0  0  0  0  0  0  0  0  0  0
  148.1852  132.4927  156.5233 C   0  0  0  0  0  0  0  0  0  0  0  0
  148.7196  133.8546  156.0542 C   0  0  1  0  0  0  0  0  0  0  0  0
  149.8489  134.2286  156.8441 O   0  0  0  0  0  0  0  0  0  0  0  0
  150.7522  134.9799  156.0868 C   0  0  2  0  0  0  0  0  0  0  0  0
  150.9312  136.3324  156.7109 N   0  0  0  0  0  0  0  0  0  0  0  0
  150.4401  136.7546  157.9251 C   0  0  0  0  0  0  0  0  0  0  0  0
  150.7282  137.9852  158.2488 N   0  0  0  0  0  0  0  0  0  0  0  0
  151.4860  138.4525  157.1817 C   0  0  0  0  0  0  0  0  0  0  0  0
  152.1172  139.6919  156.8721 C   0  0  0  0  0  0  0  0  0  0  0  0
  152.0952  140.7885  157.6659 N   0  0  0  0  0  0  0  0  0  0  0  0
  151.0321  141.7858  157.4759 C   0  0  0  0  0  0  0  0  0  0  0  0
  150.9385  142.6193  158.7681 C   0  0  0  0  0  0  0  0  0  0  0  0
  152.0824  142.0605  159.5510 C   0  0  0  0  0  0  0  0  0  0  0  0
  152.5417  142.4861  160.8094 C   0  0  0  0  0  0  0  0  0  0  0  0
  153.6616  141.8313  161.3648 C   0  0  0  0  0  0  0  0  0  0  0  0
  154.3001  140.7849  160.6594 C   0  0  0  0  0  0  0  0  0  0  0  0
  153.8220  140.3753  159.3952 C   0  0  0  0  0  0  0  0  0  0  0  0
  152.6891  141.0191  158.8560 C   0  0  0  0  0  0  0  0  0  0  0  0
  152.7418  139.7969  155.6718 N   0  0  0  0  0  0  0  0  0  0  0  0
  152.7846  138.7501  154.8438 C   0  0  0  0  0  0  0  0  0  0  0  0
  152.2633  137.5344  155.0110 N   0  0  0  0  0  0  0  0  0  0  0  0
  151.6062  137.4256  156.2015 C   0  0  0  0  0  0  0  0  0  0  0  0
  150.2212  135.0374  154.6417 C   0  0  2  0  0  0  0  0  0  0  0  0
  149.5530  136.2495  154.3269 O   0  0  0  0  0  0  0  0  0  0  0  0
  149.2910  133.8325  154.6351 C   0  0  2  0  0  0  0  0  0  0  0  0
  148.2980  133.8976  153.6282 O   0  0  0  0  0  0  0  0  0  0  0  0
  147.9486  134.6238  156.1227 H   0  0  0  0  0  0  0  0  0  0  0  0
  151.7359  134.5136  156.1552 H   0  0  0  0  0  0  0  0  0  0  0  0
  151.0499  134.9133  153.9441 H   0  0  0  0  0  0  0  0  0  0  0  0
  149.8812  132.9261  154.4919 H   0  0  0  0  0  0  0  0  0  0  0  0
  146.6008  132.8542  155.4773 H   0  0  0  0  0  0  0  0  0  0  0  0
  147.8836  132.5232  157.5705 H   0  0  0  0  0  0  0  0  0  0  0  0
  148.9624  131.7335  156.4316 H   0  0  0  0  0  0  0  0  0  0  0  0
  149.8541  136.1155  158.5696 H   0  0  0  0  0  0  0  0  0  0  0  0
  151.2872  142.4235  156.6286 H   0  0  0  0  0  0  0  0  0  0  0  0
  150.0798  141.3021  157.2539 H   0  0  0  0  0  0  0  0  0  0  0  0
  151.0665  143.6864  158.5839 H   0  0  0  0  0  0  0  0  0  0  0  0
  149.9993  142.4515  159.2957 H   0  0  0  0  0  0  0  0  0  0  0  0
  152.0542  143.2942  161.3344 H   0  0  0  0  0  0  0  0  0  0  0  0
  154.0380  142.1365  162.3300 H   0  0  0  0  0  0  0  0  0  0  0  0
  155.1632  140.2977  161.0884 H   0  0  0  0  0  0  0  0  0  0  0  0
  154.3237  139.5859  158.8558 H   0  0  0  0  0  0  0  0  0  0  0  0
  153.3102  138.9092  153.9140 H   0  0  0  0  0  0  0  0  0  0  0  0
  149.2907  136.2202  153.4194 H   0  0  0  0  0  0  0  0  0  0  0  0
  148.4884  134.6320  153.0649 H   0  0  0  0  0  0  0  0  0  0  0  0
  1  2  1  0  0  0  0
  1 32  1  0  0  0  0
  2  3  1  0  0  0  0
  2 33  1  0  0  0  0
  2 34  1  0  0  0  0
  3 28  1  0  0  0  0
  3 26  1  0  0  0  0
  3  4  1  0  0  0  0
  4  5  1  0  0  0  0
  5 29  1  0  0  0  0
  5  6  1  0  0  0  0
  5 24  1  0  0  0  0
  6 23  1  0  0  0  0
  6  7  1  0  0  0  0
  7  8  2  0  0  0  0
  7 35  1  0  0  0  0
  8  9  1  0  0  0  0
  9 23  2  0  0  0  0
  9 10  1  0  0  0  0
 10 11  1  0  0  0  0
 10 20  2  0  0  0  0
 11 19  1  0  0  0  0
 11 12  1  0  0  0  0
 12 13  1  0  0  0  0
 12 36  1  0  0  0  0
 12 37  1  0  0  0  0
 13 14  1  0  0  0  0
 13 38  1  0  0  0  0
 13 39  1  0  0  0  0
 14 19  2  0  0  0  0
 14 15  1  0  0  0  0
 15 16  2  0  0  0  0
 15 40  1  0  0  0  0
 16 17  1  0  0  0  0
 16 41  1  0  0  0  0
 17 18  2  0  0  0  0
 17 42  1  0  0  0  0
 18 19  1  0  0  0  0
 18 43  1  0  0  0  0
 20 21  1  0  0  0  0
 21 22  2  0  0  0  0
 21 44  1  0  0  0  0
 22 23  1  0  0  0  0
 24 30  1  0  0  0  0
 24 25  1  0  0  0  0
 24 26  1  0  0  0  0
 25 45  1  0  0  0  0
 26 31  1  0  0  0  0
 26 27  1  0  0  0  0
 27 46  1  0  0  0  0
M  END
> <s_m_source_file>
AV-unprocessed.smi

> <i_m_source_file_index>
110

> <i_lp_mmshare_version>
43012

> <i_f3d_flags>
0

> <s_epik_input>
W09IXVtDSDJdW0NASF0xT1tDQEhdKFtDQEhdKFtPSF0pW0NAQEhdMVtPSF0pbihbY0hdbjIpYyhjMjMpbltjSF1uYzNOKFtDSDJdW0NIMl00KWMoYzQ1KVtjSF1bY0hdW2NIXVtjSF01

> <s_epik_cmdline>
J2VwaWtfcHl0aG9uJywgJy1waCcsICc3LjAnLCAnLXRuJywgJzgnLCAnLW1hJywgJzIwMCcsICctbWV0YWxfYmluZGluZycsICctaW1hZScsICc8aW5maWxlLm1hZT4nLCAnLW9tYWUnLCAnPG91dGZpbGUubWFlPic=

> <r_lp_tautomer_probability>
1

> <r_epik_Ionization_Penalty>
0.00068475

> <r_epik_Ionization_Penalty_Charging>
0

> <r_epik_Ionization_Penalty_Neutral>
0.00068475

> <r_epik_State_Penalty>
0.000417442

> <r_epik_Charging_Adjusted_Penalty>
0.000417442

> <i_epik_Tot_Q>
0

> <i_epik_Tot_abs_Q>
0

> <r_epik_Metal_State_Penalty>
-0

> <b_epik_Metal_Only>
0

> <s_epik_Chemistry_Notes>
This compound contains an acetal/aminal-like group ( X-CH(R)-Y where X, Y are N, S, or O) that may be acid/base labile, releasing an aldehyde.

> <s_lp_Force_Field>
OPLS_2005

> <r_lp_Energy>
69.6213

> <b_lp_Chiralities_Consistent>
1

> <s_lp_Variant>
AV-unprocessed.smi:110-3

> <Gold.Version>
5.8.1

> <Gold.Id.Protein>
6NUR|6NUR_protein|mol2

> <Gold.PLP.Fitness>
49.3831

> <Gold.PLP.PLP>
-41.1731

> <Gold.PLP.part.hbond>
-4.1075

> <Gold.PLP.part.metal>
0.0000

> <Gold.PLP.part.buried>
-5.0324

> <Gold.PLP.part.nonpolar>
-32.3403

> <Gold.PLP.part.repulsive>
0.0594

> <Gold.PLP.ligand.clash>
0.0000

> <Gold.PLP.ligand.torsion>
1.5332

> <Gold.PLP.Chemscore.Hbond>
3.7273

> <Gold.PLP.Chemscore.CHOScore>
0.0000

> <Gold.PLP.Chemscore.Metal>
0.0000

> <Gold.Chemscore.Hbonds>
donor molecule, donor type, donor heavy atom, donor atom, acceptor molecule, acceptor atom, score
      L1  H    25    45       P1  7948  1.00
      L1  H    27    46       P1  7948  1.00
      P1  H  7997  8009       L1    20  1.00
      P1  H 10752 10765       L1    22  0.62

> <Gold.PLP.Chemscore.Internal.Correction>
0.0946

> <Gold.Rescore>
     Score         DG    S(hbond)    S(metal)    S(lipo)     H(rot)  DE(clash)    DE(int)     intcor
     16.27     -18.55       3.57        0.00      83.83       3.38       0.01       2.27       ----

> <Gold.Chemscore.Fitness>
16.2736

> <Gold.Chemscore.DG>
-18.5532

> <Gold.Chemscore.ZeroCoef>
-5.4800

> <Gold.Chemscore.Hbond>
3.5711

> <Gold.Chemscore.Metal>
0.0000

> <Gold.Chemscore.Lipo>
83.8289

> <Gold.Chemscore.Internal_Hbond>
0.0000

> <Gold.Chemscore.DEClash>
0.0089

> <Gold.Chemscore.DEInternal>
2.2707

> <Gold.Chemscore.Rot>
3.3837

> <Gold.Chemscore.Internal.Correction>
   9.000000E+99

> <Gold.Chemscore.Hbonds>
donor molecule, donor type, donor heavy atom, donor atom, acceptor molecule, acceptor atom, score
      L1  H    25    45       P1  7948  0.79
      L1  H    27    46       P1  7948  0.37
      P1  H  7997  8009       L1    20  0.20
      P1  H 10752 10765       L1    22  0.34

> <Gold.Chemscore.Hbond.Weighted>
-11.9274

> <Gold.Chemscore.Metal.Weighted>
-0.0000

> <Gold.Chemscore.Lipo.Weighted>
-9.8080

> <Gold.Chemscore.Internal_Hbond.Weighted>
0.0000

> <Gold.Chemscore.DEClash.Weighted>
0.0089

> <Gold.Chemscore.DEInternal.Weighted>
2.2707

> <Gold.Chemscore.Rot.Weighted>
8.6622

> <Gold.Chemscore.Internal.Correction.Weighted>
   9.000000E+99

> <Gold.Protein.RotatedTorsions>
[ 6907 6896 6895 6894 ] final  129.28 input  -60.11 | X-H torsion
[ 7974 7965 7964 7962 ] final  133.76 input  175.53 | X-H torsion
[ 8008 7997 7996 7995 ] final -153.02 input   59.86 | X-H torsion
[ 10167 10162 10161 10158 ] final -178.07 input  -65.29 | X-H torsion
[ 10718 10713 10712 10709 ] final -173.63 input   66.30 | X-H torsion
[ 10763 10752 10751 10750 ] final  179.47 input  -60.55 | X-H torsion
[ 11005 11000 10999 10996 ] final   -3.24 input  -57.11 | X-H torsion

> <Gold.Protein.ActiveResidues>
 VAL166  LYS551  ARG553  GLY616  TRP617  ASP618  TYR619  PRO620  LYS621  CYS622 
 ASP623  PHE694  ASN695  SER759  ASP760  ASP761  ALA762  ILE779  LEU786  VAL792 
 PHE793  MET794  SER795  GLU796  ALA797  LYS798  CYS799  TRP800  GLU811  SER814 

> <Gold.Protein.RotatedAtoms>
  152.3639  133.6331  159.6035 H   0  0  0  0  0  0  0  0  0  0  0  0  # atno 6907 bound_to 6896
  150.7620  133.9380  159.3456 H   0  0  0  0  0  0  0  0  0  0  0  0  # atno 6908 bound_to 6896
  151.7214  135.0894  160.0336 H   0  0  0  0  0  0  0  0  0  0  0  0  # atno 6909 bound_to 6896
  144.9832  139.4482  143.5376 H   0  0  0  0  0  0  0  0  0  0  0  0  # atno 7974 bound_to 7965
  155.6643  140.0726  157.2543 H   0  0  0  0  0  0  0  0  0  0  0  0  # atno 8008 bound_to 7997
  154.4136  140.1710  156.1862 H   0  0  0  0  0  0  0  0  0  0  0  0  # atno 8009 bound_to 7997
  155.9670  140.3365  155.6545 H   0  0  0  0  0  0  0  0  0  0  0  0  # atno 8010 bound_to 7997
  139.5450  144.2260  152.0970 H   0  0  0  0  0  0  0  0  0  0  0  0  # atno 10167 bound_to 10162
  156.7732  130.9456  151.3120 H   0  0  0  0  0  0  0  0  0  0  0  0  # atno 10718 bound_to 10713
  154.5211  135.2794  155.1261 H   0  0  0  0  0  0  0  0  0  0  0  0  # atno 10763 bound_to 10752
  154.2819  135.6284  153.5354 H   0  0  0  0  0  0  0  0  0  0  0  0  # atno 10764 bound_to 10752
  152.9937  135.5653  154.5700 H   0  0  0  0  0  0  0  0  0  0  0  0  # atno 10765 bound_to 10752
  140.6671  133.9269  155.8472 H   0  0  0  0  0  0  0  0  0  0  0  0  # atno 11005 bound_to 11000
  146.3413  139.9118  142.8779 LP  0  0  0  0  0  0  0  0  0  0  0  0  # atno 17320 bound_to 7965
  145.2391  141.0002  143.3946 LP  0  0  0  0  0  0  0  0  0  0  0  0  # atno 17321 bound_to 7965
  140.1745  144.4904  150.6561 LP  0  0  0  0  0  0  0  0  0  0  0  0  # atno 17342 bound_to 10162
  140.6695  143.2280  151.5661 LP  0  0  0  0  0  0  0  0  0  0  0  0  # atno 17343 bound_to 10162
  157.6681  130.9026  149.9978 LP  0  0  0  0  0  0  0  0  0  0  0  0  # atno 17370 bound_to 10713
  156.1265  130.3644  149.9801 LP  0  0  0  0  0  0  0  0  0  0  0  0  # atno 17371 bound_to 10713
  141.0420  134.0607  157.3890 LP  0  0  0  0  0  0  0  0  0  0  0  0  # atno 17394 bound_to 11000
  139.8993  135.0158  156.7191 LP  0  0  0  0  0  0  0  0  0  0  0  0  # atno 17395 bound_to 11000

$$$$
