AV-unprocessed.smi:3055|AV-procd|sdf|11643|dock6
  -GOLD-   2272017 33D 1   1.00000     0.00000
 Structure written by MMmdl.
 47 49  0  0  0  0  0  0  0  0  2 V2000
  148.5629  136.7182  155.5242 O   0  0  0  0  0  0  0  0  0  0  0  0
  148.3120  137.6421  154.7502 C   0  0  0  0  0  0  0  0  0  0  0  0
  149.2268  138.5731  154.4365 N   0  0  0  0  0  0  0  0  0  0  0  0
  150.5844  138.6074  154.9612 C   0  0  0  0  0  0  0  0  0  0  0  0
  151.2122  139.9904  154.7434 C   0  0  0  0  0  0  0  0  0  0  0  0
  151.2654  140.7478  155.9773 N   0  0  0  0  0  0  0  0  0  0  0  0
  150.7058  141.9954  156.2192 C   0  0  0  0  0  0  0  0  0  0  0  0
  151.0132  142.3179  157.5218 C   0  0  0  0  0  0  0  0  0  0  0  0
  151.7567  141.2896  158.0964 N   0  0  0  0  0  0  0  0  0  0  0  0
  151.8662  140.3955  157.1222 C   0  0  0  0  0  0  0  0  0  0  0  0
  147.1092  137.7926  154.1386 N   0  0  0  0  0  0  0  0  0  0  0  0
  146.7779  138.7746  153.0909 C   0  0  0  0  0  0  0  0  0  0  0  0
  146.4852  138.0287  151.7781 C   0  0  0  0  0  0  0  0  0  0  0  0
  145.3717  136.9828  151.9770 C   0  0  0  0  0  0  0  0  0  0  0  0
  145.6616  136.0329  153.1686 C   0  0  1  0  0  0  0  0  0  0  0  0
  146.7627  135.0698  152.8699 N   0  3  0  0  0  0  0  0  0  0  0  0
  147.2120  134.2511  154.0155 C   0  0  0  0  0  0  0  0  0  0  0  0
  148.0164  133.1179  153.3901 C   0  0  0  0  0  0  0  0  0  0  0  0
  147.2806  132.8298  152.0839 C   0  0  0  0  0  0  0  0  0  0  0  0
  146.4982  134.1129  151.7680 C   0  0  0  0  0  0  0  0  0  0  0  0
  145.9701  136.9023  154.4147 C   0  0  0  0  0  0  0  0  0  0  0  0
  148.9621  139.3067  153.7952 H   0  0  0  0  0  0  0  0  0  0  0  0
  150.5642  138.3667  156.0251 H   0  0  0  0  0  0  0  0  0  0  0  0
  151.1854  137.8421  154.4671 H   0  0  0  0  0  0  0  0  0  0  0  0
  152.2264  139.8944  154.3536 H   0  0  0  0  0  0  0  0  0  0  0  0
  150.6405  140.5594  154.0087 H   0  0  0  0  0  0  0  0  0  0  0  0
  150.1522  142.5359  155.4657 H   0  0  0  0  0  0  0  0  0  0  0  0
  150.7594  143.2042  158.0845 H   0  0  0  0  0  0  0  0  0  0  0  0
  152.3972  139.4628  157.2442 H   0  0  0  0  0  0  0  0  0  0  0  0
  145.8964  139.3382  153.4006 H   0  0  0  0  0  0  0  0  0  0  0  0
  147.5498  139.5245  152.9189 H   0  0  0  0  0  0  0  0  0  0  0  0
  146.1936  138.7383  151.0033 H   0  0  0  0  0  0  0  0  0  0  0  0
  147.3935  137.5400  151.4232 H   0  0  0  0  0  0  0  0  0  0  0  0
  144.4404  137.5132  152.1807 H   0  0  0  0  0  0  0  0  0  0  0  0
  145.1911  136.4398  151.0499 H   0  0  0  0  0  0  0  0  0  0  0  0
  144.7605  135.4493  153.3639 H   0  0  0  0  0  0  0  0  0  0  0  0
  147.8066  134.8176  154.7304 H   0  0  0  0  0  0  0  0  0  0  0  0
  146.3459  133.8453  154.5410 H   0  0  0  0  0  0  0  0  0  0  0  0
  149.0287  133.4627  153.1747 H   0  0  0  0  0  0  0  0  0  0  0  0
  148.0908  132.2436  154.0376 H   0  0  0  0  0  0  0  0  0  0  0  0
  147.9713  132.5606  151.2840 H   0  0  0  0  0  0  0  0  0  0  0  0
  146.5894  131.9966  152.2162 H   0  0  0  0  0  0  0  0  0  0  0  0
  145.4340  133.8789  151.7088 H   0  0  0  0  0  0  0  0  0  0  0  0
  146.8002  134.5452  150.8135 H   0  0  0  0  0  0  0  0  0  0  0  0
  146.1208  136.2809  155.2979 H   0  0  0  0  0  0  0  0  0  0  0  0
  145.1001  137.5146  154.6562 H   0  0  0  0  0  0  0  0  0  0  0  0
  147.5645  135.6121  152.5819 H   0  0  0  0  0  0  0  0  0  0  0  0
  1  2  2  0  0  0  0
  2  3  1  0  0  0  0
  2 11  1  0  0  0  0
  3  4  1  0  0  0  0
  3 22  1  0  0  0  0
  4  5  1  0  0  0  0
  4 23  1  0  0  0  0
  4 24  1  0  0  0  0
  5  6  1  0  0  0  0
  5 25  1  0  0  0  0
  5 26  1  0  0  0  0
  6 10  1  0  0  0  0
  6  7  1  0  0  0  0
  7  8  2  0  0  0  0
  7 27  1  0  0  0  0
  8  9  1  0  0  0  0
  8 28  1  0  0  0  0
  9 10  2  0  0  0  0
 10 29  1  0  0  0  0
 11 21  1  0  0  0  0
 11 12  1  0  0  0  0
 12 13  1  0  0  0  0
 12 30  1  0  0  0  0
 12 31  1  0  0  0  0
 13 14  1  0  0  0  0
 13 32  1  0  0  0  0
 13 33  1  0  0  0  0
 14 15  1  0  0  0  0
 14 34  1  0  0  0  0
 14 35  1  0  0  0  0
 15 16  1  0  0  0  0
 15 21  1  0  0  0  0
 15 36  1  0  0  0  0
 16 20  1  0  0  0  0
 16 17  1  0  0  0  0
 16 47  1  0  0  0  0
 17 18  1  0  0  0  0
 17 37  1  0  0  0  0
 17 38  1  0  0  0  0
 18 19  1  0  0  0  0
 18 39  1  0  0  0  0
 18 40  1  0  0  0  0
 19 20  1  0  0  0  0
 19 41  1  0  0  0  0
 19 42  1  0  0  0  0
 20 43  1  0  0  0  0
 20 44  1  0  0  0  0
 21 45  1  0  0  0  0
 21 46  1  0  0  0  0
M  CHG  1  16   1
M  END
> <s_m_source_file>
AV-unprocessed.smi

> <i_m_source_file_index>
3055

> <i_lp_mmshare_version>
43012

> <i_f3d_flags>
0

> <s_epik_input>
W2NIXTFuW2NIXVtjSF1uMVtDSDJdW0NIMl1bTkhdQyg9TylOMltDSDJdW0NIMl1bQ0gyXVtDQEhdKFtDSDJdMilOM1tDSDJdW0NIMl1bQ0gyXVtDSDJdMw==

> <s_epik_cmdline>
J2VwaWtfcHl0aG9uJywgJy1waCcsICc3LjAnLCAnLXRuJywgJzgnLCAnLW1hJywgJzIwMCcsICctbWV0YWxfYmluZGluZycsICctaW1hZScsICc8aW5maWxlLm1hZT4nLCAnLW9tYWUnLCAnPG91dGZpbGUubWFlPic=

> <r_lp_tautomer_probability>
1

> <r_epik_Ionization_Penalty>
0.618392

> <r_epik_Ionization_Penalty_Charging>
0.618355

> <r_epik_Ionization_Penalty_Neutral>
3.68592e-05

> <r_epik_State_Penalty>
0.635579

> <r_epik_Charging_Adjusted_Penalty>
1.25393

> <i_epik_Tot_Q>
1

> <i_epik_Tot_abs_Q>
1

> <r_epik_Metal_State_Penalty>
0.306847

> <b_epik_Metal_Only>
0

> <s_lp_Force_Field>
OPLS_2005

> <r_lp_Energy>
66.9505

> <b_lp_Chiralities_Consistent>
1

> <s_lp_Variant>
AV-unprocessed.smi:3055-3

> <Gold.Version>
5.8.1

> <Gold.Id.Protein>
6NUR|6NUR_protein|mol2

> <Gold.PLP.Fitness>
37.5010

> <Gold.PLP.PLP>
-29.4796

> <Gold.PLP.part.hbond>
-1.0000

> <Gold.PLP.part.metal>
0.0000

> <Gold.PLP.part.buried>
3.8114

> <Gold.PLP.part.nonpolar>
-31.8202

> <Gold.PLP.part.repulsive>
0.1043

> <Gold.PLP.ligand.clash>
0.0000

> <Gold.PLP.ligand.torsion>
0.5011

> <Gold.PLP.Chemscore.Hbond>
2.0000

> <Gold.PLP.Chemscore.CHOScore>
0.9963

> <Gold.PLP.Chemscore.Metal>
0.0000

> <Gold.Chemscore.Hbonds>
donor molecule, donor type, donor heavy atom, donor atom, acceptor molecule, acceptor atom, score
      L1  H    16    47       P1  7948  2.00
      L1  C     7    27       P1  8028  1.00

> <Gold.PLP.Chemscore.Internal.Correction>
0.0347

> <Gold.Rescore>
     Score         DG    S(hbond)    S(metal)    S(lipo)     H(rot)  DE(clash)    DE(int)     intcor
     11.77     -12.53       1.00        0.00      71.28       1.81       0.19       0.58       ----

> <Gold.Chemscore.Fitness>
11.7683

> <Gold.Chemscore.DG>
-12.5322

> <Gold.Chemscore.ZeroCoef>
-5.4800

> <Gold.Chemscore.Hbond>
0.9994

> <Gold.Chemscore.Metal>
0.0000

> <Gold.Chemscore.Lipo>
71.2753

> <Gold.Chemscore.Internal_Hbond>
0.0000

> <Gold.Chemscore.DEClash>
0.1876

> <Gold.Chemscore.DEInternal>
0.5763

> <Gold.Chemscore.Rot>
1.8066

> <Gold.Chemscore.Internal.Correction>
   9.000000E+99

> <Gold.Chemscore.Hbonds>
donor molecule, donor type, donor heavy atom, donor atom, acceptor molecule, acceptor atom, score
      L1  H    16    47       P1  7948  1.00

> <Gold.Chemscore.Hbond.Weighted>
-3.3379

> <Gold.Chemscore.Metal.Weighted>
-0.0000

> <Gold.Chemscore.Lipo.Weighted>
-8.3392

> <Gold.Chemscore.Internal_Hbond.Weighted>
0.0000

> <Gold.Chemscore.DEClash.Weighted>
0.1876

> <Gold.Chemscore.DEInternal.Weighted>
0.5763

> <Gold.Chemscore.Rot.Weighted>
4.6249

> <Gold.Chemscore.Internal.Correction.Weighted>
   9.000000E+99

> <Gold.Protein.RotatedTorsions>
[ 6907 6896 6895 6894 ] final  129.32 input  -60.11 | X-H torsion
[ 7974 7965 7964 7962 ] final  -31.81 input  175.53 | X-H torsion
[ 8008 7997 7996 7995 ] final  173.47 input   59.86 | X-H torsion
[ 10167 10162 10161 10158 ] final   30.38 input  -65.29 | X-H torsion
[ 10718 10713 10712 10709 ] final -152.38 input   66.30 | X-H torsion
[ 10763 10752 10751 10750 ] final   23.35 input  -60.55 | X-H torsion
[ 11005 11000 10999 10996 ] final   26.75 input  -57.11 | X-H torsion

> <Gold.Protein.ActiveResidues>
 VAL166  LYS551  ARG553  GLY616  TRP617  ASP618  TYR619  PRO620  LYS621  CYS622 
 ASP623  PHE694  ASN695  SER759  ASP760  ASP761  ALA762  ILE779  LEU786  VAL792 
 PHE793  MET794  SER795  GLU796  ALA797  LYS798  CYS799  TRP800  GLU811  SER814 

> <Gold.Protein.RotatedAtoms>
  152.3635  133.6327  159.6032 H   0  0  0  0  0  0  0  0  0  0  0  0  # atno 6907 bound_to 6896
  150.7617  133.9385  159.3458 H   0  0  0  0  0  0  0  0  0  0  0  0  # atno 6908 bound_to 6896
  151.7220  135.0893  160.0337 H   0  0  0  0  0  0  0  0  0  0  0  0  # atno 6909 bound_to 6896
  146.1039  140.5714  142.8808 H   0  0  0  0  0  0  0  0  0  0  0  0  # atno 7974 bound_to 7965
  156.1072  140.1459  156.9388 H   0  0  0  0  0  0  0  0  0  0  0  0  # atno 8008 bound_to 7997
  154.4742  140.0900  156.7264 H   0  0  0  0  0  0  0  0  0  0  0  0  # atno 8009 bound_to 7997
  155.4659  140.3440  155.4321 H   0  0  0  0  0  0  0  0  0  0  0  0  # atno 8010 bound_to 7997
  140.4682  144.0802  150.6230 H   0  0  0  0  0  0  0  0  0  0  0  0  # atno 10167 bound_to 10162
  156.4718  130.8262  151.2491 H   0  0  0  0  0  0  0  0  0  0  0  0  # atno 10718 bound_to 10713
  153.0845  135.6629  153.9977 H   0  0  0  0  0  0  0  0  0  0  0  0  # atno 10763 bound_to 10752
  153.9590  135.2976  155.3436 H   0  0  0  0  0  0  0  0  0  0  0  0  # atno 10764 bound_to 10752
  154.7251  135.5148  153.8945 H   0  0  0  0  0  0  0  0  0  0  0  0  # atno 10765 bound_to 10752
  140.3337  134.2409  155.7699 H   0  0  0  0  0  0  0  0  0  0  0  0  # atno 11005 bound_to 11000
  144.7454  140.5055  143.6839 LP  0  0  0  0  0  0  0  0  0  0  0  0  # atno 17320 bound_to 7965
  145.5800  139.1488  143.3240 LP  0  0  0  0  0  0  0  0  0  0  0  0  # atno 17321 bound_to 7965
  140.4009  143.2704  151.9948 LP  0  0  0  0  0  0  0  0  0  0  0  0  # atno 17342 bound_to 10162
  139.4815  144.5998  151.7626 LP  0  0  0  0  0  0  0  0  0  0  0  0  # atno 17343 bound_to 10162
  157.7490  131.0074  150.3187 LP  0  0  0  0  0  0  0  0  0  0  0  0  # atno 17370 bound_to 10713
  156.3611  130.3847  149.7251 LP  0  0  0  0  0  0  0  0  0  0  0  0  # atno 17371 bound_to 10713
  141.2057  133.7854  157.0220 LP  0  0  0  0  0  0  0  0  0  0  0  0  # atno 17394 bound_to 11000
  140.0839  134.9632  157.1669 LP  0  0  0  0  0  0  0  0  0  0  0  0  # atno 17395 bound_to 11000

$$$$
