AV-unprocessed.smi:2090|AV-procd|sdf|8536|dock7
  -GOLD-   2272011253D 1   1.00000     0.00000
 Structure written by MMmdl.
 41 42  0  0  0  0  0  0  0  0  3 V2000
  152.9777  136.6495  156.6080 C   0  0  0  0  0  0  0  0  0  0  0  0
  152.2269  137.6109  155.7518 C   0  0  0  0  0  0  0  0  0  0  0  0
  150.9772  137.5840  155.2002 C   0  0  0  0  0  0  0  0  0  0  0  0
  150.9061  138.8207  154.5049 C   0  0  0  0  0  0  0  0  0  0  0  0
  149.7353  139.1810  153.7864 N   0  0  0  0  0  0  0  0  0  0  0  0
  148.4503  138.9107  154.0801 C   0  0  0  0  0  0  0  0  0  0  0  0
  148.1636  138.2668  155.0966 O   0  0  0  0  0  0  0  0  0  0  0  0
  147.5912  139.4138  153.1505 N   0  5  0  0  0  0  0  0  0  0  0  0
  146.7424  138.6045  152.2773 C   0  0  0  0  0  0  0  0  0  0  0  0
  146.0206  137.5147  153.0958 C   0  0  0  0  0  0  0  0  0  0  0  0
  146.0506  136.1968  152.4084 N   0  3  2  0  0  0  0  0  0  0  0  0
  145.0132  136.0581  151.3484 C   0  0  0  0  0  0  0  0  0  0  0  0
  145.1860  134.7421  150.5723 C   0  0  0  0  0  0  0  0  0  0  0  0
  145.1488  133.5295  151.5174 C   0  0  1  0  0  0  0  0  0  0  0  0
  145.3460  132.2099  150.7583 C   0  0  0  0  0  0  0  0  0  0  0  0
  146.2031  133.7156  152.6212 C   0  0  0  0  0  0  0  0  0  0  0  0
  146.0133  135.0531  153.3565 C   0  0  0  0  0  0  0  0  0  0  0  0
  152.0149  139.5367  154.6216 N   0  0  0  0  0  0  0  0  0  0  0  0
  152.8669  138.7649  155.4202 O   0  0  0  0  0  0  0  0  0  0  0  0
  152.2939  135.9951  157.1488 H   0  0  0  0  0  0  0  0  0  0  0  0
  153.5896  137.1766  157.3403 H   0  0  0  0  0  0  0  0  0  0  0  0
  153.6355  136.0262  156.0020 H   0  0  0  0  0  0  0  0  0  0  0  0
  150.2339  136.8049  155.2823 H   0  0  0  0  0  0  0  0  0  0  0  0
  149.8886  139.7107  152.9410 H   0  0  0  0  0  0  0  0  0  0  0  0
  146.0033  139.2088  151.7498 H   0  0  0  0  0  0  0  0  0  0  0  0
  147.3301  138.1222  151.4959 H   0  0  0  0  0  0  0  0  0  0  0  0
  146.5150  137.4407  154.0657 H   0  0  0  0  0  0  0  0  0  0  0  0
  144.9883  137.7975  153.3088 H   0  0  0  0  0  0  0  0  0  0  0  0
  144.0211  136.0978  151.8010 H   0  0  0  0  0  0  0  0  0  0  0  0
  145.0730  136.8947  150.6513 H   0  0  0  0  0  0  0  0  0  0  0  0
  144.4005  134.6547  149.8211 H   0  0  0  0  0  0  0  0  0  0  0  0
  146.1321  134.7620  150.0293 H   0  0  0  0  0  0  0  0  0  0  0  0
  144.1656  133.4962  151.9894 H   0  0  0  0  0  0  0  0  0  0  0  0
  146.3130  132.1807  150.2551 H   0  0  0  0  0  0  0  0  0  0  0  0
  144.5729  132.0738  150.0016 H   0  0  0  0  0  0  0  0  0  0  0  0
  145.2970  131.3568  151.4356 H   0  0  0  0  0  0  0  0  0  0  0  0
  146.1457  132.8938  153.3360 H   0  0  0  0  0  0  0  0  0  0  0  0
  147.2037  133.6787  152.1876 H   0  0  0  0  0  0  0  0  0  0  0  0
  146.8047  135.1650  154.0990 H   0  0  0  0  0  0  0  0  0  0  0  0
  145.0656  135.0577  153.8976 H   0  0  0  0  0  0  0  0  0  0  0  0
  146.9490  136.1496  151.9493 H   0  0  0  0  0  0  0  0  0  0  0  0
  1  2  1  0  0  0  0
  1 20  1  0  0  0  0
  1 21  1  0  0  0  0
  1 22  1  0  0  0  0
  2 19  1  0  0  0  0
  2  3  2  0  0  0  0
  3  4  1  0  0  0  0
  3 23  1  0  0  0  0
  4  5  1  0  0  0  0
  4 18  2  0  0  0  0
  5  6  1  0  0  0  0
  5 24  1  0  0  0  0
  6  7  2  0  0  0  0
  6  8  1  0  0  0  0
  8  9  1  0  0  0  0
  9 10  1  0  0  0  0
  9 25  1  0  0  0  0
  9 26  1  0  0  0  0
 10 11  1  0  0  0  0
 10 27  1  0  0  0  0
 10 28  1  0  0  0  0
 11 17  1  0  0  0  0
 11 12  1  0  0  0  0
 11 41  1  0  0  0  0
 12 13  1  0  0  0  0
 12 29  1  0  0  0  0
 12 30  1  0  0  0  0
 13 14  1  0  0  0  0
 13 31  1  0  0  0  0
 13 32  1  0  0  0  0
 14 15  1  0  0  0  0
 14 16  1  0  0  0  0
 14 33  1  0  0  0  0
 15 34  1  0  0  0  0
 15 35  1  0  0  0  0
 15 36  1  0  0  0  0
 16 17  1  0  0  0  0
 16 37  1  0  0  0  0
 16 38  1  0  0  0  0
 17 39  1  0  0  0  0
 17 40  1  0  0  0  0
 18 19  1  0  0  0  0
M  CHG  1   8  -1
M  CHG  1  11   1
M  END
> <s_m_source_file>
AV-unprocessed.smi

> <i_m_source_file_index>
2090

> <i_lp_mmshare_version>
43012

> <i_f3d_flags>
0

> <s_epik_input>
W0NIM11jMVtjSF1jKG5vMSlbTkhdQyg9TylbTkhdW0NIMl1bQ0gyXU4yW0NIMl1bQ0gyXVtDSF0oW0NIM10pW0NIMl1bQ0gyXTI=

> <s_epik_cmdline>
J2VwaWtfcHl0aG9uJywgJy1waCcsICc3LjAnLCAnLXRuJywgJzgnLCAnLW1hJywgJzIwMCcsICctbWV0YWxfYmluZGluZycsICctaW1hZScsICc8aW5maWxlLm1hZT4nLCAnLW9tYWUnLCAnPG91dGZpbGUubWFlPic=

> <r_epik_Ionization_Penalty>
6.7721

> <r_epik_Ionization_Penalty_Charging>
6.7721

> <r_epik_Ionization_Penalty_Neutral>
5.78572e-06

> <r_epik_State_Penalty>
6.79704

> <r_epik_Charging_Adjusted_Penalty>
13.5691

> <i_epik_Tot_Q>
0

> <i_epik_Tot_abs_Q>
2

> <r_epik_Metal_State_Penalty>
2.73105

> <b_epik_Metal_Only>
1

> <s_lp_Force_Field>
OPLS_2005

> <r_lp_Energy>
11.0836

> <b_lp_Chiralities_Consistent>
1

> <s_lp_Variant>
AV-unprocessed.smi:2090-5

> <Gold.Version>
5.8.1

> <Gold.Id.Protein>
6NUR|6NUR_protein|mol2

> <Gold.PLP.Fitness>
40.7884

> <Gold.PLP.PLP>
-28.9545

> <Gold.PLP.part.hbond>
-3.7218

> <Gold.PLP.part.metal>
0.0000

> <Gold.PLP.part.buried>
-4.5248

> <Gold.PLP.part.nonpolar>
-22.3642

> <Gold.PLP.part.repulsive>
1.8989

> <Gold.PLP.ligand.clash>
0.0000

> <Gold.PLP.ligand.torsion>
1.5220

> <Gold.PLP.Chemscore.Hbond>
4.9440

> <Gold.PLP.Chemscore.CHOScore>
0.0000

> <Gold.PLP.Chemscore.Metal>
0.0000

> <Gold.Chemscore.Hbonds>
donor molecule, donor type, donor heavy atom, donor atom, acceptor molecule, acceptor atom, score
      L1  H     5    24       P1  7957  1.00
      L1  H    11    41       P1  7948  2.00
      P1  H  7989  7998       L1    18  0.90
      P1  H  7997  8010       L1    19  0.67

> <Gold.PLP.Chemscore.Internal.Correction>
0.0459

> <Gold.Rescore>
     Score         DG    S(hbond)    S(metal)    S(lipo)     H(rot)  DE(clash)    DE(int)     intcor
     17.84     -20.78       3.63        0.00      60.77       1.54       0.26       2.67       ----

> <Gold.Chemscore.Fitness>
17.8444

> <Gold.Chemscore.DG>
-20.7782

> <Gold.Chemscore.ZeroCoef>
-5.4800

> <Gold.Chemscore.Hbond>
3.6326

> <Gold.Chemscore.Metal>
0.0000

> <Gold.Chemscore.Lipo>
60.7678

> <Gold.Chemscore.Internal_Hbond>
0.0000

> <Gold.Chemscore.DEClash>
0.2593

> <Gold.Chemscore.DEInternal>
2.6745

> <Gold.Chemscore.Rot>
1.5409

> <Gold.Chemscore.Internal.Correction>
   9.000000E+99

> <Gold.Chemscore.Hbonds>
donor molecule, donor type, donor heavy atom, donor atom, acceptor molecule, acceptor atom, score
      L1  H     5    24       P1  7957  0.96
      L1  H    11    41       P1  7948  0.96
      P1  H  7989  7998       L1    18  0.26
      P1  H  7997  8010       L1    19  0.37

> <Gold.Chemscore.Hbond.Weighted>
-12.1330

> <Gold.Chemscore.Metal.Weighted>
-0.0000

> <Gold.Chemscore.Lipo.Weighted>
-7.1098

> <Gold.Chemscore.Internal_Hbond.Weighted>
0.0000

> <Gold.Chemscore.DEClash.Weighted>
0.2593

> <Gold.Chemscore.DEInternal.Weighted>
2.6745

> <Gold.Chemscore.Rot.Weighted>
3.9446

> <Gold.Chemscore.Internal.Correction.Weighted>
   9.000000E+99

> <Gold.Protein.RotatedTorsions>
[ 6907 6896 6895 6894 ] final   50.21 input  -60.11 | X-H torsion
[ 7974 7965 7964 7962 ] final  -49.65 input  175.53 | X-H torsion
[ 8008 7997 7996 7995 ] final   84.21 input   59.86 | X-H torsion
[ 10167 10162 10161 10158 ] final -151.10 input  -65.29 | X-H torsion
[ 10718 10713 10712 10709 ] final  -15.79 input   66.30 | X-H torsion
[ 10763 10752 10751 10750 ] final   48.80 input  -60.55 | X-H torsion
[ 11005 11000 10999 10996 ] final -123.55 input  -57.11 | X-H torsion

> <Gold.Protein.ActiveResidues>
 VAL166  LYS551  ARG553  GLY616  TRP617  ASP618  TYR619  PRO620  LYS621  CYS622 
 ASP623  PHE694  ASN695  SER759  ASP760  ASP761  ALA762  ILE779  LEU786  VAL792 
 PHE793  MET794  SER795  GLU796  ALA797  LYS798  CYS799  TRP800  GLU811  SER814 

> <Gold.Protein.RotatedAtoms>
  152.2993  134.7630  160.0361 H   0  0  0  0  0  0  0  0  0  0  0  0  # atno 6907 bound_to 6896
  151.8149  133.3381  159.3574 H   0  0  0  0  0  0  0  0  0  0  0  0  # atno 6908 bound_to 6896
  150.7266  134.5559  159.5862 H   0  0  0  0  0  0  0  0  0  0  0  0  # atno 6909 bound_to 6896
  145.9383  140.7686  142.9565 H   0  0  0  0  0  0  0  0  0  0  0  0  # atno 7974 bound_to 7965
  155.9341  140.3413  155.6273 H   0  0  0  0  0  0  0  0  0  0  0  0  # atno 8008 bound_to 7997
  155.7121  140.0773  157.2385 H   0  0  0  0  0  0  0  0  0  0  0  0  # atno 8009 bound_to 7997
  154.4090  140.1621  156.2295 H   0  0  0  0  0  0  0  0  0  0  0  0  # atno 8010 bound_to 7997
  139.7296  143.8828  152.2530 H   0  0  0  0  0  0  0  0  0  0  0  0  # atno 10167 bound_to 10162
  156.5968  130.4813  149.6256 H   0  0  0  0  0  0  0  0  0  0  0  0  # atno 10718 bound_to 10713
  152.9790  135.5932  154.3985 H   0  0  0  0  0  0  0  0  0  0  0  0  # atno 10763 bound_to 10752
  154.3633  135.2767  155.2310 H   0  0  0  0  0  0  0  0  0  0  0  0  # atno 10764 bound_to 10752
  154.4297  135.6039  153.6116 H   0  0  0  0  0  0  0  0  0  0  0  0  # atno 10765 bound_to 10752
  140.9910  134.0539  157.3654 H   0  0  0  0  0  0  0  0  0  0  0  0  # atno 11005 bound_to 11000
  144.6775  140.2239  143.7363 LP  0  0  0  0  0  0  0  0  0  0  0  0  # atno 17320 bound_to 7965
  145.8334  139.2096  143.1869 LP  0  0  0  0  0  0  0  0  0  0  0  0  # atno 17321 bound_to 7965
  139.8748  144.7049  150.8946 LP  0  0  0  0  0  0  0  0  0  0  0  0  # atno 17342 bound_to 10162
  140.7769  143.3709  151.1651 LP  0  0  0  0  0  0  0  0  0  0  0  0  # atno 17343 bound_to 10162
  156.2503  130.6903  151.1638 LP  0  0  0  0  0  0  0  0  0  0  0  0  # atno 17370 bound_to 10713
  157.7290  131.0628  150.5795 LP  0  0  0  0  0  0  0  0  0  0  0  0  # atno 17371 bound_to 10713
  139.8992  135.0158  156.7185 LP  0  0  0  0  0  0  0  0  0  0  0  0  # atno 17394 bound_to 11000
  140.7040  133.9281  155.8042 LP  0  0  0  0  0  0  0  0  0  0  0  0  # atno 17395 bound_to 11000

$$$$
