AV-unprocessed.smi:3316|AV-procd|sdf|12759|dock7
  -GOLD-   2272019 93D 1   1.00000     0.00000
 Structure written by MMmdl.
 41 43  0  0  0  0  0  0  0  0  2 V2000
  149.3990  141.1938  154.4052 C   0  0  0  0  0  0  0  0  0  0  0  0
  149.4605  140.5091  155.7797 C   0  0  2  0  0  0  0  0  0  0  0  0
  150.0224  141.4578  156.8560 C   0  0  0  0  0  0  0  0  0  0  0  0
  149.0484  142.5066  157.2207 N   0  3  0  0  0  0  0  0  0  0  0  0
  149.3236  143.1578  158.5157 C   0  0  0  0  0  0  0  0  0  0  0  0
  150.5362  144.1025  158.4181 C   0  0  1  0  0  0  0  0  0  0  0  0
  150.6676  145.0865  159.6208 C   0  0  0  0  0  0  0  0  0  0  0  0
  152.1223  144.8641  160.0949 C   0  0  1  0  0  0  0  0  0  0  0  0
  152.2032  143.4754  160.6913 C   0  0  0  0  0  0  0  0  0  0  0  0
  152.0886  142.6053  159.6867 C   0  0  0  0  0  0  0  0  0  0  0  0
  151.9254  143.4077  158.4108 C   0  0  2  0  0  0  0  0  0  0  0  0
  152.8086  144.6152  158.7477 C   0  0  0  0  0  0  0  0  0  0  0  0
  150.2328  139.1969  155.7107 C   0  0  0  0  0  0  0  0  0  0  0  0
  150.9268  138.8348  154.5368 C   0  0  0  0  0  0  0  0  0  0  0  0
  151.6220  137.6090  154.5143 C   0  0  0  0  0  0  0  0  0  0  0  0
  151.6559  136.7569  155.5608 N   0  0  0  0  0  0  0  0  0  0  0  0
  150.9925  137.1080  156.6828 C   0  0  0  0  0  0  0  0  0  0  0  0
  150.2673  138.3098  156.8087 C   0  0  0  0  0  0  0  0  0  0  0  0
  148.9503  140.5360  153.6601 H   0  0  0  0  0  0  0  0  0  0  0  0
  150.3907  141.4734  154.0486 H   0  0  0  0  0  0  0  0  0  0  0  0
  148.7963  142.1013  154.4461 H   0  0  0  0  0  0  0  0  0  0  0  0
  148.4326  140.2721  156.0594 H   0  0  0  0  0  0  0  0  0  0  0  0
  150.3032  140.8992  157.7499 H   0  0  0  0  0  0  0  0  0  0  0  0
  150.9289  141.9379  156.4850 H   0  0  0  0  0  0  0  0  0  0  0  0
  149.0528  143.2140  156.4997 H   0  0  0  0  0  0  0  0  0  0  0  0
  148.4422  143.7278  158.8123 H   0  0  0  0  0  0  0  0  0  0  0  0
  149.4798  142.3983  159.2826 H   0  0  0  0  0  0  0  0  0  0  0  0
  150.4373  144.6916  157.5043 H   0  0  0  0  0  0  0  0  0  0  0  0
  150.5140  146.1159  159.2948 H   0  0  0  0  0  0  0  0  0  0  0  0
  149.9507  144.8814  160.4175 H   0  0  0  0  0  0  0  0  0  0  0  0
  152.5589  145.6527  160.7084 H   0  0  0  0  0  0  0  0  0  0  0  0
  152.3024  143.2612  161.7452 H   0  0  0  0  0  0  0  0  0  0  0  0
  152.0740  141.5269  159.7447 H   0  0  0  0  0  0  0  0  0  0  0  0
  152.1971  142.8776  157.4976 H   0  0  0  0  0  0  0  0  0  0  0  0
  152.7164  145.4451  158.0442 H   0  0  0  0  0  0  0  0  0  0  0  0
  153.8648  144.3562  158.8494 H   0  0  0  0  0  0  0  0  0  0  0  0
  150.9329  139.4782  153.6691 H   0  0  0  0  0  0  0  0  0  0  0  0
  152.1631  137.3041  153.6308 H   0  0  0  0  0  0  0  0  0  0  0  0
  151.0382  136.4090  157.5048 H   0  0  0  0  0  0  0  0  0  0  0  0
  149.7538  138.5397  157.7306 H   0  0  0  0  0  0  0  0  0  0  0  0
  148.1285  142.0905  157.2590 H   0  0  0  0  0  0  0  0  0  0  0  0
  1  2  1  0  0  0  0
  1 19  1  0  0  0  0
  1 20  1  0  0  0  0
  1 21  1  0  0  0  0
  2  3  1  0  0  0  0
  2 13  1  0  0  0  0
  2 22  1  0  0  0  0
  3  4  1  0  0  0  0
  3 23  1  0  0  0  0
  3 24  1  0  0  0  0
  4  5  1  0  0  0  0
  4 25  1  0  0  0  0
  4 41  1  0  0  0  0
  5  6  1  0  0  0  0
  5 26  1  0  0  0  0
  5 27  1  0  0  0  0
  6 11  1  0  0  0  0
  6  7  1  0  0  0  0
  6 28  1  0  0  0  0
  7  8  1  0  0  0  0
  7 29  1  0  0  0  0
  7 30  1  0  0  0  0
  8 12  1  0  0  0  0
  8  9  1  0  0  0  0
  8 31  1  0  0  0  0
  9 10  2  0  0  0  0
  9 32  1  0  0  0  0
 10 11  1  0  0  0  0
 10 33  1  0  0  0  0
 11 12  1  0  0  0  0
 11 34  1  0  0  0  0
 12 35  1  0  0  0  0
 12 36  1  0  0  0  0
 13 18  1  0  0  0  0
 13 14  2  0  0  0  0
 14 15  1  0  0  0  0
 14 37  1  0  0  0  0
 15 16  2  0  0  0  0
 15 38  1  0  0  0  0
 16 17  1  0  0  0  0
 17 18  2  0  0  0  0
 17 39  1  0  0  0  0
 18 40  1  0  0  0  0
M  CHG  1   4   1
M  END
> <s_m_source_file>
AV-unprocessed.smi

> <i_m_source_file_index>
3316

> <i_lp_mmshare_version>
43012

> <i_f3d_flags>
0

> <s_epik_input>
W2NIXTFbY0hdbltjSF1bY0hdYzFbQ0BIXShbQ0gzXSlbQ0gyXVtOSF1bQ0gyXVtDQEhdKFtDSDJdW0NASF0yMylbQ0BIXShbQ0gyXTMpW0NIXT1bQ0hdMg==

> <s_epik_cmdline>
J2VwaWtfcHl0aG9uJywgJy1waCcsICc3LjAnLCAnLXRuJywgJzgnLCAnLW1hJywgJzIwMCcsICctbWV0YWxfYmluZGluZycsICctaW1hZScsICc8aW5maWxlLm1hZT4nLCAnLW9tYWUnLCAnPG91dGZpbGUubWFlPic=

> <r_lp_tautomer_probability>
1

> <r_epik_Ionization_Penalty>
0.00280406

> <r_epik_Ionization_Penalty_Charging>
0.000446589

> <r_epik_Ionization_Penalty_Neutral>
0.00235747

> <r_epik_State_Penalty>
-0

> <r_epik_Charging_Adjusted_Penalty>
0.000446589

> <i_epik_Tot_Q>
1

> <i_epik_Tot_abs_Q>
1

> <r_epik_Metal_State_Penalty>
-0

> <b_epik_Metal_Only>
0

> <s_lp_Force_Field>
OPLS_2005

> <r_lp_Energy>
65.6453

> <b_lp_Chiralities_Consistent>
1

> <s_lp_Variant>
AV-unprocessed.smi:3316-7

> <Gold.Version>
5.8.1

> <Gold.Id.Protein>
6NUR|6NUR_protein|mol2

> <Gold.PLP.Fitness>
51.5898

> <Gold.PLP.PLP>
-40.4015

> <Gold.PLP.part.hbond>
-2.0000

> <Gold.PLP.part.metal>
0.0000

> <Gold.PLP.part.buried>
-4.8397

> <Gold.PLP.part.nonpolar>
-34.7826

> <Gold.PLP.part.repulsive>
0.1309

> <Gold.PLP.ligand.clash>
0.0000

> <Gold.PLP.ligand.torsion>
0.4426

> <Gold.PLP.Chemscore.Hbond>
3.0000

> <Gold.PLP.Chemscore.CHOScore>
0.9932

> <Gold.PLP.Chemscore.Metal>
0.0000

> <Gold.Chemscore.Hbonds>
donor molecule, donor type, donor heavy atom, donor atom, acceptor molecule, acceptor atom, score
      L1  H     4    25       P1  8028  2.00
      P1  H 10752 10765       L1    16  0.55
      L1  C    15    38       P1  7949  0.56

> <Gold.PLP.Chemscore.Internal.Correction>
0.0938

> <Gold.Rescore>
     Score         DG    S(hbond)    S(metal)    S(lipo)     H(rot)  DE(clash)    DE(int)     intcor
     23.33     -24.05       1.90        0.00     134.44       1.36       0.18       0.54       ----

> <Gold.Chemscore.Fitness>
23.3290

> <Gold.Chemscore.DG>
-24.0502

> <Gold.Chemscore.ZeroCoef>
-5.4800

> <Gold.Chemscore.Hbond>
1.8962

> <Gold.Chemscore.Metal>
0.0000

> <Gold.Chemscore.Lipo>
134.4352

> <Gold.Chemscore.Internal_Hbond>
0.0000

> <Gold.Chemscore.DEClash>
0.1808

> <Gold.Chemscore.DEInternal>
0.5403

> <Gold.Chemscore.Rot>
1.3640

> <Gold.Chemscore.Internal.Correction>
   9.000000E+99

> <Gold.Chemscore.Hbonds>
donor molecule, donor type, donor heavy atom, donor atom, acceptor molecule, acceptor atom, score
      L1  H     4    25       P1  8028  0.99
      P1  H 10752 10765       L1    16  0.03

> <Gold.Chemscore.Hbond.Weighted>
-6.3332

> <Gold.Chemscore.Metal.Weighted>
-0.0000

> <Gold.Chemscore.Lipo.Weighted>
-15.7289

> <Gold.Chemscore.Internal_Hbond.Weighted>
0.0000

> <Gold.Chemscore.DEClash.Weighted>
0.1808

> <Gold.Chemscore.DEInternal.Weighted>
0.5403

> <Gold.Chemscore.Rot.Weighted>
3.4919

> <Gold.Chemscore.Internal.Correction.Weighted>
   9.000000E+99

> <Gold.Protein.RotatedTorsions>
[ 6907 6896 6895 6894 ] final  -78.10 input  -60.11 | X-H torsion
[ 7974 7965 7964 7962 ] final   -1.02 input  175.53 | X-H torsion
[ 8008 7997 7996 7995 ] final    1.93 input   59.86 | X-H torsion
[ 10167 10162 10161 10158 ] final  175.71 input  -65.29 | X-H torsion
[ 10718 10713 10712 10709 ] final   51.55 input   66.30 | X-H torsion
[ 10763 10752 10751 10750 ] final -178.64 input  -60.55 | X-H torsion
[ 11005 11000 10999 10996 ] final  -13.51 input  -57.11 | X-H torsion

> <Gold.Protein.ActiveResidues>
 VAL166  LYS551  ARG553  GLY616  TRP617  ASP618  TYR619  PRO620  LYS621  CYS622 
 ASP623  PHE694  ASN695  SER759  ASP760  ASP761  ALA762  ILE779  LEU786  VAL792 
 PHE793  MET794  SER795  GLU796  ALA797  LYS798  CYS799  TRP800  GLU811  SER814 

> <Gold.Protein.RotatedAtoms>
  150.6981  134.4323  159.5253 H   0  0  0  0  0  0  0  0  0  0  0  0  # atno 6907 bound_to 6896
  152.2047  134.8553  160.0513 H   0  0  0  0  0  0  0  0  0  0  0  0  # atno 6908 bound_to 6896
  151.9460  133.3617  159.4019 H   0  0  0  0  0  0  0  0  0  0  0  0  # atno 6909 bound_to 6896
  146.2421  140.1357  142.8336 H   0  0  0  0  0  0  0  0  0  0  0  0  # atno 7974 bound_to 7965
  154.6856  140.2642  155.6864 H   0  0  0  0  0  0  0  0  0  0  0  0  # atno 8008 bound_to 7997
  156.2713  140.2801  156.1338 H   0  0  0  0  0  0  0  0  0  0  0  0  # atno 8009 bound_to 7997
  155.0970  140.0374  157.2675 H   0  0  0  0  0  0  0  0  0  0  0  0  # atno 8010 bound_to 7997
  139.5187  144.3000  152.0387 H   0  0  0  0  0  0  0  0  0  0  0  0  # atno 10167 bound_to 10162
  157.4991  130.8426  149.8294 H   0  0  0  0  0  0  0  0  0  0  0  0  # atno 10718 bound_to 10713
  154.5451  135.2809  155.1060 H   0  0  0  0  0  0  0  0  0  0  0  0  # atno 10763 bound_to 10752
  154.2527  135.6336  153.5250 H   0  0  0  0  0  0  0  0  0  0  0  0  # atno 10764 bound_to 10752
  152.9988  135.5586  154.6001 H   0  0  0  0  0  0  0  0  0  0  0  0  # atno 10765 bound_to 10752
  140.7768  133.8394  155.9256 H   0  0  0  0  0  0  0  0  0  0  0  0  # atno 11005 bound_to 11000
  145.0289  140.8854  143.5122 LP  0  0  0  0  0  0  0  0  0  0  0  0  # atno 17320 bound_to 7965
  145.1418  139.2568  143.5486 LP  0  0  0  0  0  0  0  0  0  0  0  0  # atno 17321 bound_to 7965
  140.2447  144.4232  150.6245 LP  0  0  0  0  0  0  0  0  0  0  0  0  # atno 17342 bound_to 10162
  140.6266  143.2182  151.6584 LP  0  0  0  0  0  0  0  0  0  0  0  0  # atno 17343 bound_to 10162
  156.0218  130.3793  150.1939 LP  0  0  0  0  0  0  0  0  0  0  0  0  # atno 17370 bound_to 10713
  157.0128  130.9956  151.3361 LP  0  0  0  0  0  0  0  0  0  0  0  0  # atno 17371 bound_to 10713
  140.9521  134.1765  157.4720 LP  0  0  0  0  0  0  0  0  0  0  0  0  # atno 17394 bound_to 11000
  139.8748  134.9913  156.5543 LP  0  0  0  0  0  0  0  0  0  0  0  0  # atno 17395 bound_to 11000

$$$$
