AV-unprocessed.smi:3028|AV-procd|sdf|11524|dock8
  -GOLD-   2272016463D 1   1.00000     0.00000
 Structure written by MMmdl.
 47 48  0  0  0  0  0  0  0  0  1 V2000
  147.5117  141.7121  153.7755 C   0  0  0  0  0  0  0  0  0  0  0  0
  148.7691  141.1926  154.4111 C   0  0  0  0  0  0  0  0  0  0  0  0
  149.6144  140.1443  153.9490 C   0  0  0  0  0  0  0  0  0  0  0  0
  150.6492  139.9303  154.7440 N   0  0  0  0  0  0  0  0  0  0  0  0
  150.5055  140.8328  155.7406 N   0  0  0  0  0  0  0  0  0  0  0  0
  151.4816  140.8967  156.8215 C   0  0  1  0  0  0  0  0  0  0  0  0
  151.1015  142.0187  157.8074 C   0  0  0  0  0  0  0  0  0  0  0  0
  151.6681  139.5189  157.5134 C   0  0  1  0  0  0  0  0  0  0  0  0
  152.7627  139.5197  158.5967 C   0  0  0  0  0  0  0  0  0  0  0  0
  150.4235  139.1293  158.1701 N   0  0  0  0  0  0  0  0  0  0  0  0
  150.2333  137.6728  158.1716 C   0  0  0  0  0  0  0  0  0  0  0  0
  148.9241  137.2358  158.8465 C   0  0  0  0  0  0  0  0  0  0  0  0
  147.8464  137.6926  158.4669 O   0  0  0  0  0  0  0  0  0  0  0  0
  148.9739  136.3413  159.8484 N   0  0  0  0  0  0  0  0  0  0  0  0
  147.8539  135.7992  160.6155 C   0  0  0  0  0  0  0  0  0  0  0  0
  147.8551  136.3973  162.0303 C   0  0  0  0  0  0  0  0  0  0  0  0
  146.7763  135.7320  162.9010 C   0  0  0  0  0  0  0  0  0  0  0  0
  146.9792  134.3234  162.9368 O   0  0  0  0  0  0  0  0  0  0  0  0
  146.8702  133.7138  161.6548 C   0  0  0  0  0  0  0  0  0  0  0  0
  147.9528  134.2673  160.7144 C   0  0  0  0  0  0  0  0  0  0  0  0
  149.3769  141.6061  155.5627 C   0  0  0  0  0  0  0  0  0  0  0  0
  147.2190  141.1171  152.9102 H   0  0  0  0  0  0  0  0  0  0  0  0
  147.6302  142.7402  153.4330 H   0  0  0  0  0  0  0  0  0  0  0  0
  146.6733  141.6988  154.4723 H   0  0  0  0  0  0  0  0  0  0  0  0
  149.5064  139.5351  153.0635 H   0  0  0  0  0  0  0  0  0  0  0  0
  152.4320  141.1740  156.3617 H   0  0  0  0  0  0  0  0  0  0  0  0
  151.8882  142.1873  158.5428 H   0  0  0  0  0  0  0  0  0  0  0  0
  150.1855  141.7824  158.3499 H   0  0  0  0  0  0  0  0  0  0  0  0
  150.9439  142.9623  157.2840 H   0  0  0  0  0  0  0  0  0  0  0  0
  151.9579  138.7818  156.7617 H   0  0  0  0  0  0  0  0  0  0  0  0
  153.7475  139.7199  158.1744 H   0  0  0  0  0  0  0  0  0  0  0  0
  152.8221  138.5514  159.0955 H   0  0  0  0  0  0  0  0  0  0  0  0
  152.5684  140.2751  159.3590 H   0  0  0  0  0  0  0  0  0  0  0  0
  149.6486  139.6034  157.7285 H   0  0  0  0  0  0  0  0  0  0  0  0
  150.2316  137.3055  157.1445 H   0  0  0  0  0  0  0  0  0  0  0  0
  151.0746  137.2090  158.6872 H   0  0  0  0  0  0  0  0  0  0  0  0
  149.8891  135.9992  160.1036 H   0  0  0  0  0  0  0  0  0  0  0  0
  146.9062  136.0665  160.1462 H   0  0  0  0  0  0  0  0  0  0  0  0
  148.8308  136.2509  162.4963 H   0  0  0  0  0  0  0  0  0  0  0  0
  147.6877  137.4741  161.9863 H   0  0  0  0  0  0  0  0  0  0  0  0
  146.8243  136.1203  163.9186 H   0  0  0  0  0  0  0  0  0  0  0  0
  145.7779  135.9564  162.5224 H   0  0  0  0  0  0  0  0  0  0  0  0
  146.9875  132.6358  161.7667 H   0  0  0  0  0  0  0  0  0  0  0  0
  145.8743  133.8842  161.2429 H   0  0  0  0  0  0  0  0  0  0  0  0
  147.8571  133.8100  159.7296 H   0  0  0  0  0  0  0  0  0  0  0  0
  148.9352  133.9828  161.0944 H   0  0  0  0  0  0  0  0  0  0  0  0
  149.1025  142.3809  156.2634 H   0  0  0  0  0  0  0  0  0  0  0  0
  1  2  1  0  0  0  0
  1 22  1  0  0  0  0
  1 23  1  0  0  0  0
  1 24  1  0  0  0  0
  2 21  2  0  0  0  0
  2  3  1  0  0  0  0
  3  4  2  0  0  0  0
  3 25  1  0  0  0  0
  4  5  1  0  0  0  0
  5  6  1  0  0  0  0
  5 21  1  0  0  0  0
  6  7  1  0  0  0  0
  6  8  1  0  0  0  0
  6 26  1  0  0  0  0
  7 27  1  0  0  0  0
  7 28  1  0  0  0  0
  7 29  1  0  0  0  0
  8  9  1  0  0  0  0
  8 10  1  0  0  0  0
  8 30  1  0  0  0  0
  9 31  1  0  0  0  0
  9 32  1  0  0  0  0
  9 33  1  0  0  0  0
 10 11  1  0  0  0  0
 10 34  1  0  0  0  0
 11 12  1  0  0  0  0
 11 35  1  0  0  0  0
 11 36  1  0  0  0  0
 12 13  2  0  0  0  0
 12 14  1  0  0  0  0
 14 15  1  0  0  0  0
 14 37  1  0  0  0  0
 15 20  1  0  0  0  0
 15 16  1  0  0  0  0
 15 38  1  0  0  0  0
 16 17  1  0  0  0  0
 16 39  1  0  0  0  0
 16 40  1  0  0  0  0
 17 18  1  0  0  0  0
 17 41  1  0  0  0  0
 17 42  1  0  0  0  0
 18 19  1  0  0  0  0
 19 20  1  0  0  0  0
 19 43  1  0  0  0  0
 19 44  1  0  0  0  0
 20 45  1  0  0  0  0
 20 46  1  0  0  0  0
 21 47  1  0  0  0  0
M  END
> <s_m_source_file>
AV-unprocessed.smi

> <i_m_source_file_index>
3028

> <i_lp_mmshare_version>
43012

> <i_f3d_flags>
0

> <s_epik_input>
W0NIM11jMVtjSF1ubihbY0hdMSlbQ0BIXShbQ0gzXSlbQ0BIXShbQ0gzXSlbTkhdW0NIMl1DKD1PKVtOSF1bQ0hdMltDSDJdW0NIMl1PW0NIMl1bQ0gyXTI=

> <s_epik_cmdline>
J2VwaWtfcHl0aG9uJywgJy1waCcsICc3LjAnLCAnLXRuJywgJzgnLCAnLW1hJywgJzIwMCcsICctbWV0YWxfYmluZGluZycsICctaW1hZScsICc8aW5maWxlLm1hZT4nLCAnLW9tYWUnLCAnPG91dGZpbGUubWFlPic=

> <r_lp_tautomer_probability>
1

> <r_epik_Ionization_Penalty>
0.88617

> <r_epik_Ionization_Penalty_Charging>
0

> <r_epik_Ionization_Penalty_Neutral>
0.88617

> <r_epik_State_Penalty>
0.921066

> <r_epik_Charging_Adjusted_Penalty>
0.921066

> <i_epik_Tot_Q>
0

> <i_epik_Tot_abs_Q>
0

> <r_epik_Metal_State_Penalty>
0.917309

> <b_epik_Metal_Only>
0

> <s_lp_Force_Field>
OPLS_2005

> <r_lp_Energy>
18.7055

> <b_lp_Chiralities_Consistent>
1

> <s_lp_Variant>
AV-unprocessed.smi:3028-8

> <Gold.Version>
5.8.1

> <Gold.Id.Protein>
6NUR|6NUR_protein|mol2

> <Gold.PLP.Fitness>
44.4119

> <Gold.PLP.PLP>
-37.3090

> <Gold.PLP.part.hbond>
-1.4540

> <Gold.PLP.part.metal>
0.0000

> <Gold.PLP.part.buried>
-2.3401

> <Gold.PLP.part.nonpolar>
-33.4274

> <Gold.PLP.part.repulsive>
0.2864

> <Gold.PLP.ligand.clash>
0.0000

> <Gold.PLP.ligand.torsion>
0.5890

> <Gold.PLP.Chemscore.Hbond>
1.0000

> <Gold.PLP.Chemscore.CHOScore>
1.7097

> <Gold.PLP.Chemscore.Metal>
0.0000

> <Gold.Chemscore.Hbonds>
donor molecule, donor type, donor heavy atom, donor atom, acceptor molecule, acceptor atom, score
      P1  H  7989  7998       L1     4  0.30
      L1  C     3    25       P1  7957  0.85
      L1  C    21    47       P1  8028  0.87

> <Gold.PLP.Chemscore.Internal.Correction>
0.1518

> <Gold.Rescore>
     Score         DG    S(hbond)    S(metal)    S(lipo)     H(rot)  DE(clash)    DE(int)     intcor
     11.39     -13.24       0.62        0.00      90.81       1.92       1.20       0.65       ----

> <Gold.Chemscore.Fitness>
11.3863

> <Gold.Chemscore.DG>
-13.2374

> <Gold.Chemscore.ZeroCoef>
-5.4800

> <Gold.Chemscore.Hbond>
0.6156

> <Gold.Chemscore.Metal>
0.0000

> <Gold.Chemscore.Lipo>
90.8120

> <Gold.Chemscore.Internal_Hbond>
0.0000

> <Gold.Chemscore.DEClash>
1.2004

> <Gold.Chemscore.DEInternal>
0.6508

> <Gold.Chemscore.Rot>
1.9233

> <Gold.Chemscore.Internal.Correction>
   9.000000E+99

> <Gold.Chemscore.Hbond.Weighted>
-2.0560

> <Gold.Chemscore.Metal.Weighted>
-0.0000

> <Gold.Chemscore.Lipo.Weighted>
-10.6250

> <Gold.Chemscore.Internal_Hbond.Weighted>
0.0000

> <Gold.Chemscore.DEClash.Weighted>
1.2004

> <Gold.Chemscore.DEInternal.Weighted>
0.6508

> <Gold.Chemscore.Rot.Weighted>
4.9235

> <Gold.Chemscore.Internal.Correction.Weighted>
   9.000000E+99

> <Gold.Protein.RotatedTorsions>
[ 6907 6896 6895 6894 ] final  -96.37 input  -60.11 | X-H torsion
[ 7974 7965 7964 7962 ] final   -6.77 input  175.53 | X-H torsion
[ 8008 7997 7996 7995 ] final -120.17 input   59.86 | X-H torsion
[ 10167 10162 10161 10158 ] final  -13.58 input  -65.29 | X-H torsion
[ 10718 10713 10712 10709 ] final   70.84 input   66.30 | X-H torsion
[ 10763 10752 10751 10750 ] final  149.87 input  -60.55 | X-H torsion
[ 11005 11000 10999 10996 ] final    4.27 input  -57.11 | X-H torsion

> <Gold.Protein.ActiveResidues>
 VAL166  LYS551  ARG553  GLY616  TRP617  ASP618  TYR619  PRO620  LYS621  CYS622 
 ASP623  PHE694  ASN695  SER759  ASP760  ASP761  ALA762  ILE779  LEU786  VAL792 
 PHE793  MET794  SER795  GLU796  ALA797  LYS798  CYS799  TRP800  GLU811  SER814 

> <Gold.Protein.RotatedAtoms>
  150.6987  134.1513  159.4141 H   0  0  0  0  0  0  0  0  0  0  0  0  # atno 6907 bound_to 6896
  151.9495  135.0173  160.0550 H   0  0  0  0  0  0  0  0  0  0  0  0  # atno 6908 bound_to 6896
  152.2023  133.4815  159.5102 H   0  0  0  0  0  0  0  0  0  0  0  0  # atno 6909 bound_to 6896
  146.2323  140.2219  142.8337 H   0  0  0  0  0  0  0  0  0  0  0  0  # atno 7974 bound_to 7965
  155.1275  140.0399  157.2766 H   0  0  0  0  0  0  0  0  0  0  0  0  # atno 8008 bound_to 7997
  154.6567  140.2581  155.7127 H   0  0  0  0  0  0  0  0  0  0  0  0  # atno 8009 bound_to 7997
  156.2601  140.2825  156.1023 H   0  0  0  0  0  0  0  0  0  0  0  0  # atno 8010 bound_to 7997
  140.7185  143.5411  150.9408 H   0  0  0  0  0  0  0  0  0  0  0  0  # atno 10167 bound_to 10162
  157.6421  130.9498  150.0706 H   0  0  0  0  0  0  0  0  0  0  0  0  # atno 10718 bound_to 10713
  154.0781  135.2861  155.3295 H   0  0  0  0  0  0  0  0  0  0  0  0  # atno 10763 bound_to 10752
  154.6702  135.5302  153.8131 H   0  0  0  0  0  0  0  0  0  0  0  0  # atno 10764 bound_to 10752
  153.0459  135.6555  154.0958 H   0  0  0  0  0  0  0  0  0  0  0  0  # atno 10765 bound_to 10752
  140.5838  133.9988  155.8059 H   0  0  0  0  0  0  0  0  0  0  0  0  # atno 11005 bound_to 11000
  144.9625  140.8289  143.5505 LP  0  0  0  0  0  0  0  0  0  0  0  0  # atno 17320 bound_to 7965
  145.2192  139.2167  143.5102 LP  0  0  0  0  0  0  0  0  0  0  0  0  # atno 17321 bound_to 7965
  139.9133  143.6693  152.3111 LP  0  0  0  0  0  0  0  0  0  0  0  0  # atno 17342 bound_to 10162
  139.7084  144.7624  151.1153 LP  0  0  0  0  0  0  0  0  0  0  0  0  # atno 17343 bound_to 10162
  156.1711  130.3646  149.9163 LP  0  0  0  0  0  0  0  0  0  0  0  0  # atno 17370 bound_to 10713
  156.7139  130.8980  151.3612 LP  0  0  0  0  0  0  0  0  0  0  0  0  # atno 17371 bound_to 10713
  141.0979  133.9815  157.3129 LP  0  0  0  0  0  0  0  0  0  0  0  0  # atno 17394 bound_to 11000
  139.9305  135.0200  156.8383 LP  0  0  0  0  0  0  0  0  0  0  0  0  # atno 17395 bound_to 11000

$$$$
