#       Name:                AV-unprocessed.smi:2511
#       Creating user name   scv26
#       Creation time:       Fri Mar 27 13:52:39 2020


#       File generated by GOLD software.
#

@<TRIPOS>MOLECULE
AV-unprocessed.smi:2511
    45    46     1
SMALL
NO_CHARGES


@<TRIPOS>ATOM
      1 ****        -6.8409   0.4297   0.2403 N.am           1 S1                 0.0000
      2 ****        -6.3587  -0.7455  -0.1779 C.2            1 S1                 0.0000
      3 ****        -7.0942  -1.6728  -0.5130 O.2            1 S1                 0.0000
      4 ****        -4.8605  -0.8926  -0.1741 C.ar           1 S1                 0.0000
      5 ****        -4.2790  -2.1807  -0.2034 C.ar           1 S1                 0.0000
      6 ****        -2.8761  -2.3004  -0.2086 C.ar           1 S1                 0.0000
      7 ****        -2.0894  -1.1251  -0.1818 C.ar           1 S1                 0.0000
      8 ****        -0.6689  -1.1071  -0.1995 N.am           1 S1                 0.0000
      9 ****         0.1950  -2.0835   0.1424 C.2            1 S1                 0.0000
     10 ****        -0.1302  -3.2040   0.5284 O.2            1 S1                 0.0000
     11 ****         1.4905  -1.7311   0.0500 N.am           1 S1                 0.0000
     12 ****         2.6786  -2.5370   0.3414 C.3            1 S1                 0.0000
     13 ****         3.8616  -1.6044   0.6576 C.3            1 S1                 0.0000
     14 ****         5.1497  -2.4014   0.9110 C.3            1 S1                 0.0000
     15 ****         5.4788  -3.3219  -0.2744 C.3            1 S1                 0.0000
     16 ****         4.3076  -4.2731  -0.5978 C.3            1 S1                 0.0000
     17 ****         4.6346  -5.2148  -1.7752 C.3            1 S1                 0.0000
     18 ****         4.8547  -4.5203  -2.8920 F              1 S1                 0.0000
     19 ****         5.7204  -5.9357  -1.4948 F              1 S1                 0.0000
     20 ****         3.6208  -6.0552  -1.9829 F              1 S1                 0.0000
     21 ****         3.0188  -3.4611  -0.8480 C.3            1 S1                 0.0000
     22 ****        -2.7629   0.1129  -0.1739 C.ar           1 S1                 0.0000
     23 ****        -4.1069   0.2339  -0.1667 N.ar           1 S1                 0.0000
     24 ****        -7.8375   0.5884   0.2577 H              1 S1                 0.0000
     25 ****        -6.2001   1.1528   0.5343 H              1 S1                 0.0000
     26 ****        -4.8925  -3.0699  -0.2225 H              1 S1                 0.0000
     27 ****        -2.4384  -3.2855  -0.2465 H              1 S1                 0.0000
     28 ****        -0.2529  -0.2179  -0.4348 H              1 S1                 0.0000
     29 ****         1.6721  -0.7861  -0.2569 H              1 S1                 0.0000
     30 ****         2.4951  -3.1471   1.2278 H              1 S1                 0.0000
     31 ****         4.0222  -0.9135  -0.1716 H              1 S1                 0.0000
     32 ****         3.6323  -0.9917   1.5306 H              1 S1                 0.0000
     33 ****         5.9797  -1.7173   1.0905 H              1 S1                 0.0000
     34 ****         5.0390  -2.9976   1.8176 H              1 S1                 0.0000
     35 ****         5.7155  -2.7151  -1.1492 H              1 S1                 0.0000
     36 ****         6.3772  -3.8960  -0.0466 H              1 S1                 0.0000
     37 ****         4.1379  -4.8990   0.2801 H              1 S1                 0.0000
     38 ****         2.1894  -4.1431  -1.0361 H              1 S1                 0.0000
     39 ****         3.1331  -2.8639  -1.7538 H              1 S1                 0.0000
     40 ****        -2.2062   1.0389  -0.1683 H              1 S1                 0.0000
     41 ****        -8.0873  -1.5612  -0.4776 LP             1 S1                 0.0000
     42 ****        -6.6990  -2.5383  -0.8208 LP             1 S1                 0.0000
     43 ****        -1.0976  -3.4446   0.6070 LP             1 S1                 0.0000
     44 ****         0.5726  -3.8752   0.7640 LP             1 S1                 0.0000
     45 ****        -4.5380   1.1361  -0.1561 LP             1 S1                 0.0000
@<TRIPOS>BOND
    1    1    2 am    
    2    1   24 1     
    3    1   25 1     
    4    2    3 2     
    5    2    4 1     
    6    4   23 ar    
    7    4    5 ar    
    8    5    6 ar    
    9    5   26 1     
   10    6    7 ar    
   11    6   27 1     
   12    7    8 1     
   13    7   22 ar    
   14    8    9 am    
   15    8   28 1     
   16    9   10 2     
   17    9   11 am    
   18   11   12 1     
   19   11   29 1     
   20   12   21 1     
   21   12   13 1     
   22   12   30 1     
   23   13   14 1     
   24   13   31 1     
   25   13   32 1     
   26   14   15 1     
   27   14   33 1     
   28   14   34 1     
   29   15   16 1     
   30   15   35 1     
   31   15   36 1     
   32   16   17 1     
   33   16   21 1     
   34   16   37 1     
   35   17   18 1     
   36   17   19 1     
   37   17   20 1     
   38   21   38 1     
   39   21   39 1     
   40   22   23 ar    
   41   22   40 1     
   42    3   41 1     
   43    3   42 1     
   44   10   43 1     
   45   10   44 1     
   46   23   45 1     
@<TRIPOS>SUBSTRUCTURE
      1 S1             1
@<TRIPOS>SET
LONE_PAIRS      STATIC     ATOMS    <user>   **** ""
5 41 42 43 44 45
DONOR_HYDROGENS      STATIC     ATOMS    <user>   **** ""
4 24 25 28 29
ATOM$BLUE        STATIC     ATOMS    COLORGROUP SYSTEM
5 41 42 43 44 45
ATOM$RED        STATIC     ATOMS    COLORGROUP SYSTEM
4 24 25 28 29
