#       Name:                AV-unprocessed.smi:3036
#       Creating user name   scv26
#       Creation time:       Fri Mar 27 16:55:32 2020


#       File generated by GOLD software.
#

@<TRIPOS>MOLECULE
AV-unprocessed.smi:3036
    47    48     1
SMALL
NO_CHARGES


@<TRIPOS>ATOM
      1 ****        -3.4084  -0.9341  -2.2944 C.3            1 S1                 0.0000
      2 ****        -2.9083  -0.2451  -1.0177 C.3            1 S1                 0.0000
      3 ****        -3.4471  -0.9509   0.2412 C.3            1 S1                 0.0000
      4 ****        -3.0789  -0.2573   1.4619 N.pl3          1 S1                 0.0000
      5 ****        -3.6201   0.8952   1.9914 C.2            1 S1                 0.0000
      6 ****        -2.9386   1.1719   3.1416 C.2            1 S1                 0.0000
      7 ****        -1.9917   0.1140   3.2368 C.2            1 S1                 0.0000
      8 ****        -2.0803  -0.7407   2.2304 N.2            1 S1                 0.0000
      9 ****        -1.4276  -0.2170  -1.0154 N.4            1 S1                 1.0000
     10 ****        -0.8350   1.1375  -0.9581 C.3            1 S1                 0.0000
     11 ****         0.7047   1.1076  -1.0465 C.3            1 S1                 0.0000
     12 ****         1.4169   0.4960   0.1750 C.2            1 S1                 0.0000
     13 ****         0.7383   0.0887   1.1179 O.2            1 S1                 0.0000
     14 ****         2.7698   0.4258   0.1802 N.am           1 S1                 0.0000
     15 ****         3.5378  -0.1774   1.2739 C.3            1 S1                 0.0000
     16 ****         4.2744  -1.4140   0.7286 C.3            1 S1                 0.0000
     17 ****         5.1114  -1.0322  -0.3602 O.3            1 S1                 0.0000
     18 ****         4.3947  -0.4192  -1.4290 C.3            1 S1                 0.0000
     19 ****         3.6615   0.8313  -0.9113 C.3            1 S1                 0.0000
     20 ****        -4.4981  -0.9431  -2.3340 H              1 S1                 0.0000
     21 ****        -3.0660  -1.9682  -2.3490 H              1 S1                 0.0000
     22 ****        -3.0523  -0.4168  -3.1861 H              1 S1                 0.0000
     23 ****        -3.2917   0.7770  -1.0262 H              1 S1                 0.0000
     24 ****        -4.5359  -1.0040   0.2040 H              1 S1                 0.0000
     25 ****        -3.0879  -1.9805   0.2895 H              1 S1                 0.0000
     26 ****        -4.4324   1.4190   1.5091 H              1 S1                 0.0000
     27 ****        -3.0938   2.0027   3.8141 H              1 S1                 0.0000
     28 ****        -1.2474  -0.0568   4.0007 H              1 S1                 0.0000
     29 ****        -1.1004  -0.7414  -0.2154 H              1 S1                 0.0000
     30 ****        -1.2252   1.7227  -1.7918 H              1 S1                 0.0000
     31 ****        -1.1582   1.6395  -0.0446 H              1 S1                 0.0000
     32 ****         0.9990   0.5629  -1.9446 H              1 S1                 0.0000
     33 ****         1.0605   2.1319  -1.1638 H              1 S1                 0.0000
     34 ****         4.2554   0.5502   1.6556 H              1 S1                 0.0000
     35 ****         2.9181  -0.4650   2.1242 H              1 S1                 0.0000
     36 ****         4.8919  -1.8606   1.5082 H              1 S1                 0.0000
     37 ****         3.5658  -2.1778   0.4045 H              1 S1                 0.0000
     38 ****         5.0995  -0.1462  -2.2143 H              1 S1                 0.0000
     39 ****         3.6914  -1.1312  -1.8636 H              1 S1                 0.0000
     40 ****         3.1535   1.3250  -1.7379 H              1 S1                 0.0000
     41 ****         4.3828   1.5564  -0.5320 H              1 S1                 0.0000
     42 ****        -1.1004  -0.6740  -1.8545 H              1 S1                 0.0000
     43 ****        -1.5304  -1.5612   2.0743 LP             1 S1                 0.0000
     44 ****        -0.2587   0.1577   1.0830 LP             1 S1                 0.0000
     45 ****         1.1840  -0.3112   1.9188 LP             1 S1                 0.0000
     46 ****         5.5691  -1.8491  -0.7113 LP             1 S1                 0.0000
     47 ****         5.7957  -0.3853  -0.0237 LP             1 S1                 0.0000
@<TRIPOS>BOND
    1    1    2 1     
    2    1   20 1     
    3    1   21 1     
    4    1   22 1     
    5    2    3 1     
    6    2    9 1     
    7    2   23 1     
    8    3    4 1     
    9    3   24 1     
   10    3   25 1     
   11    4    8 1     
   12    4    5 1     
   13    5    6 2     
   14    5   26 1     
   15    6    7 1     
   16    6   27 1     
   17    7    8 2     
   18    7   28 1     
   19    9   10 1     
   20    9   29 1     
   21    9   42 1     
   22   10   11 1     
   23   10   30 1     
   24   10   31 1     
   25   11   12 1     
   26   11   32 1     
   27   11   33 1     
   28   12   13 2     
   29   12   14 am    
   30   14   19 1     
   31   14   15 1     
   32   15   16 1     
   33   15   34 1     
   34   15   35 1     
   35   16   17 1     
   36   16   36 1     
   37   16   37 1     
   38   17   18 1     
   39   18   19 1     
   40   18   38 1     
   41   18   39 1     
   42   19   40 1     
   43   19   41 1     
   44    8   43 1     
   45   13   44 1     
   46   13   45 1     
   47   17   46 1     
   48   17   47 1     
@<TRIPOS>SUBSTRUCTURE
      1 S1             1
@<TRIPOS>SET
LONE_PAIRS      STATIC     ATOMS    <user>   **** ""
5 43 44 45 46 47
DONOR_HYDROGENS      STATIC     ATOMS    <user>   **** ""
2 29 42
ATOM$BLUE        STATIC     ATOMS    COLORGROUP SYSTEM
5 43 44 45 46 47
ATOM$RED        STATIC     ATOMS    COLORGROUP SYSTEM
2 29 42
