AV-unprocessed.smi:685|AV-procd|sdf|3335|dock7
  -GOLD-   22720 0303D 1   1.00000     0.00000
 Structure written by MMmdl.
 51 52  0  0  0  0  0  0  0  0  2 V2000
  155.6966  135.5774  159.2318 C   0  0  0  0  0  0  0  0  0  0  0  0
  155.0871  134.9697  160.4506 C   0  0  0  0  0  0  0  0  0  0  0  0
  155.3343  133.7047  160.8840 N   0  3  0  0  0  0  0  0  0  0  0  0
  154.6373  133.4530  162.0016 N   0  0  0  0  0  0  0  0  0  0  0  0
  154.7616  132.1395  162.6342 C   0  0  0  0  0  0  0  0  0  0  0  0
  153.9033  134.5464  162.3555 C   0  0  0  0  0  0  0  0  0  0  0  0
  153.0086  134.6214  163.5499 C   0  0  0  0  0  0  0  0  0  0  0  0
  154.1860  135.5078  161.3765 C   0  0  0  0  0  0  0  0  0  0  0  0
  153.6185  136.8982  161.3157 C   0  0  0  0  0  0  0  0  0  0  0  0
  154.6985  137.9976  161.4104 C   0  0  2  0  0  0  0  0  0  0  0  0
  155.5591  137.8803  162.6780 C   0  0  0  0  0  0  0  0  0  0  0  0
  154.0802  139.3198  161.3736 N   0  0  0  0  0  0  0  0  0  0  0  0
  154.2986  140.2496  160.4301 C   0  0  0  0  0  0  0  0  0  0  0  0
  155.0446  140.0684  159.4668 O   0  0  0  0  0  0  0  0  0  0  0  0
  153.5527  141.5763  160.6039 C   0  0  0  0  0  0  0  0  0  0  0  0
  152.5088  141.8341  159.5000 C   0  0  0  0  0  0  0  0  0  0  0  0
  152.0109  143.2900  159.4651 C   0  0  0  0  0  0  0  0  0  0  0  0
  152.9933  144.2524  158.7936 C   0  0  0  0  0  0  0  0  0  0  0  0
  152.5757  145.6461  159.2733 C   0  0  0  0  0  0  0  0  0  0  0  0
  151.8273  145.4374  160.5986 C   0  0  0  0  0  0  0  0  0  0  0  0
  151.7977  143.9243  160.8434 C   0  0  0  0  0  0  0  0  0  0  0  0
  154.9361  136.0928  158.6451 H   0  0  0  0  0  0  0  0  0  0  0  0
  156.1533  134.8095  158.6069 H   0  0  0  0  0  0  0  0  0  0  0  0
  156.4645  136.2975  159.5147 H   0  0  0  0  0  0  0  0  0  0  0  0
  153.7799  131.8112  162.9768 H   0  0  0  0  0  0  0  0  0  0  0  0
  155.4384  132.2183  163.4853 H   0  0  0  0  0  0  0  0  0  0  0  0
  155.1535  131.4144  161.9199 H   0  0  0  0  0  0  0  0  0  0  0  0
  152.9794  135.6367  163.9440 H   0  0  0  0  0  0  0  0  0  0  0  0
  153.3648  133.9618  164.3413 H   0  0  0  0  0  0  0  0  0  0  0  0
  151.9960  134.3247  163.2775 H   0  0  0  0  0  0  0  0  0  0  0  0
  153.0651  137.0108  160.3825 H   0  0  0  0  0  0  0  0  0  0  0  0
  152.8789  137.0440  162.1036 H   0  0  0  0  0  0  0  0  0  0  0  0
  155.3668  137.9129  160.5517 H   0  0  0  0  0  0  0  0  0  0  0  0
  156.1001  136.9344  162.7065 H   0  0  0  0  0  0  0  0  0  0  0  0
  154.9491  137.9437  163.5796 H   0  0  0  0  0  0  0  0  0  0  0  0
  156.3011  138.6784  162.7224 H   0  0  0  0  0  0  0  0  0  0  0  0
  153.4483  139.5500  162.1272 H   0  0  0  0  0  0  0  0  0  0  0  0
  153.0680  141.5706  161.5806 H   0  0  0  0  0  0  0  0  0  0  0  0
  154.2801  142.3888  160.6193 H   0  0  0  0  0  0  0  0  0  0  0  0
  152.9234  141.5646  158.5275 H   0  0  0  0  0  0  0  0  0  0  0  0
  151.6494  141.1802  159.6565 H   0  0  0  0  0  0  0  0  0  0  0  0
  151.0690  143.3321  158.9152 H   0  0  0  0  0  0  0  0  0  0  0  0
  154.0089  144.0426  159.1329 H   0  0  0  0  0  0  0  0  0  0  0  0
  152.9855  144.1674  157.7065 H   0  0  0  0  0  0  0  0  0  0  0  0
  153.4386  146.3028  159.3895 H   0  0  0  0  0  0  0  0  0  0  0  0
  151.9098  146.1088  158.5438 H   0  0  0  0  0  0  0  0  0  0  0  0
  152.3081  145.9626  161.4245 H   0  0  0  0  0  0  0  0  0  0  0  0
  150.8113  145.8255  160.5136 H   0  0  0  0  0  0  0  0  0  0  0  0
  150.8686  143.6019  161.3144 H   0  0  0  0  0  0  0  0  0  0  0  0
  152.6169  143.6497  161.5094 H   0  0  0  0  0  0  0  0  0  0  0  0
  155.9387  133.0033  160.4748 H   0  0  0  0  0  0  0  0  0  0  0  0
  1  2  1  0  0  0  0
  1 22  1  0  0  0  0
  1 23  1  0  0  0  0
  1 24  1  0  0  0  0
  2  8  1  0  0  0  0
  2  3  2  0  0  0  0
  3  4  1  0  0  0  0
  3 51  1  0  0  0  0
  4  5  1  0  0  0  0
  4  6  1  0  0  0  0
  5 25  1  0  0  0  0
  5 26  1  0  0  0  0
  5 27  1  0  0  0  0
  6  7  1  0  0  0  0
  6  8  2  0  0  0  0
  7 28  1  0  0  0  0
  7 29  1  0  0  0  0
  7 30  1  0  0  0  0
  8  9  1  0  0  0  0
  9 10  1  0  0  0  0
  9 31  1  0  0  0  0
  9 32  1  0  0  0  0
 10 11  1  0  0  0  0
 10 12  1  0  0  0  0
 10 33  1  0  0  0  0
 11 34  1  0  0  0  0
 11 35  1  0  0  0  0
 11 36  1  0  0  0  0
 12 13  1  0  0  0  0
 12 37  1  0  0  0  0
 13 14  2  0  0  0  0
 13 15  1  0  0  0  0
 15 16  1  0  0  0  0
 15 38  1  0  0  0  0
 15 39  1  0  0  0  0
 16 17  1  0  0  0  0
 16 40  1  0  0  0  0
 16 41  1  0  0  0  0
 17 21  1  0  0  0  0
 17 18  1  0  0  0  0
 17 42  1  0  0  0  0
 18 19  1  0  0  0  0
 18 43  1  0  0  0  0
 18 44  1  0  0  0  0
 19 20  1  0  0  0  0
 19 45  1  0  0  0  0
 19 46  1  0  0  0  0
 20 21  1  0  0  0  0
 20 47  1  0  0  0  0
 20 48  1  0  0  0  0
 21 49  1  0  0  0  0
 21 50  1  0  0  0  0
M  CHG  1   3   1
M  END
> <s_m_source_file>
AV-unprocessed.smi

> <i_m_source_file_index>
685

> <i_lp_mmshare_version>
43012

> <i_f3d_flags>
0

> <s_epik_input>
W0NIM11jMW5uKFtDSDNdKWMoW0NIM10pYzFbQ0gyXVtDQEhdKFtDSDNdKVtOSF1DKD1PKVtDSDJdW0NIMl1bQ0hdMltDSDJdW0NIMl1bQ0gyXVtDSDJdMg==

> <s_epik_cmdline>
J2VwaWtfcHl0aG9uJywgJy1waCcsICc3LjAnLCAnLXRuJywgJzgnLCAnLW1hJywgJzIwMCcsICctbWV0YWxfYmluZGluZycsICctaW1hZScsICc8aW5maWxlLm1hZT4nLCAnLW9tYWUnLCAnPG91dGZpbGUubWFlPic=

> <r_lp_tautomer_probability>
1

> <r_epik_Ionization_Penalty>
2.26429

> <r_epik_Ionization_Penalty_Charging>
2.26429

> <r_epik_Ionization_Penalty_Neutral>
2.3289e-07

> <r_epik_State_Penalty>
2.41237

> <r_epik_Charging_Adjusted_Penalty>
4.67666

> <i_epik_Tot_Q>
1

> <i_epik_Tot_abs_Q>
1

> <r_epik_Metal_State_Penalty>
2.42525

> <b_epik_Metal_Only>
0

> <s_lp_Force_Field>
OPLS_2005

> <r_lp_Energy>
28.552

> <b_lp_Chiralities_Consistent>
1

> <s_lp_Variant>
AV-unprocessed.smi:685-3

> <Gold.Version>
5.8.1

> <Gold.Id.Protein>
6NUR|6NUR_protein|mol2

> <Gold.PLP.Fitness>
45.3999

> <Gold.PLP.PLP>
-42.8841

> <Gold.PLP.part.hbond>
-1.0000

> <Gold.PLP.part.metal>
0.0000

> <Gold.PLP.part.buried>
-3.2811

> <Gold.PLP.part.nonpolar>
-38.2768

> <Gold.PLP.part.repulsive>
0.0396

> <Gold.PLP.ligand.clash>
0.0000

> <Gold.PLP.ligand.torsion>
0.2687

> <Gold.PLP.Chemscore.Hbond>
1.0000

> <Gold.PLP.Chemscore.CHOScore>
0.0000

> <Gold.PLP.Chemscore.Metal>
0.0000

> <Gold.Chemscore.Hbonds>
donor molecule, donor type, donor heavy atom, donor atom, acceptor molecule, acceptor atom, score
      P1  H  7997  8008       L1    14  0.80

> <Gold.PLP.Chemscore.Internal.Correction>
0.0532

> <Gold.Rescore>
     Score         DG    S(hbond)    S(metal)    S(lipo)     H(rot)  DE(clash)    DE(int)     intcor
     19.23     -19.58       0.97        0.00     128.02       1.61       0.15       0.20       ----

> <Gold.Chemscore.Fitness>
19.2325

> <Gold.Chemscore.DG>
-19.5756

> <Gold.Chemscore.ZeroCoef>
-5.4800

> <Gold.Chemscore.Hbond>
0.9693

> <Gold.Chemscore.Metal>
0.0000

> <Gold.Chemscore.Lipo>
128.0213

> <Gold.Chemscore.Internal_Hbond>
0.0000

> <Gold.Chemscore.DEClash>
0.1454

> <Gold.Chemscore.DEInternal>
0.1977

> <Gold.Chemscore.Rot>
1.6095

> <Gold.Chemscore.Internal.Correction>
   9.000000E+99

> <Gold.Chemscore.Hbonds>
donor molecule, donor type, donor heavy atom, donor atom, acceptor molecule, acceptor atom, score
      P1  H  7997  8008       L1    14  0.75

> <Gold.Chemscore.Hbond.Weighted>
-3.2373

> <Gold.Chemscore.Metal.Weighted>
-0.0000

> <Gold.Chemscore.Lipo.Weighted>
-14.9785

> <Gold.Chemscore.Internal_Hbond.Weighted>
0.0000

> <Gold.Chemscore.DEClash.Weighted>
0.1454

> <Gold.Chemscore.DEInternal.Weighted>
0.1977

> <Gold.Chemscore.Rot.Weighted>
4.1202

> <Gold.Chemscore.Internal.Correction.Weighted>
   9.000000E+99

> <Gold.Protein.RotatedTorsions>
[ 6907 6896 6895 6894 ] final   35.10 input  -60.11 | X-H torsion
[ 7974 7965 7964 7962 ] final  -35.43 input  175.53 | X-H torsion
[ 8008 7997 7996 7995 ] final -130.25 input   59.86 | X-H torsion
[ 10167 10162 10161 10158 ] final  -68.55 input  -65.29 | X-H torsion
[ 10718 10713 10712 10709 ] final    4.04 input   66.30 | X-H torsion
[ 10763 10752 10751 10750 ] final  -84.88 input  -60.55 | X-H torsion
[ 11005 11000 10999 10996 ] final  150.35 input  -57.11 | X-H torsion

> <Gold.Protein.ActiveResidues>
 VAL166  LYS551  ARG553  GLY616  TRP617  ASP618  TYR619  PRO620  LYS621  CYS622 
 ASP623  PHE694  ASN695  SER759  ASP760  ASP761  ALA762  ILE779  LEU786  VAL792 
 PHE793  MET794  SER795  GLU796  ALA797  LYS798  CYS799  TRP800  GLU811  SER814 

> <Gold.Protein.RotatedAtoms>
  152.1115  134.9271  160.0566 H   0  0  0  0  0  0  0  0  0  0  0  0  # atno 6907 bound_to 6896
  152.0447  133.3988  159.4360 H   0  0  0  0  0  0  0  0  0  0  0  0  # atno 6908 bound_to 6896
  150.6844  134.3296  159.4865 H   0  0  0  0  0  0  0  0  0  0  0  0  # atno 6909 bound_to 6896
  146.0747  140.6158  142.8936 H   0  0  0  0  0  0  0  0  0  0  0  0  # atno 7974 bound_to 7965
  155.2927  140.0449  157.3024 H   0  0  0  0  0  0  0  0  0  0  0  0  # atno 8008 bound_to 7997
  154.5532  140.2324  155.8419 H   0  0  0  0  0  0  0  0  0  0  0  0  # atno 8009 bound_to 7997
  156.1985  140.3032  155.9484 H   0  0  0  0  0  0  0  0  0  0  0  0  # atno 8010 bound_to 7997
  140.5499  143.2312  151.6931 H   0  0  0  0  0  0  0  0  0  0  0  0  # atno 10167 bound_to 10162
  156.8868  130.5673  149.5651 H   0  0  0  0  0  0  0  0  0  0  0  0  # atno 10718 bound_to 10713
  154.6046  135.5505  153.7409 H   0  0  0  0  0  0  0  0  0  0  0  0  # atno 10763 bound_to 10752
  153.0169  135.6374  154.1666 H   0  0  0  0  0  0  0  0  0  0  0  0  # atno 10764 bound_to 10752
  154.1605  135.2897  155.3090 H   0  0  0  0  0  0  0  0  0  0  0  0  # atno 10765 bound_to 10752
  140.1124  134.8916  157.1955 H   0  0  0  0  0  0  0  0  0  0  0  0  # atno 11005 bound_to 11000
  144.7254  140.4507  143.6977 LP  0  0  0  0  0  0  0  0  0  0  0  0  # atno 17320 bound_to 7965
  145.6328  139.1539  143.2959 LP  0  0  0  0  0  0  0  0  0  0  0  0  # atno 17321 bound_to 7965
  139.5023  144.3835  152.0352 LP  0  0  0  0  0  0  0  0  0  0  0  0  # atno 17342 bound_to 10162
  140.2951  144.3710  150.6077 LP  0  0  0  0  0  0  0  0  0  0  0  0  # atno 17343 bound_to 10162
  156.0649  130.5694  150.9268 LP  0  0  0  0  0  0  0  0  0  0  0  0  # atno 17370 bound_to 10713
  157.6108  131.0936  150.8799 LP  0  0  0  0  0  0  0  0  0  0  0  0  # atno 17371 bound_to 10713
  140.3074  134.3063  155.7275 LP  0  0  0  0  0  0  0  0  0  0  0  0  # atno 17394 bound_to 11000
  141.2133  133.7629  156.9727 LP  0  0  0  0  0  0  0  0  0  0  0  0  # atno 17395 bound_to 11000

$$$$
