AV-unprocessed.smi:481|AV-procd|sdf|2680|dock8
  -GOLD-   2262023103D 1   1.00000     0.00000
 Structure written by MMmdl.
 43 45  0  0  0  0  0  0  0  0  1 V2000
  153.8225  137.2297  165.7400 C   0  0  0  0  0  0  0  0  0  0  0  0
  155.0673  137.7668  165.3283 O   0  0  0  0  0  0  0  0  0  0  0  0
  154.9721  138.4830  164.1090 C   0  0  0  0  0  0  0  0  0  0  0  0
  156.3021  139.2007  163.8504 C   0  0  0  0  0  0  0  0  0  0  0  0
  156.2591  140.5886  164.2973 N   0  0  0  0  0  0  0  0  0  0  0  0
  155.5255  141.6065  163.7798 C   0  0  0  0  0  0  0  0  0  0  0  0
  154.6955  141.3758  162.6833 N   0  0  0  0  0  0  0  0  0  0  0  0
  153.9731  142.3527  162.1641 N   0  0  0  0  0  0  0  0  0  0  0  0
  153.3116  142.0630  161.1016 C   0  0  0  0  0  0  0  0  0  0  0  0
  152.4646  143.0461  160.4089 C   0  0  0  0  0  0  0  0  0  0  0  0
  152.2282  144.3363  160.9408 C   0  0  0  0  0  0  0  0  0  0  0  0
  151.4113  145.2526  160.2500 C   0  0  0  0  0  0  0  0  0  0  0  0
  150.8239  144.8894  159.0236 C   0  0  0  0  0  0  0  0  0  0  0  0
  151.0540  143.6083  158.4879 C   0  0  0  0  0  0  0  0  0  0  0  0
  151.8708  142.6911  159.1777 C   0  0  0  0  0  0  0  0  0  0  0  0
  155.6859  142.7821  164.3996 N   0  0  0  0  0  0  0  0  0  0  0  0
  156.6085  142.4833  165.3918 C   0  0  0  0  0  0  0  0  0  0  0  0
  156.9705  141.1767  165.3420 C   0  0  0  0  0  0  0  0  0  0  0  0
  157.9491  140.5937  166.2670 C   0  0  0  0  0  0  0  0  0  0  0  0
  158.3040  139.4176  166.2246 O   0  0  0  0  0  0  0  0  0  0  0  0
  158.4233  141.4881  167.1684 N   0  0  0  0  0  0  0  0  0  0  0  0
  158.0961  142.8127  167.2793 C   0  0  0  0  0  0  0  0  0  0  0  0
  158.6156  143.4967  168.1607 O   0  0  0  0  0  0  0  0  0  0  0  0
  157.1878  143.3218  166.3839 N   0  0  0  0  0  0  0  0  0  0  0  0
  156.7774  144.7272  166.4089 C   0  0  0  0  0  0  0  0  0  0  0  0
  159.0977  141.1379  167.8332 H   0  0  0  0  0  0  0  0  0  0  0  0
  153.9486  136.6893  166.6782 H   0  0  0  0  0  0  0  0  0  0  0  0
  153.4289  136.5318  165.0000 H   0  0  0  0  0  0  0  0  0  0  0  0
  153.0874  138.0188  165.9030 H   0  0  0  0  0  0  0  0  0  0  0  0
  154.7466  137.7987  163.2895 H   0  0  0  0  0  0  0  0  0  0  0  0
  154.1599  139.2100  164.1659 H   0  0  0  0  0  0  0  0  0  0  0  0
  157.1141  138.6818  164.3605 H   0  0  0  0  0  0  0  0  0  0  0  0
  156.5554  139.1722  162.7913 H   0  0  0  0  0  0  0  0  0  0  0  0
  154.6655  140.4464  162.2892 H   0  0  0  0  0  0  0  0  0  0  0  0
  153.3654  141.0569  160.6803 H   0  0  0  0  0  0  0  0  0  0  0  0
  152.6682  144.6377  161.8805 H   0  0  0  0  0  0  0  0  0  0  0  0
  151.2354  146.2351  160.6626 H   0  0  0  0  0  0  0  0  0  0  0  0
  150.1974  145.5925  158.4946 H   0  0  0  0  0  0  0  0  0  0  0  0
  150.6034  143.3280  157.5471 H   0  0  0  0  0  0  0  0  0  0  0  0
  152.0371  141.7115  158.7524 H   0  0  0  0  0  0  0  0  0  0  0  0
  157.2463  145.3134  167.1998 H   0  0  0  0  0  0  0  0  0  0  0  0
  155.6980  144.7968  166.5474 H   0  0  0  0  0  0  0  0  0  0  0  0
  157.0243  145.2029  165.4593 H   0  0  0  0  0  0  0  0  0  0  0  0
  1  2  1  0  0  0  0
  1 27  1  0  0  0  0
  1 28  1  0  0  0  0
  1 29  1  0  0  0  0
  2  3  1  0  0  0  0
  3  4  1  0  0  0  0
  3 30  1  0  0  0  0
  3 31  1  0  0  0  0
  4  5  1  0  0  0  0
  4 32  1  0  0  0  0
  4 33  1  0  0  0  0
  5 18  1  0  0  0  0
  5  6  1  0  0  0  0
  6  7  1  0  0  0  0
  6 16  2  0  0  0  0
  7  8  1  0  0  0  0
  7 34  1  0  0  0  0
  8  9  2  0  0  0  0
  9 10  1  0  0  0  0
  9 35  1  0  0  0  0
 10 15  1  0  0  0  0
 10 11  2  0  0  0  0
 11 12  1  0  0  0  0
 11 36  1  0  0  0  0
 12 13  2  0  0  0  0
 12 37  1  0  0  0  0
 13 14  1  0  0  0  0
 13 38  1  0  0  0  0
 14 15  2  0  0  0  0
 14 39  1  0  0  0  0
 15 40  1  0  0  0  0
 16 17  1  0  0  0  0
 17 24  1  0  0  0  0
 17 18  2  0  0  0  0
 18 19  1  0  0  0  0
 19 20  2  0  0  0  0
 19 21  1  0  0  0  0
 21 26  1  0  0  0  0
 21 22  1  0  0  0  0
 22 23  2  0  0  0  0
 22 24  1  0  0  0  0
 24 25  1  0  0  0  0
 25 41  1  0  0  0  0
 25 42  1  0  0  0  0
 25 43  1  0  0  0  0
M  END
> <s_m_source_file>
AV-unprocessed.smi

> <i_m_source_file_index>
481

> <i_lp_mmshare_version>
43012

> <i_f3d_flags>
0

> <s_epik_input>
W0NIM11uMWMoPU8pW25IXWMoPU8pYyhjMTIpbihbQ0gyXVtDSDJdT1tDSDNdKWMobjIpW05IXS9OPVtDSF0vYzNbY0hdW2NIXVtjSF1bY0hdW2NIXTM=

> <s_epik_cmdline>
J2VwaWtfcHl0aG9uJywgJy1waCcsICc3LjAnLCAnLXRuJywgJzgnLCAnLW1hJywgJzIwMCcsICctbWV0YWxfYmluZGluZycsICctaW1hZScsICc8aW5maWxlLm1hZT4nLCAnLW9tYWUnLCAnPG91dGZpbGUubWFlPic=

> <r_epik_Ionization_Penalty>
0.000595515

> <r_epik_Ionization_Penalty_Charging>
0.000305988

> <r_epik_Ionization_Penalty_Neutral>
0.000289528

> <r_epik_State_Penalty>
0.000184189

> <r_epik_Charging_Adjusted_Penalty>
0.000490177

> <i_epik_Tot_Q>
0

> <i_epik_Tot_abs_Q>
0

> <r_epik_Metal_State_Penalty>
0.173754

> <b_epik_Metal_Only>
0

> <s_epik_Chemistry_Notes>
This compound has an imine and may undergo hydrolysis.

> <s_lp_Force_Field>
OPLS_2005

> <r_lp_Energy>
32.4826

> <b_lp_Chiralities_Consistent>
1

> <s_lp_Variant>
AV-unprocessed.smi:481-1

> <Gold.Version>
5.8.1

> <Gold.Id.Protein>
6NUR|6NUR_protein|mol2

> <Gold.PLP.Fitness>
51.8299

> <Gold.PLP.PLP>
-52.4816

> <Gold.PLP.part.hbond>
-2.0000

> <Gold.PLP.part.metal>
0.0000

> <Gold.PLP.part.buried>
-6.0859

> <Gold.PLP.part.nonpolar>
-43.2501

> <Gold.PLP.part.repulsive>
0.3348

> <Gold.PLP.ligand.clash>
0.0000

> <Gold.PLP.ligand.torsion>
0.3300

> <Gold.PLP.Chemscore.Hbond>
0.0000

> <Gold.PLP.Chemscore.CHOScore>
0.0000

> <Gold.PLP.Chemscore.Metal>
0.0000

> <Gold.PLP.Chemscore.Internal.Correction>
0.0082

> <Gold.Rescore>
     Score         DG    S(hbond)    S(metal)    S(lipo)     H(rot)  DE(clash)    DE(int)     intcor
     14.90     -15.62       0.00        0.00     120.41       1.54       0.46       0.27       ----

> <Gold.Chemscore.Fitness>
14.9012

> <Gold.Chemscore.DG>
-15.6244

> <Gold.Chemscore.ZeroCoef>
-5.4800

> <Gold.Chemscore.Hbond>
0.0000

> <Gold.Chemscore.Metal>
0.0000

> <Gold.Chemscore.Lipo>
120.4136

> <Gold.Chemscore.Internal_Hbond>
0.0000

> <Gold.Chemscore.DEClash>
0.4568

> <Gold.Chemscore.DEInternal>
0.2665

> <Gold.Chemscore.Rot>
1.5406

> <Gold.Chemscore.Internal.Correction>
   9.000000E+99

> <Gold.Chemscore.Hbond.Weighted>
-0.0000

> <Gold.Chemscore.Metal.Weighted>
-0.0000

> <Gold.Chemscore.Lipo.Weighted>
-14.0884

> <Gold.Chemscore.Internal_Hbond.Weighted>
0.0000

> <Gold.Chemscore.DEClash.Weighted>
0.4568

> <Gold.Chemscore.DEInternal.Weighted>
0.2665

> <Gold.Chemscore.Rot.Weighted>
3.9440

> <Gold.Chemscore.Internal.Correction.Weighted>
   9.000000E+99

> <Gold.Protein.RotatedTorsions>
[ 6907 6896 6895 6894 ] final  -52.96 input  -60.11 | X-H torsion
[ 7974 7965 7964 7962 ] final   92.07 input  175.53 | X-H torsion
[ 8008 7997 7996 7995 ] final -112.64 input   59.86 | X-H torsion
[ 10167 10162 10161 10158 ] final -158.96 input  -65.29 | X-H torsion
[ 10718 10713 10712 10709 ] final  -59.77 input   66.30 | X-H torsion
[ 10763 10752 10751 10750 ] final  -87.36 input  -60.55 | X-H torsion
[ 11005 11000 10999 10996 ] final -138.59 input  -57.11 | X-H torsion

> <Gold.Protein.ActiveResidues>
 VAL166  LYS551  ARG553  GLY616  TRP617  ASP618  TYR619  PRO620  LYS621  CYS622 
 ASP623  PHE694  ASN695  SER759  ASP760  ASP761  ALA762  ILE779  LEU786  VAL792 
 PHE793  MET794  SER795  GLU796  ALA797  LYS798  CYS799  TRP800  GLU811  SER814 

> <Gold.Protein.RotatedAtoms>
  150.8470  134.7782  159.6978 H   0  0  0  0  0  0  0  0  0  0  0  0  # atno 6907 bound_to 6896
  152.4544  134.5320  159.9823 H   0  0  0  0  0  0  0  0  0  0  0  0  # atno 6908 bound_to 6896
  151.5448  133.3389  159.2978 H   0  0  0  0  0  0  0  0  0  0  0  0  # atno 6909 bound_to 6896
  145.4972  139.2276  143.2797 H   0  0  0  0  0  0  0  0  0  0  0  0  # atno 7974 bound_to 7965
  155.0083  140.0394  157.2388 H   0  0  0  0  0  0  0  0  0  0  0  0  # atno 8008 bound_to 7997
  154.7483  140.2762  155.6291 H   0  0  0  0  0  0  0  0  0  0  0  0  # atno 8009 bound_to 7997
  156.2879  140.2652  156.2229 H   0  0  0  0  0  0  0  0  0  0  0  0  # atno 8010 bound_to 7997
  139.6652  143.9842  152.2250 H   0  0  0  0  0  0  0  0  0  0  0  0  # atno 10167 bound_to 10162
  156.1038  130.4183  150.0761 H   0  0  0  0  0  0  0  0  0  0  0  0  # atno 10718 bound_to 10713
  154.6328  135.5416  153.7699 H   0  0  0  0  0  0  0  0  0  0  0  0  # atno 10763 bound_to 10752
  153.0293  135.6440  154.1276 H   0  0  0  0  0  0  0  0  0  0  0  0  # atno 10764 bound_to 10752
  154.1205  135.2920  155.3189 H   0  0  0  0  0  0  0  0  0  0  0  0  # atno 10765 bound_to 10752
  140.8601  134.2179  157.4712 H   0  0  0  0  0  0  0  0  0  0  0  0  # atno 11005 bound_to 11000
  146.2248  140.5770  142.9001 LP  0  0  0  0  0  0  0  0  0  0  0  0  # atno 17320 bound_to 7965
  144.7800  140.5821  143.6612 LP  0  0  0  0  0  0  0  0  0  0  0  0  # atno 17321 bound_to 7965
  139.9592  144.6569  150.8096 LP  0  0  0  0  0  0  0  0  0  0  0  0  # atno 17342 bound_to 10162
  140.7596  143.3133  151.2793 LP  0  0  0  0  0  0  0  0  0  0  0  0  # atno 17343 bound_to 10162
  156.8742  130.9534  151.3606 LP  0  0  0  0  0  0  0  0  0  0  0  0  # atno 17370 bound_to 10713
  157.6212  130.8656  149.9112 LP  0  0  0  0  0  0  0  0  0  0  0  0  # atno 17371 bound_to 10713
  139.8706  134.9725  156.4776 LP  0  0  0  0  0  0  0  0  0  0  0  0  # atno 17394 bound_to 11000
  140.8692  133.8001  155.9347 LP  0  0  0  0  0  0  0  0  0  0  0  0  # atno 17395 bound_to 11000

$$$$
