AV-unprocessed.smi:3290|AV-procd|sdf|12618|dock1
  -GOLD-   2272018553D 1   1.00000     0.00000
 Structure written by MMmdl.
 43 44  0  0  0  0  0  0  0  0  2 V2000
  150.5491  144.9000  160.3517 C   0  0  0  0  0  0  0  0  0  0  0  0
  151.8215  144.0335  160.3288 C   0  0  1  0  0  0  0  0  0  0  0  0
  152.1489  143.5633  161.7620 C   0  0  0  0  0  0  0  0  0  0  0  0
  153.4410  142.7377  161.8173 C   0  0  0  0  0  0  0  0  0  0  0  0
  153.3609  141.5383  160.8666 C   0  0  0  0  0  0  0  0  0  0  0  0
  153.0467  141.9961  159.4355 C   0  0  0  0  0  0  0  0  0  0  0  0
  151.7409  142.8187  159.3564 C   0  0  2  0  0  0  0  0  0  0  0  0
  151.4747  143.2166  157.8866 C   0  0  0  0  0  0  0  0  0  0  0  0
  150.0465  143.1043  157.5292 N   0  3  0  0  0  0  0  0  0  0  0  0
  149.6544  141.7781  157.0120 C   0  0  0  0  0  0  0  0  0  0  0  0
  149.9896  141.6356  155.5170 C   0  0  1  0  0  0  0  0  0  0  0  0
  151.2440  140.9935  155.3912 O   0  0  0  0  0  0  0  0  0  0  0  0
  148.8950  140.8825  154.7775 C   0  0  0  0  0  0  0  0  0  0  0  0
  147.6244  141.4660  154.5915 C   0  0  0  0  0  0  0  0  0  0  0  0
  146.6384  140.7298  153.9041 C   0  0  0  0  0  0  0  0  0  0  0  0
  146.8464  139.4890  153.4147 N   0  0  0  0  0  0  0  0  0  0  0  0
  148.0633  138.9337  153.5971 C   0  0  0  0  0  0  0  0  0  0  0  0
  149.1171  139.5840  154.2695 C   0  0  0  0  0  0  0  0  0  0  0  0
  149.6645  144.3024  160.5736 H   0  0  0  0  0  0  0  0  0  0  0  0
  150.3889  145.4089  159.4018 H   0  0  0  0  0  0  0  0  0  0  0  0
  150.6202  145.6784  161.1121 H   0  0  0  0  0  0  0  0  0  0  0  0
  152.6413  144.6746  160.0008 H   0  0  0  0  0  0  0  0  0  0  0  0
  152.2471  144.4237  162.4252 H   0  0  0  0  0  0  0  0  0  0  0  0
  151.3220  142.9683  162.1526 H   0  0  0  0  0  0  0  0  0  0  0  0
  154.2909  143.3658  161.5472 H   0  0  0  0  0  0  0  0  0  0  0  0
  153.6205  142.3940  162.8364 H   0  0  0  0  0  0  0  0  0  0  0  0
  154.3014  140.9870  160.8837 H   0  0  0  0  0  0  0  0  0  0  0  0
  152.5900  140.8471  161.2099 H   0  0  0  0  0  0  0  0  0  0  0  0
  153.8797  142.5887  159.0539 H   0  0  0  0  0  0  0  0  0  0  0  0
  152.9757  141.1184  158.7919 H   0  0  0  0  0  0  0  0  0  0  0  0
  150.9316  142.1644  159.6855 H   0  0  0  0  0  0  0  0  0  0  0  0
  151.8334  144.2295  157.6976 H   0  0  0  0  0  0  0  0  0  0  0  0
  152.0256  142.5591  157.2127 H   0  0  0  0  0  0  0  0  0  0  0  0
  149.4883  143.3160  158.3439 H   0  0  0  0  0  0  0  0  0  0  0  0
  150.1556  140.9988  157.5886 H   0  0  0  0  0  0  0  0  0  0  0  0
  148.5819  141.6493  157.1648 H   0  0  0  0  0  0  0  0  0  0  0  0
  150.0864  142.6275  155.0731 H   0  0  0  0  0  0  0  0  0  0  0  0
  151.4106  140.5041  156.1831 H   0  0  0  0  0  0  0  0  0  0  0  0
  147.4037  142.4555  154.9644 H   0  0  0  0  0  0  0  0  0  0  0  0
  145.6562  141.1491  153.7443 H   0  0  0  0  0  0  0  0  0  0  0  0
  148.2016  137.9404  153.1965 H   0  0  0  0  0  0  0  0  0  0  0  0
  150.0714  139.0926  154.3900 H   0  0  0  0  0  0  0  0  0  0  0  0
  149.8442  143.7886  156.8136 H   0  0  0  0  0  0  0  0  0  0  0  0
  1  2  1  0  0  0  0
  1 19  1  0  0  0  0
  1 20  1  0  0  0  0
  1 21  1  0  0  0  0
  2  7  1  0  0  0  0
  2  3  1  0  0  0  0
  2 22  1  0  0  0  0
  3  4  1  0  0  0  0
  3 23  1  0  0  0  0
  3 24  1  0  0  0  0
  4  5  1  0  0  0  0
  4 25  1  0  0  0  0
  4 26  1  0  0  0  0
  5  6  1  0  0  0  0
  5 27  1  0  0  0  0
  5 28  1  0  0  0  0
  6  7  1  0  0  0  0
  6 29  1  0  0  0  0
  6 30  1  0  0  0  0
  7  8  1  0  0  0  0
  7 31  1  0  0  0  0
  8  9  1  0  0  0  0
  8 32  1  0  0  0  0
  8 33  1  0  0  0  0
  9 10  1  0  0  0  0
  9 34  1  0  0  0  0
  9 43  1  0  0  0  0
 10 11  1  0  0  0  0
 10 35  1  0  0  0  0
 10 36  1  0  0  0  0
 11 12  1  0  0  0  0
 11 13  1  0  0  0  0
 11 37  1  0  0  0  0
 12 38  1  0  0  0  0
 13 18  1  0  0  0  0
 13 14  2  0  0  0  0
 14 15  1  0  0  0  0
 14 39  1  0  0  0  0
 15 16  2  0  0  0  0
 15 40  1  0  0  0  0
 16 17  1  0  0  0  0
 17 18  2  0  0  0  0
 17 41  1  0  0  0  0
 18 42  1  0  0  0  0
M  CHG  1   9   1
M  END
> <s_m_source_file>
AV-unprocessed.smi

> <i_m_source_file_index>
3290

> <i_lp_mmshare_version>
43012

> <i_f3d_flags>
0

> <s_epik_input>
W0NIM11bQ0BASF0xW0NIMl1bQ0gyXVtDSDJdW0NIMl1bQ0BIXTFbQ0gyXVtOSF1bQ0gyXVtDQEhdKFtPSF0pYzJbY0hdW2NIXW5bY0hdW2NIXTI=

> <s_epik_cmdline>
J2VwaWtfcHl0aG9uJywgJy1waCcsICc3LjAnLCAnLXRuJywgJzgnLCAnLW1hJywgJzIwMCcsICctbWV0YWxfYmluZGluZycsICctaW1hZScsICc8aW5maWxlLm1hZT4nLCAnLW9tYWUnLCAnPG91dGZpbGUubWFlPic=

> <r_lp_tautomer_probability>
1

> <r_epik_Ionization_Penalty>
0.00420552

> <r_epik_Ionization_Penalty_Charging>
0.00207255

> <r_epik_Ionization_Penalty_Neutral>
0.00213297

> <r_epik_State_Penalty>
-0

> <r_epik_Charging_Adjusted_Penalty>
0.00207255

> <i_epik_Tot_Q>
1

> <i_epik_Tot_abs_Q>
1

> <r_epik_Metal_State_Penalty>
-0

> <b_epik_Metal_Only>
0

> <s_lp_Force_Field>
OPLS_2005

> <r_lp_Energy>
17.3555

> <b_lp_Chiralities_Consistent>
1

> <s_lp_Variant>
AV-unprocessed.smi:3290-8

> <Gold.Version>
5.8.1

> <Gold.Id.Protein>
6NUR|6NUR_protein|mol2

> <Gold.PLP.Fitness>
52.5273

> <Gold.PLP.PLP>
-41.8014

> <Gold.PLP.part.hbond>
-2.0000

> <Gold.PLP.part.metal>
0.0000

> <Gold.PLP.part.buried>
-4.0462

> <Gold.PLP.part.nonpolar>
-36.8346

> <Gold.PLP.part.repulsive>
0.2243

> <Gold.PLP.ligand.clash>
0.0000

> <Gold.PLP.ligand.torsion>
1.5339

> <Gold.PLP.Chemscore.Hbond>
2.5760

> <Gold.PLP.Chemscore.CHOScore>
1.9964

> <Gold.PLP.Chemscore.Metal>
0.0000

> <Gold.Chemscore.Hbonds>
donor molecule, donor type, donor heavy atom, donor atom, acceptor molecule, acceptor atom, score
      L1  H     9    43       P1  8028  2.00
      P1  H  7989  7998       L1    12  0.64
      L1  C    15    40       P1 10175  1.00
      L1  C    17    41       P1  7948  1.00

> <Gold.PLP.Chemscore.Internal.Correction>
0.0766

> <Gold.Rescore>
     Score         DG    S(hbond)    S(metal)    S(lipo)     H(rot)  DE(clash)    DE(int)     intcor
     18.00     -19.37       1.26        0.00     127.71       2.05       0.11       1.26       ----

> <Gold.Chemscore.Fitness>
18.0037

> <Gold.Chemscore.DG>
-19.3671

> <Gold.Chemscore.ZeroCoef>
-5.4800

> <Gold.Chemscore.Hbond>
1.2551

> <Gold.Chemscore.Metal>
0.0000

> <Gold.Chemscore.Lipo>
127.7135

> <Gold.Chemscore.Internal_Hbond>
0.0000

> <Gold.Chemscore.DEClash>
0.1081

> <Gold.Chemscore.DEInternal>
1.2553

> <Gold.Chemscore.Rot>
2.0498

> <Gold.Chemscore.Internal.Correction>
   9.000000E+99

> <Gold.Chemscore.Hbonds>
donor molecule, donor type, donor heavy atom, donor atom, acceptor molecule, acceptor atom, score
      L1  H     9    43       P1  8028  0.98
      P1  H  7989  7998       L1    12  0.38

> <Gold.Chemscore.Hbond.Weighted>
-4.1921

> <Gold.Chemscore.Metal.Weighted>
-0.0000

> <Gold.Chemscore.Lipo.Weighted>
-14.9425

> <Gold.Chemscore.Internal_Hbond.Weighted>
0.0000

> <Gold.Chemscore.DEClash.Weighted>
0.1081

> <Gold.Chemscore.DEInternal.Weighted>
1.2553

> <Gold.Chemscore.Rot.Weighted>
5.2475

> <Gold.Chemscore.Internal.Correction.Weighted>
   9.000000E+99

> <Gold.Protein.RotatedTorsions>
[ 6907 6896 6895 6894 ] final   15.34 input  -60.11 | X-H torsion
[ 7974 7965 7964 7962 ] final -155.07 input  175.53 | X-H torsion
[ 8008 7997 7996 7995 ] final -156.87 input   59.86 | X-H torsion
[ 10167 10162 10161 10158 ] final  149.26 input  -65.29 | X-H torsion
[ 10718 10713 10712 10709 ] final  159.21 input   66.30 | X-H torsion
[ 10763 10752 10751 10750 ] final   22.15 input  -60.55 | X-H torsion
[ 11005 11000 10999 10996 ] final    9.10 input  -57.11 | X-H torsion

> <Gold.Protein.ActiveResidues>
 VAL166  LYS551  ARG553  GLY616  TRP617  ASP618  TYR619  PRO620  LYS621  CYS622 
 ASP623  PHE694  ASN695  SER759  ASP760  ASP761  ALA762  ILE779  LEU786  VAL792 
 PHE793  MET794  SER795  GLU796  ALA797  LYS798  CYS799  TRP800  GLU811  SER814 

> <Gold.Protein.RotatedAtoms>
  151.8165  135.0665  160.0419 H   0  0  0  0  0  0  0  0  0  0  0  0  # atno 6907 bound_to 6896
  152.2982  133.5624  159.5610 H   0  0  0  0  0  0  0  0  0  0  0  0  # atno 6908 bound_to 6896
  150.7261  134.0246  159.3755 H   0  0  0  0  0  0  0  0  0  0  0  0  # atno 6909 bound_to 6896
  144.7658  140.4301  143.5943 H   0  0  0  0  0  0  0  0  0  0  0  0  # atno 7974 bound_to 7965
  155.7238  140.0793  157.2319 H   0  0  0  0  0  0  0  0  0  0  0  0  # atno 8008 bound_to 7997
  154.4041  140.1608  156.2487 H   0  0  0  0  0  0  0  0  0  0  0  0  # atno 8009 bound_to 7997
  155.9171  140.3400  155.6147 H   0  0  0  0  0  0  0  0  0  0  0  0  # atno 8010 bound_to 7997
  139.4864  144.5616  151.7221 H   0  0  0  0  0  0  0  0  0  0  0  0  # atno 10167 bound_to 10162
  157.1674  131.0602  151.2201 H   0  0  0  0  0  0  0  0  0  0  0  0  # atno 10718 bound_to 10713
  153.0938  135.6654  153.9803 H   0  0  0  0  0  0  0  0  0  0  0  0  # atno 10763 bound_to 10752
  153.9392  135.2995  155.3444 H   0  0  0  0  0  0  0  0  0  0  0  0  # atno 10764 bound_to 10752
  154.7355  135.5103  153.9108 H   0  0  0  0  0  0  0  0  0  0  0  0  # atno 10765 bound_to 10752
  140.5296  134.0480  155.7869 H   0  0  0  0  0  0  0  0  0  0  0  0  # atno 11005 bound_to 11000
  145.6474  139.1559  143.2881 LP  0  0  0  0  0  0  0  0  0  0  0  0  # atno 17320 bound_to 7965
  146.1764  140.6566  142.9209 LP  0  0  0  0  0  0  0  0  0  0  0  0  # atno 17321 bound_to 7965
  140.5187  144.0913  150.6016 LP  0  0  0  0  0  0  0  0  0  0  0  0  # atno 17342 bound_to 10162
  140.3864  143.2775  152.0111 LP  0  0  0  0  0  0  0  0  0  0  0  0  # atno 17343 bound_to 10162
  157.4076  130.7367  149.6814 LP  0  0  0  0  0  0  0  0  0  0  0  0  # atno 17370 bound_to 10713
  155.9744  130.4104  150.3928 LP  0  0  0  0  0  0  0  0  0  0  0  0  # atno 17371 bound_to 10713
  141.1289  133.9336  157.2577 LP  0  0  0  0  0  0  0  0  0  0  0  0  # atno 17394 bound_to 11000
  139.9561  135.0165  156.9133 LP  0  0  0  0  0  0  0  0  0  0  0  0  # atno 17395 bound_to 11000

$$$$
