AV-unprocessed.smi:3149|AV-procd|sdf|12005|dock2
  -GOLD-   2272017413D 1   1.00000     0.00000
 Structure written by MMmdl.
 37 38  0  0  0  0  0  0  0  0  1 V2000
  149.2793  139.3914  157.2428 C   0  0  0  0  0  0  0  0  0  0  0  0
  150.2922  140.2189  156.4213 C   0  0  2  0  0  0  0  0  0  0  0  0
  150.1195  141.6380  156.7224 N   0  0  0  0  0  0  0  0  0  0  0  0
  151.3136  142.2625  157.3082 C   0  0  0  0  0  0  0  0  0  0  0  0
  151.1740  142.4394  158.8237 C   0  0  0  0  0  0  0  0  0  0  0  0
  151.2195  141.4597  159.5671 O   0  0  0  0  0  0  0  0  0  0  0  0
  151.0887  143.7415  159.3265 N   0  0  0  0  0  0  0  0  0  0  0  0
  151.5158  144.0578  160.6805 C   0  0  0  0  0  0  0  0  0  0  0  0
  151.8243  145.4568  160.1363 C   0  0  0  0  0  0  0  0  0  0  0  0
  151.8251  144.8463  158.7311 C   0  0  0  0  0  0  0  0  0  0  0  0
  150.1339  140.0259  154.8879 C   0  0  1  0  0  0  0  0  0  0  0  0
  150.3814  138.5707  154.4429 C   0  0  0  0  0  0  0  0  0  0  0  0
  148.8328  140.4772  154.4087 N   0  0  0  0  0  0  0  0  0  0  0  0
  148.3724  141.7718  154.2832 C   0  0  0  0  0  0  0  0  0  0  0  0
  147.0974  141.7079  153.7988 C   0  0  0  0  0  0  0  0  0  0  0  0
  146.8609  140.3129  153.6527 C   0  0  0  0  0  0  0  0  0  0  0  0
  147.8997  139.5793  154.0169 N   0  0  0  0  0  0  0  0  0  0  0  0
  149.3952  138.3224  157.0648 H   0  0  0  0  0  0  0  0  0  0  0  0
  148.2526  139.6578  156.9903 H   0  0  0  0  0  0  0  0  0  0  0  0
  149.4066  139.5363  158.3149 H   0  0  0  0  0  0  0  0  0  0  0  0
  151.3022  139.9112  156.6971 H   0  0  0  0  0  0  0  0  0  0  0  0
  149.3011  141.7729  157.2987 H   0  0  0  0  0  0  0  0  0  0  0  0
  152.1915  141.6491  157.1062 H   0  0  0  0  0  0  0  0  0  0  0  0
  151.4955  143.2359  156.8519 H   0  0  0  0  0  0  0  0  0  0  0  0
  150.7147  144.0218  161.4192 H   0  0  0  0  0  0  0  0  0  0  0  0
  152.4078  143.5129  160.9963 H   0  0  0  0  0  0  0  0  0  0  0  0
  151.0153  146.1720  160.2966 H   0  0  0  0  0  0  0  0  0  0  0  0
  152.7884  145.8575  160.4510 H   0  0  0  0  0  0  0  0  0  0  0  0
  152.8244  144.5735  158.3862 H   0  0  0  0  0  0  0  0  0  0  0  0
  151.2606  145.4111  157.9890 H   0  0  0  0  0  0  0  0  0  0  0  0
  150.8778  140.6513  154.3908 H   0  0  0  0  0  0  0  0  0  0  0  0
  151.4019  138.2550  154.6592 H   0  0  0  0  0  0  0  0  0  0  0  0
  150.2313  138.4590  153.3688 H   0  0  0  0  0  0  0  0  0  0  0  0
  149.7075  137.8770  154.9467 H   0  0  0  0  0  0  0  0  0  0  0  0
  148.9831  142.6222  154.5487 H   0  0  0  0  0  0  0  0  0  0  0  0
  146.4345  142.5322  153.5812 H   0  0  0  0  0  0  0  0  0  0  0  0
  145.9716  139.8152  153.2952 H   0  0  0  0  0  0  0  0  0  0  0  0
  1  2  1  0  0  0  0
  1 18  1  0  0  0  0
  1 19  1  0  0  0  0
  1 20  1  0  0  0  0
  2  3  1  0  0  0  0
  2 11  1  0  0  0  0
  2 21  1  0  0  0  0
  3  4  1  0  0  0  0
  3 22  1  0  0  0  0
  4  5  1  0  0  0  0
  4 23  1  0  0  0  0
  4 24  1  0  0  0  0
  5  6  2  0  0  0  0
  5  7  1  0  0  0  0
  7 10  1  0  0  0  0
  7  8  1  0  0  0  0
  8  9  1  0  0  0  0
  8 25  1  0  0  0  0
  8 26  1  0  0  0  0
  9 10  1  0  0  0  0
  9 27  1  0  0  0  0
  9 28  1  0  0  0  0
 10 29  1  0  0  0  0
 10 30  1  0  0  0  0
 11 12  1  0  0  0  0
 11 13  1  0  0  0  0
 11 31  1  0  0  0  0
 12 32  1  0  0  0  0
 12 33  1  0  0  0  0
 12 34  1  0  0  0  0
 13 17  1  0  0  0  0
 13 14  1  0  0  0  0
 14 15  2  0  0  0  0
 14 35  1  0  0  0  0
 15 16  1  0  0  0  0
 15 36  1  0  0  0  0
 16 17  2  0  0  0  0
 16 37  1  0  0  0  0
M  END
> <s_m_source_file>
AV-unprocessed.smi

> <i_m_source_file_index>
3149

> <i_lp_mmshare_version>
43012

> <i_f3d_flags>
0

> <s_epik_input>
bjFbY0hdW2NIXVtjSF1uMVtDQEBIXShbQ0gzXSlbQ0BIXShbQ0gzXSlbTkhdW0NIMl1DKD1PKU4yW0NIMl1bQ0gyXVtDSDJdMg==

> <s_epik_cmdline>
J2VwaWtfcHl0aG9uJywgJy1waCcsICc3LjAnLCAnLXRuJywgJzgnLCAnLW1hJywgJzIwMCcsICctbWV0YWxfYmluZGluZycsICctaW1hZScsICc8aW5maWxlLm1hZT4nLCAnLW9tYWUnLCAnPG91dGZpbGUubWFlPic=

> <r_lp_tautomer_probability>
1

> <r_epik_Ionization_Penalty>
0.918674

> <r_epik_Ionization_Penalty_Charging>
0

> <r_epik_Ionization_Penalty_Neutral>
0.918674

> <r_epik_State_Penalty>
0.958258

> <r_epik_Charging_Adjusted_Penalty>
0.958258

> <i_epik_Tot_Q>
0

> <i_epik_Tot_abs_Q>
0

> <r_epik_Metal_State_Penalty>
0.956881

> <b_epik_Metal_Only>
0

> <s_lp_Force_Field>
OPLS_2005

> <r_lp_Energy>
23.4504

> <b_lp_Chiralities_Consistent>
1

> <s_lp_Variant>
AV-unprocessed.smi:3149-7

> <Gold.Version>
5.8.1

> <Gold.Id.Protein>
6NUR|6NUR_protein|mol2

> <Gold.PLP.Fitness>
41.2138

> <Gold.PLP.PLP>
-38.0798

> <Gold.PLP.part.hbond>
-0.7576

> <Gold.PLP.part.metal>
0.0000

> <Gold.PLP.part.buried>
-5.2214

> <Gold.PLP.part.nonpolar>
-32.5641

> <Gold.PLP.part.repulsive>
0.1513

> <Gold.PLP.ligand.clash>
0.0000

> <Gold.PLP.ligand.torsion>
1.9207

> <Gold.PLP.Chemscore.Hbond>
0.0000

> <Gold.PLP.Chemscore.CHOScore>
1.9986

> <Gold.PLP.Chemscore.Metal>
0.0000

> <Gold.Chemscore.Hbonds>
donor molecule, donor type, donor heavy atom, donor atom, acceptor molecule, acceptor atom, score
      L1  C    14    35       P1  8028  1.00
      L1  C    16    37       P1 10175  1.00

> <Gold.PLP.Chemscore.Internal.Correction>
0.9795

> <Gold.Rescore>
     Score         DG    S(hbond)    S(metal)    S(lipo)     H(rot)  DE(clash)    DE(int)     intcor
      9.11     -11.16       0.00        0.00      87.70       1.79       0.16       1.90       ----

> <Gold.Chemscore.Fitness>
9.1051

> <Gold.Chemscore.DG>
-11.1648

> <Gold.Chemscore.ZeroCoef>
-5.4800

> <Gold.Chemscore.Hbond>
0.0000

> <Gold.Chemscore.Metal>
0.0000

> <Gold.Chemscore.Lipo>
87.6977

> <Gold.Chemscore.Internal_Hbond>
0.0000

> <Gold.Chemscore.DEClash>
0.1580

> <Gold.Chemscore.DEInternal>
1.9016

> <Gold.Chemscore.Rot>
1.7874

> <Gold.Chemscore.Internal.Correction>
   9.000000E+99

> <Gold.Chemscore.Hbond.Weighted>
-0.0000

> <Gold.Chemscore.Metal.Weighted>
-0.0000

> <Gold.Chemscore.Lipo.Weighted>
-10.2606

> <Gold.Chemscore.Internal_Hbond.Weighted>
0.0000

> <Gold.Chemscore.DEClash.Weighted>
0.1580

> <Gold.Chemscore.DEInternal.Weighted>
1.9016

> <Gold.Chemscore.Rot.Weighted>
4.5758

> <Gold.Chemscore.Internal.Correction.Weighted>
   9.000000E+99

> <Gold.Protein.RotatedTorsions>
[ 6907 6896 6895 6894 ] final  -40.21 input  -60.11 | X-H torsion
[ 7974 7965 7964 7962 ] final  -54.06 input  175.53 | X-H torsion
[ 8008 7997 7996 7995 ] final -172.81 input   59.86 | X-H torsion
[ 10167 10162 10161 10158 ] final -125.00 input  -65.29 | X-H torsion
[ 10718 10713 10712 10709 ] final -169.03 input   66.30 | X-H torsion
[ 10763 10752 10751 10750 ] final  -92.16 input  -60.55 | X-H torsion
[ 11005 11000 10999 10996 ] final   99.39 input  -57.11 | X-H torsion

> <Gold.Protein.ActiveResidues>
 VAL166  LYS551  ARG553  GLY616  TRP617  ASP618  TYR619  PRO620  LYS621  CYS622 
 ASP623  PHE694  ASN695  SER759  ASP760  ASP761  ALA762  ILE779  LEU786  VAL792 
 PHE793  MET794  SER795  GLU796  ALA797  LYS798  CYS799  TRP800  GLU811  SER814 

> <Gold.Protein.RotatedAtoms>
  150.9812  134.9167  159.7844 H   0  0  0  0  0  0  0  0  0  0  0  0  # atno 6907 bound_to 6896
  152.5222  134.3408  159.9226 H   0  0  0  0  0  0  0  0  0  0  0  0  # atno 6908 bound_to 6896
  151.3415  133.3919  159.2706 H   0  0  0  0  0  0  0  0  0  0  0  0  # atno 6909 bound_to 6896
  145.8898  140.8079  142.9797 H   0  0  0  0  0  0  0  0  0  0  0  0  # atno 7974 bound_to 7965
  155.9493  140.1123  157.0990 H   0  0  0  0  0  0  0  0  0  0  0  0  # atno 8008 bound_to 7997
  154.4106  140.1203  156.5098 H   0  0  0  0  0  0  0  0  0  0  0  0  # atno 8009 bound_to 7997
  155.6862  140.3473  155.4877 H   0  0  0  0  0  0  0  0  0  0  0  0  # atno 8010 bound_to 7997
  139.9868  143.5683  152.2357 H   0  0  0  0  0  0  0  0  0  0  0  0  # atno 10167 bound_to 10162
  156.7056  130.9213  151.3084 H   0  0  0  0  0  0  0  0  0  0  0  0  # atno 10718 bound_to 10713
  154.6833  135.5241  153.8292 H   0  0  0  0  0  0  0  0  0  0  0  0  # atno 10763 bound_to 10752
  153.0580  135.6557  154.0541 H   0  0  0  0  0  0  0  0  0  0  0  0  # atno 10764 bound_to 10752
  154.0425  135.2976  155.3332 H   0  0  0  0  0  0  0  0  0  0  0  0  # atno 10765 bound_to 10752
  139.8771  134.9093  156.4599 H   0  0  0  0  0  0  0  0  0  0  0  0  # atno 11005 bound_to 11000
  144.6730  140.1512  143.7430 LP  0  0  0  0  0  0  0  0  0  0  0  0  # atno 17320 bound_to 7965
  145.8922  139.2382  143.1543 LP  0  0  0  0  0  0  0  0  0  0  0  0  # atno 17321 bound_to 7965
  139.6369  144.7651  151.2419 LP  0  0  0  0  0  0  0  0  0  0  0  0  # atno 17342 bound_to 10162
  140.7469  143.6383  150.8358 LP  0  0  0  0  0  0  0  0  0  0  0  0  # atno 17343 bound_to 10162
  157.6956  130.9278  150.0635 LP  0  0  0  0  0  0  0  0  0  0  0  0  # atno 17370 bound_to 10713
  156.1697  130.3646  149.9182 LP  0  0  0  0  0  0  0  0  0  0  0  0  # atno 17371 bound_to 10713
  140.8871  133.7875  155.9530 LP  0  0  0  0  0  0  0  0  0  0  0  0  # atno 17394 bound_to 11000
  140.8793  134.2631  157.5152 LP  0  0  0  0  0  0  0  0  0  0  0  0  # atno 17395 bound_to 11000

$$$$
