AV-unprocessed.smi:862|AV-procd|sdf|3978|dock3
  -GOLD-   22720 1453D 1   1.00000     0.00000
 Structure written by MMmdl.
 44 46  0  0  0  0  0  0  0  0  2 V2000
  144.8625  143.5486  153.1696 N   0  0  0  0  0  0  0  0  0  0  0  0
  144.8141  143.0686  154.4158 C   0  0  0  0  0  0  0  0  0  0  0  0
  144.0590  143.5589  155.2534 O   0  0  0  0  0  0  0  0  0  0  0  0
  145.6149  142.0001  154.6571 N   0  0  0  0  0  0  0  0  0  0  0  0
  146.5520  141.3844  153.7029 C   0  0  0  0  0  0  0  0  0  0  0  0
  147.9875  141.7945  154.0807 C   0  0  0  0  0  0  0  0  0  0  0  0
  148.3165  141.4026  155.5405 C   0  0  0  0  0  0  0  0  0  0  0  0
  149.6295  141.9363  155.9659 N   0  3  0  0  0  0  0  0  0  0  0  0
  150.1329  141.4690  157.2799 C   0  0  2  0  0  0  0  0  0  0  0  0
  151.3800  142.2188  157.7625 C   0  0  0  0  0  0  0  0  0  0  0  0
  152.0563  141.2706  158.7620 C   0  0  0  0  0  0  0  0  0  0  0  0
  151.4566  139.8738  158.5223 C   0  0  0  0  0  0  0  0  0  0  0  0
  150.5506  139.9866  157.2845 C   0  0  2  0  0  0  0  0  0  0  0  0
  151.2286  139.5693  156.0581 N   0  0  0  0  0  0  0  0  0  0  0  0
  150.8793  138.5528  155.1732 C   0  0  0  0  0  0  0  0  0  0  0  0
  151.8486  138.5251  154.1966 C   0  0  0  0  0  0  0  0  0  0  0  0
  152.8071  139.4983  154.4621 N   0  0  0  0  0  0  0  0  0  0  0  0
  152.3733  140.0742  155.5748 C   0  0  0  0  0  0  0  0  0  0  0  0
  147.2162  141.8978  156.5023 C   0  0  0  0  0  0  0  0  0  0  0  0
  145.8190  141.4768  156.0131 C   0  0  0  0  0  0  0  0  0  0  0  0
  144.2828  144.3355  152.9154 H   0  0  0  0  0  0  0  0  0  0  0  0
  145.4657  143.1183  152.4845 H   0  0  0  0  0  0  0  0  0  0  0  0
  146.4499  140.2994  153.7517 H   0  0  0  0  0  0  0  0  0  0  0  0
  146.3569  141.6452  152.6628 H   0  0  0  0  0  0  0  0  0  0  0  0
  148.6868  141.3251  153.3890 H   0  0  0  0  0  0  0  0  0  0  0  0
  148.0999  142.8721  153.9514 H   0  0  0  0  0  0  0  0  0  0  0  0
  148.3407  140.3146  155.6113 H   0  0  0  0  0  0  0  0  0  0  0  0
  150.3066  141.6980  155.2553 H   0  0  0  0  0  0  0  0  0  0  0  0
  149.3479  141.5864  158.0273 H   0  0  0  0  0  0  0  0  0  0  0  0
  152.0534  142.4104  156.9261 H   0  0  0  0  0  0  0  0  0  0  0  0
  151.1393  143.1820  158.2135 H   0  0  0  0  0  0  0  0  0  0  0  0
  153.1379  141.2702  158.6236 H   0  0  0  0  0  0  0  0  0  0  0  0
  151.8627  141.5892  159.7870 H   0  0  0  0  0  0  0  0  0  0  0  0
  152.2227  139.1043  158.4190 H   0  0  0  0  0  0  0  0  0  0  0  0
  150.8508  139.5966  159.3860 H   0  0  0  0  0  0  0  0  0  0  0  0
  149.6739  139.3480  157.4057 H   0  0  0  0  0  0  0  0  0  0  0  0
  149.9941  137.9476  155.2992 H   0  0  0  0  0  0  0  0  0  0  0  0
  151.9320  137.8807  153.3339 H   0  0  0  0  0  0  0  0  0  0  0  0
  152.9084  140.8798  156.0559 H   0  0  0  0  0  0  0  0  0  0  0  0
  147.3907  141.5047  157.5046 H   0  0  0  0  0  0  0  0  0  0  0  0
  147.2547  142.9852  156.5853 H   0  0  0  0  0  0  0  0  0  0  0  0
  145.0569  141.8202  156.7143 H   0  0  0  0  0  0  0  0  0  0  0  0
  145.7367  140.3890  155.9986 H   0  0  0  0  0  0  0  0  0  0  0  0
  149.5614  142.9432  156.0112 H   0  0  0  0  0  0  0  0  0  0  0  0
  1  2  1  0  0  0  0
  1 21  1  0  0  0  0
  1 22  1  0  0  0  0
  2  3  2  0  0  0  0
  2  4  1  0  0  0  0
  4 20  1  0  0  0  0
  4  5  1  0  0  0  0
  5  6  1  0  0  0  0
  5 23  1  0  0  0  0
  5 24  1  0  0  0  0
  6  7  1  0  0  0  0
  6 25  1  0  0  0  0
  6 26  1  0  0  0  0
  7  8  1  0  0  0  0
  7 19  1  0  0  0  0
  7 27  1  0  0  0  0
  8  9  1  0  0  0  0
  8 28  1  0  0  0  0
  8 44  1  0  0  0  0
  9 13  1  0  0  0  0
  9 10  1  0  0  0  0
  9 29  1  0  0  0  0
 10 11  1  0  0  0  0
 10 30  1  0  0  0  0
 10 31  1  0  0  0  0
 11 12  1  0  0  0  0
 11 32  1  0  0  0  0
 11 33  1  0  0  0  0
 12 13  1  0  0  0  0
 12 34  1  0  0  0  0
 12 35  1  0  0  0  0
 13 14  1  0  0  0  0
 13 36  1  0  0  0  0
 14 18  1  0  0  0  0
 14 15  1  0  0  0  0
 15 16  2  0  0  0  0
 15 37  1  0  0  0  0
 16 17  1  0  0  0  0
 16 38  1  0  0  0  0
 17 18  2  0  0  0  0
 18 39  1  0  0  0  0
 19 20  1  0  0  0  0
 19 40  1  0  0  0  0
 19 41  1  0  0  0  0
 20 42  1  0  0  0  0
 20 43  1  0  0  0  0
M  CHG  1   8   1
M  END
> <s_m_source_file>
AV-unprocessed.smi

> <i_m_source_file_index>
862

> <i_lp_mmshare_version>
43012

> <i_f3d_flags>
0

> <s_epik_input>
W05IMl1DKD1PKU4xW0NIMl1bQ0gyXVtDSF0oW0NIMl1bQ0gyXTEpW05IXVtDQEBIXTJbQ0gyXVtDSDJdW0NIMl1bQ0BIXTJuM1tjSF1bY0hdbltjSF0z

> <s_epik_cmdline>
J2VwaWtfcHl0aG9uJywgJy1waCcsICc3LjAnLCAnLXRuJywgJzgnLCAnLW1hJywgJzIwMCcsICctbWV0YWxfYmluZGluZycsICctaW1hZScsICc8aW5maWxlLm1hZT4nLCAnLW9tYWUnLCAnPG91dGZpbGUubWFlPic=

> <r_lp_tautomer_probability>
1

> <r_epik_Ionization_Penalty>
0.0731506

> <r_epik_Ionization_Penalty_Charging>
0.0731

> <r_epik_Ionization_Penalty_Neutral>
5.05966e-05

> <r_epik_State_Penalty>
0.128895

> <r_epik_Charging_Adjusted_Penalty>
0.201995

> <i_epik_Tot_Q>
1

> <i_epik_Tot_abs_Q>
1

> <r_epik_Metal_State_Penalty>
0.113934

> <b_epik_Metal_Only>
0

> <s_lp_Force_Field>
OPLS_2005

> <r_lp_Energy>
57.2527

> <b_lp_Chiralities_Consistent>
1

> <s_lp_Variant>
AV-unprocessed.smi:862-3

> <Gold.Version>
5.8.1

> <Gold.Id.Protein>
6NUR|6NUR_protein|mol2

> <Gold.PLP.Fitness>
43.2246

> <Gold.PLP.PLP>
-34.1281

> <Gold.PLP.part.hbond>
-2.8144

> <Gold.PLP.part.metal>
0.0000

> <Gold.PLP.part.buried>
-2.2254

> <Gold.PLP.part.nonpolar>
-28.3913

> <Gold.PLP.part.repulsive>
0.4270

> <Gold.PLP.ligand.clash>
0.0000

> <Gold.PLP.ligand.torsion>
0.0994

> <Gold.PLP.Chemscore.Hbond>
2.0768

> <Gold.PLP.Chemscore.CHOScore>
1.0000

> <Gold.PLP.Chemscore.Metal>
0.0000

> <Gold.Chemscore.Hbonds>
donor molecule, donor type, donor heavy atom, donor atom, acceptor molecule, acceptor atom, score
      L1  H     8    44       P1  8028  2.00
      P1  H  7989  7998       L1    17  0.07
      L1  C    16    38       P1  7949  0.47

> <Gold.PLP.Chemscore.Internal.Correction>
0.0648

> <Gold.Rescore>
     Score         DG    S(hbond)    S(metal)    S(lipo)     H(rot)  DE(clash)    DE(int)     intcor
     12.25     -12.47       0.97        0.00      67.94       1.64       0.09       0.13       ----

> <Gold.Chemscore.Fitness>
12.2468

> <Gold.Chemscore.DG>
-12.4662

> <Gold.Chemscore.ZeroCoef>
-5.4800

> <Gold.Chemscore.Hbond>
0.9697

> <Gold.Chemscore.Metal>
0.0000

> <Gold.Chemscore.Lipo>
67.9386

> <Gold.Chemscore.Internal_Hbond>
0.0000

> <Gold.Chemscore.DEClash>
0.0910

> <Gold.Chemscore.DEInternal>
0.1283

> <Gold.Chemscore.Rot>
1.6411

> <Gold.Chemscore.Internal.Correction>
   9.000000E+99

> <Gold.Chemscore.Hbonds>
donor molecule, donor type, donor heavy atom, donor atom, acceptor molecule, acceptor atom, score
      L1  H     8    44       P1  8028  0.99

> <Gold.Chemscore.Hbond.Weighted>
-3.2387

> <Gold.Chemscore.Metal.Weighted>
-0.0000

> <Gold.Chemscore.Lipo.Weighted>
-7.9488

> <Gold.Chemscore.Internal_Hbond.Weighted>
0.0000

> <Gold.Chemscore.DEClash.Weighted>
0.0910

> <Gold.Chemscore.DEInternal.Weighted>
0.1283

> <Gold.Chemscore.Rot.Weighted>
4.2013

> <Gold.Chemscore.Internal.Correction.Weighted>
   9.000000E+99

> <Gold.Protein.RotatedTorsions>
[ 6907 6896 6895 6894 ] final  -99.48 input  -60.11 | X-H torsion
[ 7974 7965 7964 7962 ] final  104.16 input  175.53 | X-H torsion
[ 8008 7997 7996 7995 ] final -124.93 input   59.86 | X-H torsion
[ 10167 10162 10161 10158 ] final   95.89 input  -65.29 | X-H torsion
[ 10718 10713 10712 10709 ] final -164.75 input   66.30 | X-H torsion
[ 10763 10752 10751 10750 ] final -167.89 input  -60.55 | X-H torsion
[ 11005 11000 10999 10996 ] final   36.12 input  -57.11 | X-H torsion

> <Gold.Protein.ActiveResidues>
 VAL166  LYS551  ARG553  GLY616  TRP617  ASP618  TYR619  PRO620  LYS621  CYS622 
 ASP623  PHE694  ASN695  SER759  ASP760  ASP761  ALA762  ILE779  LEU786  VAL792 
 PHE793  MET794  SER795  GLU796  ALA797  LYS798  CYS799  TRP800  GLU811  SER814 

> <Gold.Protein.RotatedAtoms>
  150.7081  134.1034  159.3973 H   0  0  0  0  0  0  0  0  0  0  0  0  # atno 6907 bound_to 6896
  151.9020  135.0372  160.0516 H   0  0  0  0  0  0  0  0  0  0  0  0  # atno 6908 bound_to 6896
  152.2406  133.5097  159.5304 H   0  0  0  0  0  0  0  0  0  0  0  0  # atno 6909 bound_to 6896
  145.3364  139.2473  143.3633 H   0  0  0  0  0  0  0  0  0  0  0  0  # atno 7974 bound_to 7965
  155.2050  140.0417  157.2924 H   0  0  0  0  0  0  0  0  0  0  0  0  # atno 8008 bound_to 7997
  154.6049  140.2462  155.7715 H   0  0  0  0  0  0  0  0  0  0  0  0  # atno 8009 bound_to 7997
  156.2344  140.2927  156.0282 H   0  0  0  0  0  0  0  0  0  0  0  0  # atno 8010 bound_to 7997
  139.7945  144.6838  150.9847 H   0  0  0  0  0  0  0  0  0  0  0  0  # atno 10167 bound_to 10162
  156.6436  130.8978  151.3000 H   0  0  0  0  0  0  0  0  0  0  0  0  # atno 10718 bound_to 10713
  154.6685  135.2935  154.9774 H   0  0  0  0  0  0  0  0  0  0  0  0  # atno 10763 bound_to 10752
  154.0809  135.6604  153.4841 H   0  0  0  0  0  0  0  0  0  0  0  0  # atno 10764 bound_to 10752
  153.0472  135.5197  154.7669 H   0  0  0  0  0  0  0  0  0  0  0  0  # atno 10765 bound_to 10752
  140.2357  134.3474  155.7945 H   0  0  0  0  0  0  0  0  0  0  0  0  # atno 11005 bound_to 11000
  146.3025  140.3952  142.8699 LP  0  0  0  0  0  0  0  0  0  0  0  0  # atno 17320 bound_to 7965
  144.8824  140.7418  143.5978 LP  0  0  0  0  0  0  0  0  0  0  0  0  # atno 17321 bound_to 7965
  140.7820  143.4345  151.0644 LP  0  0  0  0  0  0  0  0  0  0  0  0  # atno 17342 bound_to 10162
  139.8020  143.8070  152.3164 LP  0  0  0  0  0  0  0  0  0  0  0  0  # atno 17343 bound_to 10162
  157.7163  130.9502  150.1269 LP  0  0  0  0  0  0  0  0  0  0  0  0  # atno 17370 bound_to 10713
  156.2140  130.3669  149.8636 LP  0  0  0  0  0  0  0  0  0  0  0  0  # atno 17371 bound_to 10713
  141.2214  133.7270  156.8804 LP  0  0  0  0  0  0  0  0  0  0  0  0  # atno 17394 bound_to 11000
  140.1704  134.9104  157.2826 LP  0  0  0  0  0  0  0  0  0  0  0  0  # atno 17395 bound_to 11000

$$$$
