AV-unprocessed.smi:1231|AV-procd|sdf|5166|dock7
  -GOLD-   22720 4243D 1   1.00000     0.00000
 Structure written by MMmdl.
 43 44  0  0  0  0  0  0  0  0  2 V2000
  151.7058  137.7651  154.0055 C   0  0  0  0  0  0  0  0  0  0  0  0
  150.8201  138.6586  154.8922 C   0  0  1  0  0  0  0  0  0  0  0  0
  149.8043  139.5024  154.0970 C   0  0  0  0  0  0  0  0  0  0  0  0
  148.6899  138.6665  153.5909 N   0  3  2  0  0  0  0  0  0  0  0  0
  147.7269  139.4436  152.7722 C   0  0  0  0  0  0  0  0  0  0  0  0
  146.4066  138.6832  152.5423 C   0  0  0  0  0  0  0  0  0  0  0  0
  146.6457  137.3287  152.0577 N   0  0  0  0  0  0  0  0  0  0  0  0
  145.6868  136.4211  151.8233 C   0  0  0  0  0  0  0  0  0  0  0  0
  144.4879  136.6480  151.9911 O   0  0  0  0  0  0  0  0  0  0  0  0
  146.2080  135.2596  151.3907 N   0  0  0  0  0  0  0  0  0  0  0  0
  145.5202  134.0723  151.0235 C   0  0  0  0  0  0  0  0  0  0  0  0
  146.3482  133.0061  150.6049 C   0  0  0  0  0  0  0  0  0  0  0  0
  145.7628  131.7842  150.2202 C   0  0  0  0  0  0  0  0  0  0  0  0
  144.3627  131.6608  150.2621 C   0  0  0  0  0  0  0  0  0  0  0  0
  143.6112  132.7713  150.6891 C   0  0  0  0  0  0  0  0  0  0  0  0
  144.1703  133.9430  151.0592 N   0  0  0  0  0  0  0  0  0  0  0  0
  148.0539  137.9279  154.7083 C   0  0  0  0  0  0  0  0  0  0  0  0
  149.0982  137.0769  155.4528 C   0  0  2  0  0  0  0  0  0  0  0  0
  148.4973  136.3650  156.6698 C   0  0  0  0  0  0  0  0  0  0  0  0
  150.1535  137.9168  155.9135 O   0  0  0  0  0  0  0  0  0  0  0  0
  152.3019  138.3700  153.3217 H   0  0  0  0  0  0  0  0  0  0  0  0
  151.1223  137.0729  153.3993 H   0  0  0  0  0  0  0  0  0  0  0  0
  152.3969  137.1791  154.6119 H   0  0  0  0  0  0  0  0  0  0  0  0
  151.4887  139.3476  155.4091 H   0  0  0  0  0  0  0  0  0  0  0  0
  149.3964  140.2851  154.7390 H   0  0  0  0  0  0  0  0  0  0  0  0
  150.3066  140.0042  153.2689 H   0  0  0  0  0  0  0  0  0  0  0  0
  147.5502  140.4134  153.2401 H   0  0  0  0  0  0  0  0  0  0  0  0
  148.1706  139.6500  151.7968 H   0  0  0  0  0  0  0  0  0  0  0  0
  145.8500  138.6153  153.4773 H   0  0  0  0  0  0  0  0  0  0  0  0
  145.7615  139.2047  151.8348 H   0  0  0  0  0  0  0  0  0  0  0  0
  147.6063  137.0620  151.8970 H   0  0  0  0  0  0  0  0  0  0  0  0
  147.2134  135.2186  151.3138 H   0  0  0  0  0  0  0  0  0  0  0  0
  147.4226  133.1175  150.5790 H   0  0  0  0  0  0  0  0  0  0  0  0
  146.3782  130.9568  149.8992 H   0  0  0  0  0  0  0  0  0  0  0  0
  143.8770  130.7399  149.9750 H   0  0  0  0  0  0  0  0  0  0  0  0
  142.5336  132.7184  150.7344 H   0  0  0  0  0  0  0  0  0  0  0  0
  147.5855  138.6364  155.3938 H   0  0  0  0  0  0  0  0  0  0  0  0
  147.2631  137.2784  154.3345 H   0  0  0  0  0  0  0  0  0  0  0  0
  149.4978  136.3169  154.7809 H   0  0  0  0  0  0  0  0  0  0  0  0
  147.6928  135.6914  156.3737 H   0  0  0  0  0  0  0  0  0  0  0  0
  148.0885  137.0803  157.3844 H   0  0  0  0  0  0  0  0  0  0  0  0
  149.2529  135.7727  157.1869 H   0  0  0  0  0  0  0  0  0  0  0  0
  149.1048  137.9804  152.9767 H   0  0  0  0  0  0  0  0  0  0  0  0
  1  2  1  0  0  0  0
  1 21  1  0  0  0  0
  1 22  1  0  0  0  0
  1 23  1  0  0  0  0
  2 20  1  0  0  0  0
  2  3  1  0  0  0  0
  2 24  1  0  0  0  0
  3  4  1  0  0  0  0
  3 25  1  0  0  0  0
  3 26  1  0  0  0  0
  4  5  1  0  0  0  0
  4 17  1  0  0  0  0
  4 43  1  0  0  0  0
  5  6  1  0  0  0  0
  5 27  1  0  0  0  0
  5 28  1  0  0  0  0
  6  7  1  0  0  0  0
  6 29  1  0  0  0  0
  6 30  1  0  0  0  0
  7  8  1  0  0  0  0
  7 31  1  0  0  0  0
  8  9  2  0  0  0  0
  8 10  1  0  0  0  0
 10 11  1  0  0  0  0
 10 32  1  0  0  0  0
 11 16  1  0  0  0  0
 11 12  2  0  0  0  0
 12 13  1  0  0  0  0
 12 33  1  0  0  0  0
 13 14  2  0  0  0  0
 13 34  1  0  0  0  0
 14 15  1  0  0  0  0
 14 35  1  0  0  0  0
 15 16  2  0  0  0  0
 15 36  1  0  0  0  0
 17 18  1  0  0  0  0
 17 37  1  0  0  0  0
 17 38  1  0  0  0  0
 18 19  1  0  0  0  0
 18 20  1  0  0  0  0
 18 39  1  0  0  0  0
 19 40  1  0  0  0  0
 19 41  1  0  0  0  0
 19 42  1  0  0  0  0
M  CHG  1   4   1
M  END
> <s_m_source_file>
AV-unprocessed.smi

> <i_m_source_file_index>
1231

> <i_lp_mmshare_version>
43012

> <i_f3d_flags>
0

> <s_epik_input>
W0NIM11bQ0BASF0xW0NIMl1OKFtDSDJdW0NASF0oTzEpW0NIM10pW0NIMl1bQ0gyXVtOSF1DKD1PKVtOSF1jMltjSF1bY0hdW2NIXVtjSF1uMg==

> <s_epik_cmdline>
J2VwaWtfcHl0aG9uJywgJy1waCcsICc3LjAnLCAnLXRuJywgJzgnLCAnLW1hJywgJzIwMCcsICctbWV0YWxfYmluZGluZycsICctaW1hZScsICc8aW5maWxlLm1hZT4nLCAnLW9tYWUnLCAnPG91dGZpbGUubWFlPic=

> <r_epik_Ionization_Penalty>
0.602565

> <r_epik_Ionization_Penalty_Charging>
0.602531

> <r_epik_Ionization_Penalty_Neutral>
3.43186e-05

> <r_epik_State_Penalty>
0.617039

> <r_epik_Charging_Adjusted_Penalty>
1.21957

> <i_epik_Tot_Q>
1

> <i_epik_Tot_abs_Q>
1

> <r_epik_Metal_State_Penalty>
0.617041

> <b_epik_Metal_Only>
0

> <s_lp_Force_Field>
OPLS_2005

> <r_lp_Energy>
18.3102

> <b_lp_Chiralities_Consistent>
1

> <s_lp_Variant>
AV-unprocessed.smi:1231-7

> <Gold.Version>
5.8.1

> <Gold.Id.Protein>
6NUR|6NUR_protein|mol2

> <Gold.PLP.Fitness>
43.6298

> <Gold.PLP.PLP>
-30.0117

> <Gold.PLP.part.hbond>
-4.0000

> <Gold.PLP.part.metal>
0.0000

> <Gold.PLP.part.buried>
1.2082

> <Gold.PLP.part.nonpolar>
-29.9007

> <Gold.PLP.part.repulsive>
1.4347

> <Gold.PLP.ligand.clash>
0.0000

> <Gold.PLP.ligand.torsion>
0.1739

> <Gold.PLP.Chemscore.Hbond>
3.7650

> <Gold.PLP.Chemscore.CHOScore>
0.8869

> <Gold.PLP.Chemscore.Metal>
0.0000

> <Gold.Chemscore.Hbonds>
donor molecule, donor type, donor heavy atom, donor atom, acceptor molecule, acceptor atom, score
      L1  H     4    43       P1  7948  1.92
      L1  H     7    31       P1  7948  1.00
      L1  H    10    32       P1  7948  0.87
      L1  C    15    36       P1 10186  0.78

> <Gold.PLP.Chemscore.Internal.Correction>
0.0100

> <Gold.Rescore>
     Score         DG    S(hbond)    S(metal)    S(lipo)     H(rot)  DE(clash)    DE(int)     intcor
     16.37     -19.87       2.59        0.00      82.95       1.55       2.07       1.42       ----

> <Gold.Chemscore.Fitness>
16.3736

> <Gold.Chemscore.DG>
-19.8652

> <Gold.Chemscore.ZeroCoef>
-5.4800

> <Gold.Chemscore.Hbond>
2.5927

> <Gold.Chemscore.Metal>
0.0000

> <Gold.Chemscore.Lipo>
82.9490

> <Gold.Chemscore.Internal_Hbond>
0.0000

> <Gold.Chemscore.DEClash>
2.0725

> <Gold.Chemscore.DEInternal>
1.4190

> <Gold.Chemscore.Rot>
1.5546

> <Gold.Chemscore.Internal.Correction>
   9.000000E+99

> <Gold.Chemscore.Hbonds>
donor molecule, donor type, donor heavy atom, donor atom, acceptor molecule, acceptor atom, score
      L1  H     4    43       P1  7948  0.86
      L1  H     7    31       P1  7948  0.96
      L1  H    10    32       P1  7948  0.63

> <Gold.Chemscore.Hbond.Weighted>
-8.6598

> <Gold.Chemscore.Metal.Weighted>
-0.0000

> <Gold.Chemscore.Lipo.Weighted>
-9.7050

> <Gold.Chemscore.Internal_Hbond.Weighted>
0.0000

> <Gold.Chemscore.DEClash.Weighted>
2.0725

> <Gold.Chemscore.DEInternal.Weighted>
1.4190

> <Gold.Chemscore.Rot.Weighted>
3.9797

> <Gold.Chemscore.Internal.Correction.Weighted>
   9.000000E+99

> <Gold.Protein.RotatedTorsions>
[ 6907 6896 6895 6894 ] final   -6.38 input  -60.11 | X-H torsion
[ 7974 7965 7964 7962 ] final  -28.86 input  175.53 | X-H torsion
[ 8008 7997 7996 7995 ] final  158.63 input   59.86 | X-H torsion
[ 10167 10162 10161 10158 ] final  -17.44 input  -65.29 | X-H torsion
[ 10718 10713 10712 10709 ] final  108.60 input   66.30 | X-H torsion
[ 10763 10752 10751 10750 ] final -106.14 input  -60.55 | X-H torsion
[ 11005 11000 10999 10996 ] final   -0.20 input  -57.11 | X-H torsion

> <Gold.Protein.ActiveResidues>
 VAL166  LYS551  ARG553  GLY616  TRP617  ASP618  TYR619  PRO620  LYS621  CYS622 
 ASP623  PHE694  ASN695  SER759  ASP760  ASP761  ALA762  ILE779  LEU786  VAL792 
 PHE793  MET794  SER795  GLU796  ALA797  LYS798  CYS799  TRP800  GLU811  SER814 

> <Gold.Protein.RotatedAtoms>
  151.4665  135.1042  159.9739 H   0  0  0  0  0  0  0  0  0  0  0  0  # atno 6907 bound_to 6896
  152.4833  133.8304  159.7111 H   0  0  0  0  0  0  0  0  0  0  0  0  # atno 6908 bound_to 6896
  150.8921  133.7168  159.2928 H   0  0  0  0  0  0  0  0  0  0  0  0  # atno 6909 bound_to 6896
  146.1258  140.5338  142.8715 H   0  0  0  0  0  0  0  0  0  0  0  0  # atno 7974 bound_to 7965
  156.2290  140.1853  156.7290 H   0  0  0  0  0  0  0  0  0  0  0  0  # atno 8008 bound_to 7997
  154.5990  140.0639  156.9371 H   0  0  0  0  0  0  0  0  0  0  0  0  # atno 8009 bound_to 7997
  155.2206  140.3307  155.4318 H   0  0  0  0  0  0  0  0  0  0  0  0  # atno 8010 bound_to 7997
  140.7247  143.5015  150.9863 H   0  0  0  0  0  0  0  0  0  0  0  0  # atno 10167 bound_to 10162
  157.6579  131.0897  150.6329 H   0  0  0  0  0  0  0  0  0  0  0  0  # atno 10718 bound_to 10713
  154.7993  135.4723  154.0237 H   0  0  0  0  0  0  0  0  0  0  0  0  # atno 10763 bound_to 10752
  153.1755  135.6832  153.8556 H   0  0  0  0  0  0  0  0  0  0  0  0  # atno 10764 bound_to 10752
  153.8124  135.3215  155.3380 H   0  0  0  0  0  0  0  0  0  0  0  0  # atno 10765 bound_to 10752
  140.6336  133.9553  155.8287 H   0  0  0  0  0  0  0  0  0  0  0  0  # atno 11005 bound_to 11000
  144.7641  140.5489  143.6715 LP  0  0  0  0  0  0  0  0  0  0  0  0  # atno 17320 bound_to 7965
  145.5369  139.1475  143.3469 LP  0  0  0  0  0  0  0  0  0  0  0  0  # atno 17321 bound_to 7965
  139.8725  143.7175  152.3165 LP  0  0  0  0  0  0  0  0  0  0  0  0  # atno 17342 bound_to 10162
  139.7428  144.7555  151.0626 LP  0  0  0  0  0  0  0  0  0  0  0  0  # atno 17343 bound_to 10162
  156.6634  130.4519  149.5680 LP  0  0  0  0  0  0  0  0  0  0  0  0  # atno 17370 bound_to 10713
  156.2050  130.6643  151.1208 LP  0  0  0  0  0  0  0  0  0  0  0  0  # atno 17371 bound_to 10713
  141.0658  134.0279  157.3596 LP  0  0  0  0  0  0  0  0  0  0  0  0  # atno 17394 bound_to 11000
  139.9107  135.0189  156.7677 LP  0  0  0  0  0  0  0  0  0  0  0  0  # atno 17395 bound_to 11000

$$$$
