#       Name:                AV-unprocessed.smi:240
#       Creating user name   scv26
#       Creation time:       Thu Mar 26 20:42:36 2020


#       File generated by GOLD software.
#

@<TRIPOS>MOLECULE
AV-unprocessed.smi:240
    67    71     1
SMALL
NO_CHARGES


@<TRIPOS>ATOM
      1 ****        -3.0372  -2.0698  -2.2747 O.3            1 S1                 0.0000
      2 ****        -2.1104  -2.2717  -1.2278 C.3            1 S1                 0.0000
      3 ****        -2.3425  -3.6579  -0.5973 C.3            1 S1                 0.0000
      4 ****        -2.2753  -3.4462   0.9161 C.3            1 S1                 0.0000
      5 ****        -2.8119  -2.0305   1.1110 C.3            1 S1                 0.0000
      6 ****        -2.2068  -1.2504  -0.0638 C.3            1 S1                 0.0000
      7 ****        -2.8058   0.1678  -0.3321 C.3            1 S1                 0.0000
      8 ****        -4.3507   0.1931  -0.4754 C.3            1 S1                 0.0000
      9 ****        -4.8069   1.5230  -0.6947 O.3            1 S1                 0.0000
     10 ****        -4.2780   2.0759  -1.8917 C.3            1 S1                 0.0000
     11 ****        -2.7523   2.1616  -1.7634 C.3            1 S1                 0.0000
     12 ****        -2.1929   0.8445  -1.4845 N.3            1 S1                 0.0000
     13 ****        -0.8425   0.8780  -1.5430 C.ar           1 S1                 0.0000
     14 ****        -0.2696   0.4598  -2.6981 N.ar           1 S1                 0.0000
     15 ****         1.0605   0.4691  -2.8251 C.ar           1 S1                 0.0000
     16 ****         1.9812   0.8548  -1.9392 N.ar           1 S1                 0.0000
     17 ****         1.4065   1.2830  -0.7785 C.ar           1 S1                 0.0000
     18 ****         0.0119   1.3339  -0.4990 C.ar           1 S1                 0.0000
     19 ****        -0.1963   1.8409   0.7779 N.2            1 S1                 0.0000
     20 ****         1.0062   2.0700   1.2297 C.2            1 S1                 0.0000
     21 ****         2.0293   1.7546   0.3642 N.pl3          1 S1                 0.0000
     22 ****         3.4562   1.9076   0.6053 C.3            1 S1                 0.0000
     23 ****         4.1267   0.6420   1.1902 C.3            1 S1                 0.0000
     24 ****         3.9716  -0.4305   0.2770 O.3            1 S1                 0.0000
     25 ****         5.6141   0.8314   1.4584 C.3            1 S1                 0.0000
     26 ****         5.8738  -0.1361   2.6049 C.3            1 S1                 0.0000
     27 ****         4.7143   0.0037   3.4083 O.3            1 S1                 0.0000
     28 ****         3.5831   0.1962   2.5633 C.3            1 S1                 0.0000
     29 ****        -2.8694  -1.2241  -2.6625 H              1 S1                 0.0000
     30 ****        -1.1111  -2.2244  -1.6625 H              1 S1                 0.0000
     31 ****        -3.3351  -4.0329  -0.8531 H              1 S1                 0.0000
     32 ****        -1.6197  -4.3973  -0.9434 H              1 S1                 0.0000
     33 ****        -2.8464  -4.1919   1.4698 H              1 S1                 0.0000
     34 ****        -1.2391  -3.4998   1.2528 H              1 S1                 0.0000
     35 ****        -3.8990  -2.0610   1.0524 H              1 S1                 0.0000
     36 ****        -2.5384  -1.6092   2.0788 H              1 S1                 0.0000
     37 ****        -1.1736  -1.0865   0.2460 H              1 S1                 0.0000
     38 ****        -2.5850   0.7733   0.5470 H              1 S1                 0.0000
     39 ****        -4.7052  -0.4448  -1.2838 H              1 S1                 0.0000
     40 ****        -4.8290  -0.1596   0.4368 H              1 S1                 0.0000
     41 ****        -4.5674   1.4700  -2.7520 H              1 S1                 0.0000
     42 ****        -4.6992   3.0698  -2.0420 H              1 S1                 0.0000
     43 ****        -2.3278   2.5626  -2.6850 H              1 S1                 0.0000
     44 ****        -2.4857   2.8498  -0.9597 H              1 S1                 0.0000
     45 ****         1.4420   0.1170  -3.7721 H              1 S1                 0.0000
     46 ****         1.1791   2.4786   2.2146 H              1 S1                 0.0000
     47 ****         3.9349   2.1870  -0.3341 H              1 S1                 0.0000
     48 ****         3.5957   2.7521   1.2815 H              1 S1                 0.0000
     49 ****         4.3913  -1.1960   0.6386 H              1 S1                 0.0000
     50 ****         6.2453   0.6463   0.5880 H              1 S1                 0.0000
     51 ****         5.8111   1.8486   1.8003 H              1 S1                 0.0000
     52 ****         5.9479  -1.1626   2.2426 H              1 S1                 0.0000
     53 ****         6.7806   0.1006   3.1617 H              1 S1                 0.0000
     54 ****         2.9513   0.9556   3.0229 H              1 S1                 0.0000
     55 ****         2.9964  -0.7214   2.4994 H              1 S1                 0.0000
     56 ****        -3.9684  -2.0959  -1.9112 LP             1 S1                 0.0000
     57 ****        -2.9286  -2.7853  -2.9647 LP             1 S1                 0.0000
     58 ****        -4.5240   2.0929   0.0768 LP             1 S1                 0.0000
     59 ****        -5.8050   1.5162  -0.7556 LP             1 S1                 0.0000
     60 ****        -2.4578   0.2192  -2.2185 LP             1 S1                 0.0000
     61 ****        -0.8422   0.1445  -3.4549 LP             1 S1                 0.0000
     62 ****         2.9671   0.8327  -2.1052 LP             1 S1                 0.0000
     63 ****        -1.0677   1.9949   1.2437 LP             1 S1                 0.0000
     64 ****         4.3969  -0.1937  -0.5966 LP             1 S1                 0.0000
     65 ****         2.9990  -0.6145   0.1351 LP             1 S1                 0.0000
     66 ****         4.8189   0.7932   4.0131 LP             1 S1                 0.0000
     67 ****         4.5856  -0.8220   3.9574 LP             1 S1                 0.0000
@<TRIPOS>BOND
    1    1    2 1     
    2    1   29 1     
    3    2    6 1     
    4    2    3 1     
    5    2   30 1     
    6    3    4 1     
    7    3   31 1     
    8    3   32 1     
    9    4    5 1     
   10    4   33 1     
   11    4   34 1     
   12    5    6 1     
   13    5   35 1     
   14    5   36 1     
   15    6    7 1     
   16    6   37 1     
   17    7   12 1     
   18    7    8 1     
   19    7   38 1     
   20    8    9 1     
   21    8   39 1     
   22    8   40 1     
   23    9   10 1     
   24   10   11 1     
   25   10   41 1     
   26   10   42 1     
   27   11   12 1     
   28   11   43 1     
   29   11   44 1     
   30   12   13 1     
   31   13   18 ar    
   32   13   14 ar    
   33   14   15 ar    
   34   15   16 ar    
   35   15   45 1     
   36   16   17 ar    
   37   17   21 1     
   38   17   18 ar    
   39   18   19 1     
   40   19   20 2     
   41   20   21 1     
   42   20   46 1     
   43   21   22 1     
   44   22   23 1     
   45   22   47 1     
   46   22   48 1     
   47   23   28 1     
   48   23   24 1     
   49   23   25 1     
   50   24   49 1     
   51   25   26 1     
   52   25   50 1     
   53   25   51 1     
   54   26   27 1     
   55   26   52 1     
   56   26   53 1     
   57   27   28 1     
   58   28   54 1     
   59   28   55 1     
   60    1   56 1     
   61    1   57 1     
   62    9   58 1     
   63    9   59 1     
   64   12   60 1     
   65   14   61 1     
   66   16   62 1     
   67   19   63 1     
   68   24   64 1     
   69   24   65 1     
   70   27   66 1     
   71   27   67 1     
@<TRIPOS>SUBSTRUCTURE
      1 S1             1
@<TRIPOS>SET
LONE_PAIRS      STATIC     ATOMS    <user>   **** ""
12 56 57 58 59 60 61 62 63 64 65 66 67
DONOR_HYDROGENS      STATIC     ATOMS    <user>   **** ""
2 29 49
ATOM$BLUE        STATIC     ATOMS    COLORGROUP SYSTEM
12 56 57 58 59 60 61 62 63 64 65 66 67
ATOM$RED        STATIC     ATOMS    COLORGROUP SYSTEM
2 29 49
