#       Name:                AV-unprocessed.smi:1166
#       Creating user name   scv26
#       Creation time:       Fri Mar 27 03:52:17 2020


#       File generated by GOLD software.
#

@<TRIPOS>MOLECULE
AV-unprocessed.smi:1166
    49    50     1
SMALL
NO_CHARGES


@<TRIPOS>ATOM
      1 ****        -6.9375   2.7649  -0.2604 C.3            1 S1                 0.0000
      2 ****        -6.3617   1.4292  -0.1412 N.pl3          1 S1                 0.0000
      3 ****        -7.2365   0.2699  -0.0159 C.3            1 S1                 0.0000
      4 ****        -4.9578   1.2702  -0.0885 C.ar           1 S1                 0.0000
      5 ****        -4.3623  -0.0089   0.0433 C.ar           1 S1                 0.0000
      6 ****        -2.9592  -0.1169   0.0927 C.ar           1 S1                 0.0000
      7 ****        -2.1766   1.0570   0.0021 C.ar           1 S1                 0.0000
      8 ****        -0.7567   1.0865   0.0600 N.am           1 S1                 0.0000
      9 ****         0.1152   0.0835  -0.1410 C.2            1 S1                 0.0000
     10 ****        -0.1813  -1.0681  -0.4583 O.2            1 S1                 0.0000
     11 ****         1.3776   0.5007   0.0304 N.am           1 S1                 0.0000
     12 ****         2.5678  -0.3321  -0.1123 C.3            1 S1                 0.0000
     13 ****         2.9912  -0.4315  -1.5873 C.3            1 S1                 0.0000
     14 ****         4.2731  -1.2636  -1.7029 C.3            1 S1                 0.0000
     15 ****         5.3974  -0.6842  -0.8266 C.3            1 S1                 0.0000
     16 ****         4.9630  -0.5105   0.5745 N.pl3          1 S1                 0.0000
     17 ****         5.4483  -1.6629   1.7849 S.o2           1 S1                 0.0000
     18 ****         4.3637  -3.1179   1.4833 C.3            1 S1                 0.0000
     19 ****         6.8357  -2.0580   1.4973 O.2            1 S1                 0.0000
     20 ****         5.1084  -1.1025   3.1018 O.2            1 S1                 0.0000
     21 ****         3.7097   0.2521   0.7421 C.3            1 S1                 0.0000
     22 ****        -2.8573   2.2844  -0.1161 C.ar           1 S1                 0.0000
     23 ****        -4.2011   2.3922  -0.1648 N.ar           1 S1                 0.0000
     24 ****        -6.5927   3.2507  -1.1736 H              1 S1                 0.0000
     25 ****        -6.6504   3.3826   0.5912 H              1 S1                 0.0000
     26 ****        -8.0264   2.7282  -0.2945 H              1 S1                 0.0000
     27 ****        -7.0669  -0.2375   0.9342 H              1 S1                 0.0000
     28 ****        -7.0560  -0.4357  -0.8272 H              1 S1                 0.0000
     29 ****        -8.2871   0.5586  -0.0547 H              1 S1                 0.0000
     30 ****        -4.9524  -0.9100   0.1119 H              1 S1                 0.0000
     31 ****        -2.5191  -1.0940   0.2130 H              1 S1                 0.0000
     32 ****        -0.3530   1.9947   0.2375 H              1 S1                 0.0000
     33 ****         1.5277   1.4662   0.2844 H              1 S1                 0.0000
     34 ****         2.3370  -1.3324   0.2546 H              1 S1                 0.0000
     35 ****         2.2001  -0.8881  -2.1833 H              1 S1                 0.0000
     36 ****         3.1595   0.5649  -1.9985 H              1 S1                 0.0000
     37 ****         4.0665  -2.2939  -1.4162 H              1 S1                 0.0000
     38 ****         4.5985  -1.2977  -2.7429 H              1 S1                 0.0000
     39 ****         6.2814  -1.3195  -0.8750 H              1 S1                 0.0000
     40 ****         5.6977   0.2891  -1.2161 H              1 S1                 0.0000
     41 ****         4.6163  -3.9027   2.1959 H              1 S1                 0.0000
     42 ****         4.5192  -3.4946   0.4739 H              1 S1                 0.0000
     43 ****         3.3205  -2.8399   1.6222 H              1 S1                 0.0000
     44 ****         3.8991   1.2858   0.4500 H              1 S1                 0.0000
     45 ****         3.4239   0.2790   1.7936 H              1 S1                 0.0000
     46 ****        -2.3078   3.2124  -0.1770 H              1 S1                 0.0000
     47 ****        -1.1404  -1.3200  -0.5873 LP             1 S1                 0.0000
     48 ****         0.5369  -1.7519  -0.5871 LP             1 S1                 0.0000
     49 ****        -4.6338   3.2891  -0.2561 LP             1 S1                 0.0000
@<TRIPOS>BOND
    1    1    2 1     
    2    1   24 1     
    3    1   25 1     
    4    1   26 1     
    5    2    3 1     
    6    2    4 1     
    7    3   27 1     
    8    3   28 1     
    9    3   29 1     
   10    4   23 ar    
   11    4    5 ar    
   12    5    6 ar    
   13    5   30 1     
   14    6    7 ar    
   15    6   31 1     
   16    7    8 1     
   17    7   22 ar    
   18    8    9 am    
   19    8   32 1     
   20    9   10 2     
   21    9   11 am    
   22   11   12 1     
   23   11   33 1     
   24   12   21 1     
   25   12   13 1     
   26   12   34 1     
   27   13   14 1     
   28   13   35 1     
   29   13   36 1     
   30   14   15 1     
   31   14   37 1     
   32   14   38 1     
   33   15   16 1     
   34   15   39 1     
   35   15   40 1     
   36   16   17 1     
   37   16   21 1     
   38   17   18 1     
   39   17   19 2     
   40   17   20 2     
   41   18   41 1     
   42   18   42 1     
   43   18   43 1     
   44   21   44 1     
   45   21   45 1     
   46   22   23 ar    
   47   22   46 1     
   48   10   47 1     
   49   10   48 1     
   50   23   49 1     
@<TRIPOS>SUBSTRUCTURE
      1 S1             1
@<TRIPOS>SET
LONE_PAIRS      STATIC     ATOMS    <user>   **** ""
5 47 48 19 20 49
DONOR_HYDROGENS      STATIC     ATOMS    <user>   **** ""
2 32 33
ATOM$BLUE        STATIC     ATOMS    COLORGROUP SYSTEM
5 47 48 19 20 49
ATOM$RED        STATIC     ATOMS    COLORGROUP SYSTEM
2 32 33
