AV-unprocessed.smi:1200|AV-procd|sdf|5026|dock3
  -GOLD-   22720 4 43D 1   1.00000     0.00000
 Structure written by MMmdl.
 42 43  0  0  0  0  0  0  0  0  3 V2000
  148.4303  134.1933  157.3852 C   0  0  0  0  0  0  0  0  0  0  0  0
  149.8762  134.3461  157.4980 N   0  5  0  0  0  0  0  0  0  0  0  0
  150.6557  134.8573  156.5078 C   0  0  0  0  0  0  0  0  0  0  0  0
  151.8192  135.2728  156.5312 O   0  0  0  0  0  0  0  0  0  0  0  0
  149.9109  134.8692  155.1678 C   0  0  0  0  0  0  0  0  0  0  0  0
  149.7205  136.2654  154.7026 N   0  3  2  0  0  0  0  0  0  0  0  0
  151.0087  136.9813  154.5243 C   0  0  0  0  0  0  0  0  0  0  0  0
  150.7932  138.3711  153.8979 C   0  0  0  0  0  0  0  0  0  0  0  0
  149.8020  139.2249  154.7075 C   0  0  2  0  0  0  0  0  0  0  0  0
  150.4082  139.6617  155.9650 N   0  0  0  0  0  0  0  0  0  0  0  0
  150.6790  140.9330  156.2944 C   0  0  0  0  0  0  0  0  0  0  0  0
  150.4256  141.8907  155.5644 O   0  0  0  0  0  0  0  0  0  0  0  0
  151.2354  141.0096  157.5155 N   0  0  0  0  0  0  0  0  0  0  0  0
  151.6749  142.1631  158.2202 C   0  0  0  0  0  0  0  0  0  0  0  0
  152.3484  142.1317  159.4654 C   0  0  0  0  0  0  0  0  0  0  0  0
  152.7178  143.3489  160.0696 C   0  0  0  0  0  0  0  0  0  0  0  0
  152.3946  144.5520  159.4126 C   0  0  0  0  0  0  0  0  0  0  0  0
  151.7411  144.5977  158.2329 N   0  0  0  0  0  0  0  0  0  0  0  0
  151.3901  143.4267  157.6598 C   0  0  0  0  0  0  0  0  0  0  0  0
  148.5022  138.4309  154.9442 C   0  0  0  0  0  0  0  0  0  0  0  0
  148.7748  137.0422  155.5485 C   0  0  0  0  0  0  0  0  0  0  0  0
  147.9999  133.7392  158.2776 H   0  0  0  0  0  0  0  0  0  0  0  0
  148.1417  133.5596  156.5460 H   0  0  0  0  0  0  0  0  0  0  0  0
  147.9221  135.1483  157.2495 H   0  0  0  0  0  0  0  0  0  0  0  0
  150.4067  134.2734  154.3979 H   0  0  0  0  0  0  0  0  0  0  0  0
  148.9425  134.3988  155.3436 H   0  0  0  0  0  0  0  0  0  0  0  0
  151.5133  137.0700  155.4876 H   0  0  0  0  0  0  0  0  0  0  0  0
  151.6652  136.3992  153.8765 H   0  0  0  0  0  0  0  0  0  0  0  0
  151.7476  138.8898  153.7982 H   0  0  0  0  0  0  0  0  0  0  0  0
  150.4101  138.2460  152.8843 H   0  0  0  0  0  0  0  0  0  0  0  0
  149.5675  140.1143  154.1196 H   0  0  0  0  0  0  0  0  0  0  0  0
  150.6487  138.9407  156.6291 H   0  0  0  0  0  0  0  0  0  0  0  0
  151.3083  140.1410  158.0247 H   0  0  0  0  0  0  0  0  0  0  0  0
  152.5768  141.2085  159.9743 H   0  0  0  0  0  0  0  0  0  0  0  0
  153.2338  143.3596  161.0181 H   0  0  0  0  0  0  0  0  0  0  0  0
  152.6630  145.5025  159.8492 H   0  0  0  0  0  0  0  0  0  0  0  0
  150.8675  143.5023  156.7172 H   0  0  0  0  0  0  0  0  0  0  0  0
  147.8206  138.9910  155.5853 H   0  0  0  0  0  0  0  0  0  0  0  0
  147.9833  138.3059  153.9929 H   0  0  0  0  0  0  0  0  0  0  0  0
  147.8290  136.5084  155.6446 H   0  0  0  0  0  0  0  0  0  0  0  0
  149.1809  137.1405  156.5565 H   0  0  0  0  0  0  0  0  0  0  0  0
  149.3041  136.1927  153.7851 H   0  0  0  0  0  0  0  0  0  0  0  0
  1  2  1  0  0  0  0
  1 22  1  0  0  0  0
  1 23  1  0  0  0  0
  1 24  1  0  0  0  0
  2  3  1  0  0  0  0
  3  4  2  0  0  0  0
  3  5  1  0  0  0  0
  5  6  1  0  0  0  0
  5 25  1  0  0  0  0
  5 26  1  0  0  0  0
  6 21  1  0  0  0  0
  6  7  1  0  0  0  0
  6 42  1  0  0  0  0
  7  8  1  0  0  0  0
  7 27  1  0  0  0  0
  7 28  1  0  0  0  0
  8  9  1  0  0  0  0
  8 29  1  0  0  0  0
  8 30  1  0  0  0  0
  9 10  1  0  0  0  0
  9 20  1  0  0  0  0
  9 31  1  0  0  0  0
 10 11  1  0  0  0  0
 10 32  1  0  0  0  0
 11 12  2  0  0  0  0
 11 13  1  0  0  0  0
 13 14  1  0  0  0  0
 13 33  1  0  0  0  0
 14 19  1  0  0  0  0
 14 15  2  0  0  0  0
 15 16  1  0  0  0  0
 15 34  1  0  0  0  0
 16 17  2  0  0  0  0
 16 35  1  0  0  0  0
 17 18  1  0  0  0  0
 17 36  1  0  0  0  0
 18 19  2  0  0  0  0
 19 37  1  0  0  0  0
 20 21  1  0  0  0  0
 20 38  1  0  0  0  0
 20 39  1  0  0  0  0
 21 40  1  0  0  0  0
 21 41  1  0  0  0  0
M  CHG  1   2  -1
M  CHG  1   6   1
M  END
> <s_m_source_file>
AV-unprocessed.smi

> <i_m_source_file_index>
1200

> <i_lp_mmshare_version>
43012

> <i_f3d_flags>
0

> <s_epik_input>
W0NIM11bTkhdQyg9TylbQ0gyXU4xW0NIMl1bQ0gyXVtDSF0oW0NIMl1bQ0gyXTEpW05IXUMoPU8pW05IXWMyW2NIXVtjSF1bY0hdbltjSF0y

> <s_epik_cmdline>
J2VwaWtfcHl0aG9uJywgJy1waCcsICc3LjAnLCAnLXRuJywgJzgnLCAnLW1hJywgJzIwMCcsICctbWV0YWxfYmluZGluZycsICctaW1hZScsICc8aW5maWxlLm1hZT4nLCAnLW9tYWUnLCAnPG91dGZpbGUubWFlPic=

> <r_epik_Ionization_Penalty>
6.14345

> <r_epik_Ionization_Penalty_Charging>
6.13946

> <r_epik_Ionization_Penalty_Neutral>
0.00398477

> <r_epik_State_Penalty>
6.94483

> <r_epik_Charging_Adjusted_Penalty>
13.0843

> <i_epik_Tot_Q>
0

> <i_epik_Tot_abs_Q>
2

> <r_epik_Metal_State_Penalty>
2.87819

> <b_epik_Metal_Only>
1

> <s_lp_Force_Field>
OPLS_2005

> <r_lp_Energy>
15.1129

> <b_lp_Chiralities_Consistent>
1

> <s_lp_Variant>
AV-unprocessed.smi:1200-5

> <Gold.Version>
5.8.1

> <Gold.Id.Protein>
6NUR|6NUR_protein|mol2

> <Gold.PLP.Fitness>
50.7659

> <Gold.PLP.PLP>
-33.9590

> <Gold.PLP.part.hbond>
-3.3204

> <Gold.PLP.part.metal>
0.0000

> <Gold.PLP.part.buried>
-4.7605

> <Gold.PLP.part.nonpolar>
-27.1671

> <Gold.PLP.part.repulsive>
0.3761

> <Gold.PLP.ligand.clash>
0.0000

> <Gold.PLP.ligand.torsion>
0.1150

> <Gold.PLP.Chemscore.Hbond>
4.6640

> <Gold.PLP.Chemscore.CHOScore>
1.0000

> <Gold.PLP.Chemscore.Metal>
0.0000

> <Gold.Chemscore.Hbonds>
donor molecule, donor type, donor heavy atom, donor atom, acceptor molecule, acceptor atom, score
      L1  H     6    42       P1  7948  2.00
      P1  H  6896  6907       L1     2  1.60
      P1  H 10752 10764       L1     4  1.00
      L1  C    19    37       P1  8028  0.97

> <Gold.PLP.Chemscore.Internal.Correction>
0.0450

> <Gold.Rescore>
     Score         DG    S(hbond)    S(metal)    S(lipo)     H(rot)  DE(clash)    DE(int)     intcor
     17.36     -20.34       2.63        0.00      87.56       1.63       0.00       2.97       ----

> <Gold.Chemscore.Fitness>
17.3634

> <Gold.Chemscore.DG>
-20.3409

> <Gold.Chemscore.ZeroCoef>
-5.4800

> <Gold.Chemscore.Hbond>
2.6331

> <Gold.Chemscore.Metal>
0.0000

> <Gold.Chemscore.Lipo>
87.5623

> <Gold.Chemscore.Internal_Hbond>
0.0000

> <Gold.Chemscore.DEClash>
0.0044

> <Gold.Chemscore.DEInternal>
2.9731

> <Gold.Chemscore.Rot>
1.6323

> <Gold.Chemscore.Internal.Correction>
   9.000000E+99

> <Gold.Chemscore.Hbonds>
donor molecule, donor type, donor heavy atom, donor atom, acceptor molecule, acceptor atom, score
      L1  H     6    42       P1  7948  0.85
      P1  H  6896  6907       L1     2  0.68
      P1  H 10752 10764       L1     4  0.97

> <Gold.Chemscore.Hbond.Weighted>
-8.7947

> <Gold.Chemscore.Metal.Weighted>
-0.0000

> <Gold.Chemscore.Lipo.Weighted>
-10.2448

> <Gold.Chemscore.Internal_Hbond.Weighted>
0.0000

> <Gold.Chemscore.DEClash.Weighted>
0.0044

> <Gold.Chemscore.DEInternal.Weighted>
2.9731

> <Gold.Chemscore.Rot.Weighted>
4.1786

> <Gold.Chemscore.Internal.Correction.Weighted>
   9.000000E+99

> <Gold.Protein.RotatedTorsions>
[ 6907 6896 6895 6894 ] final -121.15 input  -60.11 | X-H torsion
[ 7974 7965 7964 7962 ] final   96.45 input  175.53 | X-H torsion
[ 8008 7997 7996 7995 ] final  -48.14 input   59.86 | X-H torsion
[ 10167 10162 10161 10158 ] final   13.72 input  -65.29 | X-H torsion
[ 10718 10713 10712 10709 ] final   88.75 input   66.30 | X-H torsion
[ 10763 10752 10751 10750 ] final  -16.56 input  -60.55 | X-H torsion
[ 11005 11000 10999 10996 ] final   64.71 input  -57.11 | X-H torsion

> <Gold.Protein.ActiveResidues>
 VAL166  LYS551  ARG553  GLY616  TRP617  ASP618  TYR619  PRO620  LYS621  CYS622 
 ASP623  PHE694  ASN695  SER759  ASP760  ASP761  ALA762  ILE779  LEU786  VAL792 
 PHE793  MET794  SER795  GLU796  ALA797  LYS798  CYS799  TRP800  GLU811  SER814 

> <Gold.Protein.RotatedAtoms>
  150.8457  133.7865  159.3043 H   0  0  0  0  0  0  0  0  0  0  0  0  # atno 6907 bound_to 6896
  151.5553  135.1065  159.9969 H   0  0  0  0  0  0  0  0  0  0  0  0  # atno 6908 bound_to 6896
  152.4511  133.7589  159.6791 H   0  0  0  0  0  0  0  0  0  0  0  0  # atno 6909 bound_to 6896
  145.4386  139.2303  143.3104 H   0  0  0  0  0  0  0  0  0  0  0  0  # atno 7974 bound_to 7965
  154.4025  140.1329  156.4290 H   0  0  0  0  0  0  0  0  0  0  0  0  # atno 8008 bound_to 7997
  155.7569  140.3487  155.5158 H   0  0  0  0  0  0  0  0  0  0  0  0  # atno 8009 bound_to 7997
  155.8896  140.1001  157.1418 H   0  0  0  0  0  0  0  0  0  0  0  0  # atno 8010 bound_to 7997
  140.5984  143.8655  150.6940 H   0  0  0  0  0  0  0  0  0  0  0  0  # atno 10167 bound_to 10162
  157.6951  131.0307  150.3322 H   0  0  0  0  0  0  0  0  0  0  0  0  # atno 10718 bound_to 10713
  153.5605  135.7010  153.5550 H   0  0  0  0  0  0  0  0  0  0  0  0  # atno 10763 bound_to 10752
  153.3434  135.4015  155.1589 H   0  0  0  0  0  0  0  0  0  0  0  0  # atno 10764 bound_to 10752
  154.8648  135.3747  154.5121 H   0  0  0  0  0  0  0  0  0  0  0  0  # atno 10765 bound_to 10752
  139.9941  134.6545  156.0040 H   0  0  0  0  0  0  0  0  0  0  0  0  # atno 11005 bound_to 11000
  146.2568  140.5132  142.8870 LP  0  0  0  0  0  0  0  0  0  0  0  0  # atno 17320 bound_to 7965
  144.8136  140.6429  143.6399 LP  0  0  0  0  0  0  0  0  0  0  0  0  # atno 17321 bound_to 7965
  140.2195  143.3820  152.1654 LP  0  0  0  0  0  0  0  0  0  0  0  0  # atno 17342 bound_to 10162
  139.5274  144.7118  151.5181 LP  0  0  0  0  0  0  0  0  0  0  0  0  # atno 17343 bound_to 10162
  156.3794  130.3878  149.7113 LP  0  0  0  0  0  0  0  0  0  0  0  0  # atno 17370 bound_to 10713
  156.4501  130.7902  151.2923 LP  0  0  0  0  0  0  0  0  0  0  0  0  # atno 17371 bound_to 10713
  141.1590  133.6540  156.4255 LP  0  0  0  0  0  0  0  0  0  0  0  0  # atno 17394 bound_to 11000
  140.4852  134.6627  157.5188 LP  0  0  0  0  0  0  0  0  0  0  0  0  # atno 17395 bound_to 11000

$$$$
