#       Name:                AV-unprocessed.smi:2456
#       Creating user name   scv26
#       Creation time:       Fri Mar 27 13:34:13 2020


#       File generated by GOLD software.
#

@<TRIPOS>MOLECULE
AV-unprocessed.smi:2456
    39    40     1
SMALL
NO_CHARGES


@<TRIPOS>ATOM
      1 ****        -0.4204  -1.2291   2.7314 C.3            1 S1                 0.0000
      2 ****        -0.1102  -0.7541   1.3019 C.3            1 S1                 0.0000
      3 ****         1.3417  -0.6172   1.1800 N.am           1 S1                 0.0000
      4 ****         2.0354  -0.5762   0.0321 C.2            1 S1                 0.0000
      5 ****         1.4434  -0.6560  -1.0471 O.2            1 S1                 0.0000
      6 ****         3.3704  -0.4477   0.2066 N.pl3          1 S1                -1.0000
      7 ****         4.1851  -0.3846  -0.8591 C.2            1 S1                 0.0000
      8 ****         4.6921   0.7639  -1.3214 N.2            1 S1                 0.0000
      9 ****         5.5207   0.5979  -2.4325 C.2            1 S1                 0.0000
     10 ****         5.6557  -0.7086  -2.8201 C.2            1 S1                 0.0000
     11 ****         4.7396  -1.7761  -1.7949 S.3            1 S1                 0.0000
     12 ****        -0.8103   0.6068   1.0894 C.2            1 S1                 0.0000
     13 ****        -0.2775   1.6324   1.5182 O.2            1 S1                 0.0000
     14 ****        -2.0041   0.6388   0.4584 N.am           1 S1                 0.0000
     15 ****        -2.7432   1.8747   0.2059 C.3            1 S1                 0.0000
     16 ****        -3.8872   1.4922  -0.7331 C.3            1 S1                 0.0000
     17 ****        -4.1210   0.0153  -0.4502 C.3            1 S1                 0.0000
     18 ****        -2.7405  -0.5135  -0.0605 C.3            1 S1                 0.0000
     19 ****        -1.4928  -1.3565   2.8842 H              1 S1                 0.0000
     20 ****        -0.0588  -0.5234   3.4810 H              1 S1                 0.0000
     21 ****         0.0517  -2.1915   2.9314 H              1 S1                 0.0000
     22 ****        -0.4488  -1.5051   0.5879 H              1 S1                 0.0000
     23 ****         1.8651  -0.5389   2.0393 H              1 S1                 0.0000
     24 ****         5.9748   1.4670  -2.8847 H              1 S1                 0.0000
     25 ****         6.2346  -1.1065  -3.6396 H              1 S1                 0.0000
     26 ****        -3.1339   2.2531   1.1515 H              1 S1                 0.0000
     27 ****        -2.1118   2.6485  -0.2340 H              1 S1                 0.0000
     28 ****        -4.7799   2.0995  -0.5815 H              1 S1                 0.0000
     29 ****        -3.5683   1.6189  -1.7685 H              1 S1                 0.0000
     30 ****        -4.8046  -0.0900   0.3933 H              1 S1                 0.0000
     31 ****        -4.5533  -0.5156  -1.2986 H              1 S1                 0.0000
     32 ****        -2.2201  -0.9007  -0.9380 H              1 S1                 0.0000
     33 ****        -2.8231  -1.3174   0.6723 H              1 S1                 0.0000
     34 ****         0.4481  -0.7511  -1.0656 LP             1 S1                 0.0000
     35 ****         1.9587  -0.6256  -1.9036 LP             1 S1                 0.0000
     36 ****         3.7511  -0.3996   1.1300 LP             1 S1                 0.0000
     37 ****         4.4965   1.6546  -0.9110 LP             1 S1                 0.0000
     38 ****         0.5984   1.5779   1.9976 LP             1 S1                 0.0000
     39 ****        -0.7212   2.5189   1.3866 LP             1 S1                 0.0000
@<TRIPOS>BOND
    1    1    2 1     
    2    1   19 1     
    3    1   20 1     
    4    1   21 1     
    5    2    3 1     
    6    2   12 1     
    7    2   22 1     
    8    3    4 am    
    9    3   23 1     
   10    4    5 2     
   11    4    6 1     
   12    6    7 1     
   13    7   11 1     
   14    7    8 2     
   15    8    9 1     
   16    9   10 2     
   17    9   24 1     
   18   10   11 1     
   19   10   25 1     
   20   12   13 2     
   21   12   14 am    
   22   14   18 1     
   23   14   15 1     
   24   15   16 1     
   25   15   26 1     
   26   15   27 1     
   27   16   17 1     
   28   16   28 1     
   29   16   29 1     
   30   17   18 1     
   31   17   30 1     
   32   17   31 1     
   33   18   32 1     
   34   18   33 1     
   35    5   34 1     
   36    5   35 1     
   37    6   36 1     
   38    8   37 1     
   39   13   38 1     
   40   13   39 1     
@<TRIPOS>SUBSTRUCTURE
      1 S1             1
@<TRIPOS>SET
LONE_PAIRS      STATIC     ATOMS    <user>   **** ""
6 34 35 36 37 38 39
DONOR_HYDROGENS      STATIC     ATOMS    <user>   **** ""
1 23
ATOM$BLUE        STATIC     ATOMS    COLORGROUP SYSTEM
6 34 35 36 37 38 39
ATOM$RED        STATIC     ATOMS    COLORGROUP SYSTEM
1 23
