AV-unprocessed.smi:2349|AV-procd|sdf|9372|dock4
  -GOLD-   2272013 03D 1   1.00000     0.00000
 Structure written by MMmdl.
 53 54  0  0  0  0  0  0  0  0  2 V2000
  144.2136  132.9489  149.4959 C   0  0  0  0  0  0  0  0  0  0  0  0
  144.4538  134.1404  150.3982 C   0  0  0  0  0  0  0  0  0  0  0  0
  143.8774  134.2304  151.6822 C   0  0  0  0  0  0  0  0  0  0  0  0
  144.1673  135.3489  152.4902 C   0  0  0  0  0  0  0  0  0  0  0  0
  145.0250  136.3576  151.9984 C   0  0  0  0  0  0  0  0  0  0  0  0
  145.4111  137.5403  152.8739 C   0  0  0  0  0  0  0  0  0  0  0  0
  146.5755  137.2488  153.8449 C   0  0  0  0  0  0  0  0  0  0  0  0
  147.6641  138.2162  153.7066 N   0  0  0  0  0  0  0  0  0  0  0  0
  148.7910  138.2316  154.4415 C   0  0  0  0  0  0  0  0  0  0  0  0
  149.0707  137.3289  155.2319 O   0  0  0  0  0  0  0  0  0  0  0  0
  149.5542  139.3428  154.2903 N   0  0  0  0  0  0  0  0  0  0  0  0
  149.0679  140.7100  154.0526 C   0  0  0  0  0  0  0  0  0  0  0  0
  149.0993  141.4746  155.3885 C   0  0  0  0  0  0  0  0  0  0  0  0
  150.5085  141.4611  156.0294 C   0  0  0  0  0  0  0  0  0  0  0  0
  150.4653  142.1036  157.4363 C   0  0  0  0  0  0  0  0  0  0  0  0
  151.7567  141.9623  158.2662 C   0  0  0  0  0  0  0  0  0  0  0  0
  152.2267  140.8401  158.4606 O   0  0  0  0  0  0  0  0  0  0  0  0
  152.3397  143.0795  158.7603 N   0  0  0  0  0  0  0  0  0  0  0  0
  151.7965  144.4055  158.4559 C   0  0  0  0  0  0  0  0  0  0  0  0
  153.5047  143.0573  159.6490 C   0  0  0  0  0  0  0  0  0  0  0  0
  151.0982  140.0261  156.0409 C   0  0  0  0  0  0  0  0  0  0  0  0
  150.9722  139.3547  154.6612 C   0  0  0  0  0  0  0  0  0  0  0  0
  145.5498  136.2268  150.6942 C   0  0  0  0  0  0  0  0  0  0  0  0
  145.2564  135.1345  149.9552 N   0  3  0  0  0  0  0  0  0  0  0  0
  143.1649  132.6523  149.5273 H   0  0  0  0  0  0  0  0  0  0  0  0
  144.8194  132.1034  149.8241 H   0  0  0  0  0  0  0  0  0  0  0  0
  144.4718  133.1761  148.4608 H   0  0  0  0  0  0  0  0  0  0  0  0
  143.2321  133.4464  152.0508 H   0  0  0  0  0  0  0  0  0  0  0  0
  143.7498  135.4175  153.4841 H   0  0  0  0  0  0  0  0  0  0  0  0
  145.6678  138.3846  152.2333 H   0  0  0  0  0  0  0  0  0  0  0  0
  144.5380  137.8528  153.4485 H   0  0  0  0  0  0  0  0  0  0  0  0
  146.2031  137.2370  154.8704 H   0  0  0  0  0  0  0  0  0  0  0  0
  146.9689  136.2490  153.6601 H   0  0  0  0  0  0  0  0  0  0  0  0
  147.5104  138.9841  153.0693 H   0  0  0  0  0  0  0  0  0  0  0  0
  149.7166  141.2036  153.3275 H   0  0  0  0  0  0  0  0  0  0  0  0
  148.0701  140.7478  153.6149 H   0  0  0  0  0  0  0  0  0  0  0  0
  148.7719  142.5027  155.2305 H   0  0  0  0  0  0  0  0  0  0  0  0
  148.3790  141.0264  156.0728 H   0  0  0  0  0  0  0  0  0  0  0  0
  151.1474  142.0727  155.3897 H   0  0  0  0  0  0  0  0  0  0  0  0
  150.2541  143.1695  157.3420 H   0  0  0  0  0  0  0  0  0  0  0  0
  149.6288  141.6675  157.9806 H   0  0  0  0  0  0  0  0  0  0  0  0
  152.5035  145.2039  158.6828 H   0  0  0  0  0  0  0  0  0  0  0  0
  150.8906  144.5843  159.0363 H   0  0  0  0  0  0  0  0  0  0  0  0
  151.5468  144.4987  157.3979 H   0  0  0  0  0  0  0  0  0  0  0  0
  153.3965  142.3035  160.4299 H   0  0  0  0  0  0  0  0  0  0  0  0
  153.6513  144.0105  160.1575 H   0  0  0  0  0  0  0  0  0  0  0  0
  154.4115  142.8417  159.0836 H   0  0  0  0  0  0  0  0  0  0  0  0
  152.1471  140.0406  156.3360 H   0  0  0  0  0  0  0  0  0  0  0  0
  150.5796  139.4202  156.7855 H   0  0  0  0  0  0  0  0  0  0  0  0
  151.4109  138.3562  154.6871 H   0  0  0  0  0  0  0  0  0  0  0  0
  151.5462  139.9086  153.9170 H   0  0  0  0  0  0  0  0  0  0  0  0
  146.2193  136.9406  150.2362 H   0  0  0  0  0  0  0  0  0  0  0  0
  145.6661  135.0530  149.0243 H   0  0  0  0  0  0  0  0  0  0  0  0
  1  2  1  0  0  0  0
  1 25  1  0  0  0  0
  1 26  1  0  0  0  0
  1 27  1  0  0  0  0
  2 24  1  0  0  0  0
  2  3  2  0  0  0  0
  3  4  1  0  0  0  0
  3 28  1  0  0  0  0
  4  5  2  0  0  0  0
  4 29  1  0  0  0  0
  5  6  1  0  0  0  0
  5 23  1  0  0  0  0
  6  7  1  0  0  0  0
  6 30  1  0  0  0  0
  6 31  1  0  0  0  0
  7  8  1  0  0  0  0
  7 32  1  0  0  0  0
  7 33  1  0  0  0  0
  8  9  1  0  0  0  0
  8 34  1  0  0  0  0
  9 10  2  0  0  0  0
  9 11  1  0  0  0  0
 11 22  1  0  0  0  0
 11 12  1  0  0  0  0
 12 13  1  0  0  0  0
 12 35  1  0  0  0  0
 12 36  1  0  0  0  0
 13 14  1  0  0  0  0
 13 37  1  0  0  0  0
 13 38  1  0  0  0  0
 14 15  1  0  0  0  0
 14 21  1  0  0  0  0
 14 39  1  0  0  0  0
 15 16  1  0  0  0  0
 15 40  1  0  0  0  0
 15 41  1  0  0  0  0
 16 17  2  0  0  0  0
 16 18  1  0  0  0  0
 18 19  1  0  0  0  0
 18 20  1  0  0  0  0
 19 42  1  0  0  0  0
 19 43  1  0  0  0  0
 19 44  1  0  0  0  0
 20 45  1  0  0  0  0
 20 46  1  0  0  0  0
 20 47  1  0  0  0  0
 21 22  1  0  0  0  0
 21 48  1  0  0  0  0
 21 49  1  0  0  0  0
 22 50  1  0  0  0  0
 22 51  1  0  0  0  0
 23 24  2  0  0  0  0
 23 52  1  0  0  0  0
 24 53  1  0  0  0  0
M  CHG  1  24   1
M  END
> <s_m_source_file>
AV-unprocessed.smi

> <i_m_source_file_index>
2349

> <i_lp_mmshare_version>
43012

> <i_f3d_flags>
0

> <s_epik_input>
W0NIM11jMVtjSF1bY0hdYyhbY0hdbjEpW0NIMl1bQ0gyXVtOSF1DKD1PKU4yW0NIMl1bQ0gyXVtDSF0oW0NIMl1bQ0gyXTIpW0NIMl1DKD1PKU4oW0NIM10pW0NIM10=

> <s_epik_cmdline>
J2VwaWtfcHl0aG9uJywgJy1waCcsICc3LjAnLCAnLXRuJywgJzgnLCAnLW1hJywgJzIwMCcsICctbWV0YWxfYmluZGluZycsICctaW1hZScsICc8aW5maWxlLm1hZT4nLCAnLW9tYWUnLCAnPG91dGZpbGUubWFlPic=

> <r_epik_Ionization_Penalty>
1.41566

> <r_epik_Ionization_Penalty_Charging>
1.4156

> <r_epik_Ionization_Penalty_Neutral>
6.25151e-05

> <r_epik_State_Penalty>
1.49894

> <r_epik_Charging_Adjusted_Penalty>
2.91453

> <i_epik_Tot_Q>
1

> <i_epik_Tot_abs_Q>
1

> <r_epik_Metal_State_Penalty>
1.55152

> <b_epik_Metal_Only>
0

> <s_lp_Force_Field>
OPLS_2005

> <r_lp_Energy>
40.5866

> <b_lp_Chiralities_Consistent>
1

> <s_lp_Variant>
AV-unprocessed.smi:2349-2

> <Gold.Version>
5.8.1

> <Gold.Id.Protein>
6NUR|6NUR_protein|mol2

> <Gold.PLP.Fitness>
51.1377

> <Gold.PLP.PLP>
-50.3292

> <Gold.PLP.part.hbond>
-2.0000

> <Gold.PLP.part.metal>
0.0000

> <Gold.PLP.part.buried>
-4.3022

> <Gold.PLP.part.nonpolar>
-45.2506

> <Gold.PLP.part.repulsive>
0.1662

> <Gold.PLP.ligand.clash>
0.0000

> <Gold.PLP.ligand.torsion>
1.1540

> <Gold.PLP.Chemscore.Hbond>
1.0000

> <Gold.PLP.Chemscore.CHOScore>
0.0000

> <Gold.PLP.Chemscore.Metal>
0.0000

> <Gold.Chemscore.Hbonds>
donor molecule, donor type, donor heavy atom, donor atom, acceptor molecule, acceptor atom, score
      L1  H    24    53       P1  7921  0.88

> <Gold.PLP.Chemscore.Internal.Correction>
0.1165

> <Gold.Rescore>
     Score         DG    S(hbond)    S(metal)    S(lipo)     H(rot)  DE(clash)    DE(int)     intcor
     14.74     -17.30       1.00        0.00     110.72       1.75       0.13       2.42       ----

> <Gold.Chemscore.Fitness>
14.7444

> <Gold.Chemscore.DG>
-17.2969

> <Gold.Chemscore.ZeroCoef>
-5.4800

> <Gold.Chemscore.Hbond>
0.9972

> <Gold.Chemscore.Metal>
0.0000

> <Gold.Chemscore.Lipo>
110.7209

> <Gold.Chemscore.Internal_Hbond>
0.0000

> <Gold.Chemscore.DEClash>
0.1336

> <Gold.Chemscore.DEInternal>
2.4189

> <Gold.Chemscore.Rot>
1.7454

> <Gold.Chemscore.Internal.Correction>
   9.000000E+99

> <Gold.Chemscore.Hbonds>
donor molecule, donor type, donor heavy atom, donor atom, acceptor molecule, acceptor atom, score
      L1  H    24    53       P1  7921  0.85

> <Gold.Chemscore.Hbond.Weighted>
-3.3307

> <Gold.Chemscore.Metal.Weighted>
-0.0000

> <Gold.Chemscore.Lipo.Weighted>
-12.9543

> <Gold.Chemscore.Internal_Hbond.Weighted>
0.0000

> <Gold.Chemscore.DEClash.Weighted>
0.1336

> <Gold.Chemscore.DEInternal.Weighted>
2.4189

> <Gold.Chemscore.Rot.Weighted>
4.4682

> <Gold.Chemscore.Internal.Correction.Weighted>
   9.000000E+99

> <Gold.Protein.RotatedTorsions>
[ 6907 6896 6895 6894 ] final   26.56 input  -60.11 | X-H torsion
[ 7974 7965 7964 7962 ] final -122.06 input  175.53 | X-H torsion
[ 8008 7997 7996 7995 ] final  -37.36 input   59.86 | X-H torsion
[ 10167 10162 10161 10158 ] final -168.06 input  -65.29 | X-H torsion
[ 10718 10713 10712 10709 ] final  -81.12 input   66.30 | X-H torsion
[ 10763 10752 10751 10750 ] final -106.87 input  -60.55 | X-H torsion
[ 11005 11000 10999 10996 ] final   48.10 input  -57.11 | X-H torsion

> <Gold.Protein.ActiveResidues>
 VAL166  LYS551  ARG553  GLY616  TRP617  ASP618  TYR619  PRO620  LYS621  CYS622 
 ASP623  PHE694  ASN695  SER759  ASP760  ASP761  ALA762  ILE779  LEU786  VAL792 
 PHE793  MET794  SER795  GLU796  ALA797  LYS798  CYS799  TRP800  GLU811  SER814 

> <Gold.Protein.RotatedAtoms>
  151.9892  134.9988  160.0560 H   0  0  0  0  0  0  0  0  0  0  0  0  # atno 6907 bound_to 6896
  152.1624  133.4586  159.4876 H   0  0  0  0  0  0  0  0  0  0  0  0  # atno 6908 bound_to 6896
  150.6889  134.1972  159.4351 H   0  0  0  0  0  0  0  0  0  0  0  0  # atno 6909 bound_to 6896
  145.0336  140.8087  143.4309 H   0  0  0  0  0  0  0  0  0  0  0  0  # atno 7974 bound_to 7965
  154.4055  140.1606  156.2524 H   0  0  0  0  0  0  0  0  0  0  0  0  # atno 8008 bound_to 7997
  155.9108  140.3427  155.6074 H   0  0  0  0  0  0  0  0  0  0  0  0  # atno 8009 bound_to 7997
  155.7338  140.0784  157.2267 H   0  0  0  0  0  0  0  0  0  0  0  0  # atno 8010 bound_to 7997
  139.6009  144.1013  152.1741 H   0  0  0  0  0  0  0  0  0  0  0  0  # atno 10167 bound_to 10162
  156.0056  130.4594  150.3904 H   0  0  0  0  0  0  0  0  0  0  0  0  # atno 10718 bound_to 10713
  154.8040  135.4696  154.0345 H   0  0  0  0  0  0  0  0  0  0  0  0  # atno 10763 bound_to 10752
  153.1829  135.6843  153.8461 H   0  0  0  0  0  0  0  0  0  0  0  0  # atno 10764 bound_to 10752
  153.8006  135.3230  155.3367 H   0  0  0  0  0  0  0  0  0  0  0  0  # atno 10765 bound_to 10752
  140.1220  134.4817  155.8589 H   0  0  0  0  0  0  0  0  0  0  0  0  # atno 11005 bound_to 11000
  145.1739  139.2389  143.5327 LP  0  0  0  0  0  0  0  0  0  0  0  0  # atno 17320 bound_to 7965
  146.3501  140.1497  142.8592 LP  0  0  0  0  0  0  0  0  0  0  0  0  # atno 17321 bound_to 7965
  140.0609  144.5857  150.7264 LP  0  0  0  0  0  0  0  0  0  0  0  0  # atno 17342 bound_to 10162
  140.7249  143.2625  151.4155 LP  0  0  0  0  0  0  0  0  0  0  0  0  # atno 17343 bound_to 10162
  157.1979  131.0431  151.2666 LP  0  0  0  0  0  0  0  0  0  0  0  0  # atno 17370 bound_to 10713
  157.4002  130.7329  149.6762 LP  0  0  0  0  0  0  0  0  0  0  0  0  # atno 17371 bound_to 10713
  141.2153  133.6764  156.6907 LP  0  0  0  0  0  0  0  0  0  0  0  0  # atno 17394 bound_to 11000
  140.2952  134.8208  157.4051 LP  0  0  0  0  0  0  0  0  0  0  0  0  # atno 17395 bound_to 11000

$$$$
