AV-unprocessed.smi:846|AV-procd|sdf|3936|dock8
  -GOLD-   22720 1403D 1   1.00000     0.00000
 Structure written by MMmdl.
 37 38  0  0  0  0  0  0  0  0  1 V2000
  145.0036  134.1545  151.7454 C   0  0  0  0  0  0  0  0  0  0  0  0
  145.6235  132.9812  152.5088 C   0  0  0  0  0  0  0  0  0  0  0  0
  146.6261  133.4947  153.3777 O   0  0  0  0  0  0  0  0  0  0  0  0
  147.1034  132.6933  154.3971 C   0  0  0  0  0  0  0  0  0  0  0  0
  146.5232  131.4844  154.6009 N   0  0  0  0  0  0  0  0  0  0  0  0
  146.9960  130.7084  155.5985 C   0  0  0  0  0  0  0  0  0  0  0  0
  148.0564  131.0943  156.4401 C   0  0  0  0  0  0  0  0  0  0  0  0
  148.6588  132.3488  156.2300 C   0  0  0  0  0  0  0  0  0  0  0  0
  148.1813  133.1667  155.1788 C   0  0  0  0  0  0  0  0  0  0  0  0
  148.6943  134.4563  154.8814 N   0  0  0  0  0  0  0  0  0  0  0  0
  149.7177  135.1157  155.4552 C   0  0  0  0  0  0  0  0  0  0  0  0
  150.3243  134.7373  156.4548 O   0  0  0  0  0  0  0  0  0  0  0  0
  150.0482  136.2582  154.8252 N   0  0  0  0  0  0  0  0  0  0  0  0
  151.1049  137.2089  155.1809 C   0  0  1  0  0  0  0  0  0  0  0  0
  150.9776  138.5114  154.3694 C   0  0  0  0  0  0  0  0  0  0  0  0
  151.8721  139.5824  155.0090 C   0  0  0  0  0  0  0  0  0  0  0  0
  151.9564  139.1808  156.7966 S   0  0  0  0  0  0  0  0  0  0  0  0
  153.3585  138.9266  157.1610 O   0  0  0  0  0  0  0  0  0  0  0  0
  151.1357  140.1332  157.5595 O   0  0  0  0  0  0  0  0  0  0  0  0
  151.0669  137.5864  156.6716 C   0  0  0  0  0  0  0  0  0  0  0  0
  144.2264  133.8093  151.0634 H   0  0  0  0  0  0  0  0  0  0  0  0
  145.7562  134.6808  151.1574 H   0  0  0  0  0  0  0  0  0  0  0  0
  144.5532  134.8733  152.4306 H   0  0  0  0  0  0  0  0  0  0  0  0
  144.8515  132.4644  153.0811 H   0  0  0  0  0  0  0  0  0  0  0  0
  146.0563  132.2711  151.8026 H   0  0  0  0  0  0  0  0  0  0  0  0
  146.5106  129.7532  155.7337 H   0  0  0  0  0  0  0  0  0  0  0  0
  148.3964  130.4443  157.2329 H   0  0  0  0  0  0  0  0  0  0  0  0
  149.4586  132.6630  156.8826 H   0  0  0  0  0  0  0  0  0  0  0  0
  148.3270  134.8746  154.0392 H   0  0  0  0  0  0  0  0  0  0  0  0
  149.5053  136.4918  154.0062 H   0  0  0  0  0  0  0  0  0  0  0  0
  152.0808  136.7773  154.9515 H   0  0  0  0  0  0  0  0  0  0  0  0
  151.2252  138.3605  153.3183 H   0  0  0  0  0  0  0  0  0  0  0  0
  149.9431  138.8565  154.4052 H   0  0  0  0  0  0  0  0  0  0  0  0
  152.8840  139.5337  154.6063 H   0  0  0  0  0  0  0  0  0  0  0  0
  151.4896  140.5933  154.8677 H   0  0  0  0  0  0  0  0  0  0  0  0
  150.0431  137.7481  157.0108 H   0  0  0  0  0  0  0  0  0  0  0  0
  151.5365  136.8473  157.3209 H   0  0  0  0  0  0  0  0  0  0  0  0
  1  2  1  0  0  0  0
  1 21  1  0  0  0  0
  1 22  1  0  0  0  0
  1 23  1  0  0  0  0
  2  3  1  0  0  0  0
  2 24  1  0  0  0  0
  2 25  1  0  0  0  0
  3  4  1  0  0  0  0
  4  9  1  0  0  0  0
  4  5  2  0  0  0  0
  5  6  1  0  0  0  0
  6  7  2  0  0  0  0
  6 26  1  0  0  0  0
  7  8  1  0  0  0  0
  7 27  1  0  0  0  0
  8  9  2  0  0  0  0
  8 28  1  0  0  0  0
  9 10  1  0  0  0  0
 10 11  1  0  0  0  0
 10 29  1  0  0  0  0
 11 12  2  0  0  0  0
 11 13  1  0  0  0  0
 13 14  1  0  0  0  0
 13 30  1  0  0  0  0
 14 20  1  0  0  0  0
 14 15  1  0  0  0  0
 14 31  1  0  0  0  0
 15 16  1  0  0  0  0
 15 32  1  0  0  0  0
 15 33  1  0  0  0  0
 16 17  1  0  0  0  0
 16 34  1  0  0  0  0
 16 35  1  0  0  0  0
 17 18  2  0  0  0  0
 17 19  2  0  0  0  0
 17 20  1  0  0  0  0
 20 36  1  0  0  0  0
 20 37  1  0  0  0  0
M  END
> <s_m_source_file>
AV-unprocessed.smi

> <i_m_source_file_index>
846

> <i_lp_mmshare_version>
43012

> <i_f3d_flags>
0

> <s_epik_input>
W0NIM11bQ0gyXU9jMW5bY0hdW2NIXVtjSF1jMVtOSF1DKD1PKVtOSF1bQ0BASF0oW0NIMl0yKVtDSDJdW0NIMl1TMig9Tyk9Tw==

> <s_epik_cmdline>
J2VwaWtfcHl0aG9uJywgJy1waCcsICc3LjAnLCAnLXRuJywgJzgnLCAnLW1hJywgJzIwMCcsICctbWV0YWxfYmluZGluZycsICctaW1hZScsICc8aW5maWxlLm1hZT4nLCAnLW9tYWUnLCAnPG91dGZpbGUubWFlPic=

> <r_lp_tautomer_probability>
1

> <r_epik_Ionization_Penalty>
9.45557e-05

> <r_epik_Ionization_Penalty_Charging>
0

> <r_epik_Ionization_Penalty_Neutral>
9.45557e-05

> <r_epik_State_Penalty>
-0

> <r_epik_Charging_Adjusted_Penalty>
0

> <i_epik_Tot_Q>
0

> <i_epik_Tot_abs_Q>
0

> <r_epik_Metal_State_Penalty>
-0

> <b_epik_Metal_Only>
0

> <s_lp_Force_Field>
OPLS_2005

> <r_lp_Energy>
17.3952

> <b_lp_Chiralities_Consistent>
1

> <s_lp_Variant>
AV-unprocessed.smi:846-2

> <Gold.Version>
5.8.1

> <Gold.Id.Protein>
6NUR|6NUR_protein|mol2

> <Gold.PLP.Fitness>
40.6366

> <Gold.PLP.PLP>
-32.2059

> <Gold.PLP.part.hbond>
-4.3139

> <Gold.PLP.part.metal>
0.0000

> <Gold.PLP.part.buried>
-2.8487

> <Gold.PLP.part.nonpolar>
-26.1266

> <Gold.PLP.part.repulsive>
0.8614

> <Gold.PLP.ligand.clash>
0.0000

> <Gold.PLP.ligand.torsion>
0.2016

> <Gold.PLP.Chemscore.Hbond>
2.9440

> <Gold.PLP.Chemscore.CHOScore>
0.0000

> <Gold.PLP.Chemscore.Metal>
0.0000

> <Gold.Chemscore.Hbonds>
donor molecule, donor type, donor heavy atom, donor atom, acceptor molecule, acceptor atom, score
      L1  H    13    30       P1  7948  0.57
      P1  H  7997  8010       L1    18  1.00

> <Gold.PLP.Chemscore.Internal.Correction>
0.0020

> <Gold.Rescore>
     Score         DG    S(hbond)    S(metal)    S(lipo)     H(rot)  DE(clash)    DE(int)     intcor
     12.15     -14.91       1.99        0.00      56.64       1.50       0.15       2.61       ----

> <Gold.Chemscore.Fitness>
12.1470

> <Gold.Chemscore.DG>
-14.9077

> <Gold.Chemscore.ZeroCoef>
-5.4800

> <Gold.Chemscore.Hbond>
1.9907

> <Gold.Chemscore.Metal>
0.0000

> <Gold.Chemscore.Lipo>
56.6427

> <Gold.Chemscore.Internal_Hbond>
0.0000

> <Gold.Chemscore.DEClash>
0.1547

> <Gold.Chemscore.DEInternal>
2.6060

> <Gold.Chemscore.Rot>
1.5033

> <Gold.Chemscore.Internal.Correction>
   9.000000E+99

> <Gold.Chemscore.Hbonds>
donor molecule, donor type, donor heavy atom, donor atom, acceptor molecule, acceptor atom, score
      L1  H    13    30       P1  7948  0.44
      P1  H  7997  8010       L1    18  0.97

> <Gold.Chemscore.Hbond.Weighted>
-6.6490

> <Gold.Chemscore.Metal.Weighted>
-0.0000

> <Gold.Chemscore.Lipo.Weighted>
-6.6272

> <Gold.Chemscore.Internal_Hbond.Weighted>
0.0000

> <Gold.Chemscore.DEClash.Weighted>
0.1547

> <Gold.Chemscore.DEInternal.Weighted>
2.6060

> <Gold.Chemscore.Rot.Weighted>
3.8484

> <Gold.Chemscore.Internal.Correction.Weighted>
   9.000000E+99

> <Gold.Protein.RotatedTorsions>
[ 6907 6896 6895 6894 ] final   41.65 input  -60.11 | X-H torsion
[ 7974 7965 7964 7962 ] final  162.45 input  175.53 | X-H torsion
[ 8008 7997 7996 7995 ] final   43.78 input   59.86 | X-H torsion
[ 10167 10162 10161 10158 ] final -173.44 input  -65.29 | X-H torsion
[ 10718 10713 10712 10709 ] final -155.53 input   66.30 | X-H torsion
[ 10763 10752 10751 10750 ] final  127.57 input  -60.55 | X-H torsion
[ 11005 11000 10999 10996 ] final   -0.66 input  -57.11 | X-H torsion

> <Gold.Protein.ActiveResidues>
 VAL166  LYS551  ARG553  GLY616  TRP617  ASP618  TYR619  PRO620  LYS621  CYS622 
 ASP623  PHE694  ASN695  SER759  ASP760  ASP761  ALA762  ILE779  LEU786  VAL792 
 PHE793  MET794  SER795  GLU796  ALA797  LYS798  CYS799  TRP800  GLU811  SER814 

> <Gold.Protein.RotatedAtoms>
  152.1979  134.8614  160.0510 H   0  0  0  0  0  0  0  0  0  0  0  0  # atno 6907 bound_to 6896
  151.9478  133.3652  159.3997 H   0  0  0  0  0  0  0  0  0  0  0  0  # atno 6908 bound_to 6896
  150.6948  134.4296  159.5286 H   0  0  0  0  0  0  0  0  0  0  0  0  # atno 6909 bound_to 6896
  144.7636  139.8041  143.6323 H   0  0  0  0  0  0  0  0  0  0  0  0  # atno 7974 bound_to 7965
  155.3085  140.3389  155.4245 H   0  0  0  0  0  0  0  0  0  0  0  0  # atno 8008 bound_to 7997
  156.1967  140.1717  156.8022 H   0  0  0  0  0  0  0  0  0  0  0  0  # atno 8009 bound_to 7997
  154.5508  140.0706  156.8648 H   0  0  0  0  0  0  0  0  0  0  0  0  # atno 8010 bound_to 7997
  139.5688  144.1691  152.1353 H   0  0  0  0  0  0  0  0  0  0  0  0  # atno 10167 bound_to 10162
  156.5141  130.8448  151.2657 H   0  0  0  0  0  0  0  0  0  0  0  0  # atno 10718 bound_to 10713
  153.7115  135.3267  155.3247 H   0  0  0  0  0  0  0  0  0  0  0  0  # atno 10763 bound_to 10752
  154.8383  135.4478  154.1309 H   0  0  0  0  0  0  0  0  0  0  0  0  # atno 10764 bound_to 10752
  153.2404  135.6970  153.7869 H   0  0  0  0  0  0  0  0  0  0  0  0  # atno 10765 bound_to 10752
  140.6388  133.9508  155.8314 H   0  0  0  0  0  0  0  0  0  0  0  0  # atno 11005 bound_to 11000
  146.1723  139.4878  142.9920 LP  0  0  0  0  0  0  0  0  0  0  0  0  # atno 17320 bound_to 7965
  145.6540  141.0256  143.1745 LP  0  0  0  0  0  0  0  0  0  0  0  0  # atno 17321 bound_to 7965
  140.1220  144.5365  150.6857 LP  0  0  0  0  0  0  0  0  0  0  0  0  # atno 17342 bound_to 10162
  140.6972  143.2411  151.4967 LP  0  0  0  0  0  0  0  0  0  0  0  0  # atno 17343 bound_to 10162
  157.7446  130.9939  150.2690 LP  0  0  0  0  0  0  0  0  0  0  0  0  # atno 17370 bound_to 10713
  156.3212  130.3786  149.7574 LP  0  0  0  0  0  0  0  0  0  0  0  0  # atno 17371 bound_to 10713
  141.0622  134.0329  157.3643 LP  0  0  0  0  0  0  0  0  0  0  0  0  # atno 17394 bound_to 11000
  139.9088  135.0186  156.7603 LP  0  0  0  0  0  0  0  0  0  0  0  0  # atno 17395 bound_to 11000

$$$$
