AV-unprocessed.smi:2521|AV-procd|sdf|9917|dock4
  -GOLD-   2272013553D 1   1.00000     0.00000
 Structure written by MMmdl.
 35 36  0  0  0  0  0  0  0  0  2 V2000
  148.6226  141.4206  156.2525 C   0  0  0  0  0  0  0  0  0  0  0  0
  149.2764  141.2359  154.8752 C   0  0  0  0  0  0  0  0  0  0  0  0
  148.2866  141.3932  153.7117 C   0  0  0  0  0  0  0  0  0  0  0  0
  150.0549  139.9604  154.7854 C   0  0  0  0  0  0  0  0  0  0  0  0
  151.3881  139.9199  154.7317 N   0  0  0  0  0  0  0  0  0  0  0  0
  151.8688  138.6222  154.6581 N   0  0  0  0  0  0  0  0  0  0  0  0
  150.9007  137.6871  154.6547 C   0  0  0  0  0  0  0  0  0  0  0  0
  151.0788  136.3481  154.5947 N   0  5  0  0  0  0  0  0  0  0  0  0
  150.2910  135.4209  155.1974 C   0  0  0  0  0  0  0  0  0  0  0  0
  150.3853  134.9881  156.3476 O   0  0  0  0  0  0  0  0  0  0  0  0
  149.3166  134.9595  154.4018 N   0  0  0  0  0  0  0  0  0  0  0  0
  148.3235  133.9615  154.7799 C   0  0  0  0  0  0  0  0  0  0  0  0
  148.5018  132.6708  153.9643 C   0  0  2  0  0  0  0  0  0  0  0  0
  147.3826  131.6606  154.1238 C   0  0  0  0  0  0  0  0  0  0  0  0
  148.0455  130.3758  153.6360 C   0  0  0  0  0  0  0  0  0  0  0  0
  149.4307  130.5074  153.9443 O   0  0  0  0  0  0  0  0  0  0  0  0
  149.7111  131.8344  154.3802 C   0  0  0  0  0  0  0  0  0  0  0  0
  149.2836  138.3843  154.7440 S   0  0  0  0  0  0  0  0  0  0  0  0
  149.3685  141.3888  157.0471 H   0  0  0  0  0  0  0  0  0  0  0  0
  147.8892  140.6385  156.4519 H   0  0  0  0  0  0  0  0  0  0  0  0
  148.1101  142.3806  156.3181 H   0  0  0  0  0  0  0  0  0  0  0  0
  150.0011  142.0442  154.7706 H   0  0  0  0  0  0  0  0  0  0  0  0
  148.8004  141.3412  152.7513 H   0  0  0  0  0  0  0  0  0  0  0  0
  147.7727  142.3536  153.7603 H   0  0  0  0  0  0  0  0  0  0  0  0
  147.5283  140.6098  153.7269 H   0  0  0  0  0  0  0  0  0  0  0  0
  149.2625  135.3309  153.4647 H   0  0  0  0  0  0  0  0  0  0  0  0
  148.4224  133.7436  155.8443 H   0  0  0  0  0  0  0  0  0  0  0  0
  147.3233  134.3705  154.6275 H   0  0  0  0  0  0  0  0  0  0  0  0
  148.6005  132.9199  152.9062 H   0  0  0  0  0  0  0  0  0  0  0  0
  147.1050  131.5628  155.1744 H   0  0  0  0  0  0  0  0  0  0  0  0
  146.4872  131.9167  153.5568 H   0  0  0  0  0  0  0  0  0  0  0  0
  147.6168  129.4864  154.0983 H   0  0  0  0  0  0  0  0  0  0  0  0
  147.9396  130.2798  152.5547 H   0  0  0  0  0  0  0  0  0  0  0  0
  150.6424  132.2056  153.9519 H   0  0  0  0  0  0  0  0  0  0  0  0
  149.8199  131.8229  155.4655 H   0  0  0  0  0  0  0  0  0  0  0  0
  1  2  1  0  0  0  0
  1 19  1  0  0  0  0
  1 20  1  0  0  0  0
  1 21  1  0  0  0  0
  2  3  1  0  0  0  0
  2  4  1  0  0  0  0
  2 22  1  0  0  0  0
  3 23  1  0  0  0  0
  3 24  1  0  0  0  0
  3 25  1  0  0  0  0
  4 18  1  0  0  0  0
  4  5  2  0  0  0  0
  5  6  1  0  0  0  0
  6  7  2  0  0  0  0
  7  8  1  0  0  0  0
  7 18  1  0  0  0  0
  8  9  1  0  0  0  0
  9 10  2  0  0  0  0
  9 11  1  0  0  0  0
 11 12  1  0  0  0  0
 11 26  1  0  0  0  0
 12 13  1  0  0  0  0
 12 27  1  0  0  0  0
 12 28  1  0  0  0  0
 13 17  1  0  0  0  0
 13 14  1  0  0  0  0
 13 29  1  0  0  0  0
 14 15  1  0  0  0  0
 14 30  1  0  0  0  0
 14 31  1  0  0  0  0
 15 16  1  0  0  0  0
 15 32  1  0  0  0  0
 15 33  1  0  0  0  0
 16 17  1  0  0  0  0
 17 34  1  0  0  0  0
 17 35  1  0  0  0  0
M  CHG  1   8  -1
M  END
> <s_m_source_file>
AV-unprocessed.smi

> <i_m_source_file_index>
2521

> <i_lp_mmshare_version>
43012

> <i_f3d_flags>
0

> <s_epik_input>
W0NIM11bQ0hdKFtDSDNdKWMxbm5jKHMxKVtOSF1DKD1PKVtOSF1bQ0gyXVtDQEBIXTJbQ0gyXVtDSDJdT1tDSDJdMg==

> <s_epik_cmdline>
J2VwaWtfcHl0aG9uJywgJy1waCcsICc3LjAnLCAnLXRuJywgJzgnLCAnLW1hJywgJzIwMCcsICctbWV0YWxfYmluZGluZycsICctaW1hZScsICc8aW5maWxlLm1hZT4nLCAnLW9tYWUnLCAnPG91dGZpbGUubWFlPic=

> <r_lp_tautomer_probability>
1

> <r_epik_Ionization_Penalty>
4.4451

> <r_epik_Ionization_Penalty_Charging>
4.28522

> <r_epik_Ionization_Penalty_Neutral>
0.159875

> <r_epik_State_Penalty>
4.28479

> <r_epik_Charging_Adjusted_Penalty>
8.57002

> <i_epik_Tot_Q>
-1

> <i_epik_Tot_abs_Q>
1

> <r_epik_Metal_State_Penalty>
0.721771

> <b_epik_Metal_Only>
1

> <s_lp_Force_Field>
OPLS_2005

> <r_lp_Energy>
14.6033

> <b_lp_Chiralities_Consistent>
1

> <s_lp_Variant>
AV-unprocessed.smi:2521-3

> <Gold.Version>
5.8.1

> <Gold.Id.Protein>
6NUR|6NUR_protein|mol2

> <Gold.PLP.Fitness>
38.7032

> <Gold.PLP.PLP>
-28.9457

> <Gold.PLP.part.hbond>
-2.9841

> <Gold.PLP.part.metal>
0.0000

> <Gold.PLP.part.buried>
-3.6352

> <Gold.PLP.part.nonpolar>
-22.3423

> <Gold.PLP.part.repulsive>
0.7858

> <Gold.PLP.ligand.clash>
0.0000

> <Gold.PLP.ligand.torsion>
1.1650

> <Gold.PLP.Chemscore.Hbond>
4.0000

> <Gold.PLP.Chemscore.CHOScore>
0.0000

> <Gold.PLP.Chemscore.Metal>
0.0000

> <Gold.Chemscore.Hbonds>
donor molecule, donor type, donor heavy atom, donor atom, acceptor molecule, acceptor atom, score
      L1  H    11    26       P1  7948  1.00
      P1  H  7989  7998       L1     5  1.00
      P1  H 10752 10764       L1     8  2.00

> <Gold.PLP.Chemscore.Internal.Correction>
0.0875

> <Gold.Rescore>
     Score         DG    S(hbond)    S(metal)    S(lipo)     H(rot)  DE(clash)    DE(int)     intcor
     13.04     -14.22       1.91        0.00      51.17       1.42       0.09       1.10       ----

> <Gold.Chemscore.Fitness>
13.0384

> <Gold.Chemscore.DG>
-14.2199

> <Gold.Chemscore.ZeroCoef>
-5.4800

> <Gold.Chemscore.Hbond>
1.9121

> <Gold.Chemscore.Metal>
0.0000

> <Gold.Chemscore.Lipo>
51.1694

> <Gold.Chemscore.Internal_Hbond>
0.0000

> <Gold.Chemscore.DEClash>
0.0853

> <Gold.Chemscore.DEInternal>
1.0963

> <Gold.Chemscore.Rot>
1.4193

> <Gold.Chemscore.Internal.Correction>
   9.000000E+99

> <Gold.Chemscore.Hbonds>
donor molecule, donor type, donor heavy atom, donor atom, acceptor molecule, acceptor atom, score
      L1  H    11    26       P1  7948  0.26
      P1  H  7989  7998       L1     5  0.23
      P1  H 10752 10764       L1     8  0.74

> <Gold.Chemscore.Hbond.Weighted>
-6.3864

> <Gold.Chemscore.Metal.Weighted>
-0.0000

> <Gold.Chemscore.Lipo.Weighted>
-5.9868

> <Gold.Chemscore.Internal_Hbond.Weighted>
0.0000

> <Gold.Chemscore.DEClash.Weighted>
0.0853

> <Gold.Chemscore.DEInternal.Weighted>
1.0963

> <Gold.Chemscore.Rot.Weighted>
3.6333

> <Gold.Chemscore.Internal.Correction.Weighted>
   9.000000E+99

> <Gold.Protein.RotatedTorsions>
[ 6907 6896 6895 6894 ] final -149.79 input  -60.11 | X-H torsion
[ 7974 7965 7964 7962 ] final -141.28 input  175.53 | X-H torsion
[ 8008 7997 7996 7995 ] final  114.55 input   59.86 | X-H torsion
[ 10167 10162 10161 10158 ] final   58.52 input  -65.29 | X-H torsion
[ 10718 10713 10712 10709 ] final   72.35 input   66.30 | X-H torsion
[ 10763 10752 10751 10750 ] final  -76.37 input  -60.55 | X-H torsion
[ 11005 11000 10999 10996 ] final   35.35 input  -57.11 | X-H torsion

> <Gold.Protein.ActiveResidues>
 VAL166  LYS551  ARG553  GLY616  TRP617  ASP618  TYR619  PRO620  LYS621  CYS622 
 ASP623  PHE694  ASN695  SER759  ASP760  ASP761  ALA762  ILE779  LEU786  VAL792 
 PHE793  MET794  SER795  GLU796  ALA797  LYS798  CYS799  TRP800  GLU811  SER814 

> <Gold.Protein.RotatedAtoms>
  151.1892  133.4677  159.2594 H   0  0  0  0  0  0  0  0  0  0  0  0  # atno 6907 bound_to 6896
  151.1181  135.0064  159.8535 H   0  0  0  0  0  0  0  0  0  0  0  0  # atno 6908 bound_to 6896
  152.5454  134.1805  159.8687 H   0  0  0  0  0  0  0  0  0  0  0  0  # atno 6909 bound_to 6896
  144.8531  140.6099  143.5377 H   0  0  0  0  0  0  0  0  0  0  0  0  # atno 7974 bound_to 7965
  156.2328  140.2957  156.0232 H   0  0  0  0  0  0  0  0  0  0  0  0  # atno 8008 bound_to 7997
  155.2178  140.0414  157.2960 H   0  0  0  0  0  0  0  0  0  0  0  0  # atno 8009 bound_to 7997
  154.6025  140.2430  155.7781 H   0  0  0  0  0  0  0  0  0  0  0  0  # atno 8010 bound_to 7997
  140.1863  144.4131  150.6591 H   0  0  0  0  0  0  0  0  0  0  0  0  # atno 10167 bound_to 10162
  157.6497  130.9574  150.0917 H   0  0  0  0  0  0  0  0  0  0  0  0  # atno 10718 bound_to 10713
  154.4989  135.5800  153.6516 H   0  0  0  0  0  0  0  0  0  0  0  0  # atno 10763 bound_to 10752
  152.9875  135.6131  154.3028 H   0  0  0  0  0  0  0  0  0  0  0  0  # atno 10764 bound_to 10752
  154.2934  135.2848  155.2624 H   0  0  0  0  0  0  0  0  0  0  0  0  # atno 10765 bound_to 10752
  140.2436  134.3386  155.7916 H   0  0  0  0  0  0  0  0  0  0  0  0  # atno 11005 bound_to 11000
  145.4459  139.1529  143.3945 LP  0  0  0  0  0  0  0  0  0  0  0  0  # atno 17320 bound_to 7965
  146.2801  140.4583  142.8779 LP  0  0  0  0  0  0  0  0  0  0  0  0  # atno 17321 bound_to 7965
  140.6486  143.2219  151.6130 LP  0  0  0  0  0  0  0  0  0  0  0  0  # atno 17342 bound_to 10162
  139.5274  144.3016  152.1068 LP  0  0  0  0  0  0  0  0  0  0  0  0  # atno 17343 bound_to 10162
  156.1864  130.3652  149.8967 LP  0  0  0  0  0  0  0  0  0  0  0  0  # atno 17370 bound_to 10713
  156.6906  130.8894  151.3588 LP  0  0  0  0  0  0  0  0  0  0  0  0  # atno 17371 bound_to 10713
  141.2208  133.7313  156.8924 LP  0  0  0  0  0  0  0  0  0  0  0  0  # atno 17394 bound_to 11000
  140.1628  134.9153  157.2737 LP  0  0  0  0  0  0  0  0  0  0  0  0  # atno 17395 bound_to 11000

$$$$
