AV-unprocessed.smi:1554|AV-procd|sdf|6257|dock10
  -GOLD-   22720 6443D 1   1.00000     0.00000
 Structure written by MMmdl.
 49 51  0  0  0  0  0  0  0  0  3 V2000
  152.1534  144.5153  160.6894 C   0  0  0  0  0  0  0  0  0  0  0  0
  151.8789  143.4423  159.6495 C   0  0  0  0  0  0  0  0  0  0  0  0
  151.0931  143.7785  158.5244 C   0  0  0  0  0  0  0  0  0  0  0  0
  150.8622  142.7763  157.5895 C   0  0  0  0  0  0  0  0  0  0  0  0
  150.1414  142.7914  156.3939 N   0  3  0  0  0  0  0  0  0  0  0  0
  150.2002  141.5617  155.8121 C   0  0  0  0  0  0  0  0  0  0  0  0
  150.9483  140.7601  156.6186 N   0  0  0  0  0  0  0  0  0  0  0  0
  151.3164  139.3460  156.4525 C   0  0  0  0  0  0  0  0  0  0  0  0
  151.9631  139.0510  155.0842 C   0  0  1  0  0  0  0  0  0  0  0  0
  153.3656  138.9374  155.2339 O   0  0  0  0  0  0  0  0  0  0  0  0
  151.4240  137.7452  154.4666 C   0  0  0  0  0  0  0  0  0  0  0  0
  149.9467  137.7527  154.3081 N   0  3  1  0  0  0  0  0  0  0  0  0
  149.2506  137.1185  155.4525 C   0  0  0  0  0  0  0  0  0  0  0  0
  147.7323  137.0955  155.2122 C   0  0  0  0  0  0  0  0  0  0  0  0
  147.2656  138.4203  154.9897 O   0  0  0  0  0  0  0  0  0  0  0  0
  147.8561  139.0144  153.8390 C   0  0  1  0  0  0  0  0  0  0  0  0
  147.2231  140.3952  153.6342 C   0  0  0  0  0  0  0  0  0  0  0  0
  149.3816  139.0991  154.0423 C   0  0  0  0  0  0  0  0  0  0  0  0
  151.3811  141.4756  157.7423 C   0  0  0  0  0  0  0  0  0  0  0  0
  152.1560  141.1278  158.8467 C   0  0  0  0  0  0  0  0  0  0  0  0
  152.4027  142.1331  159.8090 C   0  0  0  0  0  0  0  0  0  0  0  0
  153.2460  141.7823  161.0231 C   0  0  0  0  0  0  0  0  0  0  0  0
  151.6969  145.4659  160.4121 H   0  0  0  0  0  0  0  0  0  0  0  0
  153.2259  144.6801  160.7963 H   0  0  0  0  0  0  0  0  0  0  0  0
  151.7490  144.2216  161.6582 H   0  0  0  0  0  0  0  0  0  0  0  0
  150.6905  144.7729  158.3967 H   0  0  0  0  0  0  0  0  0  0  0  0
  149.7361  141.2753  154.8794 H   0  0  0  0  0  0  0  0  0  0  0  0
  151.9642  139.0411  157.2747 H   0  0  0  0  0  0  0  0  0  0  0  0
  150.3989  138.7657  156.5587 H   0  0  0  0  0  0  0  0  0  0  0  0
  151.7628  139.8939  154.4234 H   0  0  0  0  0  0  0  0  0  0  0  0
  153.5496  138.2532  155.8594 H   0  0  0  0  0  0  0  0  0  0  0  0
  151.8969  137.6023  153.4934 H   0  0  0  0  0  0  0  0  0  0  0  0
  151.7144  136.8853  155.0723 H   0  0  0  0  0  0  0  0  0  0  0  0
  149.6133  136.0991  155.5903 H   0  0  0  0  0  0  0  0  0  0  0  0
  149.4764  137.6674  156.3682 H   0  0  0  0  0  0  0  0  0  0  0  0
  147.4808  136.4593  154.3621 H   0  0  0  0  0  0  0  0  0  0  0  0
  147.2206  136.6817  156.0812 H   0  0  0  0  0  0  0  0  0  0  0  0
  147.6353  138.3992  152.9648 H   0  0  0  0  0  0  0  0  0  0  0  0
  147.6324  140.8883  152.7520 H   0  0  0  0  0  0  0  0  0  0  0  0
  147.4008  141.0434  154.4929 H   0  0  0  0  0  0  0  0  0  0  0  0
  146.1446  140.3129  153.4973 H   0  0  0  0  0  0  0  0  0  0  0  0
  149.6122  139.7625  154.8776 H   0  0  0  0  0  0  0  0  0  0  0  0
  149.8391  139.5344  153.1546 H   0  0  0  0  0  0  0  0  0  0  0  0
  152.5591  140.1341  158.9700 H   0  0  0  0  0  0  0  0  0  0  0  0
  153.5411  140.7325  161.0144 H   0  0  0  0  0  0  0  0  0  0  0  0
  152.6892  141.9625  161.9429 H   0  0  0  0  0  0  0  0  0  0  0  0
  154.1549  142.3841  161.0438 H   0  0  0  0  0  0  0  0  0  0  0  0
  149.7429  137.1803  153.5009 H   0  0  0  0  0  0  0  0  0  0  0  0
  149.6448  143.5814  156.0019 H   0  0  0  0  0  0  0  0  0  0  0  0
  1  2  1  0  0  0  0
  1 23  1  0  0  0  0
  1 24  1  0  0  0  0
  1 25  1  0  0  0  0
  2 21  1  0  0  0  0
  2  3  2  0  0  0  0
  3  4  1  0  0  0  0
  3 26  1  0  0  0  0
  4 19  2  0  0  0  0
  4  5  1  0  0  0  0
  5  6  2  0  0  0  0
  5 49  1  0  0  0  0
  6  7  1  0  0  0  0
  6 27  1  0  0  0  0
  7  8  1  0  0  0  0
  7 19  1  0  0  0  0
  8  9  1  0  0  0  0
  8 28  1  0  0  0  0
  8 29  1  0  0  0  0
  9 10  1  0  0  0  0
  9 11  1  0  0  0  0
  9 30  1  0  0  0  0
 10 31  1  0  0  0  0
 11 12  1  0  0  0  0
 11 32  1  0  0  0  0
 11 33  1  0  0  0  0
 12 18  1  0  0  0  0
 12 13  1  0  0  0  0
 12 48  1  0  0  0  0
 13 14  1  0  0  0  0
 13 34  1  0  0  0  0
 13 35  1  0  0  0  0
 14 15  1  0  0  0  0
 14 36  1  0  0  0  0
 14 37  1  0  0  0  0
 15 16  1  0  0  0  0
 16 17  1  0  0  0  0
 16 18  1  0  0  0  0
 16 38  1  0  0  0  0
 17 39  1  0  0  0  0
 17 40  1  0  0  0  0
 17 41  1  0  0  0  0
 18 42  1  0  0  0  0
 18 43  1  0  0  0  0
 19 20  1  0  0  0  0
 20 21  2  0  0  0  0
 20 44  1  0  0  0  0
 21 22  1  0  0  0  0
 22 45  1  0  0  0  0
 22 46  1  0  0  0  0
 22 47  1  0  0  0  0
M  CHG  1   5   1
M  CHG  1  12   1
M  END
> <s_m_source_file>
AV-unprocessed.smi

> <i_m_source_file_index>
1554

> <i_lp_mmshare_version>
43012

> <i_f3d_flags>
0

> <s_epik_input>
W0NIM11jKFtjSF0xKWMoW0NIM10pW2NIXWMoYzEyKW4oW2NIXW4yKVtDSDJdW0NASF0oW09IXSlbQ0gyXU4zW0NIMl1bQ0gyXU9bQ0BASF0oW0NIM10pW0NIMl0z

> <s_epik_cmdline>
J2VwaWtfcHl0aG9uJywgJy1waCcsICc3LjAnLCAnLXRuJywgJzgnLCAnLW1hJywgJzIwMCcsICctbWV0YWxfYmluZGluZycsICctaW1hZScsICc8aW5maWxlLm1hZT4nLCAnLW9tYWUnLCAnPG91dGZpbGUubWFlPic=

> <r_epik_Ionization_Penalty>
1.8848

> <r_epik_Ionization_Penalty_Charging>
1.88479

> <r_epik_Ionization_Penalty_Neutral>
1.42224e-05

> <r_epik_State_Penalty>
1.94551

> <r_epik_Charging_Adjusted_Penalty>
3.8303

> <i_epik_Tot_Q>
2

> <i_epik_Tot_abs_Q>
2

> <r_epik_Metal_State_Penalty>
5.95849

> <b_epik_Metal_Only>
0

> <s_lp_Force_Field>
OPLS_2005

> <r_lp_Energy>
30.3036

> <b_lp_Chiralities_Consistent>
1

> <s_lp_Variant>
AV-unprocessed.smi:1554-18

> <Gold.Version>
5.8.1

> <Gold.Id.Protein>
6NUR|6NUR_protein|mol2

> <Gold.PLP.Fitness>
58.9826

> <Gold.PLP.PLP>
-46.0667

> <Gold.PLP.part.hbond>
-2.9797

> <Gold.PLP.part.metal>
0.0000

> <Gold.PLP.part.buried>
-4.8120

> <Gold.PLP.part.nonpolar>
-39.5446

> <Gold.PLP.part.repulsive>
0.1973

> <Gold.PLP.ligand.clash>
0.0000

> <Gold.PLP.ligand.torsion>
1.0643

> <Gold.PLP.Chemscore.Hbond>
5.0000

> <Gold.PLP.Chemscore.CHOScore>
0.0000

> <Gold.PLP.Chemscore.Metal>
0.0000

> <Gold.Chemscore.Hbonds>
donor molecule, donor type, donor heavy atom, donor atom, acceptor molecule, acceptor atom, score
      L1  H     5    49       P1  8028  1.40
      L1  H    12    48       P1  7948  2.00
      P1  H  7997  8008       L1    10  0.90

> <Gold.PLP.Chemscore.Internal.Correction>
0.0445

> <Gold.Rescore>
     Score         DG    S(hbond)    S(metal)    S(lipo)     H(rot)  DE(clash)    DE(int)     intcor
     20.89     -22.86       2.52        0.00     122.89       2.11       0.91       1.06       ----

> <Gold.Chemscore.Fitness>
20.8878

> <Gold.Chemscore.DG>
-22.8585

> <Gold.Chemscore.ZeroCoef>
-5.4800

> <Gold.Chemscore.Hbond>
2.5174

> <Gold.Chemscore.Metal>
0.0000

> <Gold.Chemscore.Lipo>
122.8855

> <Gold.Chemscore.Internal_Hbond>
0.0000

> <Gold.Chemscore.DEClash>
0.9102

> <Gold.Chemscore.DEInternal>
1.0604

> <Gold.Chemscore.Rot>
2.1122

> <Gold.Chemscore.Internal.Correction>
   9.000000E+99

> <Gold.Chemscore.Hbonds>
donor molecule, donor type, donor heavy atom, donor atom, acceptor molecule, acceptor atom, score
      L1  H     5    49       P1  8028  0.69
      L1  H    12    48       P1  7948  0.62
      P1  H  7997  8008       L1    10  0.17

> <Gold.Chemscore.Hbond.Weighted>
-8.4081

> <Gold.Chemscore.Metal.Weighted>
-0.0000

> <Gold.Chemscore.Lipo.Weighted>
-14.3776

> <Gold.Chemscore.Internal_Hbond.Weighted>
0.0000

> <Gold.Chemscore.DEClash.Weighted>
0.9102

> <Gold.Chemscore.DEInternal.Weighted>
1.0604

> <Gold.Chemscore.Rot.Weighted>
5.4073

> <Gold.Chemscore.Internal.Correction.Weighted>
   9.000000E+99

> <Gold.Protein.RotatedTorsions>
[ 6907 6896 6895 6894 ] final  -21.53 input  -60.11 | X-H torsion
[ 7974 7965 7964 7962 ] final  106.76 input  175.53 | X-H torsion
[ 8008 7997 7996 7995 ] final  -14.30 input   59.86 | X-H torsion
[ 10167 10162 10161 10158 ] final   71.67 input  -65.29 | X-H torsion
[ 10718 10713 10712 10709 ] final  137.40 input   66.30 | X-H torsion
[ 10763 10752 10751 10750 ] final  169.50 input  -60.55 | X-H torsion
[ 11005 11000 10999 10996 ] final   73.51 input  -57.11 | X-H torsion

> <Gold.Protein.ActiveResidues>
 VAL166  LYS551  ARG553  GLY616  TRP617  ASP618  TYR619  PRO620  LYS621  CYS622 
 ASP623  PHE694  ASN695  SER759  ASP760  ASP761  ALA762  ILE779  LEU786  VAL792 
 PHE793  MET794  SER795  GLU796  ALA797  LYS798  CYS799  TRP800  GLU811  SER814 

> <Gold.Protein.RotatedAtoms>
  151.2320  135.0558  159.8990 H   0  0  0  0  0  0  0  0  0  0  0  0  # atno 6907 bound_to 6896
  152.5404  134.0527  159.8127 H   0  0  0  0  0  0  0  0  0  0  0  0  # atno 6908 bound_to 6896
  151.0708  133.5419  159.2659 H   0  0  0  0  0  0  0  0  0  0  0  0  # atno 6909 bound_to 6896
  145.3024  139.2565  143.3807 H   0  0  0  0  0  0  0  0  0  0  0  0  # atno 7974 bound_to 7965
  154.5221  140.2226  155.8957 H   0  0  0  0  0  0  0  0  0  0  0  0  # atno 8008 bound_to 7997
  156.1673  140.3129  155.8876 H   0  0  0  0  0  0  0  0  0  0  0  0  # atno 8009 bound_to 7997
  155.3630  140.0462  157.3037 H   0  0  0  0  0  0  0  0  0  0  0  0  # atno 8010 bound_to 7997
  140.0436  144.5369  150.7415 H   0  0  0  0  0  0  0  0  0  0  0  0  # atno 10167 bound_to 10162
  157.4365  131.1053  151.0192 H   0  0  0  0  0  0  0  0  0  0  0  0  # atno 10718 bound_to 10713
  154.3841  135.2753  155.2194 H   0  0  0  0  0  0  0  0  0  0  0  0  # atno 10763 bound_to 10752
  154.4288  135.5982  153.6059 H   0  0  0  0  0  0  0  0  0  0  0  0  # atno 10764 bound_to 10752
  152.9833  135.5990  154.4087 H   0  0  0  0  0  0  0  0  0  0  0  0  # atno 10765 bound_to 10752
  139.9436  134.7353  156.1035 H   0  0  0  0  0  0  0  0  0  0  0  0  # atno 11005 bound_to 11000
  146.3147  140.3541  142.8659 LP  0  0  0  0  0  0  0  0  0  0  0  0  # atno 17320 bound_to 7965
  144.9082  140.7726  143.5824 LP  0  0  0  0  0  0  0  0  0  0  0  0  # atno 17321 bound_to 7965
  140.7249  143.2626  151.4155 LP  0  0  0  0  0  0  0  0  0  0  0  0  # atno 17342 bound_to 10162
  139.5998  144.1320  152.2185 LP  0  0  0  0  0  0  0  0  0  0  0  0  # atno 17343 bound_to 10162
  157.1070  130.6005  149.5473 LP  0  0  0  0  0  0  0  0  0  0  0  0  # atno 17370 bound_to 10713
  155.9932  130.4993  150.7372 LP  0  0  0  0  0  0  0  0  0  0  0  0  # atno 17371 bound_to 10713
  141.1079  133.6653  156.2909 LP  0  0  0  0  0  0  0  0  0  0  0  0  # atno 17394 bound_to 11000
  140.5889  134.5670  157.5495 LP  0  0  0  0  0  0  0  0  0  0  0  0  # atno 17395 bound_to 11000

$$$$
