AV-unprocessed.smi:2684|AV-procd|sdf|10380|dock4
  -GOLD-   2272014413D 1   1.00000     0.00000
 Structure written by MMmdl.
 44 45  0  0  0  0  0  0  0  0  1 V2000
  143.3392  145.8365  155.9778 C   0  0  0  0  0  0  0  0  0  0  0  0
  144.1151  144.5627  156.1435 C   0  0  0  0  0  0  0  0  0  0  0  0
  144.7624  144.0780  157.3153 C   0  0  0  0  0  0  0  0  0  0  0  0
  145.3737  142.9204  157.1239 N   0  0  0  0  0  0  0  0  0  0  0  0
  145.1288  142.6198  155.8303 N   0  0  0  0  0  0  0  0  0  0  0  0
  145.6643  141.3987  155.2549 C   0  0  0  0  0  0  0  0  0  0  0  0
  147.0541  141.5736  154.6012 C   0  0  2  0  0  0  0  0  0  0  0  0
  147.3521  140.4158  153.6384 C   0  0  0  0  0  0  0  0  0  0  0  0
  148.1090  141.5748  155.6119 N   0  0  0  0  0  0  0  0  0  0  0  0
  149.4505  141.5385  155.0160 C   0  0  0  0  0  0  0  0  0  0  0  0
  150.5484  141.6184  156.0858 C   0  0  0  0  0  0  0  0  0  0  0  0
  151.2757  140.6433  156.2665 O   0  0  0  0  0  0  0  0  0  0  0  0
  150.7216  142.7396  156.8087 N   0  0  0  0  0  0  0  0  0  0  0  0
  151.6989  143.0111  157.8611 C   0  0  0  0  0  0  0  0  0  0  0  0
  151.7142  141.8942  158.9217 C   0  0  0  0  0  0  0  0  0  0  0  0
  152.6234  142.2788  160.0994 C   0  0  0  0  0  0  0  0  0  0  0  0
  152.1888  143.5098  160.6665 O   0  0  0  0  0  0  0  0  0  0  0  0
  152.2650  144.5986  159.7535 C   0  0  0  0  0  0  0  0  0  0  0  0
  151.3505  144.3425  158.5446 C   0  0  0  0  0  0  0  0  0  0  0  0
  144.3751  143.5958  155.2142 C   0  0  0  0  0  0  0  0  0  0  0  0
  142.9333  146.1898  156.9259 H   0  0  0  0  0  0  0  0  0  0  0  0
  142.4989  145.7101  155.2947 H   0  0  0  0  0  0  0  0  0  0  0  0
  143.9627  146.6361  155.5769 H   0  0  0  0  0  0  0  0  0  0  0  0
  144.8100  144.5338  158.2933 H   0  0  0  0  0  0  0  0  0  0  0  0
  145.7022  140.6337  156.0323 H   0  0  0  0  0  0  0  0  0  0  0  0
  144.9480  141.0445  154.5121 H   0  0  0  0  0  0  0  0  0  0  0  0
  147.0780  142.4944  154.0152 H   0  0  0  0  0  0  0  0  0  0  0  0
  146.6089  140.3695  152.8421 H   0  0  0  0  0  0  0  0  0  0  0  0
  147.3450  139.4544  154.1535 H   0  0  0  0  0  0  0  0  0  0  0  0
  148.3283  140.5354  153.1665 H   0  0  0  0  0  0  0  0  0  0  0  0
  147.9742  140.7818  156.2230 H   0  0  0  0  0  0  0  0  0  0  0  0
  149.5809  140.6002  154.4753 H   0  0  0  0  0  0  0  0  0  0  0  0
  149.5423  142.3337  154.2826 H   0  0  0  0  0  0  0  0  0  0  0  0
  150.1009  143.5055  156.5904 H   0  0  0  0  0  0  0  0  0  0  0  0
  152.6903  143.1162  157.4197 H   0  0  0  0  0  0  0  0  0  0  0  0
  150.7026  141.7218  159.2918 H   0  0  0  0  0  0  0  0  0  0  0  0
  152.0514  140.9504  158.4942 H   0  0  0  0  0  0  0  0  0  0  0  0
  152.5879  141.5061  160.8673 H   0  0  0  0  0  0  0  0  0  0  0  0
  153.6627  142.3597  159.7774 H   0  0  0  0  0  0  0  0  0  0  0  0
  151.9582  145.5099  160.2670 H   0  0  0  0  0  0  0  0  0  0  0  0
  153.2970  144.7480  159.4364 H   0  0  0  0  0  0  0  0  0  0  0  0
  151.4335  145.1657  157.8343 H   0  0  0  0  0  0  0  0  0  0  0  0
  150.3131  144.3260  158.8825 H   0  0  0  0  0  0  0  0  0  0  0  0
  144.0891  143.5220  154.1754 H   0  0  0  0  0  0  0  0  0  0  0  0
  1  2  1  0  0  0  0
  1 21  1  0  0  0  0
  1 22  1  0  0  0  0
  1 23  1  0  0  0  0
  2 20  2  0  0  0  0
  2  3  1  0  0  0  0
  3  4  2  0  0  0  0
  3 24  1  0  0  0  0
  4  5  1  0  0  0  0
  5  6  1  0  0  0  0
  5 20  1  0  0  0  0
  6  7  1  0  0  0  0
  6 25  1  0  0  0  0
  6 26  1  0  0  0  0
  7  8  1  0  0  0  0
  7  9  1  0  0  0  0
  7 27  1  0  0  0  0
  8 28  1  0  0  0  0
  8 29  1  0  0  0  0
  8 30  1  0  0  0  0
  9 10  1  0  0  0  0
  9 31  1  0  0  0  0
 10 11  1  0  0  0  0
 10 32  1  0  0  0  0
 10 33  1  0  0  0  0
 11 12  2  0  0  0  0
 11 13  1  0  0  0  0
 13 14  1  0  0  0  0
 13 34  1  0  0  0  0
 14 19  1  0  0  0  0
 14 15  1  0  0  0  0
 14 35  1  0  0  0  0
 15 16  1  0  0  0  0
 15 36  1  0  0  0  0
 15 37  1  0  0  0  0
 16 17  1  0  0  0  0
 16 38  1  0  0  0  0
 16 39  1  0  0  0  0
 17 18  1  0  0  0  0
 18 19  1  0  0  0  0
 18 40  1  0  0  0  0
 18 41  1  0  0  0  0
 19 42  1  0  0  0  0
 19 43  1  0  0  0  0
 20 44  1  0  0  0  0
M  END
> <s_m_source_file>
AV-unprocessed.smi

> <i_m_source_file_index>
2684

> <i_lp_mmshare_version>
43012

> <i_f3d_flags>
0

> <s_epik_input>
W0NIM11jMVtjSF1ubihbY0hdMSlbQ0gyXVtDQEhdKFtDSDNdKVtOSF1bQ0gyXUMoPU8pW05IXVtDSF0yW0NIMl1bQ0gyXU9bQ0gyXVtDSDJdMg==

> <s_epik_cmdline>
J2VwaWtfcHl0aG9uJywgJy1waCcsICc3LjAnLCAnLXRuJywgJzgnLCAnLW1hJywgJzIwMCcsICctbWV0YWxfYmluZGluZycsICctaW1hZScsICc8aW5maWxlLm1hZT4nLCAnLW9tYWUnLCAnPG91dGZpbGUubWFlPic=

> <r_lp_tautomer_probability>
1

> <r_epik_Ionization_Penalty>
0.968507

> <r_epik_Ionization_Penalty_Charging>
0

> <r_epik_Ionization_Penalty_Neutral>
0.968507

> <r_epik_State_Penalty>
1.01412

> <r_epik_Charging_Adjusted_Penalty>
1.01412

> <i_epik_Tot_Q>
0

> <i_epik_Tot_abs_Q>
0

> <r_epik_Metal_State_Penalty>
1.01401

> <b_epik_Metal_Only>
0

> <s_lp_Force_Field>
OPLS_2005

> <r_lp_Energy>
12.1402

> <b_lp_Chiralities_Consistent>
1

> <s_lp_Variant>
AV-unprocessed.smi:2684-3

> <Gold.Version>
5.8.1

> <Gold.Id.Protein>
6NUR|6NUR_protein|mol2

> <Gold.PLP.Fitness>
46.5997

> <Gold.PLP.PLP>
-42.0376

> <Gold.PLP.part.hbond>
-2.0000

> <Gold.PLP.part.metal>
0.0000

> <Gold.PLP.part.buried>
-6.9027

> <Gold.PLP.part.nonpolar>
-34.0203

> <Gold.PLP.part.repulsive>
0.2951

> <Gold.PLP.ligand.clash>
0.0077

> <Gold.PLP.ligand.torsion>
0.7228

> <Gold.PLP.Chemscore.Hbond>
1.0000

> <Gold.PLP.Chemscore.CHOScore>
0.9961

> <Gold.PLP.Chemscore.Metal>
0.0000

> <Gold.Chemscore.Hbonds>
donor molecule, donor type, donor heavy atom, donor atom, acceptor molecule, acceptor atom, score
      L1  H    13    34       P1  8028  1.00
      L1  C    20    44       P1 10174  0.60

> <Gold.PLP.Chemscore.Internal.Correction>
0.0272

> <Gold.Rescore>
     Score         DG    S(hbond)    S(metal)    S(lipo)     H(rot)  DE(clash)    DE(int)     intcor
     15.14     -15.54       1.00        0.00     100.66       1.97       0.09       0.31       ----

> <Gold.Chemscore.Fitness>
15.1384

> <Gold.Chemscore.DG>
-15.5421

> <Gold.Chemscore.ZeroCoef>
-5.4800

> <Gold.Chemscore.Hbond>
0.9992

> <Gold.Chemscore.Metal>
0.0000

> <Gold.Chemscore.Lipo>
100.6581

> <Gold.Chemscore.Internal_Hbond>
0.0000

> <Gold.Chemscore.DEClash>
0.0927

> <Gold.Chemscore.DEInternal>
0.3110

> <Gold.Chemscore.Rot>
1.9736

> <Gold.Chemscore.Internal.Correction>
   9.000000E+99

> <Gold.Chemscore.Hbonds>
donor molecule, donor type, donor heavy atom, donor atom, acceptor molecule, acceptor atom, score
      L1  H    13    34       P1  8028  0.99

> <Gold.Chemscore.Hbond.Weighted>
-3.3374

> <Gold.Chemscore.Metal.Weighted>
-0.0000

> <Gold.Chemscore.Lipo.Weighted>
-11.7770

> <Gold.Chemscore.Internal_Hbond.Weighted>
0.0000

> <Gold.Chemscore.DEClash.Weighted>
0.0927

> <Gold.Chemscore.DEInternal.Weighted>
0.3110

> <Gold.Chemscore.Rot.Weighted>
5.0523

> <Gold.Chemscore.Internal.Correction.Weighted>
   9.000000E+99

> <Gold.Protein.RotatedTorsions>
[ 6907 6896 6895 6894 ] final  -32.60 input  -60.11 | X-H torsion
[ 7974 7965 7964 7962 ] final -142.94 input  175.53 | X-H torsion
[ 8008 7997 7996 7995 ] final -117.28 input   59.86 | X-H torsion
[ 10167 10162 10161 10158 ] final   19.96 input  -65.29 | X-H torsion
[ 10718 10713 10712 10709 ] final  -59.25 input   66.30 | X-H torsion
[ 10763 10752 10751 10750 ] final  179.73 input  -60.55 | X-H torsion
[ 11005 11000 10999 10996 ] final  -28.75 input  -57.11 | X-H torsion

> <Gold.Protein.ActiveResidues>
 VAL166  LYS551  ARG553  GLY616  TRP617  ASP618  TYR619  PRO620  LYS621  CYS622 
 ASP623  PHE694  ASN695  SER759  ASP760  ASP761  ALA762  ILE779  LEU786  VAL792 
 PHE793  MET794  SER795  GLU796  ALA797  LYS798  CYS799  TRP800  GLU811  SER814 

> <Gold.Protein.RotatedAtoms>
  151.0766  134.9832  159.8334 H   0  0  0  0  0  0  0  0  0  0  0  0  # atno 6907 bound_to 6896
  152.5415  134.2233  159.8806 H   0  0  0  0  0  0  0  0  0  0  0  0  # atno 6908 bound_to 6896
  151.2261  133.4432  159.2636 H   0  0  0  0  0  0  0  0  0  0  0  0  # atno 6909 bound_to 6896
  144.8406  140.5896  143.5455 H   0  0  0  0  0  0  0  0  0  0  0  0  # atno 7974 bound_to 7965
  155.0812  140.0394  157.2640 H   0  0  0  0  0  0  0  0  0  0  0  0  # atno 8008 bound_to 7997
  154.6905  140.2652  155.6793 H   0  0  0  0  0  0  0  0  0  0  0  0  # atno 8009 bound_to 7997
  156.2727  140.2760  156.1481 H   0  0  0  0  0  0  0  0  0  0  0  0  # atno 8010 bound_to 7997
  140.5540  143.9458  150.6597 H   0  0  0  0  0  0  0  0  0  0  0  0  # atno 10167 bound_to 10162
  156.1075  130.4179  150.0690 H   0  0  0  0  0  0  0  0  0  0  0  0  # atno 10718 bound_to 10713
  154.5245  135.2796  155.1234 H   0  0  0  0  0  0  0  0  0  0  0  0  # atno 10763 bound_to 10752
  154.2778  135.6291  153.5339 H   0  0  0  0  0  0  0  0  0  0  0  0  # atno 10764 bound_to 10752
  152.9943  135.5644  154.5742 H   0  0  0  0  0  0  0  0  0  0  0  0  # atno 10765 bound_to 10752
  140.9235  133.7383  156.0835 H   0  0  0  0  0  0  0  0  0  0  0  0  # atno 11005 bound_to 11000
  145.4703  139.1504  143.3818 LP  0  0  0  0  0  0  0  0  0  0  0  0  # atno 17320 bound_to 7965
  146.2699  140.4836  142.8819 LP  0  0  0  0  0  0  0  0  0  0  0  0  # atno 17321 bound_to 7965
  140.2891  143.3336  152.1079 LP  0  0  0  0  0  0  0  0  0  0  0  0  # atno 17342 bound_to 10162
  139.5040  144.6766  151.6113 LP  0  0  0  0  0  0  0  0  0  0  0  0  # atno 17343 bound_to 10162
  156.8661  130.9508  151.3613 LP  0  0  0  0  0  0  0  0  0  0  0  0  # atno 17370 bound_to 10713
  157.6253  130.8687  149.9179 LP  0  0  0  0  0  0  0  0  0  0  0  0  # atno 17371 bound_to 10713
  140.7956  134.3567  157.5453 LP  0  0  0  0  0  0  0  0  0  0  0  0  # atno 17394 bound_to 11000
  139.8780  134.9167  156.3160 LP  0  0  0  0  0  0  0  0  0  0  0  0  # atno 17395 bound_to 11000

$$$$
