AV-unprocessed.smi:581|AV-procd|sdf|2994|dock7
  -GOLD-   2262023503D 1   1.00000     0.00000
 Structure written by MMmdl.
 34 35  0  0  0  0  0  0  0  0  3 V2000
  152.1425  139.0600  156.0736 C   0  0  0  0  0  0  0  0  0  0  0  0
  152.4743  139.4112  157.5132 C   0  0  0  0  0  0  0  0  0  0  0  0
  152.2698  140.7501  157.8793 N   0  0  0  0  0  0  0  0  0  0  0  0
  152.5219  141.1420  159.0921 C   0  0  0  0  0  0  0  0  0  0  0  0
  152.3286  142.4654  159.4986 N   0  0  0  0  0  0  0  0  0  0  0  0
  152.2996  143.5601  158.5254 C   0  0  0  0  0  0  0  0  0  0  0  0
  151.5324  144.7748  159.0732 C   0  0  0  0  0  0  0  0  0  0  0  0
  152.1023  145.1844  160.3091 O   0  0  0  0  0  0  0  0  0  0  0  0
  152.0134  144.1547  161.2846 C   0  0  0  0  0  0  0  0  0  0  0  0
  152.7955  142.9190  160.8091 C   0  0  0  0  0  0  0  0  0  0  0  0
  153.0079  140.2825  160.0645 N   0  5  0  0  0  0  0  0  0  0  0  0
  153.2236  138.9661  159.7819 C   0  0  0  0  0  0  0  0  0  0  0  0
  153.6427  138.1789  160.6296 O   0  0  0  0  0  0  0  0  0  0  0  0
  152.9359  138.4989  158.4143 C   0  0  0  0  0  0  0  0  0  0  0  0
  153.1871  137.0320  158.0678 C   0  0  0  0  0  0  0  0  0  0  0  0
  154.5418  136.5318  158.6011 C   0  0  0  0  0  0  0  0  0  0  0  0
  154.7268  135.0454  158.2955 C   0  0  0  0  0  0  0  0  0  0  0  0
  155.0315  134.7349  157.1230 O   0  0  0  0  0  0  0  0  0  0  0  0
  154.5591  134.2428  159.2401 O   0  5  0  0  0  0  0  0  0  0  0  0
  151.4799  138.1951  156.0309 H   0  0  0  0  0  0  0  0  0  0  0  0
  153.0530  138.8291  155.5202 H   0  0  0  0  0  0  0  0  0  0  0  0
  151.6423  139.8883  155.5706 H   0  0  0  0  0  0  0  0  0  0  0  0
  153.3267  143.8446  158.2937 H   0  0  0  0  0  0  0  0  0  0  0  0
  151.8437  143.2514  157.5844 H   0  0  0  0  0  0  0  0  0  0  0  0
  151.5881  145.6027  158.3663 H   0  0  0  0  0  0  0  0  0  0  0  0
  150.4750  144.5392  159.2047 H   0  0  0  0  0  0  0  0  0  0  0  0
  152.4267  144.5206  162.2244 H   0  0  0  0  0  0  0  0  0  0  0  0
  150.9682  143.9036  161.4726 H   0  0  0  0  0  0  0  0  0  0  0  0
  152.6868  142.1247  161.5490 H   0  0  0  0  0  0  0  0  0  0  0  0
  153.8593  143.1514  160.7446 H   0  0  0  0  0  0  0  0  0  0  0  0
  152.3837  136.4140  158.4688 H   0  0  0  0  0  0  0  0  0  0  0  0
  153.1325  136.8978  156.9863 H   0  0  0  0  0  0  0  0  0  0  0  0
  155.3603  137.0958  158.1520 H   0  0  0  0  0  0  0  0  0  0  0  0
  154.6070  136.6887  159.6786 H   0  0  0  0  0  0  0  0  0  0  0  0
  1  2  1  0  0  0  0
  1 20  1  0  0  0  0
  1 21  1  0  0  0  0
  1 22  1  0  0  0  0
  2 14  2  0  0  0  0
  2  3  1  0  0  0  0
  3  4  2  0  0  0  0
  4  5  1  0  0  0  0
  4 11  1  0  0  0  0
  5 10  1  0  0  0  0
  5  6  1  0  0  0  0
  6  7  1  0  0  0  0
  6 23  1  0  0  0  0
  6 24  1  0  0  0  0
  7  8  1  0  0  0  0
  7 25  1  0  0  0  0
  7 26  1  0  0  0  0
  8  9  1  0  0  0  0
  9 10  1  0  0  0  0
  9 27  1  0  0  0  0
  9 28  1  0  0  0  0
 10 29  1  0  0  0  0
 10 30  1  0  0  0  0
 11 12  1  0  0  0  0
 12 13  2  0  0  0  0
 12 14  1  0  0  0  0
 14 15  1  0  0  0  0
 15 16  1  0  0  0  0
 15 31  1  0  0  0  0
 15 32  1  0  0  0  0
 16 17  1  0  0  0  0
 16 33  1  0  0  0  0
 16 34  1  0  0  0  0
 17 18  2  0  0  0  0
 17 19  1  0  0  0  0
M  CHG  1  11  -1
M  CHG  1  19  -1
M  END
> <s_m_source_file>
AV-unprocessed.smi

> <i_m_source_file_index>
581

> <i_lp_mmshare_version>
43012

> <i_f3d_flags>
0

> <s_epik_input>
W0NIMl0xW0NIMl1PW0NIMl1bQ0gyXU4xYyhuYzJbQ0gzXSlbbkhdYyg9TyljMltDSDJdW0NIMl1DKD1PKVtPSF0=

> <s_epik_cmdline>
J2VwaWtfcHl0aG9uJywgJy1waCcsICc3LjAnLCAnLXRuJywgJzgnLCAnLW1hJywgJzIwMCcsICctbWV0YWxfYmluZGluZycsICctaW1hZScsICc8aW5maWxlLm1hZT4nLCAnLW9tYWUnLCAnPG91dGZpbGUubWFlPic=

> <r_lp_tautomer_probability>
0.878553

> <r_epik_Ionization_Penalty>
5.42566

> <r_epik_Ionization_Penalty_Charging>
0.003235

> <r_epik_Ionization_Penalty_Neutral>
5.42243

> <r_epik_State_Penalty>
3.98511

> <r_epik_Charging_Adjusted_Penalty>
3.98834

> <i_epik_Tot_Q>
-2

> <i_epik_Tot_abs_Q>
2

> <r_epik_Metal_State_Penalty>
0.64219

> <b_epik_Metal_Only>
1

> <s_lp_Force_Field>
OPLS_2005

> <r_lp_Energy>
30.9787

> <b_lp_Chiralities_Consistent>
1

> <s_lp_Variant>
AV-unprocessed.smi:581-4

> <Gold.Version>
5.8.1

> <Gold.Id.Protein>
6NUR|6NUR_protein|mol2

> <Gold.PLP.Fitness>
42.9655

> <Gold.PLP.PLP>
-31.8728

> <Gold.PLP.part.hbond>
-2.0000

> <Gold.PLP.part.metal>
0.0000

> <Gold.PLP.part.buried>
-3.9436

> <Gold.PLP.part.nonpolar>
-26.3281

> <Gold.PLP.part.repulsive>
0.1391

> <Gold.PLP.ligand.clash>
0.0764

> <Gold.PLP.ligand.torsion>
0.5216

> <Gold.PLP.Chemscore.Hbond>
4.0000

> <Gold.PLP.Chemscore.CHOScore>
0.0000

> <Gold.PLP.Chemscore.Metal>
0.0000

> <Gold.Chemscore.Hbonds>
donor molecule, donor type, donor heavy atom, donor atom, acceptor molecule, acceptor atom, score
      P1  H  6896  6907       L1    19  1.95
      P1  H 10752 10763       L1    18  1.95

> <Gold.PLP.Chemscore.Internal.Correction>
0.2123

> <Gold.Rescore>
     Score         DG    S(hbond)    S(metal)    S(lipo)     H(rot)  DE(clash)    DE(int)     intcor
     13.91     -15.87       1.97        0.00      73.45       1.86       0.04       1.92       ----

> <Gold.Chemscore.Fitness>
13.9114

> <Gold.Chemscore.DG>
-15.8675

> <Gold.Chemscore.ZeroCoef>
-5.4800

> <Gold.Chemscore.Hbond>
1.9650

> <Gold.Chemscore.Metal>
0.0000

> <Gold.Chemscore.Lipo>
73.4503

> <Gold.Chemscore.Internal_Hbond>
0.0000

> <Gold.Chemscore.DEClash>
0.0369

> <Gold.Chemscore.DEInternal>
1.9193

> <Gold.Chemscore.Rot>
1.8630

> <Gold.Chemscore.Internal.Correction>
   9.000000E+99

> <Gold.Chemscore.Hbonds>
donor molecule, donor type, donor heavy atom, donor atom, acceptor molecule, acceptor atom, score
      P1  H  6896  6907       L1    19  0.76
      P1  H 10752 10763       L1    18  0.87

> <Gold.Chemscore.Hbond.Weighted>
-6.5632

> <Gold.Chemscore.Metal.Weighted>
-0.0000

> <Gold.Chemscore.Lipo.Weighted>
-8.5937

> <Gold.Chemscore.Internal_Hbond.Weighted>
0.0000

> <Gold.Chemscore.DEClash.Weighted>
0.0369

> <Gold.Chemscore.DEInternal.Weighted>
1.9193

> <Gold.Chemscore.Rot.Weighted>
4.7694

> <Gold.Chemscore.Internal.Correction.Weighted>
   9.000000E+99

> <Gold.Protein.RotatedTorsions>
[ 6907 6896 6895 6894 ] final   92.32 input  -60.11 | X-H torsion
[ 7974 7965 7964 7962 ] final -171.53 input  175.53 | X-H torsion
[ 8008 7997 7996 7995 ] final -132.51 input   59.86 | X-H torsion
[ 10167 10162 10161 10158 ] final  -68.09 input  -65.29 | X-H torsion
[ 10718 10713 10712 10709 ] final  -96.62 input   66.30 | X-H torsion
[ 10763 10752 10751 10750 ] final  148.92 input  -60.55 | X-H torsion
[ 11005 11000 10999 10996 ] final -146.14 input  -57.11 | X-H torsion

> <Gold.Protein.ActiveResidues>
 VAL166  LYS551  ARG553  GLY616  TRP617  ASP618  TYR619  PRO620  LYS621  CYS622 
 ASP623  PHE694  ASN695  SER759  ASP760  ASP761  ALA762  ILE779  LEU786  VAL792 
 PHE793  MET794  SER795  GLU796  ALA797  LYS798  CYS799  TRP800  GLU811  SER814 

> <Gold.Protein.RotatedAtoms>
  152.5452  134.1521  159.8522 H   0  0  0  0  0  0  0  0  0  0  0  0  # atno 6907 bound_to 6896
  151.1547  133.4877  159.2602 H   0  0  0  0  0  0  0  0  0  0  0  0  # atno 6908 bound_to 6896
  151.1436  135.0202  159.8691 H   0  0  0  0  0  0  0  0  0  0  0  0  # atno 6909 bound_to 6896
  144.7156  140.1908  143.6348 H   0  0  0  0  0  0  0  0  0  0  0  0  # atno 7974 bound_to 7965
  155.3300  140.0466  157.3042 H   0  0  0  0  0  0  0  0  0  0  0  0  # atno 8008 bound_to 7997
  154.5333  140.2264  155.8732 H   0  0  0  0  0  0  0  0  0  0  0  0  # atno 8009 bound_to 7997
  156.1810  140.3074  155.9155 H   0  0  0  0  0  0  0  0  0  0  0  0  # atno 8010 bound_to 7997
  140.5533  143.2312  151.6869 H   0  0  0  0  0  0  0  0  0  0  0  0  # atno 10167 bound_to 10162
  156.0066  130.5159  150.6252 H   0  0  0  0  0  0  0  0  0  0  0  0  # atno 10718 bound_to 10713
  154.0626  135.2873  155.3322 H   0  0  0  0  0  0  0  0  0  0  0  0  # atno 10763 bound_to 10752
  154.6798  135.5267  153.8252 H   0  0  0  0  0  0  0  0  0  0  0  0  # atno 10764 bound_to 10752
  153.0516  135.6579  154.0813 H   0  0  0  0  0  0  0  0  0  0  0  0  # atno 10765 bound_to 10752
  140.7850  134.3035  157.5033 H   0  0  0  0  0  0  0  0  0  0  0  0  # atno 11005 bound_to 11000
  145.8770  139.2302  143.1628 LP  0  0  0  0  0  0  0  0  0  0  0  0  # atno 17320 bound_to 7965
  146.0031  140.8502  143.0008 LP  0  0  0  0  0  0  0  0  0  0  0  0  # atno 17321 bound_to 7965
  139.5037  144.3782  152.0403 LP  0  0  0  0  0  0  0  0  0  0  0  0  # atno 17342 bound_to 10162
  140.2901  144.3764  150.6091 LP  0  0  0  0  0  0  0  0  0  0  0  0  # atno 17343 bound_to 10162
  157.4061  131.0817  151.1264 LP  0  0  0  0  0  0  0  0  0  0  0  0  # atno 17370 bound_to 10713
  157.1911  130.6352  149.5705 LP  0  0  0  0  0  0  0  0  0  0  0  0  # atno 17371 bound_to 10713
  139.8738  134.9341  156.3598 LP  0  0  0  0  0  0  0  0  0  0  0  0  # atno 17394 bound_to 11000
  140.9445  133.7492  156.0190 LP  0  0  0  0  0  0  0  0  0  0  0  0  # atno 17395 bound_to 11000

$$$$
