#       Name:                AV-unprocessed.smi:630
#       Creating user name   scv26
#       Creation time:       Fri Mar 27 00:04:28 2020


#       File generated by GOLD software.
#

@<TRIPOS>MOLECULE
AV-unprocessed.smi:630
    42    43     1
SMALL
NO_CHARGES


@<TRIPOS>ATOM
      1 ****        -0.0218  -0.3993   3.1619 N.am           1 S1                 0.0000
      2 ****        -0.9128  -0.0428   2.2329 C.2            1 S1                 0.0000
      3 ****        -1.5396   1.0124   2.3039 O.2            1 S1                 0.0000
      4 ****        -1.1303  -1.0116   1.0543 C.3            1 S1                 0.0000
      5 ****        -2.5807  -1.5562   1.0640 C.3            1 S1                 0.0000
      6 ****        -3.6281  -0.7302   0.2978 C.3            1 S1                 0.0000
      7 ****        -3.7121  -1.1185  -1.1867 C.3            1 S1                 0.0000
      8 ****        -2.5286  -0.6420  -2.0400 C.3            1 S1                 0.0000
      9 ****        -1.1414  -1.1037  -1.5566 C.3            1 S1                 0.0000
     10 ****        -0.6634  -0.3693  -0.2848 C.3            1 S1                 0.0000
     11 ****         0.8012  -0.2977  -0.2964 N.am           1 S1                 0.0000
     12 ****         1.5407   0.8199  -0.3699 C.2            1 S1                 0.0000
     13 ****         1.0638   1.9523  -0.4468 O.2            1 S1                 0.0000
     14 ****         2.8539   0.5322  -0.3440 N.am           1 S1                 0.0000
     15 ****         3.9513   1.4319  -0.3870 C.2            1 S1                 0.0000
     16 ****         3.8345   2.7629  -0.4588 N.2            1 S1                 0.0000
     17 ****         5.0786   3.3982  -0.4862 C.2            1 S1                 0.0000
     18 ****         6.1398   2.5292  -0.4335 C.2            1 S1                 0.0000
     19 ****         5.6157   0.8685  -0.3465 S.3            1 S1                 0.0000
     20 ****         0.1491   0.2095   3.9491 H              1 S1                 0.0000
     21 ****         0.4774  -1.2723   3.0754 H              1 S1                 0.0000
     22 ****        -0.4953  -1.8811   1.2373 H              1 S1                 0.0000
     23 ****        -2.5820  -2.5790   0.6852 H              1 S1                 0.0000
     24 ****        -2.9163  -1.6552   2.0979 H              1 S1                 0.0000
     25 ****        -4.6032  -0.9272   0.7448 H              1 S1                 0.0000
     26 ****        -3.4587   0.3404   0.4164 H              1 S1                 0.0000
     27 ****        -3.8212  -2.1996  -1.2801 H              1 S1                 0.0000
     28 ****        -4.6254  -0.6945  -1.6057 H              1 S1                 0.0000
     29 ****        -2.6789  -1.0053  -3.0571 H              1 S1                 0.0000
     30 ****        -2.5468   0.4461  -2.1140 H              1 S1                 0.0000
     31 ****        -1.1155  -2.1850  -1.4169 H              1 S1                 0.0000
     32 ****        -0.4429  -0.8952  -2.3685 H              1 S1                 0.0000
     33 ****        -1.0616   0.6458  -0.3367 H              1 S1                 0.0000
     34 ****         1.2907  -1.1785  -0.2399 H              1 S1                 0.0000
     35 ****         3.0981  -0.4451  -0.2822 H              1 S1                 0.0000
     36 ****         5.1164   4.4760  -0.5436 H              1 S1                 0.0000
     37 ****         7.1937   2.7650  -0.4402 H              1 S1                 0.0000
     38 ****        -1.3890   1.6326   3.0738 LP             1 S1                 0.0000
     39 ****        -2.2000   1.2505   1.5918 LP             1 S1                 0.0000
     40 ****         0.0718   2.0773  -0.4571 LP             1 S1                 0.0000
     41 ****         1.6686   2.7470  -0.4989 LP             1 S1                 0.0000
     42 ****         2.9596   3.2461  -0.4892 LP             1 S1                 0.0000
@<TRIPOS>BOND
    1    1    2 am    
    2    1   20 1     
    3    1   21 1     
    4    2    3 2     
    5    2    4 1     
    6    4   10 1     
    7    4    5 1     
    8    4   22 1     
    9    5    6 1     
   10    5   23 1     
   11    5   24 1     
   12    6    7 1     
   13    6   25 1     
   14    6   26 1     
   15    7    8 1     
   16    7   27 1     
   17    7   28 1     
   18    8    9 1     
   19    8   29 1     
   20    8   30 1     
   21    9   10 1     
   22    9   31 1     
   23    9   32 1     
   24   10   11 1     
   25   10   33 1     
   26   11   12 am    
   27   11   34 1     
   28   12   13 2     
   29   12   14 am    
   30   14   15 1     
   31   14   35 1     
   32   15   19 1     
   33   15   16 2     
   34   16   17 1     
   35   17   18 2     
   36   17   36 1     
   37   18   19 1     
   38   18   37 1     
   39    3   38 1     
   40    3   39 1     
   41   13   40 1     
   42   13   41 1     
   43   16   42 1     
@<TRIPOS>SUBSTRUCTURE
      1 S1             1
@<TRIPOS>SET
LONE_PAIRS      STATIC     ATOMS    <user>   **** ""
5 38 39 40 41 42
DONOR_HYDROGENS      STATIC     ATOMS    <user>   **** ""
4 20 21 34 35
ATOM$BLUE        STATIC     ATOMS    COLORGROUP SYSTEM
5 38 39 40 41 42
ATOM$RED        STATIC     ATOMS    COLORGROUP SYSTEM
4 20 21 34 35
