AV-unprocessed.smi:1749|AV-procd|sdf|7046|dock2
  -GOLD-   22720 8263D 1   1.00000     0.00000
 Structure written by MMmdl.
 32 33  0  0  0  0  0  0  0  0  1 V2000
  152.9559  142.3359  161.6347 C   0  0  0  0  0  0  0  0  0  0  0  0
  152.7561  143.4244  160.5707 C   0  0  2  0  0  0  0  0  0  0  0  0
  152.1123  144.6884  161.1725 C   0  0  0  0  0  0  0  0  0  0  0  0
  151.9081  145.7782  160.1087 C   0  0  0  0  0  0  0  0  0  0  0  0
  151.0763  145.2549  158.9278 C   0  0  0  0  0  0  0  0  0  0  0  0
  151.7083  143.9927  158.3132 C   0  0  2  0  0  0  0  0  0  0  0  0
  150.8442  143.4765  157.2558 N   0  0  0  0  0  0  0  0  0  0  0  0
  150.8672  142.2352  156.7421 C   0  0  0  0  0  0  0  0  0  0  0  0
  151.6635  141.3737  157.1111 O   0  0  0  0  0  0  0  0  0  0  0  0
  149.9588  141.9684  155.7788 N   0  0  0  0  0  0  0  0  0  0  0  0
  149.6927  140.7894  155.0220 C   0  0  0  0  0  0  0  0  0  0  0  0
  150.6160  139.8757  154.6797 N   0  0  0  0  0  0  0  0  0  0  0  0
  150.0741  138.8363  153.9359 N   0  0  0  0  0  0  0  0  0  0  0  0
  148.7636  139.0050  153.7414 C   0  0  0  0  0  0  0  0  0  0  0  0
  148.0647  140.4508  154.4489 S   0  0  0  0  0  0  0  0  0  0  0  0
  151.9203  142.9056  159.3841 C   0  0  0  0  0  0  0  0  0  0  0  0
  152.0033  142.0166  162.0589 H   0  0  0  0  0  0  0  0  0  0  0  0
  153.5806  142.6961  162.4525 H   0  0  0  0  0  0  0  0  0  0  0  0
  153.4424  141.4570  161.2110 H   0  0  0  0  0  0  0  0  0  0  0  0
  153.7421  143.6977  160.1918 H   0  0  0  0  0  0  0  0  0  0  0  0
  151.1506  144.4353  161.6213 H   0  0  0  0  0  0  0  0  0  0  0  0
  152.7354  145.0774  161.9786 H   0  0  0  0  0  0  0  0  0  0  0  0
  151.4166  146.6439  160.5537 H   0  0  0  0  0  0  0  0  0  0  0  0
  152.8777  146.1243  159.7486 H   0  0  0  0  0  0  0  0  0  0  0  0
  150.0644  145.0332  159.2707 H   0  0  0  0  0  0  0  0  0  0  0  0
  150.9826  146.0339  158.1700 H   0  0  0  0  0  0  0  0  0  0  0  0
  152.6838  144.2666  157.9075 H   0  0  0  0  0  0  0  0  0  0  0  0
  150.1556  144.1174  156.8877 H   0  0  0  0  0  0  0  0  0  0  0  0
  149.3768  142.7558  155.5329 H   0  0  0  0  0  0  0  0  0  0  0  0
  148.2047  138.2733  153.1770 H   0  0  0  0  0  0  0  0  0  0  0  0
  152.4132  142.0416  158.9362 H   0  0  0  0  0  0  0  0  0  0  0  0
  150.9529  142.5538  159.7465 H   0  0  0  0  0  0  0  0  0  0  0  0
  1  2  1  0  0  0  0
  1 17  1  0  0  0  0
  1 18  1  0  0  0  0
  1 19  1  0  0  0  0
  2 16  1  0  0  0  0
  2  3  1  0  0  0  0
  2 20  1  0  0  0  0
  3  4  1  0  0  0  0
  3 21  1  0  0  0  0
  3 22  1  0  0  0  0
  4  5  1  0  0  0  0
  4 23  1  0  0  0  0
  4 24  1  0  0  0  0
  5  6  1  0  0  0  0
  5 25  1  0  0  0  0
  5 26  1  0  0  0  0
  6  7  1  0  0  0  0
  6 16  1  0  0  0  0
  6 27  1  0  0  0  0
  7  8  1  0  0  0  0
  7 28  1  0  0  0  0
  8  9  2  0  0  0  0
  8 10  1  0  0  0  0
 10 11  1  0  0  0  0
 10 29  1  0  0  0  0
 11 15  1  0  0  0  0
 11 12  2  0  0  0  0
 12 13  1  0  0  0  0
 13 14  2  0  0  0  0
 14 15  1  0  0  0  0
 14 30  1  0  0  0  0
 16 31  1  0  0  0  0
 16 32  1  0  0  0  0
M  END
> <s_m_source_file>
AV-unprocessed.smi

> <i_m_source_file_index>
1749

> <i_lp_mmshare_version>
43012

> <i_f3d_flags>
0

> <s_epik_input>
W0NIM11bQ0BASF0xW0NIMl1bQ0gyXVtDSDJdW0NASF0oW0NIMl0xKVtOSF1DKD1PKVtOSF1jMm5uW2NIXXMy

> <s_epik_cmdline>
J2VwaWtfcHl0aG9uJywgJy1waCcsICc3LjAnLCAnLXRuJywgJzgnLCAnLW1hJywgJzIwMCcsICctbWV0YWxfYmluZGluZycsICctaW1hZScsICc8aW5maWxlLm1hZT4nLCAnLW9tYWUnLCAnPG91dGZpbGUubWFlPic=

> <r_lp_tautomer_probability>
1

> <r_epik_Ionization_Penalty>
0.000318591

> <r_epik_Ionization_Penalty_Charging>
0

> <r_epik_Ionization_Penalty_Neutral>
0.000318591

> <r_epik_State_Penalty>
-0

> <r_epik_Charging_Adjusted_Penalty>
0

> <i_epik_Tot_Q>
0

> <i_epik_Tot_abs_Q>
0

> <r_epik_Metal_State_Penalty>
0.169791

> <b_epik_Metal_Only>
0

> <s_lp_Force_Field>
OPLS_2005

> <r_lp_Energy>
11.6734

> <b_lp_Chiralities_Consistent>
1

> <s_lp_Variant>
AV-unprocessed.smi:1749-3

> <Gold.Version>
5.8.1

> <Gold.Id.Protein>
6NUR|6NUR_protein|mol2

> <Gold.PLP.Fitness>
48.3058

> <Gold.PLP.PLP>
-37.2418

> <Gold.PLP.part.hbond>
-3.0000

> <Gold.PLP.part.metal>
0.0000

> <Gold.PLP.part.buried>
-2.2186

> <Gold.PLP.part.nonpolar>
-32.1356

> <Gold.PLP.part.repulsive>
0.9098

> <Gold.PLP.ligand.clash>
0.0000

> <Gold.PLP.ligand.torsion>
0.4692

> <Gold.PLP.Chemscore.Hbond>
3.0000

> <Gold.PLP.Chemscore.CHOScore>
1.0000

> <Gold.PLP.Chemscore.Metal>
0.0000

> <Gold.Chemscore.Hbonds>
donor molecule, donor type, donor heavy atom, donor atom, acceptor molecule, acceptor atom, score
      L1  H     7    28       P1  8028  1.00
      L1  H    10    29       P1  8028  1.00
      P1  H  7989  7998       L1    12  1.00
      L1  C    14    30       P1  7948  1.00

> <Gold.PLP.Chemscore.Internal.Correction>
0.0024

> <Gold.Rescore>
     Score         DG    S(hbond)    S(metal)    S(lipo)     H(rot)  DE(clash)    DE(int)     intcor
     18.22     -21.40       2.22        0.00      94.60       1.00       0.49       2.69       ----

> <Gold.Chemscore.Fitness>
18.2195

> <Gold.Chemscore.DG>
-21.4006

> <Gold.Chemscore.ZeroCoef>
-5.4800

> <Gold.Chemscore.Hbond>
2.2192

> <Gold.Chemscore.Metal>
0.0000

> <Gold.Chemscore.Lipo>
94.6023

> <Gold.Chemscore.Internal_Hbond>
0.0000

> <Gold.Chemscore.DEClash>
0.4899

> <Gold.Chemscore.DEInternal>
2.6912

> <Gold.Chemscore.Rot>
1.0000

> <Gold.Chemscore.Internal.Correction>
   9.000000E+99

> <Gold.Chemscore.Hbonds>
donor molecule, donor type, donor heavy atom, donor atom, acceptor molecule, acceptor atom, score
      L1  H     7    28       P1  8028  0.95
      L1  H    10    29       P1  8028  0.90
      P1  H  7989  7998       L1    12  0.14

> <Gold.Chemscore.Hbond.Weighted>
-7.4122

> <Gold.Chemscore.Metal.Weighted>
-0.0000

> <Gold.Chemscore.Lipo.Weighted>
-11.0685

> <Gold.Chemscore.Internal_Hbond.Weighted>
0.0000

> <Gold.Chemscore.DEClash.Weighted>
0.4899

> <Gold.Chemscore.DEInternal.Weighted>
2.6912

> <Gold.Chemscore.Rot.Weighted>
2.5600

> <Gold.Chemscore.Internal.Correction.Weighted>
   9.000000E+99

> <Gold.Protein.RotatedTorsions>
[ 6907 6896 6895 6894 ] final   98.36 input  -60.11 | X-H torsion
[ 7974 7965 7964 7962 ] final  -43.41 input  175.53 | X-H torsion
[ 8008 7997 7996 7995 ] final  154.37 input   59.86 | X-H torsion
[ 10167 10162 10161 10158 ] final -165.38 input  -65.29 | X-H torsion
[ 10718 10713 10712 10709 ] final -133.46 input   66.30 | X-H torsion
[ 10763 10752 10751 10750 ] final  171.14 input  -60.55 | X-H torsion
[ 11005 11000 10999 10996 ] final  122.23 input  -57.11 | X-H torsion

> <Gold.Protein.ActiveResidues>
 VAL166  LYS551  ARG553  GLY616  TRP617  ASP618  TYR619  PRO620  LYS621  CYS622 
 ASP623  PHE694  ASN695  SER759  ASP760  ASP761  ALA762  ILE779  LEU786  VAL792 
 PHE793  MET794  SER795  GLU796  ALA797  LYS798  CYS799  TRP800  GLU811  SER814 

> <Gold.Protein.RotatedAtoms>
  152.5410  134.0593  159.8144 H   0  0  0  0  0  0  0  0  0  0  0  0  # atno 6907 bound_to 6896
  151.0723  133.5449  159.2633 H   0  0  0  0  0  0  0  0  0  0  0  0  # atno 6908 bound_to 6896
  151.2307  135.0561  159.9040 H   0  0  0  0  0  0  0  0  0  0  0  0  # atno 6909 bound_to 6896
  146.0022  140.7061  142.9265 H   0  0  0  0  0  0  0  0  0  0  0  0  # atno 7974 bound_to 7965
  156.2534  140.1968  156.6636 H   0  0  0  0  0  0  0  0  0  0  0  0  # atno 8008 bound_to 7997
  154.6446  140.0579  156.9910 H   0  0  0  0  0  0  0  0  0  0  0  0  # atno 8009 bound_to 7997
  155.1511  140.3251  155.4434 H   0  0  0  0  0  0  0  0  0  0  0  0  # atno 8010 bound_to 7997
  139.6186  144.0670  152.1911 H   0  0  0  0  0  0  0  0  0  0  0  0  # atno 10167 bound_to 10162
  156.2452  130.7120  151.0997 H   0  0  0  0  0  0  0  0  0  0  0  0  # atno 10718 bound_to 10713
  154.4076  135.2756  155.2057 H   0  0  0  0  0  0  0  0  0  0  0  0  # atno 10763 bound_to 10752
  154.4057  135.6034  153.5926 H   0  0  0  0  0  0  0  0  0  0  0  0  # atno 10764 bound_to 10752
  152.9831  135.5937  154.4353 H   0  0  0  0  0  0  0  0  0  0  0  0  # atno 10765 bound_to 10752
  139.9259  134.9640  156.8077 H   0  0  0  0  0  0  0  0  0  0  0  0  # atno 11005 bound_to 11000
  144.6923  140.3252  143.7225 LP  0  0  0  0  0  0  0  0  0  0  0  0  # atno 17320 bound_to 7965
  145.7470  139.1782  143.2343 LP  0  0  0  0  0  0  0  0  0  0  0  0  # atno 17321 bound_to 7965
  140.0306  144.6084  150.7491 LP  0  0  0  0  0  0  0  0  0  0  0  0  # atno 17342 bound_to 10162
  140.7367  143.2756  151.3751 LP  0  0  0  0  0  0  0  0  0  0  0  0  # atno 17343 bound_to 10162
  157.7192  131.0692  150.6206 LP  0  0  0  0  0  0  0  0  0  0  0  0  # atno 17370 bound_to 10713
  156.6282  130.4424  149.5796 LP  0  0  0  0  0  0  0  0  0  0  0  0  # atno 17371 bound_to 10713
  140.6337  133.9882  155.7674 LP  0  0  0  0  0  0  0  0  0  0  0  0  # atno 17394 bound_to 11000
  141.0816  134.0053  157.3377 LP  0  0  0  0  0  0  0  0  0  0  0  0  # atno 17395 bound_to 11000

$$$$
