AV-unprocessed.smi:1591|AV-procd|sdf|6400|dock4
  -GOLD-   22720 7 33D 1   1.00000     0.00000
 Structure written by MMmdl.
 51 54  0  0  0  0  0  0  0  0  2 V2000
  149.9644  133.5405  154.4173 C   0  0  0  0  0  0  0  0  0  0  0  0
  150.5416  134.9192  154.7759 C   0  0  0  0  0  0  0  0  0  0  0  0
  149.6498  135.7491  155.7353 C   0  0  1  0  0  0  0  0  0  0  0  0
  149.5297  135.0349  157.0093 N   0  0  0  0  0  0  0  0  0  0  0  0
  148.4324  134.4197  157.4778 C   0  0  0  0  0  0  0  0  0  0  0  0
  147.3469  134.4222  156.8980 O   0  0  0  0  0  0  0  0  0  0  0  0
  148.5930  133.6899  158.8142 C   0  0  0  0  0  0  0  0  0  0  0  0
  148.3529  134.5977  159.9459 N   0  0  0  0  0  0  0  0  0  0  0  0
  147.3662  134.2206  160.8744 C   0  0  0  0  0  0  0  0  0  0  0  0
  147.0533  134.9912  161.9331 C   0  0  0  0  0  0  0  0  0  0  0  0
  147.7676  136.2496  162.1047 C   0  0  0  0  0  0  0  0  0  0  0  0
  147.4951  136.9664  163.0657 O   0  0  0  0  0  0  0  0  0  0  0  0
  148.7156  136.5730  161.1771 N   0  5  0  0  0  0  0  0  0  0  0  0
  149.0231  135.7790  160.1043 C   0  0  0  0  0  0  0  0  0  0  0  0
  149.8816  136.0922  159.2795 O   0  0  0  0  0  0  0  0  0  0  0  0
  150.1126  137.2253  155.9740 C   0  0  0  0  0  0  0  0  0  0  0  0
  151.5511  137.2321  156.5747 C   0  0  0  0  0  0  0  0  0  0  0  0
  152.0371  138.6718  156.8395 C   0  0  1  0  0  0  0  0  0  0  0  0
  152.0524  139.4596  155.5138 C   0  0  0  0  0  0  0  0  0  0  0  0
  150.6255  139.4951  154.9294 C   0  0  2  0  0  0  0  0  0  0  0  0
  149.6755  140.1850  155.9301 C   0  0  0  0  0  0  0  0  0  0  0  0
  149.6703  139.3925  157.2536 C   0  0  2  0  0  0  0  0  0  0  0  0
  151.0927  139.3585  157.8451 C   0  0  0  0  0  0  0  0  0  0  0  0
  149.1816  137.9525  156.9880 C   0  0  0  0  0  0  0  0  0  0  0  0
  150.1383  138.0550  154.6571 C   0  0  0  0  0  0  0  0  0  0  0  0
  150.5879  133.0427  153.6744 H   0  0  0  0  0  0  0  0  0  0  0  0
  148.9605  133.6306  154.0014 H   0  0  0  0  0  0  0  0  0  0  0  0
  149.9101  132.8848  155.2867 H   0  0  0  0  0  0  0  0  0  0  0  0
  151.5336  134.7790  155.2048 H   0  0  0  0  0  0  0  0  0  0  0  0
  150.6856  135.4567  153.8404 H   0  0  0  0  0  0  0  0  0  0  0  0
  148.6664  135.8043  155.2649 H   0  0  0  0  0  0  0  0  0  0  0  0
  150.3676  134.9759  157.5690 H   0  0  0  0  0  0  0  0  0  0  0  0
  147.9093  132.8401  158.8556 H   0  0  0  0  0  0  0  0  0  0  0  0
  149.5912  133.2522  158.8665 H   0  0  0  0  0  0  0  0  0  0  0  0
  146.8797  133.2781  160.6700 H   0  0  0  0  0  0  0  0  0  0  0  0
  146.2908  134.6873  162.6351 H   0  0  0  0  0  0  0  0  0  0  0  0
  151.5737  136.6587  157.5026 H   0  0  0  0  0  0  0  0  0  0  0  0
  152.2582  136.7442  155.9030 H   0  0  0  0  0  0  0  0  0  0  0  0
  153.0453  138.6425  157.2541 H   0  0  0  0  0  0  0  0  0  0  0  0
  152.4187  140.4733  155.6804 H   0  0  0  0  0  0  0  0  0  0  0  0
  152.7398  138.9954  154.8056 H   0  0  0  0  0  0  0  0  0  0  0  0
  150.6329  140.0554  153.9940 H   0  0  0  0  0  0  0  0  0  0  0  0
  149.9944  141.2131  156.1063 H   0  0  0  0  0  0  0  0  0  0  0  0
  148.6673  140.2411  155.5179 H   0  0  0  0  0  0  0  0  0  0  0  0
  148.9975  139.8774  157.9616 H   0  0  0  0  0  0  0  0  0  0  0  0
  151.0951  138.8223  158.7946 H   0  0  0  0  0  0  0  0  0  0  0  0
  151.4386  140.3703  158.0602 H   0  0  0  0  0  0  0  0  0  0  0  0
  148.1606  138.0077  156.6121 H   0  0  0  0  0  0  0  0  0  0  0  0
  149.1349  137.3964  157.9254 H   0  0  0  0  0  0  0  0  0  0  0  0
  150.7896  137.5886  153.9172 H   0  0  0  0  0  0  0  0  0  0  0  0
  149.1459  138.0935  154.2075 H   0  0  0  0  0  0  0  0  0  0  0  0
  1  2  1  0  0  0  0
  1 26  1  0  0  0  0
  1 27  1  0  0  0  0
  1 28  1  0  0  0  0
  2  3  1  0  0  0  0
  2 29  1  0  0  0  0
  2 30  1  0  0  0  0
  3  4  1  0  0  0  0
  3 16  1  0  0  0  0
  3 31  1  0  0  0  0
  4  5  1  0  0  0  0
  4 32  1  0  0  0  0
  5  6  2  0  0  0  0
  5  7  1  0  0  0  0
  7  8  1  0  0  0  0
  7 33  1  0  0  0  0
  7 34  1  0  0  0  0
  8 14  1  0  0  0  0
  8  9  1  0  0  0  0
  9 10  2  0  0  0  0
  9 35  1  0  0  0  0
 10 11  1  0  0  0  0
 10 36  1  0  0  0  0
 11 12  2  0  0  0  0
 11 13  1  0  0  0  0
 13 14  1  0  0  0  0
 14 15  2  0  0  0  0
 16 24  1  0  0  0  0
 16 25  1  0  0  0  0
 16 17  1  0  0  0  0
 17 18  1  0  0  0  0
 17 37  1  0  0  0  0
 17 38  1  0  0  0  0
 18 23  1  0  0  0  0
 18 19  1  0  0  0  0
 18 39  1  0  0  0  0
 19 20  1  0  0  0  0
 19 40  1  0  0  0  0
 19 41  1  0  0  0  0
 20 21  1  0  0  0  0
 20 25  1  0  0  0  0
 20 42  1  0  0  0  0
 21 22  1  0  0  0  0
 21 43  1  0  0  0  0
 21 44  1  0  0  0  0
 22 23  1  0  0  0  0
 22 24  1  0  0  0  0
 22 45  1  0  0  0  0
 23 46  1  0  0  0  0
 23 47  1  0  0  0  0
 24 48  1  0  0  0  0
 24 49  1  0  0  0  0
 25 50  1  0  0  0  0
 25 51  1  0  0  0  0
M  CHG  1  13  -1
M  END
> <s_m_source_file>
AV-unprocessed.smi

> <i_m_source_file_index>
1591

> <i_lp_mmshare_version>
43012

> <i_f3d_flags>
0

> <s_epik_input>
W0NIMl0xW0NASF0oW0NIMl0yKVtDSDJdW0NASF0oW0NIMl0zKVtDSDJdW0NAQEhdMVtDSDJdQzIzW0NASF0oW0NIMl1bQ0gzXSlbTkhdQyg9TylbQ0gyXW40W2NIXVtjSF1jKD1PKVtuSF1jND1P

> <s_epik_cmdline>
J2VwaWtfcHl0aG9uJywgJy1waCcsICc3LjAnLCAnLXRuJywgJzgnLCAnLW1hJywgJzIwMCcsICctbWV0YWxfYmluZGluZycsICctaW1hZScsICc8aW5maWxlLm1hZT4nLCAnLW9tYWUnLCAnPG91dGZpbGUubWFlPic=

> <r_lp_tautomer_probability>
0.999537

> <r_epik_Ionization_Penalty>
3.13902

> <r_epik_Ionization_Penalty_Charging>
2.97334e-08

> <r_epik_Ionization_Penalty_Neutral>
3.13902

> <r_epik_State_Penalty>
3.13814

> <r_epik_Charging_Adjusted_Penalty>
3.13814

> <i_epik_Tot_Q>
-1

> <i_epik_Tot_abs_Q>
1

> <r_epik_Metal_State_Penalty>
0.465244

> <b_epik_Metal_Only>
1

> <s_lp_Force_Field>
OPLS_2005

> <r_lp_Energy>
49.2124

> <b_lp_Chiralities_Consistent>
1

> <s_lp_Variant>
AV-unprocessed.smi:1591-4

> <Gold.Version>
5.8.1

> <Gold.Id.Protein>
6NUR|6NUR_protein|mol2

> <Gold.PLP.Fitness>
41.9026

> <Gold.PLP.PLP>
-33.6708

> <Gold.PLP.part.hbond>
-4.6232

> <Gold.PLP.part.metal>
0.0000

> <Gold.PLP.part.buried>
-4.6425

> <Gold.PLP.part.nonpolar>
-26.6362

> <Gold.PLP.part.repulsive>
0.0660

> <Gold.PLP.ligand.clash>
0.0000

> <Gold.PLP.ligand.torsion>
0.4894

> <Gold.PLP.Chemscore.Hbond>
3.0278

> <Gold.PLP.Chemscore.CHOScore>
0.0000

> <Gold.PLP.Chemscore.Metal>
0.0000

> <Gold.Chemscore.Hbonds>
donor molecule, donor type, donor heavy atom, donor atom, acceptor molecule, acceptor atom, score
      P1  H  6896  6909       L1    15  0.55
      P1  H  6931  6943       L1    13  1.40

> <Gold.PLP.Chemscore.Internal.Correction>
0.1274

> <Gold.Rescore>
     Score         DG    S(hbond)    S(metal)    S(lipo)     H(rot)  DE(clash)    DE(int)     intcor
     12.61     -14.71       1.85        0.00      69.42       1.99       0.18       1.93       ----

> <Gold.Chemscore.Fitness>
12.6056

> <Gold.Chemscore.DG>
-14.7083

> <Gold.Chemscore.ZeroCoef>
-5.4800

> <Gold.Chemscore.Hbond>
1.8533

> <Gold.Chemscore.Metal>
0.0000

> <Gold.Chemscore.Lipo>
69.4164

> <Gold.Chemscore.Internal_Hbond>
0.0000

> <Gold.Chemscore.DEClash>
0.1753

> <Gold.Chemscore.DEInternal>
1.9274

> <Gold.Chemscore.Rot>
1.9858

> <Gold.Chemscore.Internal.Correction>
   9.000000E+99

> <Gold.Chemscore.Hbonds>
donor molecule, donor type, donor heavy atom, donor atom, acceptor molecule, acceptor atom, score
      P1  H  6896  6909       L1    15  0.03
      P1  H  6931  6943       L1    13  0.07

> <Gold.Chemscore.Hbond.Weighted>
-6.1902

> <Gold.Chemscore.Metal.Weighted>
-0.0000

> <Gold.Chemscore.Lipo.Weighted>
-8.1217

> <Gold.Chemscore.Internal_Hbond.Weighted>
0.0000

> <Gold.Chemscore.DEClash.Weighted>
0.1753

> <Gold.Chemscore.DEInternal.Weighted>
1.9274

> <Gold.Chemscore.Rot.Weighted>
5.0836

> <Gold.Chemscore.Internal.Correction.Weighted>
   9.000000E+99

> <Gold.Protein.RotatedTorsions>
[ 6907 6896 6895 6894 ] final   62.15 input  -60.11 | X-H torsion
[ 7974 7965 7964 7962 ] final -156.50 input  175.53 | X-H torsion
[ 8008 7997 7996 7995 ] final -165.13 input   59.86 | X-H torsion
[ 10167 10162 10161 10158 ] final   96.76 input  -65.29 | X-H torsion
[ 10718 10713 10712 10709 ] final  153.29 input   66.30 | X-H torsion
[ 10763 10752 10751 10750 ] final  158.73 input  -60.55 | X-H torsion
[ 11005 11000 10999 10996 ] final -102.26 input  -57.11 | X-H torsion

> <Gold.Protein.ActiveResidues>
 VAL166  LYS551  ARG553  GLY616  TRP617  ASP618  TYR619  PRO620  LYS621  CYS622 
 ASP623  PHE694  ASN695  SER759  ASP760  ASP761  ALA762  ILE779  LEU786  VAL792 
 PHE793  MET794  SER795  GLU796  ALA797  LYS798  CYS799  TRP800  GLU811  SER814 

> <Gold.Protein.RotatedAtoms>
  152.4148  134.6061  160.0012 H   0  0  0  0  0  0  0  0  0  0  0  0  # atno 6907 bound_to 6896
  151.6228  133.3332  159.3099 H   0  0  0  0  0  0  0  0  0  0  0  0  # atno 6908 bound_to 6896
  150.8037  134.7187  159.6690 H   0  0  0  0  0  0  0  0  0  0  0  0  # atno 6909 bound_to 6896
  144.7590  140.4101  143.5990 H   0  0  0  0  0  0  0  0  0  0  0  0  # atno 7974 bound_to 7965
  155.8454  140.0955  157.1708 H   0  0  0  0  0  0  0  0  0  0  0  0  # atno 8008 bound_to 7997
  154.3983  140.1393  156.3841 H   0  0  0  0  0  0  0  0  0  0  0  0  # atno 8009 bound_to 7997
  155.8019  140.3452  155.5410 H   0  0  0  0  0  0  0  0  0  0  0  0  # atno 8010 bound_to 7997
  139.7864  144.6869  150.9952 H   0  0  0  0  0  0  0  0  0  0  0  0  # atno 10167 bound_to 10162
  157.2466  131.0770  151.1757 H   0  0  0  0  0  0  0  0  0  0  0  0  # atno 10718 bound_to 10713
  154.2206  135.2782  155.2926 H   0  0  0  0  0  0  0  0  0  0  0  0  # atno 10763 bound_to 10752
  154.5705  135.5620  153.7094 H   0  0  0  0  0  0  0  0  0  0  0  0  # atno 10764 bound_to 10752
  153.0042  135.6320  154.2346 H   0  0  0  0  0  0  0  0  0  0  0  0  # atno 10765 bound_to 10752
  141.1197  133.8544  157.1337 H   0  0  0  0  0  0  0  0  0  0  0  0  # atno 11005 bound_to 11000
  145.6681  139.1594  143.2770 LP  0  0  0  0  0  0  0  0  0  0  0  0  # atno 17320 bound_to 7965
  146.1633  140.6755  142.9267 LP  0  0  0  0  0  0  0  0  0  0  0  0  # atno 17321 bound_to 7965
  140.7819  143.4427  151.0528 LP  0  0  0  0  0  0  0  0  0  0  0  0  # atno 17342 bound_to 10162
  139.8106  143.7957  152.3171 LP  0  0  0  0  0  0  0  0  0  0  0  0  # atno 17343 bound_to 10162
  157.3322  130.6991  149.6331 LP  0  0  0  0  0  0  0  0  0  0  0  0  # atno 17370 bound_to 10713
  155.9668  130.4304  150.4875 LP  0  0  0  0  0  0  0  0  0  0  0  0  # atno 17371 bound_to 10713
  140.0144  134.9974  157.0463 LP  0  0  0  0  0  0  0  0  0  0  0  0  # atno 17394 bound_to 11000
  140.4544  134.1548  155.7185 LP  0  0  0  0  0  0  0  0  0  0  0  0  # atno 17395 bound_to 11000

$$$$
