AV-unprocessed.smi:1120|AV-procd|sdf|4821|dock10
  -GOLD-   22720 3383D 1   1.00000     0.00000
 Structure written by MMmdl.
 49 50  0  0  0  0  0  0  0  0  2 V2000
  150.4897  130.6121  154.4535 C   0  0  0  0  0  0  0  0  0  0  0  0
  149.5561  131.7527  154.8820 C   0  0  2  0  0  0  0  0  0  0  0  0
  148.9629  132.4815  153.6630 C   0  0  0  0  0  0  0  0  0  0  0  0
  148.0079  133.6124  154.0808 C   0  0  0  0  0  0  0  0  0  0  0  0
  148.6557  134.5995  155.0716 C   0  0  2  0  0  0  0  0  0  0  0  0
  149.5972  135.4887  154.3836 N   0  0  0  0  0  0  0  0  0  0  0  0
  150.5324  136.6539  155.2462 S   0  0  0  0  0  0  0  0  0  0  0  0
  150.2635  136.4751  156.6815 O   0  0  0  0  0  0  0  0  0  0  0  0
  151.9111  136.5668  154.7409 O   0  0  0  0  0  0  0  0  0  0  0  0
  149.8078  138.2612  154.6978 C   0  0  0  0  0  0  0  0  0  0  0  0
  150.4903  139.4144  155.4301 C   0  0  0  0  0  0  0  0  0  0  0  0
  151.1907  140.2101  154.8056 O   0  0  0  0  0  0  0  0  0  0  0  0
  150.2786  139.4977  156.7525 N   0  0  0  0  0  0  0  0  0  0  0  0
  150.8362  140.5216  157.6313 C   0  0  0  0  0  0  0  0  0  0  0  0
  150.5949  141.9620  157.1333 C   0  0  0  0  0  0  0  0  0  0  0  0
  151.1943  143.0327  158.0291 C   0  0  0  0  0  0  0  0  0  0  0  0
  152.2971  142.7727  158.8710 C   0  0  0  0  0  0  0  0  0  0  0  0
  152.7948  143.8052  159.6934 C   0  0  0  0  0  0  0  0  0  0  0  0
  152.1806  145.0743  159.6571 C   0  0  0  0  0  0  0  0  0  0  0  0
  151.0834  145.2794  158.7965 C   0  0  0  0  0  0  0  0  0  0  0  0
  150.6352  144.2647  158.0254 N   0  3  0  0  0  0  0  0  0  0  0  0
  149.3451  133.8911  156.2531 C   0  0  0  0  0  0  0  0  0  0  0  0
  150.2782  132.7557  155.7995 C   0  0  0  0  0  0  0  0  0  0  0  0
  151.3391  130.9876  153.8821 H   0  0  0  0  0  0  0  0  0  0  0  0
  149.9645  129.8872  153.8312 H   0  0  0  0  0  0  0  0  0  0  0  0
  150.8812  130.0787  155.3204 H   0  0  0  0  0  0  0  0  0  0  0  0
  148.7333  131.3098  155.4454 H   0  0  0  0  0  0  0  0  0  0  0  0
  149.7678  132.8922  153.0518 H   0  0  0  0  0  0  0  0  0  0  0  0
  148.4285  131.7730  153.0292 H   0  0  0  0  0  0  0  0  0  0  0  0
  147.6402  134.1367  153.1984 H   0  0  0  0  0  0  0  0  0  0  0  0
  147.1308  133.1686  154.5535 H   0  0  0  0  0  0  0  0  0  0  0  0
  147.8628  135.2228  155.4863 H   0  0  0  0  0  0  0  0  0  0  0  0
  149.3308  135.7663  153.4390 H   0  0  0  0  0  0  0  0  0  0  0  0
  149.9295  138.3584  153.6188 H   0  0  0  0  0  0  0  0  0  0  0  0
  148.7411  138.2594  154.9217 H   0  0  0  0  0  0  0  0  0  0  0  0
  149.6885  138.8001  157.1838 H   0  0  0  0  0  0  0  0  0  0  0  0
  150.3679  140.3966  158.6080 H   0  0  0  0  0  0  0  0  0  0  0  0
  151.9030  140.3461  157.7787 H   0  0  0  0  0  0  0  0  0  0  0  0
  151.0042  142.0732  156.1284 H   0  0  0  0  0  0  0  0  0  0  0  0
  149.5236  142.1441  157.0386 H   0  0  0  0  0  0  0  0  0  0  0  0
  152.7543  141.7941  158.8901 H   0  0  0  0  0  0  0  0  0  0  0  0
  153.6364  143.6252  160.3462 H   0  0  0  0  0  0  0  0  0  0  0  0
  152.5445  145.8778  160.2807 H   0  0  0  0  0  0  0  0  0  0  0  0
  150.5499  146.2144  158.7063 H   0  0  0  0  0  0  0  0  0  0  0  0
  149.8940  134.6113  156.8612 H   0  0  0  0  0  0  0  0  0  0  0  0
  148.5785  133.4703  156.9047 H   0  0  0  0  0  0  0  0  0  0  0  0
  150.6739  132.2413  156.6759 H   0  0  0  0  0  0  0  0  0  0  0  0
  151.1383  133.1784  155.2783 H   0  0  0  0  0  0  0  0  0  0  0  0
  149.8349  144.4350  157.4152 H   0  0  0  0  0  0  0  0  0  0  0  0
  1  2  1  0  0  0  0
  1 24  1  0  0  0  0
  1 25  1  0  0  0  0
  1 26  1  0  0  0  0
  2 23  1  0  0  0  0
  2  3  1  0  0  0  0
  2 27  1  0  0  0  0
  3  4  1  0  0  0  0
  3 28  1  0  0  0  0
  3 29  1  0  0  0  0
  4  5  1  0  0  0  0
  4 30  1  0  0  0  0
  4 31  1  0  0  0  0
  5  6  1  0  0  0  0
  5 22  1  0  0  0  0
  5 32  1  0  0  0  0
  6  7  1  0  0  0  0
  6 33  1  0  0  0  0
  7  8  2  0  0  0  0
  7  9  2  0  0  0  0
  7 10  1  0  0  0  0
 10 11  1  0  0  0  0
 10 34  1  0  0  0  0
 10 35  1  0  0  0  0
 11 12  2  0  0  0  0
 11 13  1  0  0  0  0
 13 14  1  0  0  0  0
 13 36  1  0  0  0  0
 14 15  1  0  0  0  0
 14 37  1  0  0  0  0
 14 38  1  0  0  0  0
 15 16  1  0  0  0  0
 15 39  1  0  0  0  0
 15 40  1  0  0  0  0
 16 21  1  0  0  0  0
 16 17  2  0  0  0  0
 17 18  1  0  0  0  0
 17 41  1  0  0  0  0
 18 19  2  0  0  0  0
 18 42  1  0  0  0  0
 19 20  1  0  0  0  0
 19 43  1  0  0  0  0
 20 21  2  0  0  0  0
 20 44  1  0  0  0  0
 21 49  1  0  0  0  0
 22 23  1  0  0  0  0
 22 45  1  0  0  0  0
 22 46  1  0  0  0  0
 23 47  1  0  0  0  0
 23 48  1  0  0  0  0
M  CHG  1  21   1
M  END
> <s_m_source_file>
AV-unprocessed.smi

> <i_m_source_file_index>
1120

> <i_lp_mmshare_version>
43012

> <i_f3d_flags>
0

> <s_epik_input>
W0NIM11bQ0BASF0xW0NIMl1bQ0gyXVtDQEhdKFtDSDJdW0NIMl0xKVtOSF1TKD1PKSg9TylbQ0gyXUMoPU8pW05IXVtDSDJdW0NIMl1jMltjSF1bY0hdW2NIXVtjSF1uMg==

> <s_epik_cmdline>
J2VwaWtfcHl0aG9uJywgJy1waCcsICc3LjAnLCAnLXRuJywgJzgnLCAnLW1hJywgJzIwMCcsICctbWV0YWxfYmluZGluZycsICctaW1hZScsICc8aW5maWxlLm1hZT4nLCAnLW9tYWUnLCAnPG91dGZpbGUubWFlPic=

> <r_epik_Ionization_Penalty>
1.97387

> <r_epik_Ionization_Penalty_Charging>
1.97382

> <r_epik_Ionization_Penalty_Neutral>
4.57635e-05

> <r_epik_State_Penalty>
2.10057

> <r_epik_Charging_Adjusted_Penalty>
4.07439

> <i_epik_Tot_Q>
1

> <i_epik_Tot_abs_Q>
1

> <r_epik_Metal_State_Penalty>
2.15877

> <b_epik_Metal_Only>
0

> <s_lp_Force_Field>
OPLS_2005

> <r_lp_Energy>
8.31708

> <b_lp_Chiralities_Consistent>
1

> <s_lp_Variant>
AV-unprocessed.smi:1120-4

> <Gold.Version>
5.8.1

> <Gold.Id.Protein>
6NUR|6NUR_protein|mol2

> <Gold.PLP.Fitness>
57.1182

> <Gold.PLP.PLP>
-43.4444

> <Gold.PLP.part.hbond>
-3.6305

> <Gold.PLP.part.metal>
0.0000

> <Gold.PLP.part.buried>
-5.6892

> <Gold.PLP.part.nonpolar>
-33.4643

> <Gold.PLP.part.repulsive>
0.3110

> <Gold.PLP.ligand.clash>
0.0000

> <Gold.PLP.ligand.torsion>
1.0446

> <Gold.PLP.Chemscore.Hbond>
4.8617

> <Gold.PLP.Chemscore.CHOScore>
0.0000

> <Gold.PLP.Chemscore.Metal>
0.0000

> <Gold.Chemscore.Hbonds>
donor molecule, donor type, donor heavy atom, donor atom, acceptor molecule, acceptor atom, score
      L1  H     6    33       P1  7948  1.00
      L1  H    21    49       P1  8028  1.90
      P1  H  7989  7998       L1    12  0.99
      P1  H 10752 10763       L1     9  0.84

> <Gold.PLP.Chemscore.Internal.Correction>
1.1777

> <Gold.Rescore>
     Score         DG    S(hbond)    S(metal)    S(lipo)     H(rot)  DE(clash)    DE(int)     intcor
     20.36     -23.84       3.45        0.00     103.13       2.05       0.16       3.32       ----

> <Gold.Chemscore.Fitness>
20.3567

> <Gold.Chemscore.DG>
-23.8375

> <Gold.Chemscore.ZeroCoef>
-5.4800

> <Gold.Chemscore.Hbond>
3.4521

> <Gold.Chemscore.Metal>
0.0000

> <Gold.Chemscore.Lipo>
103.1288

> <Gold.Chemscore.Internal_Hbond>
0.0000

> <Gold.Chemscore.DEClash>
0.1638

> <Gold.Chemscore.DEInternal>
3.3171

> <Gold.Chemscore.Rot>
2.0463

> <Gold.Chemscore.Internal.Correction>
   9.000000E+99

> <Gold.Chemscore.Hbonds>
donor molecule, donor type, donor heavy atom, donor atom, acceptor molecule, acceptor atom, score
      L1  H     6    33       P1  7948  0.45
      L1  H    21    49       P1  8028  0.21
      P1  H  7989  7998       L1    12  0.92
      P1  H 10752 10763       L1     9  0.77

> <Gold.Chemscore.Hbond.Weighted>
-11.5300

> <Gold.Chemscore.Metal.Weighted>
-0.0000

> <Gold.Chemscore.Lipo.Weighted>
-12.0661

> <Gold.Chemscore.Internal_Hbond.Weighted>
0.0000

> <Gold.Chemscore.DEClash.Weighted>
0.1638

> <Gold.Chemscore.DEInternal.Weighted>
3.3171

> <Gold.Chemscore.Rot.Weighted>
5.2386

> <Gold.Chemscore.Internal.Correction.Weighted>
   9.000000E+99

> <Gold.Protein.RotatedTorsions>
[ 6907 6896 6895 6894 ] final  168.62 input  -60.11 | X-H torsion
[ 7974 7965 7964 7962 ] final   14.33 input  175.53 | X-H torsion
[ 8008 7997 7996 7995 ] final   83.96 input   59.86 | X-H torsion
[ 10167 10162 10161 10158 ] final   33.15 input  -65.29 | X-H torsion
[ 10718 10713 10712 10709 ] final   15.90 input   66.30 | X-H torsion
[ 10763 10752 10751 10750 ] final   37.23 input  -60.55 | X-H torsion
[ 11005 11000 10999 10996 ] final   15.33 input  -57.11 | X-H torsion

> <Gold.Protein.ActiveResidues>
 VAL166  LYS551  ARG553  GLY616  TRP617  ASP618  TYR619  PRO620  LYS621  CYS622 
 ASP623  PHE694  ASN695  SER759  ASP760  ASP761  ALA762  ILE779  LEU786  VAL792 
 PHE793  MET794  SER795  GLU796  ALA797  LYS798  CYS799  TRP800  GLU811  SER814 

> <Gold.Protein.RotatedAtoms>
  151.8448  133.3429  159.3654 H   0  0  0  0  0  0  0  0  0  0  0  0  # atno 6907 bound_to 6896
  150.7224  134.5356  159.5731 H   0  0  0  0  0  0  0  0  0  0  0  0  # atno 6908 bound_to 6896
  152.2837  134.7800  160.0442 H   0  0  0  0  0  0  0  0  0  0  0  0  # atno 6909 bound_to 6896
  146.2307  139.9057  142.8532 H   0  0  0  0  0  0  0  0  0  0  0  0  # atno 7974 bound_to 7965
  155.9308  140.3415  155.6247 H   0  0  0  0  0  0  0  0  0  0  0  0  # atno 8008 bound_to 7997
  155.7160  140.0777  157.2369 H   0  0  0  0  0  0  0  0  0  0  0  0  # atno 8009 bound_to 7997
  154.4085  140.1614  156.2336 H   0  0  0  0  0  0  0  0  0  0  0  0  # atno 8010 bound_to 7997
  140.4433  144.1155  150.6178 H   0  0  0  0  0  0  0  0  0  0  0  0  # atno 10167 bound_to 10162
  157.0602  130.6305  149.5784 H   0  0  0  0  0  0  0  0  0  0  0  0  # atno 10718 bound_to 10713
  153.0046  135.6283  154.2111 H   0  0  0  0  0  0  0  0  0  0  0  0  # atno 10763 bound_to 10752
  154.1855  135.2811  155.3040 H   0  0  0  0  0  0  0  0  0  0  0  0  # atno 10764 bound_to 10752
  154.5801  135.5650  153.7237 H   0  0  0  0  0  0  0  0  0  0  0  0  # atno 10765 bound_to 10752
  140.4596  134.1141  155.7714 H   0  0  0  0  0  0  0  0  0  0  0  0  # atno 11005 bound_to 11000
  145.2279  140.9961  143.4007 LP  0  0  0  0  0  0  0  0  0  0  0  0  # atno 17320 bound_to 7965
  144.9555  139.4036  143.6381 LP  0  0  0  0  0  0  0  0  0  0  0  0  # atno 17321 bound_to 7965
  140.4292  143.2576  151.9617 LP  0  0  0  0  0  0  0  0  0  0  0  0  # atno 17342 bound_to 10162
  139.4791  144.5759  151.8012 LP  0  0  0  0  0  0  0  0  0  0  0  0  # atno 17343 bound_to 10162
  155.9981  130.5054  150.7558 LP  0  0  0  0  0  0  0  0  0  0  0  0  # atno 17370 bound_to 10713
  157.4961  131.0915  151.0370 LP  0  0  0  0  0  0  0  0  0  0  0  0  # atno 17371 bound_to 10713
  141.1627  133.8761  157.1802 LP  0  0  0  0  0  0  0  0  0  0  0  0  # atno 17394 bound_to 11000
  139.9954  135.0049  157.0070 LP  0  0  0  0  0  0  0  0  0  0  0  0  # atno 17395 bound_to 11000

$$$$
