#       Name:                AV-unprocessed.smi:3145
#       Creating user name   scv26
#       Creation time:       Fri Mar 27 17:38:35 2020


#       File generated by GOLD software.
#

@<TRIPOS>MOLECULE
AV-unprocessed.smi:3145
    39    39     1
SMALL
NO_CHARGES


@<TRIPOS>ATOM
      1 ****        -1.7906   2.2725  -2.5594 C.3            1 S1                 0.0000
      2 ****        -0.9078   1.8632  -1.3721 C.3            1 S1                 0.0000
      3 ****        -1.7195   1.8521  -0.0571 C.3            1 S1                 0.0000
      4 ****        -0.9020   1.6202   1.1210 N.pl3          1 S1                 0.0000
      5 ****        -0.0763   2.5091   1.7767 C.2            1 S1                 0.0000
      6 ****         0.4904   1.8408   2.8239 C.2            1 S1                 0.0000
      7 ****        -0.0613   0.5328   2.7283 C.2            1 S1                 0.0000
      8 ****        -0.8944   0.4032   1.7086 N.2            1 S1                 0.0000
      9 ****        -0.3850   0.5304  -1.6557 N.3            1 S1                 0.0000
     10 ****         1.0356   0.4000  -1.3081 C.3            1 S1                 0.0000
     11 ****         1.4796  -1.0595  -1.3300 C.2            1 S1                 0.0000
     12 ****         2.2640  -1.4562  -2.1912 O.2            1 S1                 0.0000
     13 ****         0.9707  -1.8468  -0.3716 N.am           1 S1                 0.0000
     14 ****         1.2674  -3.2645  -0.2229 C.3            1 S1                 0.0000
     15 ****         0.4970  -3.8637   0.9596 C.3            1 S1                 0.0000
     16 ****         0.9335  -3.3380   2.2625 C.1            1 S1                 0.0000
     17 ****         1.2772  -2.9250   3.2871 N.1            1 S1                 0.0000
     18 ****        -2.2051   3.2701  -2.4115 H              1 S1                 0.0000
     19 ****        -2.6260   1.5841  -2.6939 H              1 S1                 0.0000
     20 ****        -1.2198   2.2913  -3.4885 H              1 S1                 0.0000
     21 ****        -0.0965   2.5904  -1.3010 H              1 S1                 0.0000
     22 ****        -2.2188   2.8127   0.0759 H              1 S1                 0.0000
     23 ****        -2.5099   1.1002  -0.0990 H              1 S1                 0.0000
     24 ****         0.0403   3.5301   1.4443 H              1 S1                 0.0000
     25 ****         1.1911   2.2271   3.5492 H              1 S1                 0.0000
     26 ****         0.1168  -0.3195   3.3665 H              1 S1                 0.0000
     27 ****        -0.5387   0.3091  -2.6292 H              1 S1                 0.0000
     28 ****         1.6373   0.9828  -2.0069 H              1 S1                 0.0000
     29 ****         1.2286   0.7982  -0.3121 H              1 S1                 0.0000
     30 ****         0.3302  -1.4335   0.2917 H              1 S1                 0.0000
     31 ****         0.9906  -3.7850  -1.1408 H              1 S1                 0.0000
     32 ****         2.3402  -3.4059  -0.0837 H              1 S1                 0.0000
     33 ****        -0.5726  -3.6789   0.8560 H              1 S1                 0.0000
     34 ****         0.6349  -4.9447   0.9830 H              1 S1                 0.0000
     35 ****        -1.4041  -0.4122   1.4343 LP             1 S1                 0.0000
     36 ****        -0.8782  -0.1226  -1.0810 LP             1 S1                 0.0000
     37 ****         2.6130  -0.8211  -2.8803 LP             1 S1                 0.0000
     38 ****         2.5524  -2.4136  -2.2019 LP             1 S1                 0.0000
     39 ****         1.5742  -2.5680   4.1727 LP             1 S1                 0.0000
@<TRIPOS>BOND
    1    1    2 1     
    2    1   18 1     
    3    1   19 1     
    4    1   20 1     
    5    2    3 1     
    6    2    9 1     
    7    2   21 1     
    8    3    4 1     
    9    3   22 1     
   10    3   23 1     
   11    4    8 1     
   12    4    5 1     
   13    5    6 2     
   14    5   24 1     
   15    6    7 1     
   16    6   25 1     
   17    7    8 2     
   18    7   26 1     
   19    9   10 1     
   20    9   27 1     
   21   10   11 1     
   22   10   28 1     
   23   10   29 1     
   24   11   12 2     
   25   11   13 am    
   26   13   14 1     
   27   13   30 1     
   28   14   15 1     
   29   14   31 1     
   30   14   32 1     
   31   15   16 1     
   32   15   33 1     
   33   15   34 1     
   34   16   17 3     
   35    8   35 1     
   36    9   36 1     
   37   12   37 1     
   38   12   38 1     
   39   17   39 1     
@<TRIPOS>SUBSTRUCTURE
      1 S1             1
@<TRIPOS>SET
LONE_PAIRS      STATIC     ATOMS    <user>   **** ""
5 35 36 37 38 39
DONOR_HYDROGENS      STATIC     ATOMS    <user>   **** ""
2 27 30
ATOM$BLUE        STATIC     ATOMS    COLORGROUP SYSTEM
5 35 36 37 38 39
ATOM$RED        STATIC     ATOMS    COLORGROUP SYSTEM
2 27 30
