AV-unprocessed.smi:2745|AV-procd|sdf|10570|dock6
  -GOLD-   2272015 23D 1   1.00000     0.00000
 Structure written by MMmdl.
 19 19  0  0  0  0  0  0  0  0  2 V2000
  146.2933  137.4193  151.4279 N   0  3  0  0  0  0  0  0  0  0  0  0
  145.4889  136.1927  151.5583 C   0  0  0  0  0  0  0  0  0  0  0  0
  146.3764  134.9403  151.5832 C   0  0  0  0  0  0  0  0  0  0  0  0
  145.6173  133.7011  151.2166 C   0  0  0  0  0  0  0  0  0  0  0  0
  146.0639  132.4045  151.3000 C   0  0  0  0  0  0  0  0  0  0  0  0
  144.8553  131.2628  150.7757 S   0  0  0  0  0  0  0  0  0  0  0  0
  143.7774  132.6129  150.4574 C   0  0  0  0  0  0  0  0  0  0  0  0
  142.4983  132.4198  149.9655 N   0  0  0  0  0  0  0  0  0  0  0  0
  144.3085  133.8048  150.7334 N   0  0  0  0  0  0  0  0  0  0  0  0
  146.1457  138.0061  152.2366 H   0  0  0  0  0  0  0  0  0  0  0  0
  146.0141  137.9189  150.5956 H   0  0  0  0  0  0  0  0  0  0  0  0
  144.8973  136.2570  152.4721 H   0  0  0  0  0  0  0  0  0  0  0  0
  144.7887  136.1458  150.7236 H   0  0  0  0  0  0  0  0  0  0  0  0
  147.2154  135.0742  150.8988 H   0  0  0  0  0  0  0  0  0  0  0  0
  146.8157  134.8257  152.5751 H   0  0  0  0  0  0  0  0  0  0  0  0
  147.0272  132.0510  151.6367 H   0  0  0  0  0  0  0  0  0  0  0  0
  142.1421  131.4946  149.7731 H   0  0  0  0  0  0  0  0  0  0  0  0
  141.8556  133.1907  149.8527 H   0  0  0  0  0  0  0  0  0  0  0  0
  147.2717  137.1770  151.3626 H   0  0  0  0  0  0  0  0  0  0  0  0
  1  2  1  0  0  0  0
  1 10  1  0  0  0  0
  1 11  1  0  0  0  0
  1 19  1  0  0  0  0
  2  3  1  0  0  0  0
  2 12  1  0  0  0  0
  2 13  1  0  0  0  0
  3  4  1  0  0  0  0
  3 14  1  0  0  0  0
  3 15  1  0  0  0  0
  4  9  1  0  0  0  0
  4  5  2  0  0  0  0
  5  6  1  0  0  0  0
  5 16  1  0  0  0  0
  6  7  1  0  0  0  0
  7  8  1  0  0  0  0
  7  9  2  0  0  0  0
  8 17  1  0  0  0  0
  8 18  1  0  0  0  0
M  CHG  1   1   1
M  END
> <s_m_source_file>
AV-unprocessed.smi

> <i_m_source_file_index>
2745

> <i_lp_mmshare_version>
43012

> <i_f3d_flags>
0

> <s_epik_input>
W05IMl1bQ0gyXVtDSDJdYzFbY0hdc2MobjEpW05IMl0=

> <s_epik_cmdline>
J2VwaWtfcHl0aG9uJywgJy1waCcsICc3LjAnLCAnLXRuJywgJzgnLCAnLW1hJywgJzIwMCcsICctbWV0YWxfYmluZGluZycsICctaW1hZScsICc8aW5maWxlLm1hZT4nLCAnLW9tYWUnLCAnPG91dGZpbGUubWFlPic=

> <r_lp_tautomer_probability>
1

> <r_epik_Ionization_Penalty>
0.00283573

> <r_epik_Ionization_Penalty_Charging>
0.00199846

> <r_epik_Ionization_Penalty_Neutral>
0.000837263

> <r_epik_State_Penalty>
-0

> <r_epik_Charging_Adjusted_Penalty>
0.00199846

> <i_epik_Tot_Q>
1

> <i_epik_Tot_abs_Q>
1

> <r_epik_Metal_State_Penalty>
-0

> <b_epik_Metal_Only>
0

> <s_lp_Force_Field>
OPLS_2005

> <r_lp_Energy>
-1.00424

> <b_lp_Chiralities_Consistent>
1

> <s_lp_Variant>
AV-unprocessed.smi:2745-1

> <Gold.Version>
5.8.1

> <Gold.Id.Protein>
6NUR|6NUR_protein|mol2

> <Gold.PLP.Fitness>
33.7106

> <Gold.PLP.PLP>
-18.1295

> <Gold.PLP.part.hbond>
-3.8158

> <Gold.PLP.part.metal>
0.0000

> <Gold.PLP.part.buried>
-2.5061

> <Gold.PLP.part.nonpolar>
-13.0505

> <Gold.PLP.part.repulsive>
0.3499

> <Gold.PLP.ligand.clash>
0.0000

> <Gold.PLP.ligand.torsion>
0.1706

> <Gold.PLP.Chemscore.Hbond>
4.3177

> <Gold.PLP.Chemscore.CHOScore>
0.9897

> <Gold.PLP.Chemscore.Metal>
0.0000

> <Gold.Chemscore.Hbonds>
donor molecule, donor type, donor heavy atom, donor atom, acceptor molecule, acceptor atom, score
      L1  H     1    11       P1 10171  0.10
      L1  H     1    19       P1  7948  2.00
      L1  H     8    17       P1 10952  1.00
      L1  H     8    18       P1 10186  0.96
      L1  C     5    16       P1 10747  0.67

> <Gold.PLP.Chemscore.Internal.Correction>
0.0001

> <Gold.Rescore>
     Score         DG    S(hbond)    S(metal)    S(lipo)     H(rot)  DE(clash)    DE(int)     intcor
     15.70     -16.25       3.14        0.00      34.77       1.49       0.25       0.29       ----

> <Gold.Chemscore.Fitness>
15.7006

> <Gold.Chemscore.DG>
-16.2476

> <Gold.Chemscore.ZeroCoef>
-5.4800

> <Gold.Chemscore.Hbond>
3.1449

> <Gold.Chemscore.Metal>
0.0000

> <Gold.Chemscore.Lipo>
34.7666

> <Gold.Chemscore.Internal_Hbond>
0.0000

> <Gold.Chemscore.DEClash>
0.2540

> <Gold.Chemscore.DEInternal>
0.2930

> <Gold.Chemscore.Rot>
1.4859

> <Gold.Chemscore.Internal.Correction>
   9.000000E+99

> <Gold.Chemscore.Hbonds>
donor molecule, donor type, donor heavy atom, donor atom, acceptor molecule, acceptor atom, score
      L1  H     1    11       P1 10171  0.11
      L1  H     1    19       P1  7948  0.98
      L1  H     8    17       P1 10952  0.94
      L1  H     8    18       P1 10186  0.91

> <Gold.Chemscore.Hbond.Weighted>
-10.5039

> <Gold.Chemscore.Metal.Weighted>
-0.0000

> <Gold.Chemscore.Lipo.Weighted>
-4.0677

> <Gold.Chemscore.Internal_Hbond.Weighted>
0.0000

> <Gold.Chemscore.DEClash.Weighted>
0.2540

> <Gold.Chemscore.DEInternal.Weighted>
0.2930

> <Gold.Chemscore.Rot.Weighted>
3.8039

> <Gold.Chemscore.Internal.Correction.Weighted>
   9.000000E+99

> <Gold.Protein.RotatedTorsions>
[ 6907 6896 6895 6894 ] final  -11.97 input  -60.11 | X-H torsion
[ 7974 7965 7964 7962 ] final -106.42 input  175.53 | X-H torsion
[ 8008 7997 7996 7995 ] final   77.47 input   59.86 | X-H torsion
[ 10167 10162 10161 10158 ] final  -16.85 input  -65.29 | X-H torsion
[ 10718 10713 10712 10709 ] final  -79.16 input   66.30 | X-H torsion
[ 10763 10752 10751 10750 ] final -106.78 input  -60.55 | X-H torsion
[ 11005 11000 10999 10996 ] final  -68.42 input  -57.11 | X-H torsion

> <Gold.Protein.ActiveResidues>
 VAL166  LYS551  ARG553  GLY616  TRP617  ASP618  TYR619  PRO620  LYS621  CYS622 
 ASP623  PHE694  ASN695  SER759  ASP760  ASP761  ALA762  ILE779  LEU786  VAL792 
 PHE793  MET794  SER795  GLU796  ALA797  LYS798  CYS799  TRP800  GLU811  SER814 

> <Gold.Protein.RotatedAtoms>
  151.3778  135.0934  159.9485 H   0  0  0  0  0  0  0  0  0  0  0  0  # atno 6907 bound_to 6896
  152.5117  133.9102  159.7494 H   0  0  0  0  0  0  0  0  0  0  0  0  # atno 6908 bound_to 6896
  150.9529  133.6474  159.2797 H   0  0  0  0  0  0  0  0  0  0  0  0  # atno 6909 bound_to 6896
  145.2181  140.9123  143.3275 H   0  0  0  0  0  0  0  0  0  0  0  0  # atno 7974 bound_to 7965
  155.8420  140.3462  155.5638 H   0  0  0  0  0  0  0  0  0  0  0  0  # atno 8008 bound_to 7997
  155.8130  140.0901  157.1912 H   0  0  0  0  0  0  0  0  0  0  0  0  # atno 8009 bound_to 7997
  154.4005  140.1444  156.3397 H   0  0  0  0  0  0  0  0  0  0  0  0  # atno 8010 bound_to 7997
  140.7239  143.5075  150.9792 H   0  0  0  0  0  0  0  0  0  0  0  0  # atno 10167 bound_to 10162
  156.0099  130.4538  150.3607 H   0  0  0  0  0  0  0  0  0  0  0  0  # atno 10718 bound_to 10713
  154.8034  135.4699  154.0331 H   0  0  0  0  0  0  0  0  0  0  0  0  # atno 10763 bound_to 10752
  153.1819  135.6842  153.8473 H   0  0  0  0  0  0  0  0  0  0  0  0  # atno 10764 bound_to 10752
  153.8021  135.3228  155.3369 H   0  0  0  0  0  0  0  0  0  0  0  0  # atno 10765 bound_to 10752
  141.1531  133.6740  156.6444 H   0  0  0  0  0  0  0  0  0  0  0  0  # atno 11005 bound_to 11000
  144.9792  139.3801  143.6270 LP  0  0  0  0  0  0  0  0  0  0  0  0  # atno 17320 bound_to 7965
  146.3382  139.8925  142.8807 LP  0  0  0  0  0  0  0  0  0  0  0  0  # atno 17321 bound_to 7965
  139.8787  143.7100  152.3159 LP  0  0  0  0  0  0  0  0  0  0  0  0  # atno 17342 bound_to 10162
  139.7374  144.7568  151.0706 LP  0  0  0  0  0  0  0  0  0  0  0  0  # atno 17343 bound_to 10162
  157.1695  131.0365  151.2802 LP  0  0  0  0  0  0  0  0  0  0  0  0  # atno 17370 bound_to 10713
  157.4241  130.7454  149.6937 LP  0  0  0  0  0  0  0  0  0  0  0  0  # atno 17371 bound_to 10713
  140.3369  134.7882  157.4368 LP  0  0  0  0  0  0  0  0  0  0  0  0  # atno 17394 bound_to 11000
  140.0970  134.5523  155.8389 LP  0  0  0  0  0  0  0  0  0  0  0  0  # atno 17395 bound_to 11000

$$$$
