#       Name:                AV-unprocessed.smi:3029
#       Creating user name   scv26
#       Creation time:       Fri Mar 27 16:46:46 2020


#       File generated by GOLD software.
#

@<TRIPOS>MOLECULE
AV-unprocessed.smi:3029
    46    47     1
SMALL
NO_CHARGES


@<TRIPOS>ATOM
      1 ****        -2.5581  -0.8909  -3.0380 O.2            1 S1                 0.0000
      2 ****        -2.8308  -0.0755  -2.1575 C.2            1 S1                 0.0000
      3 ****        -3.2652   1.2903  -2.4673 C.2            1 S1                 0.0000
      4 ****        -3.5411   2.1832  -1.4964 C.2            1 S1                 0.0000
      5 ****        -3.4142   1.8136  -0.1002 C.2            1 S1                 0.0000
      6 ****        -3.6798   2.7709   0.9505 N.pl3          1 S1                 1.0000
      7 ****        -3.5002   2.4370   2.1179 O.2            1 S1                 0.0000
      8 ****        -4.0724   3.8906   0.6405 O.2            1 S1                -1.0000
      9 ****        -3.0264   0.5543   0.1819 C.2            1 S1                 0.0000
     10 ****        -2.7390  -0.3843  -0.8286 N.am           1 S1                 0.0000
     11 ****        -2.2994  -1.7223  -0.3999 C.3            1 S1                 0.0000
     12 ****        -0.7680  -1.8880  -0.4590 C.3            1 S1                 0.0000
     13 ****        -0.0744  -0.8461   0.3292 N.4            1 S1                 1.0000
     14 ****         1.3945  -0.7837   0.1593 C.3            1 S1                 0.0000
     15 ****         2.0627  -1.9254   0.9577 C.3            1 S1                 0.0000
     16 ****         3.5926  -1.8742   0.8682 C.3            1 S1                 0.0000
     17 ****         4.1163  -0.5151   1.3421 C.3            1 S1                 0.0000
     18 ****         3.4842   0.6233   0.5309 C.3            1 S1                 0.0000
     19 ****         1.9386   0.6076   0.5958 C.3            1 S1                 0.0000
     20 ****         1.3579   1.7803  -0.2364 C.3            1 S1                 0.0000
     21 ****         1.6291   1.6157  -1.5312 F              1 S1                 0.0000
     22 ****         0.0369   1.8757  -0.0861 F              1 S1                 0.0000
     23 ****         1.8892   2.9335   0.1688 F              1 S1                 0.0000
     24 ****        -3.3668   1.5869  -3.5010 H              1 S1                 0.0000
     25 ****        -3.8591   3.1776  -1.7736 H              1 S1                 0.0000
     26 ****        -2.8960   0.1851   1.1889 H              1 S1                 0.0000
     27 ****        -2.6448  -1.9252   0.6150 H              1 S1                 0.0000
     28 ****        -2.7758  -2.4888  -1.0137 H              1 S1                 0.0000
     29 ****        -0.4921  -2.8754  -0.0892 H              1 S1                 0.0000
     30 ****        -0.4350  -1.8351  -1.4962 H              1 S1                 0.0000
     31 ****        -0.4447   0.0438   0.0260 H              1 S1                 0.0000
     32 ****         1.6251  -0.9151  -0.8991 H              1 S1                 0.0000
     33 ****         1.7623  -1.8672   2.0050 H              1 S1                 0.0000
     34 ****         1.7234  -2.8958   0.5950 H              1 S1                 0.0000
     35 ****         4.0277  -2.6719   1.4712 H              1 S1                 0.0000
     36 ****         3.9089  -2.0539  -0.1602 H              1 S1                 0.0000
     37 ****         3.8933  -0.3814   2.4016 H              1 S1                 0.0000
     38 ****         5.2020  -0.4814   1.2471 H              1 S1                 0.0000
     39 ****         3.8666   1.5740   0.9031 H              1 S1                 0.0000
     40 ****         3.8106   0.5486  -0.5073 H              1 S1                 0.0000
     41 ****         1.6551   0.7696   1.6373 H              1 S1                 0.0000
     42 ****        -0.2918  -0.9631   1.3087 H              1 S1                 0.0000
     43 ****        -2.2585  -1.8124  -2.7907 LP             1 S1                 0.0000
     44 ****        -2.6362  -0.6321  -4.0008 LP             1 S1                 0.0000
     45 ****        -3.1752   1.5154   2.3300 LP             1 S1                 0.0000
     46 ****        -3.6790   3.0865   2.8569 LP             1 S1                 0.0000
@<TRIPOS>BOND
    1    1    2 2     
    2    2   10 am    
    3    2    3 1     
    4    3    4 2     
    5    3   24 1     
    6    4    5 1     
    7    4   25 1     
    8    5    6 1     
    9    5    9 2     
   10    6    7 2     
   11    6    8 1     
   12    9   10 1     
   13    9   26 1     
   14   10   11 1     
   15   11   12 1     
   16   11   27 1     
   17   11   28 1     
   18   12   13 1     
   19   12   29 1     
   20   12   30 1     
   21   13   14 1     
   22   13   31 1     
   23   13   42 1     
   24   14   19 1     
   25   14   15 1     
   26   14   32 1     
   27   15   16 1     
   28   15   33 1     
   29   15   34 1     
   30   16   17 1     
   31   16   35 1     
   32   16   36 1     
   33   17   18 1     
   34   17   37 1     
   35   17   38 1     
   36   18   19 1     
   37   18   39 1     
   38   18   40 1     
   39   19   20 1     
   40   19   41 1     
   41   20   21 1     
   42   20   22 1     
   43   20   23 1     
   44    1   43 1     
   45    1   44 1     
   46    7   45 1     
   47    7   46 1     
@<TRIPOS>SUBSTRUCTURE
      1 S1             1
@<TRIPOS>SET
LONE_PAIRS      STATIC     ATOMS    <user>   **** ""
5 43 44 45 46 8
DONOR_HYDROGENS      STATIC     ATOMS    <user>   **** ""
2 31 42
ATOM$BLUE        STATIC     ATOMS    COLORGROUP SYSTEM
5 43 44 45 46 8
ATOM$RED        STATIC     ATOMS    COLORGROUP SYSTEM
2 31 42
