AV-unprocessed.smi:753|AV-procd|sdf|3601|dock2
  -GOLD-   22720 0593D 1   1.00000     0.00000
 Structure written by MMmdl.
 43 45  0  0  0  0  0  0  0  0  1 V2000
  143.0678  144.0932  156.5486 C   0  0  0  0  0  0  0  0  0  0  0  0
  144.1791  143.4304  155.7620 C   0  0  0  0  0  0  0  0  0  0  0  0
  144.5802  143.9405  154.5094 C   0  0  0  0  0  0  0  0  0  0  0  0
  145.6170  143.2842  153.8191 C   0  0  0  0  0  0  0  0  0  0  0  0
  146.2110  142.1472  154.4050 C   0  0  0  0  0  0  0  0  0  0  0  0
  147.3151  141.3858  153.6927 C   0  0  0  0  0  0  0  0  0  0  0  0
  148.3620  140.7809  154.6470 C   0  0  0  0  0  0  0  0  0  0  0  0
  149.0785  141.8049  155.4029 N   0  0  0  0  0  0  0  0  0  0  0  0
  150.1870  141.6048  156.1367 C   0  0  0  0  0  0  0  0  0  0  0  0
  150.7298  140.5092  156.2657 O   0  0  0  0  0  0  0  0  0  0  0  0
  150.6770  142.7107  156.7229 N   0  0  0  0  0  0  0  0  0  0  0  0
  151.8609  142.8251  157.5786 C   0  0  2  0  0  0  0  0  0  0  0  0
  151.6796  142.0262  158.8884 C   0  0  0  0  0  0  0  0  0  0  0  0
  151.8585  143.0978  159.9794 C   0  0  2  0  0  0  0  0  0  0  0  0
  150.6367  144.0367  159.9880 C   0  0  0  0  0  0  0  0  0  0  0  0
  150.8439  144.8775  158.7142 C   0  0  0  0  0  0  0  0  0  0  0  0
  152.1226  144.2600  158.1076 C   0  0  1  0  0  0  0  0  0  0  0  0
  152.9353  143.9834  159.3679 C   0  0  0  0  0  0  0  0  0  0  0  0
  145.7386  141.7217  155.6645 C   0  0  0  0  0  0  0  0  0  0  0  0
  144.7459  142.3454  156.3345 N   0  0  0  0  0  0  0  0  0  0  0  0
  142.4715  144.7461  155.9107 H   0  0  0  0  0  0  0  0  0  0  0  0
  143.4848  144.6924  157.3582 H   0  0  0  0  0  0  0  0  0  0  0  0
  142.4021  143.3456  156.9813 H   0  0  0  0  0  0  0  0  0  0  0  0
  144.1046  144.8118  154.0837 H   0  0  0  0  0  0  0  0  0  0  0  0
  145.9422  143.6436  152.8539 H   0  0  0  0  0  0  0  0  0  0  0  0
  146.8708  140.5945  153.0873 H   0  0  0  0  0  0  0  0  0  0  0  0
  147.8070  142.0616  152.9923 H   0  0  0  0  0  0  0  0  0  0  0  0
  147.8669  140.1202  155.3588 H   0  0  0  0  0  0  0  0  0  0  0  0
  149.0605  140.1546  154.0895 H   0  0  0  0  0  0  0  0  0  0  0  0
  148.7088  142.7432  155.3576 H   0  0  0  0  0  0  0  0  0  0  0  0
  150.1817  143.5720  156.5425 H   0  0  0  0  0  0  0  0  0  0  0  0
  152.7399  142.4482  157.0515 H   0  0  0  0  0  0  0  0  0  0  0  0
  150.7119  141.5272  158.9625 H   0  0  0  0  0  0  0  0  0  0  0  0
  152.4503  141.2589  158.9737 H   0  0  0  0  0  0  0  0  0  0  0  0
  152.1007  142.6859  160.9594 H   0  0  0  0  0  0  0  0  0  0  0  0
  149.6953  143.4862  159.9735 H   0  0  0  0  0  0  0  0  0  0  0  0
  150.6382  144.6747  160.8727 H   0  0  0  0  0  0  0  0  0  0  0  0
  149.9834  144.8492  158.0459 H   0  0  0  0  0  0  0  0  0  0  0  0
  151.0145  145.9227  158.9755 H   0  0  0  0  0  0  0  0  0  0  0  0
  152.6161  144.9098  157.3842 H   0  0  0  0  0  0  0  0  0  0  0  0
  153.1450  144.8793  159.9552 H   0  0  0  0  0  0  0  0  0  0  0  0
  153.8710  143.4564  159.1730 H   0  0  0  0  0  0  0  0  0  0  0  0
  146.1629  140.8519  156.1442 H   0  0  0  0  0  0  0  0  0  0  0  0
  1  2  1  0  0  0  0
  1 21  1  0  0  0  0
  1 22  1  0  0  0  0
  1 23  1  0  0  0  0
  2 20  1  0  0  0  0
  2  3  2  0  0  0  0
  3  4  1  0  0  0  0
  3 24  1  0  0  0  0
  4  5  2  0  0  0  0
  4 25  1  0  0  0  0
  5  6  1  0  0  0  0
  5 19  1  0  0  0  0
  6  7  1  0  0  0  0
  6 26  1  0  0  0  0
  6 27  1  0  0  0  0
  7  8  1  0  0  0  0
  7 28  1  0  0  0  0
  7 29  1  0  0  0  0
  8  9  1  0  0  0  0
  8 30  1  0  0  0  0
  9 10  2  0  0  0  0
  9 11  1  0  0  0  0
 11 12  1  0  0  0  0
 11 31  1  0  0  0  0
 12 17  1  0  0  0  0
 12 13  1  0  0  0  0
 12 32  1  0  0  0  0
 13 14  1  0  0  0  0
 13 33  1  0  0  0  0
 13 34  1  0  0  0  0
 14 18  1  0  0  0  0
 14 15  1  0  0  0  0
 14 35  1  0  0  0  0
 15 16  1  0  0  0  0
 15 36  1  0  0  0  0
 15 37  1  0  0  0  0
 16 17  1  0  0  0  0
 16 38  1  0  0  0  0
 16 39  1  0  0  0  0
 17 18  1  0  0  0  0
 17 40  1  0  0  0  0
 18 41  1  0  0  0  0
 18 42  1  0  0  0  0
 19 20  2  0  0  0  0
 19 43  1  0  0  0  0
M  END
> <s_m_source_file>
AV-unprocessed.smi

> <i_m_source_file_index>
753

> <i_lp_mmshare_version>
43012

> <i_f3d_flags>
0

> <s_epik_input>
W0NIM11jMVtjSF1bY0hdYyhbY0hdbjEpW0NIMl1bQ0gyXVtOSF1DKD1PKVtOSF1bQ0BIXShbQ0gyXVtDQEBIXTIzKVtDQEBIXShbQ0gyXTMpW0NIMl1bQ0gyXTI=

> <s_epik_cmdline>
J2VwaWtfcHl0aG9uJywgJy1waCcsICc3LjAnLCAnLXRuJywgJzgnLCAnLW1hJywgJzIwMCcsICctbWV0YWxfYmluZGluZycsICctaW1hZScsICc8aW5maWxlLm1hZT4nLCAnLW9tYWUnLCAnPG91dGZpbGUubWFlPic=

> <r_epik_Ionization_Penalty>
0.0569047

> <r_epik_Ionization_Penalty_Charging>
0

> <r_epik_Ionization_Penalty_Neutral>
0.0569047

> <r_epik_State_Penalty>
0.0490541

> <r_epik_Charging_Adjusted_Penalty>
0.0490541

> <i_epik_Tot_Q>
0

> <i_epik_Tot_abs_Q>
0

> <r_epik_Metal_State_Penalty>
0.0447357

> <b_epik_Metal_Only>
0

> <s_lp_Force_Field>
OPLS_2005

> <r_lp_Energy>
52.9013

> <b_lp_Chiralities_Consistent>
1

> <s_lp_Variant>
AV-unprocessed.smi:753-3

> <Gold.Version>
5.8.1

> <Gold.Id.Protein>
6NUR|6NUR_protein|mol2

> <Gold.PLP.Fitness>
49.0226

> <Gold.PLP.PLP>
-43.8589

> <Gold.PLP.part.hbond>
-2.0000

> <Gold.PLP.part.metal>
0.0000

> <Gold.PLP.part.buried>
-8.7071

> <Gold.PLP.part.nonpolar>
-32.6610

> <Gold.PLP.part.repulsive>
0.3555

> <Gold.PLP.ligand.clash>
0.0000

> <Gold.PLP.ligand.torsion>
0.4329

> <Gold.PLP.Chemscore.Hbond>
2.0000

> <Gold.PLP.Chemscore.CHOScore>
0.0000

> <Gold.PLP.Chemscore.Metal>
0.0000

> <Gold.Chemscore.Hbonds>
donor molecule, donor type, donor heavy atom, donor atom, acceptor molecule, acceptor atom, score
      L1  H     8    30       P1  8028  1.00
      L1  H    11    31       P1  8028  1.00

> <Gold.PLP.Chemscore.Internal.Correction>
0.0296

> <Gold.Rescore>
     Score         DG    S(hbond)    S(metal)    S(lipo)     H(rot)  DE(clash)    DE(int)     intcor
     21.16     -22.94       1.94        0.00     125.25       1.43       1.44       0.35       ----

> <Gold.Chemscore.Fitness>
21.1554

> <Gold.Chemscore.DG>
-22.9431

> <Gold.Chemscore.ZeroCoef>
-5.4800

> <Gold.Chemscore.Hbond>
1.9364

> <Gold.Chemscore.Metal>
0.0000

> <Gold.Chemscore.Lipo>
125.2482

> <Gold.Chemscore.Internal_Hbond>
0.0000

> <Gold.Chemscore.DEClash>
1.4366

> <Gold.Chemscore.DEInternal>
0.3511

> <Gold.Chemscore.Rot>
1.4291

> <Gold.Chemscore.Internal.Correction>
   9.000000E+99

> <Gold.Chemscore.Hbonds>
donor molecule, donor type, donor heavy atom, donor atom, acceptor molecule, acceptor atom, score
      L1  H     8    30       P1  8028  0.93
      L1  H    11    31       P1  8028  0.98

> <Gold.Chemscore.Hbond.Weighted>
-6.4675

> <Gold.Chemscore.Metal.Weighted>
-0.0000

> <Gold.Chemscore.Lipo.Weighted>
-14.6540

> <Gold.Chemscore.Internal_Hbond.Weighted>
0.0000

> <Gold.Chemscore.DEClash.Weighted>
1.4366

> <Gold.Chemscore.DEInternal.Weighted>
0.3511

> <Gold.Chemscore.Rot.Weighted>
3.6585

> <Gold.Chemscore.Internal.Correction.Weighted>
   9.000000E+99

> <Gold.Protein.RotatedTorsions>
[ 6907 6896 6895 6894 ] final  -51.01 input  -60.11 | X-H torsion
[ 7974 7965 7964 7962 ] final  142.07 input  175.53 | X-H torsion
[ 8008 7997 7996 7995 ] final   71.27 input   59.86 | X-H torsion
[ 10167 10162 10161 10158 ] final -133.84 input  -65.29 | X-H torsion
[ 10718 10713 10712 10709 ] final  130.30 input   66.30 | X-H torsion
[ 10763 10752 10751 10750 ] final  -17.32 input  -60.55 | X-H torsion
[ 11005 11000 10999 10996 ] final   85.23 input  -57.11 | X-H torsion

> <Gold.Protein.ActiveResidues>
 VAL166  LYS551  ARG553  GLY616  TRP617  ASP618  TYR619  PRO620  LYS621  CYS622 
 ASP623  PHE694  ASN695  SER759  ASP760  ASP761  ALA762  ILE779  LEU786  VAL792 
 PHE793  MET794  SER795  GLU796  ALA797  LYS798  CYS799  TRP800  GLU811  SER814 

> <Gold.Protein.RotatedAtoms>
  150.8652  134.8013  159.7112 H   0  0  0  0  0  0  0  0  0  0  0  0  # atno 6907 bound_to 6896
  152.4676  134.5036  159.9742 H   0  0  0  0  0  0  0  0  0  0  0  0  # atno 6908 bound_to 6896
  151.5133  133.3442  159.2924 H   0  0  0  0  0  0  0  0  0  0  0  0  # atno 6909 bound_to 6896
  144.9040  139.5384  143.5740 H   0  0  0  0  0  0  0  0  0  0  0  0  # atno 7974 bound_to 7965
  155.7514  140.3488  155.5152 H   0  0  0  0  0  0  0  0  0  0  0  0  # atno 8008 bound_to 7997
  155.9001  140.1032  157.1377 H   0  0  0  0  0  0  0  0  0  0  0  0  # atno 8009 bound_to 7997
  154.4043  140.1288  156.4412 H   0  0  0  0  0  0  0  0  0  0  0  0  # atno 8010 bound_to 7997
  139.8941  143.6687  152.2607 H   0  0  0  0  0  0  0  0  0  0  0  0  # atno 10167 bound_to 10162
  157.5074  131.1096  150.9341 H   0  0  0  0  0  0  0  0  0  0  0  0  # atno 10718 bound_to 10713
  153.5721  135.7007  153.5500 H   0  0  0  0  0  0  0  0  0  0  0  0  # atno 10763 bound_to 10752
  153.3335  135.4040  155.1515 H   0  0  0  0  0  0  0  0  0  0  0  0  # atno 10764 bound_to 10752
  154.8631  135.3725  154.5244 H   0  0  0  0  0  0  0  0  0  0  0  0  # atno 10765 bound_to 10752
  139.8977  134.8272  156.2553 H   0  0  0  0  0  0  0  0  0  0  0  0  # atno 11005 bound_to 11000
  146.3123  139.7792  142.9010 LP  0  0  0  0  0  0  0  0  0  0  0  0  # atno 17320 bound_to 7965
  145.3568  141.0318  143.3307 LP  0  0  0  0  0  0  0  0  0  0  0  0  # atno 17321 bound_to 7965
  139.7083  144.7624  151.1155 LP  0  0  0  0  0  0  0  0  0  0  0  0  # atno 17342 bound_to 10162
  140.7720  143.5364  150.9363 LP  0  0  0  0  0  0  0  0  0  0  0  0  # atno 17343 bound_to 10162
  156.9992  130.5593  149.5310 LP  0  0  0  0  0  0  0  0  0  0  0  0  # atno 17370 bound_to 10713
  156.0267  130.5361  150.8426 LP  0  0  0  0  0  0  0  0  0  0  0  0  # atno 17371 bound_to 10713
  141.0197  133.7048  156.1248 LP  0  0  0  0  0  0  0  0  0  0  0  0  # atno 17394 bound_to 11000
  140.7251  134.4316  157.5571 LP  0  0  0  0  0  0  0  0  0  0  0  0  # atno 17395 bound_to 11000

$$$$
