AV-unprocessed.smi:1076|AV-procd|sdf|4699|dock6
  -GOLD-   22720 3223D 1   1.00000     0.00000
 Structure written by MMmdl.
 44 45  0  0  0  0  0  0  0  0  1 V2000
  152.3865  145.2494  159.3475 C   0  0  0  0  0  0  0  0  0  0  0  0
  152.1855  143.8139  158.9571 C   0  0  0  0  0  0  0  0  0  0  0  0
  152.8248  142.6612  159.4960 C   0  0  0  0  0  0  0  0  0  0  0  0
  152.4118  141.5346  158.9383 N   0  0  0  0  0  0  0  0  0  0  0  0
  151.4953  141.9267  158.0282 N   0  0  0  0  0  0  0  0  0  0  0  0
  150.7916  140.9334  157.2346 C   0  0  0  0  0  0  0  0  0  0  0  0
  151.0161  139.5038  157.7663 C   0  0  2  0  0  0  0  0  0  0  0  0
  151.8135  138.6462  156.7706 C   0  0  0  0  0  0  0  0  0  0  0  0
  149.7159  138.8921  158.0153 N   0  0  0  0  0  0  0  0  0  0  0  0
  149.8156  137.4846  158.3790 C   0  0  0  0  0  0  0  0  0  0  0  0
  148.7258  137.1033  159.4026 C   0  0  0  0  0  0  0  0  0  0  0  0
  148.3919  135.5980  159.4712 C   0  0  0  0  0  0  0  0  0  0  0  0
  148.9102  134.8312  158.6575 O   0  0  0  0  0  0  0  0  0  0  0  0
  147.5355  135.1572  160.4242 N   0  0  0  0  0  0  0  0  0  0  0  0
  146.8922  136.0483  161.3948 C   0  0  0  0  0  0  0  0  0  0  0  0
  147.4183  135.7021  162.7990 C   0  0  0  0  0  0  0  0  0  0  0  0
  147.1497  134.3319  163.0846 O   0  0  0  0  0  0  0  0  0  0  0  0
  147.7421  133.4397  162.1440 C   0  0  0  0  0  0  0  0  0  0  0  0
  147.2267  133.7556  160.7278 C   0  0  0  0  0  0  0  0  0  0  0  0
  151.3448  143.2972  158.0128 C   0  0  0  0  0  0  0  0  0  0  0  0
  152.8391  145.3406  160.3352 H   0  0  0  0  0  0  0  0  0  0  0  0
  151.4424  145.7941  159.3765 H   0  0  0  0  0  0  0  0  0  0  0  0
  153.0381  145.7688  158.6449 H   0  0  0  0  0  0  0  0  0  0  0  0
  153.5702  142.6098  160.2758 H   0  0  0  0  0  0  0  0  0  0  0  0
  149.7293  141.1823  157.2234 H   0  0  0  0  0  0  0  0  0  0  0  0
  151.1405  141.0112  156.2037 H   0  0  0  0  0  0  0  0  0  0  0  0
  151.5722  139.5766  158.7024 H   0  0  0  0  0  0  0  0  0  0  0  0
  152.7795  139.1027  156.5536 H   0  0  0  0  0  0  0  0  0  0  0  0
  151.2813  138.5348  155.8252 H   0  0  0  0  0  0  0  0  0  0  0  0
  152.0094  137.6487  157.1642 H   0  0  0  0  0  0  0  0  0  0  0  0
  149.1010  139.0202  157.2246 H   0  0  0  0  0  0  0  0  0  0  0  0
  149.7184  136.8692  157.4846 H   0  0  0  0  0  0  0  0  0  0  0  0
  150.7994  137.2776  158.8030 H   0  0  0  0  0  0  0  0  0  0  0  0
  149.0486  137.4457  160.3865 H   0  0  0  0  0  0  0  0  0  0  0  0
  147.8093  137.6432  159.1618 H   0  0  0  0  0  0  0  0  0  0  0  0
  147.0650  137.1048  161.1851 H   0  0  0  0  0  0  0  0  0  0  0  0
  145.8112  135.9069  161.3530 H   0  0  0  0  0  0  0  0  0  0  0  0
  148.4898  135.8959  162.8724 H   0  0  0  0  0  0  0  0  0  0  0  0
  146.9286  136.3219  163.5501 H   0  0  0  0  0  0  0  0  0  0  0  0
  148.8296  133.5196  162.1880 H   0  0  0  0  0  0  0  0  0  0  0  0
  147.4855  132.4166  162.4188 H   0  0  0  0  0  0  0  0  0  0  0  0
  146.1470  133.6080  160.6797 H   0  0  0  0  0  0  0  0  0  0  0  0
  147.6573  133.0441  160.0258 H   0  0  0  0  0  0  0  0  0  0  0  0
  150.6465  143.7847  157.3486 H   0  0  0  0  0  0  0  0  0  0  0  0
  1  2  1  0  0  0  0
  1 21  1  0  0  0  0
  1 22  1  0  0  0  0
  1 23  1  0  0  0  0
  2 20  2  0  0  0  0
  2  3  1  0  0  0  0
  3  4  2  0  0  0  0
  3 24  1  0  0  0  0
  4  5  1  0  0  0  0
  5  6  1  0  0  0  0
  5 20  1  0  0  0  0
  6  7  1  0  0  0  0
  6 25  1  0  0  0  0
  6 26  1  0  0  0  0
  7  8  1  0  0  0  0
  7  9  1  0  0  0  0
  7 27  1  0  0  0  0
  8 28  1  0  0  0  0
  8 29  1  0  0  0  0
  8 30  1  0  0  0  0
  9 10  1  0  0  0  0
  9 31  1  0  0  0  0
 10 11  1  0  0  0  0
 10 32  1  0  0  0  0
 10 33  1  0  0  0  0
 11 12  1  0  0  0  0
 11 34  1  0  0  0  0
 11 35  1  0  0  0  0
 12 13  2  0  0  0  0
 12 14  1  0  0  0  0
 14 19  1  0  0  0  0
 14 15  1  0  0  0  0
 15 16  1  0  0  0  0
 15 36  1  0  0  0  0
 15 37  1  0  0  0  0
 16 17  1  0  0  0  0
 16 38  1  0  0  0  0
 16 39  1  0  0  0  0
 17 18  1  0  0  0  0
 18 19  1  0  0  0  0
 18 40  1  0  0  0  0
 18 41  1  0  0  0  0
 19 42  1  0  0  0  0
 19 43  1  0  0  0  0
 20 44  1  0  0  0  0
M  END
> <s_m_source_file>
AV-unprocessed.smi

> <i_m_source_file_index>
1076

> <i_lp_mmshare_version>
43012

> <i_f3d_flags>
0

> <s_epik_input>
W0NIM11jMVtjSF1ubihbY0hdMSlbQ0gyXVtDQEhdKFtDSDNdKVtOSF1bQ0gyXVtDSDJdQyg9TylOMltDSDJdW0NIMl1PW0NIMl1bQ0gyXTI=

> <s_epik_cmdline>
J2VwaWtfcHl0aG9uJywgJy1waCcsICc3LjAnLCAnLXRuJywgJzgnLCAnLW1hJywgJzIwMCcsICctbWV0YWxfYmluZGluZycsICctaW1hZScsICc8aW5maWxlLm1hZT4nLCAnLW9tYWUnLCAnPG91dGZpbGUubWFlPic=

> <r_lp_tautomer_probability>
1

> <r_epik_Ionization_Penalty>
2.55707

> <r_epik_Ionization_Penalty_Charging>
0

> <r_epik_Ionization_Penalty_Neutral>
2.55707

> <r_epik_State_Penalty>
2.726

> <r_epik_Charging_Adjusted_Penalty>
2.726

> <i_epik_Tot_Q>
0

> <i_epik_Tot_abs_Q>
0

> <r_epik_Metal_State_Penalty>
2.72594

> <b_epik_Metal_Only>
0

> <s_lp_Force_Field>
OPLS_2005

> <r_lp_Energy>
21.3245

> <b_lp_Chiralities_Consistent>
1

> <s_lp_Variant>
AV-unprocessed.smi:1076-3

> <Gold.Version>
5.8.1

> <Gold.Id.Protein>
6NUR|6NUR_protein|mol2

> <Gold.PLP.Fitness>
45.8431

> <Gold.PLP.PLP>
-42.2902

> <Gold.PLP.part.hbond>
-1.8068

> <Gold.PLP.part.metal>
0.0000

> <Gold.PLP.part.buried>
-6.9318

> <Gold.PLP.part.nonpolar>
-33.9103

> <Gold.PLP.part.repulsive>
0.0057

> <Gold.PLP.ligand.clash>
0.0000

> <Gold.PLP.ligand.torsion>
1.2838

> <Gold.PLP.Chemscore.Hbond>
1.0000

> <Gold.PLP.Chemscore.CHOScore>
1.0000

> <Gold.PLP.Chemscore.Metal>
0.0000

> <Gold.Chemscore.Hbonds>
donor molecule, donor type, donor heavy atom, donor atom, acceptor molecule, acceptor atom, score
      P1  H  6896  6908       L1    13  1.00
      L1  C    20    44       P1  8028  0.84

> <Gold.PLP.Chemscore.Internal.Correction>
0.1206

> <Gold.Rescore>
     Score         DG    S(hbond)    S(metal)    S(lipo)     H(rot)  DE(clash)    DE(int)     intcor
     14.82     -16.18       1.00        0.00     104.76       1.91       0.03       1.33       ----

> <Gold.Chemscore.Fitness>
14.8185

> <Gold.Chemscore.DG>
-16.1804

> <Gold.Chemscore.ZeroCoef>
-5.4800

> <Gold.Chemscore.Hbond>
0.9978

> <Gold.Chemscore.Metal>
0.0000

> <Gold.Chemscore.Lipo>
104.7594

> <Gold.Chemscore.Internal_Hbond>
0.0000

> <Gold.Chemscore.DEClash>
0.0298

> <Gold.Chemscore.DEInternal>
1.3321

> <Gold.Chemscore.Rot>
1.9098

> <Gold.Chemscore.Internal.Correction>
   9.000000E+99

> <Gold.Chemscore.Hbonds>
donor molecule, donor type, donor heavy atom, donor atom, acceptor molecule, acceptor atom, score
      P1  H  6896  6908       L1    13  0.49

> <Gold.Chemscore.Hbond.Weighted>
-3.3327

> <Gold.Chemscore.Metal.Weighted>
-0.0000

> <Gold.Chemscore.Lipo.Weighted>
-12.2568

> <Gold.Chemscore.Internal_Hbond.Weighted>
0.0000

> <Gold.Chemscore.DEClash.Weighted>
0.0298

> <Gold.Chemscore.DEInternal.Weighted>
1.3321

> <Gold.Chemscore.Rot.Weighted>
4.8891

> <Gold.Chemscore.Internal.Correction.Weighted>
   9.000000E+99

> <Gold.Protein.RotatedTorsions>
[ 6907 6896 6895 6894 ] final  153.74 input  -60.11 | X-H torsion
[ 7974 7965 7964 7962 ] final -141.74 input  175.53 | X-H torsion
[ 8008 7997 7996 7995 ] final  -38.62 input   59.86 | X-H torsion
[ 10167 10162 10161 10158 ] final  -29.70 input  -65.29 | X-H torsion
[ 10718 10713 10712 10709 ] final -117.48 input   66.30 | X-H torsion
[ 10763 10752 10751 10750 ] final -177.45 input  -60.55 | X-H torsion
[ 11005 11000 10999 10996 ] final  -53.04 input  -57.11 | X-H torsion

> <Gold.Protein.ActiveResidues>
 VAL166  LYS551  ARG553  GLY616  TRP617  ASP618  TYR619  PRO620  LYS621  CYS622 
 ASP623  PHE694  ASN695  SER759  ASP760  ASP761  ALA762  ILE779  LEU786  VAL792 
 PHE793  MET794  SER795  GLU796  ALA797  LYS798  CYS799  TRP800  GLU811  SER814 

> <Gold.Protein.RotatedAtoms>
  152.0684  133.4095  159.4447 H   0  0  0  0  0  0  0  0  0  0  0  0  # atno 6907 bound_to 6896
  150.6864  134.3120  159.4759 H   0  0  0  0  0  0  0  0  0  0  0  0  # atno 6908 bound_to 6896
  152.0949  134.9381  160.0621 H   0  0  0  0  0  0  0  0  0  0  0  0  # atno 6909 bound_to 6896
  144.8496  140.6043  143.5399 H   0  0  0  0  0  0  0  0  0  0  0  0  # atno 7974 bound_to 7965
  154.4034  140.1573  156.2730 H   0  0  0  0  0  0  0  0  0  0  0  0  # atno 8008 bound_to 7997
  155.8936  140.3437  155.5952 H   0  0  0  0  0  0  0  0  0  0  0  0  # atno 8009 bound_to 7997
  155.7530  140.0807  157.2183 H   0  0  0  0  0  0  0  0  0  0  0  0  # atno 8010 bound_to 7997
  140.7258  143.3908  151.1434 H   0  0  0  0  0  0  0  0  0  0  0  0  # atno 10167 bound_to 10162
  156.1036  130.6192  150.9169 H   0  0  0  0  0  0  0  0  0  0  0  0  # atno 10718 bound_to 10713
  154.5600  135.2819  155.0928 H   0  0  0  0  0  0  0  0  0  0  0  0  # atno 10763 bound_to 10752
  154.2341  135.6369  153.5189 H   0  0  0  0  0  0  0  0  0  0  0  0  # atno 10764 bound_to 10752
  153.0026  135.5544  154.6191 H   0  0  0  0  0  0  0  0  0  0  0  0  # atno 10765 bound_to 10752
  141.0955  133.6625  156.4113 H   0  0  0  0  0  0  0  0  0  0  0  0  # atno 11005 bound_to 11000
  145.4527  139.1522  143.3910 LP  0  0  0  0  0  0  0  0  0  0  0  0  # atno 17320 bound_to 7965
  146.2773  140.4653  142.8790 LP  0  0  0  0  0  0  0  0  0  0  0  0  # atno 17321 bound_to 7965
  139.7512  143.8776  152.3077 LP  0  0  0  0  0  0  0  0  0  0  0  0  # atno 17342 bound_to 10162
  139.8630  144.7107  150.9077 LP  0  0  0  0  0  0  0  0  0  0  0  0  # atno 17343 bound_to 10162
  157.6210  131.0929  150.8621 LP  0  0  0  0  0  0  0  0  0  0  0  0  # atno 17370 bound_to 10713
  156.8745  130.5157  149.5294 LP  0  0  0  0  0  0  0  0  0  0  0  0  # atno 17371 bound_to 10713
  140.5149  134.6360  157.5297 LP  0  0  0  0  0  0  0  0  0  0  0  0  # atno 17394 bound_to 11000
  139.9791  134.7166  155.9893 LP  0  0  0  0  0  0  0  0  0  0  0  0  # atno 17395 bound_to 11000

$$$$
