AV-unprocessed.smi:3195|AV-procd|sdf|12215|dock1
  -GOLD-   2272018 53D 1   1.00000     0.00000
 Structure written by MMmdl.
 30 31  0  0  0  0  0  0  0  0  3 V2000
  149.4098  140.8757  154.7442 C   0  0  0  0  0  0  0  0  0  0  0  0
  150.4812  140.1595  155.5844 C   0  0  1  0  0  0  0  0  0  0  0  0
  150.7165  140.9140  156.9104 C   0  0  0  0  0  0  0  0  0  0  0  0
  150.6231  140.2990  157.9744 O   0  0  0  0  0  0  0  0  0  0  0  0
  151.0073  142.2265  156.8195 N   0  0  0  0  0  0  0  0  0  0  0  0
  151.2781  143.1567  157.8612 C   0  0  0  0  0  0  0  0  0  0  0  0
  150.7097  144.3882  157.8953 N   0  3  0  0  0  0  0  0  0  0  0  0
  150.9445  145.2931  158.8698 C   0  0  0  0  0  0  0  0  0  0  0  0
  151.8218  144.9752  159.9238 C   0  0  0  0  0  0  0  0  0  0  0  0
  152.4406  143.7096  159.9379 C   0  0  0  0  0  0  0  0  0  0  0  0
  152.1684  142.7924  158.9007 C   0  0  0  0  0  0  0  0  0  0  0  0
  152.7685  141.5644  158.9159 O   0  5  0  0  0  0  0  0  0  0  0  0
  150.1317  138.6717  155.8241 C   0  0  0  0  0  0  0  0  0  0  0  0
  151.1861  137.9035  155.0476 C   0  0  0  0  0  0  0  0  0  0  0  0
  152.3444  138.8862  155.0019 C   0  0  0  0  0  0  0  0  0  0  0  0
  151.6876  140.1311  154.8139 O   0  0  0  0  0  0  0  0  0  0  0  0
  148.4449  140.8882  155.2523 H   0  0  0  0  0  0  0  0  0  0  0  0
  149.2699  140.3782  153.7841 H   0  0  0  0  0  0  0  0  0  0  0  0
  149.6916  141.9092  154.5388 H   0  0  0  0  0  0  0  0  0  0  0  0
  151.0492  142.6093  155.8853 H   0  0  0  0  0  0  0  0  0  0  0  0
  150.4259  146.2360  158.7767 H   0  0  0  0  0  0  0  0  0  0  0  0
  152.0175  145.6894  160.7098 H   0  0  0  0  0  0  0  0  0  0  0  0
  153.1171  143.4460  160.7379 H   0  0  0  0  0  0  0  0  0  0  0  0
  150.0695  144.6421  157.1423 H   0  0  0  0  0  0  0  0  0  0  0  0
  150.1956  138.4037  156.8803 H   0  0  0  0  0  0  0  0  0  0  0  0
  149.1256  138.4128  155.4913 H   0  0  0  0  0  0  0  0  0  0  0  0
  151.4516  136.9524  155.5098 H   0  0  0  0  0  0  0  0  0  0  0  0
  150.8314  137.7044  154.0355 H   0  0  0  0  0  0  0  0  0  0  0  0
  152.8903  138.8928  155.9467 H   0  0  0  0  0  0  0  0  0  0  0  0
  153.0478  138.6754  154.1962 H   0  0  0  0  0  0  0  0  0  0  0  0
  1  2  1  0  0  0  0
  1 17  1  0  0  0  0
  1 18  1  0  0  0  0
  1 19  1  0  0  0  0
  2 16  1  0  0  0  0
  2  3  1  0  0  0  0
  2 13  1  0  0  0  0
  3  4  2  0  0  0  0
  3  5  1  0  0  0  0
  5 20  1  0  0  0  0
  5  6  1  0  0  0  0
  6 11  2  0  0  0  0
  6  7  1  0  0  0  0
  7 24  1  0  0  0  0
  7  8  2  0  0  0  0
  8 21  1  0  0  0  0
  8  9  1  0  0  0  0
  9 22  1  0  0  0  0
  9 10  2  0  0  0  0
 10 11  1  0  0  0  0
 10 23  1  0  0  0  0
 11 12  1  0  0  0  0
 13 14  1  0  0  0  0
 13 25  1  0  0  0  0
 13 26  1  0  0  0  0
 14 15  1  0  0  0  0
 14 27  1  0  0  0  0
 14 28  1  0  0  0  0
 15 16  1  0  0  0  0
 15 29  1  0  0  0  0
 15 30  1  0  0  0  0
M  CHG  1   7   1
M  CHG  1  12  -1
M  END
> <s_m_source_file>
AV-unprocessed.smi

> <i_m_source_file_index>
3195

> <i_lp_mmshare_version>
43012

> <i_f3d_flags>
0

> <s_epik_input>
TzFbQ0gyXVtDSDJdW0NIMl1bQ0BAXTEoW0NIM10pQyg9TylbTkhdYzJuW2NIXVtjSF1bY0hdYzJbT0hd

> <s_epik_cmdline>
J2VwaWtfcHl0aG9uJywgJy1waCcsICc3LjAnLCAnLXRuJywgJzgnLCAnLW1hJywgJzIwMCcsICctbWV0YWxfYmluZGluZycsICctaW1hZScsICc8aW5maWxlLm1hZT4nLCAnLW9tYWUnLCAnPG91dGZpbGUubWFlPic=

> <r_lp_tautomer_probability>
0.56342

> <r_epik_Ionization_Penalty>
0.213843

> <r_epik_Ionization_Penalty_Charging>
0.0241245

> <r_epik_Ionization_Penalty_Neutral>
0.189718

> <r_epik_State_Penalty>
0.53074

> <r_epik_Charging_Adjusted_Penalty>
0.554865

> <i_epik_Tot_Q>
0

> <i_epik_Tot_abs_Q>
2

> <r_epik_Metal_State_Penalty>
2.53391

> <b_epik_Metal_Only>
0

> <s_lp_Force_Field>
OPLS_2005

> <r_lp_Energy>
20.8305

> <b_lp_Chiralities_Consistent>
1

> <s_lp_Variant>
AV-unprocessed.smi:3195-3

> <Gold.Version>
5.8.1

> <Gold.Id.Protein>
6NUR|6NUR_protein|mol2

> <Gold.PLP.Fitness>
43.3665

> <Gold.PLP.PLP>
-34.7737

> <Gold.PLP.part.hbond>
-1.7444

> <Gold.PLP.part.metal>
0.0000

> <Gold.PLP.part.buried>
-4.8330

> <Gold.PLP.part.nonpolar>
-28.3029

> <Gold.PLP.part.repulsive>
0.1959

> <Gold.PLP.ligand.clash>
0.0000

> <Gold.PLP.ligand.torsion>
0.4486

> <Gold.PLP.Chemscore.Hbond>
2.9920

> <Gold.PLP.Chemscore.CHOScore>
0.0000

> <Gold.PLP.Chemscore.Metal>
0.0000

> <Gold.Chemscore.Hbonds>
donor molecule, donor type, donor heavy atom, donor atom, acceptor molecule, acceptor atom, score
      L1  H     7    24       P1  8028  2.00
      P1  H  7989  7998       L1    16  0.93

> <Gold.PLP.Chemscore.Internal.Correction>
0.5140

> <Gold.Rescore>
     Score         DG    S(hbond)    S(metal)    S(lipo)     H(rot)  DE(clash)    DE(int)     intcor
     15.04     -18.10       1.74        0.00      80.03       1.00       0.03       3.03       ----

> <Gold.Chemscore.Fitness>
15.0416

> <Gold.Chemscore.DG>
-18.1004

> <Gold.Chemscore.ZeroCoef>
-5.4800

> <Gold.Chemscore.Hbond>
1.7414

> <Gold.Chemscore.Metal>
0.0000

> <Gold.Chemscore.Lipo>
80.0344

> <Gold.Chemscore.Internal_Hbond>
0.0000

> <Gold.Chemscore.DEClash>
0.0323

> <Gold.Chemscore.DEInternal>
3.0265

> <Gold.Chemscore.Rot>
1.0000

> <Gold.Chemscore.Internal.Correction>
   9.000000E+99

> <Gold.Chemscore.Hbonds>
donor molecule, donor type, donor heavy atom, donor atom, acceptor molecule, acceptor atom, score
      L1  H     7    24       P1  8028  0.35
      P1  H  7989  7998       L1    16  0.77

> <Gold.Chemscore.Hbond.Weighted>
-5.8164

> <Gold.Chemscore.Metal.Weighted>
-0.0000

> <Gold.Chemscore.Lipo.Weighted>
-9.3640

> <Gold.Chemscore.Internal_Hbond.Weighted>
0.0000

> <Gold.Chemscore.DEClash.Weighted>
0.0323

> <Gold.Chemscore.DEInternal.Weighted>
3.0265

> <Gold.Chemscore.Rot.Weighted>
2.5600

> <Gold.Chemscore.Internal.Correction.Weighted>
   9.000000E+99

> <Gold.Protein.RotatedTorsions>
[ 6907 6896 6895 6894 ] final  130.39 input  -60.11 | X-H torsion
[ 7974 7965 7964 7962 ] final   -0.10 input  175.53 | X-H torsion
[ 8008 7997 7996 7995 ] final -115.16 input   59.86 | X-H torsion
[ 10167 10162 10161 10158 ] final -126.67 input  -65.29 | X-H torsion
[ 10718 10713 10712 10709 ] final  -66.00 input   66.30 | X-H torsion
[ 10763 10752 10751 10750 ] final  -46.83 input  -60.55 | X-H torsion
[ 11005 11000 10999 10996 ] final  140.60 input  -57.11 | X-H torsion

> <Gold.Protein.ActiveResidues>
 VAL166  LYS551  ARG553  GLY616  TRP617  ASP618  TYR619  PRO620  LYS621  CYS622 
 ASP623  PHE694  ASN695  SER759  ASP760  ASP761  ALA762  ILE779  LEU786  VAL792 
 PHE793  MET794  SER795  GLU796  ALA797  LYS798  CYS799  TRP800  GLU811  SER814 

> <Gold.Protein.RotatedAtoms>
  152.3531  133.6203  159.5958 H   0  0  0  0  0  0  0  0  0  0  0  0  # atno 6907 bound_to 6896
  150.7550  133.9543  159.3504 H   0  0  0  0  0  0  0  0  0  0  0  0  # atno 6908 bound_to 6896
  151.7392  135.0859  160.0364 H   0  0  0  0  0  0  0  0  0  0  0  0  # atno 6909 bound_to 6896
  146.2430  140.1219  142.8340 H   0  0  0  0  0  0  0  0  0  0  0  0  # atno 7974 bound_to 7965
  155.0477  140.0392  157.2532 H   0  0  0  0  0  0  0  0  0  0  0  0  # atno 8008 bound_to 7997
  154.7163  140.2703  155.6558 H   0  0  0  0  0  0  0  0  0  0  0  0  # atno 8009 bound_to 7997
  156.2804  140.2711  156.1821 H   0  0  0  0  0  0  0  0  0  0  0  0  # atno 8010 bound_to 7997
  139.9689  143.5867  152.2419 H   0  0  0  0  0  0  0  0  0  0  0  0  # atno 10167 bound_to 10162
  156.0637  130.4255  150.1646 H   0  0  0  0  0  0  0  0  0  0  0  0  # atno 10718 bound_to 10713
  154.0514  135.6630  153.4801 H   0  0  0  0  0  0  0  0  0  0  0  0  # atno 10763 bound_to 10752
  153.0462  135.5113  154.7747 H   0  0  0  0  0  0  0  0  0  0  0  0  # atno 10764 bound_to 10752
  154.6754  135.3036  154.9651 H   0  0  0  0  0  0  0  0  0  0  0  0  # atno 10765 bound_to 10752
  140.0339  134.9338  157.0716 H   0  0  0  0  0  0  0  0  0  0  0  0  # atno 11005 bound_to 11000
  145.0399  140.8937  143.5059 LP  0  0  0  0  0  0  0  0  0  0  0  0  # atno 17320 bound_to 7965
  145.1298  139.2639  143.5545 LP  0  0  0  0  0  0  0  0  0  0  0  0  # atno 17321 bound_to 7965
  139.6496  144.7660  151.2174 LP  0  0  0  0  0  0  0  0  0  0  0  0  # atno 17342 bound_to 10162
  140.7528  143.6183  150.8538 LP  0  0  0  0  0  0  0  0  0  0  0  0  # atno 17343 bound_to 10162
  156.9710  130.9834  151.3459 LP  0  0  0  0  0  0  0  0  0  0  0  0  # atno 17370 bound_to 10713
  157.5664  130.8280  149.8333 LP  0  0  0  0  0  0  0  0  0  0  0  0  # atno 17371 bound_to 10713
  140.4179  134.1911  155.7164 LP  0  0  0  0  0  0  0  0  0  0  0  0  # atno 17394 bound_to 11000
  141.1846  133.8339  157.1132 LP  0  0  0  0  0  0  0  0  0  0  0  0  # atno 17395 bound_to 11000

$$$$
