AV-unprocessed.smi:2336|AV-procd|sdf|9328|dock4
  -GOLD-   2272012543D 1   1.00000     0.00000
 Structure written by MMmdl.
 50 51  0  0  0  0  0  0  0  0  2 V2000
  148.3597  137.7915  157.2079 C   0  0  0  0  0  0  0  0  0  0  0  0
  147.2616  137.4491  156.1861 C   0  0  0  0  0  0  0  0  0  0  0  0
  147.2032  135.9333  155.9294 C   0  0  0  0  0  0  0  0  0  0  0  0
  147.2930  138.2666  154.8599 C   0  0  1  0  0  0  0  0  0  0  0  0
  146.1306  137.9656  153.8782 C   0  0  0  0  0  0  0  0  0  0  0  0
  146.4785  136.9061  152.9406 N   0  0  0  0  0  0  0  0  0  0  0  0
  145.5975  136.0425  152.4195 C   0  0  0  0  0  0  0  0  0  0  0  0
  144.3956  136.0706  152.6812 O   0  0  0  0  0  0  0  0  0  0  0  0
  146.2037  135.1743  151.5911 N   0  0  0  0  0  0  0  0  0  0  0  0
  145.6512  134.1061  150.8297 C   0  0  0  0  0  0  0  0  0  0  0  0
  144.3969  134.1448  150.1714 C   0  0  0  0  0  0  0  0  0  0  0  0
  143.9734  133.0061  149.4570 C   0  0  0  0  0  0  0  0  0  0  0  0
  144.6982  131.8714  149.3660 N   0  0  0  0  0  0  0  0  0  0  0  0
  145.8896  131.8348  149.9985 C   0  0  0  0  0  0  0  0  0  0  0  0
  146.4062  132.9171  150.7387 C   0  0  0  0  0  0  0  0  0  0  0  0
  147.6105  132.8117  151.3508 F   0  0  0  0  0  0  0  0  0  0  0  0
  147.5057  139.7053  155.1061 N   0  0  0  0  0  0  0  0  0  0  0  0
  146.3839  140.4054  155.7465 C   0  0  0  0  0  0  0  0  0  0  0  0
  146.8093  141.8386  156.1207 C   0  0  0  0  0  0  0  0  0  0  0  0
  147.2412  142.6006  154.9245 N   0  3  0  0  0  0  0  0  0  0  0  0
  146.1220  143.0660  154.0731 C   0  0  0  0  0  0  0  0  0  0  0  0
  148.2866  141.8541  154.1846 C   0  0  0  0  0  0  0  0  0  0  0  0
  147.8376  140.4129  153.8655 C   0  0  0  0  0  0  0  0  0  0  0  0
  149.3373  137.4351  156.8857 H   0  0  0  0  0  0  0  0  0  0  0  0
  148.1510  137.3153  158.1660 H   0  0  0  0  0  0  0  0  0  0  0  0
  148.4260  138.8633  157.3915 H   0  0  0  0  0  0  0  0  0  0  0  0
  146.3185  137.6924  156.6757 H   0  0  0  0  0  0  0  0  0  0  0  0
  148.1260  135.5658  155.4800 H   0  0  0  0  0  0  0  0  0  0  0  0
  146.3813  135.6778  155.2601 H   0  0  0  0  0  0  0  0  0  0  0  0
  147.0500  135.3845  156.8592 H   0  0  0  0  0  0  0  0  0  0  0  0
  148.1938  137.9092  154.3585 H   0  0  0  0  0  0  0  0  0  0  0  0
  145.2272  137.6701  154.4130 H   0  0  0  0  0  0  0  0  0  0  0  0
  145.8808  138.8594  153.3047 H   0  0  0  0  0  0  0  0  0  0  0  0
  147.4494  136.8241  152.6766 H   0  0  0  0  0  0  0  0  0  0  0  0
  147.1970  135.3079  151.4690 H   0  0  0  0  0  0  0  0  0  0  0  0
  143.7495  135.0063  150.1978 H   0  0  0  0  0  0  0  0  0  0  0  0
  143.0222  133.0071  148.9456 H   0  0  0  0  0  0  0  0  0  0  0  0
  146.4487  130.9147  149.9131 H   0  0  0  0  0  0  0  0  0  0  0  0
  145.5178  140.4358  155.0852 H   0  0  0  0  0  0  0  0  0  0  0  0
  146.0649  139.8855  156.6465 H   0  0  0  0  0  0  0  0  0  0  0  0
  145.9937  142.3615  156.6214 H   0  0  0  0  0  0  0  0  0  0  0  0
  147.6355  141.8032  156.8325 H   0  0  0  0  0  0  0  0  0  0  0  0
  145.5729  142.2355  153.6301 H   0  0  0  0  0  0  0  0  0  0  0  0
  146.4948  143.6945  153.2640 H   0  0  0  0  0  0  0  0  0  0  0  0
  145.4207  143.6630  154.6569 H   0  0  0  0  0  0  0  0  0  0  0  0
  148.5487  142.3852  153.2689 H   0  0  0  0  0  0  0  0  0  0  0  0
  149.1914  141.8273  154.7935 H   0  0  0  0  0  0  0  0  0  0  0  0
  148.6563  139.9022  153.3571 H   0  0  0  0  0  0  0  0  0  0  0  0
  146.9892  140.4093  153.1803 H   0  0  0  0  0  0  0  0  0  0  0  0
  147.6820  143.4422  155.2677 H   0  0  0  0  0  0  0  0  0  0  0  0
  1  2  1  0  0  0  0
  1 24  1  0  0  0  0
  1 25  1  0  0  0  0
  1 26  1  0  0  0  0
  2  3  1  0  0  0  0
  2  4  1  0  0  0  0
  2 27  1  0  0  0  0
  3 28  1  0  0  0  0
  3 29  1  0  0  0  0
  3 30  1  0  0  0  0
  4  5  1  0  0  0  0
  4 17  1  0  0  0  0
  4 31  1  0  0  0  0
  5  6  1  0  0  0  0
  5 32  1  0  0  0  0
  5 33  1  0  0  0  0
  6  7  1  0  0  0  0
  6 34  1  0  0  0  0
  7  8  2  0  0  0  0
  7  9  1  0  0  0  0
  9 10  1  0  0  0  0
  9 35  1  0  0  0  0
 10 15  1  0  0  0  0
 10 11  2  0  0  0  0
 11 12  1  0  0  0  0
 11 36  1  0  0  0  0
 12 13  2  0  0  0  0
 12 37  1  0  0  0  0
 13 14  1  0  0  0  0
 14 15  2  0  0  0  0
 14 38  1  0  0  0  0
 15 16  1  0  0  0  0
 17 23  1  0  0  0  0
 17 18  1  0  0  0  0
 18 19  1  0  0  0  0
 18 39  1  0  0  0  0
 18 40  1  0  0  0  0
 19 20  1  0  0  0  0
 19 41  1  0  0  0  0
 19 42  1  0  0  0  0
 20 21  1  0  0  0  0
 20 22  1  0  0  0  0
 20 50  1  0  0  0  0
 21 43  1  0  0  0  0
 21 44  1  0  0  0  0
 21 45  1  0  0  0  0
 22 23  1  0  0  0  0
 22 46  1  0  0  0  0
 22 47  1  0  0  0  0
 23 48  1  0  0  0  0
 23 49  1  0  0  0  0
M  CHG  1  20   1
M  END
> <s_m_source_file>
AV-unprocessed.smi

> <i_m_source_file_index>
2336

> <i_lp_mmshare_version>
43012

> <i_f3d_flags>
0

> <s_epik_input>
W0NIMl0xW0NIMl1OKFtDSDNdKVtDSDJdW0NIMl1OMVtDQEhdKFtDSF0oW0NIM10pW0NIM10pW0NIMl1bTkhdQyg9TylbTkhdYzJbY0hdW2NIXW5bY0hdYzJG

> <s_epik_cmdline>
J2VwaWtfcHl0aG9uJywgJy1waCcsICc3LjAnLCAnLXRuJywgJzgnLCAnLW1hJywgJzIwMCcsICctbWV0YWxfYmluZGluZycsICctaW1hZScsICc8aW5maWxlLm1hZT4nLCAnLW9tYWUnLCAnPG91dGZpbGUubWFlPic=

> <r_epik_Ionization_Penalty>
0.0313013

> <r_epik_Ionization_Penalty_Charging>
0.0272987

> <r_epik_Ionization_Penalty_Neutral>
0.00400259

> <r_epik_State_Penalty>
0.0776825

> <r_epik_Charging_Adjusted_Penalty>
0.104981

> <i_epik_Tot_Q>
1

> <i_epik_Tot_abs_Q>
1

> <r_epik_Metal_State_Penalty>
0.0776139

> <b_epik_Metal_Only>
0

> <s_lp_Force_Field>
OPLS_2005

> <r_lp_Energy>
31.1795

> <b_lp_Chiralities_Consistent>
1

> <s_lp_Variant>
AV-unprocessed.smi:2336-2

> <Gold.Version>
5.8.1

> <Gold.Id.Protein>
6NUR|6NUR_protein|mol2

> <Gold.PLP.Fitness>
45.1947

> <Gold.PLP.PLP>
-29.4750

> <Gold.PLP.part.hbond>
-4.0000

> <Gold.PLP.part.metal>
0.0000

> <Gold.PLP.part.buried>
0.8816

> <Gold.PLP.part.nonpolar>
-26.4837

> <Gold.PLP.part.repulsive>
0.4952

> <Gold.PLP.ligand.clash>
0.0000

> <Gold.PLP.ligand.torsion>
1.1162

> <Gold.PLP.Chemscore.Hbond>
4.0811

> <Gold.PLP.Chemscore.CHOScore>
1.7825

> <Gold.PLP.Chemscore.Metal>
0.0000

> <Gold.Chemscore.Hbonds>
donor molecule, donor type, donor heavy atom, donor atom, acceptor molecule, acceptor atom, score
      L1  H     6    34       P1  7948  1.00
      L1  H     9    35       P1  7948  1.00
      L1  H    20    50       P1  8028  1.90
      P1  H 10785 10796       L1    13  0.07
      L1  C    12    37       P1 10186  0.93
      L1  C    14    38       P1 10747  0.83

> <Gold.PLP.Chemscore.Internal.Correction>
0.3611

> <Gold.Rescore>
     Score         DG    S(hbond)    S(metal)    S(lipo)     H(rot)  DE(clash)    DE(int)     intcor
     17.54     -19.59       2.88        0.00      74.97       1.67       0.96       1.09       ----

> <Gold.Chemscore.Fitness>
17.5398

> <Gold.Chemscore.DG>
-19.5925

> <Gold.Chemscore.ZeroCoef>
-5.4800

> <Gold.Chemscore.Hbond>
2.8821

> <Gold.Chemscore.Metal>
0.0000

> <Gold.Chemscore.Lipo>
74.9708

> <Gold.Chemscore.Internal_Hbond>
0.0000

> <Gold.Chemscore.DEClash>
0.9625

> <Gold.Chemscore.DEInternal>
1.0902

> <Gold.Chemscore.Rot>
1.6739

> <Gold.Chemscore.Internal.Correction>
   9.000000E+99

> <Gold.Chemscore.Hbonds>
donor molecule, donor type, donor heavy atom, donor atom, acceptor molecule, acceptor atom, score
      L1  H     6    34       P1  7948  1.00
      L1  H     9    35       P1  7948  0.89
      L1  H    20    50       P1  8028  0.22
      P1  H 10785 10796       L1    13  0.05

> <Gold.Chemscore.Hbond.Weighted>
-9.6261

> <Gold.Chemscore.Metal.Weighted>
-0.0000

> <Gold.Chemscore.Lipo.Weighted>
-8.7716

> <Gold.Chemscore.Internal_Hbond.Weighted>
0.0000

> <Gold.Chemscore.DEClash.Weighted>
0.9625

> <Gold.Chemscore.DEInternal.Weighted>
1.0902

> <Gold.Chemscore.Rot.Weighted>
4.2851

> <Gold.Chemscore.Internal.Correction.Weighted>
   9.000000E+99

> <Gold.Protein.RotatedTorsions>
[ 6907 6896 6895 6894 ] final   37.64 input  -60.11 | X-H torsion
[ 7974 7965 7964 7962 ] final  159.66 input  175.53 | X-H torsion
[ 8008 7997 7996 7995 ] final  108.84 input   59.86 | X-H torsion
[ 10167 10162 10161 10158 ] final -154.25 input  -65.29 | X-H torsion
[ 10718 10713 10712 10709 ] final   91.05 input   66.30 | X-H torsion
[ 10763 10752 10751 10750 ] final   34.84 input  -60.55 | X-H torsion
[ 11005 11000 10999 10996 ] final  112.02 input  -57.11 | X-H torsion

> <Gold.Protein.ActiveResidues>
 VAL166  LYS551  ARG553  GLY616  TRP617  ASP618  TYR619  PRO620  LYS621  CYS622 
 ASP623  PHE694  ASN695  SER759  ASP760  ASP761  ALA762  ILE779  LEU786  VAL792 
 PHE793  MET794  SER795  GLU796  ALA797  LYS798  CYS799  TRP800  GLU811  SER814 

> <Gold.Protein.RotatedAtoms>
  152.1459  134.9026  160.0550 H   0  0  0  0  0  0  0  0  0  0  0  0  # atno 6907 bound_to 6896
  152.0076  133.3844  159.4215 H   0  0  0  0  0  0  0  0  0  0  0  0  # atno 6908 bound_to 6896
  150.6870  134.3687  159.5026 H   0  0  0  0  0  0  0  0  0  0  0  0  # atno 6909 bound_to 6896
  144.7778  139.7649  143.6272 H   0  0  0  0  0  0  0  0  0  0  0  0  # atno 7974 bound_to 7965
  156.1934  140.3069  155.9377 H   0  0  0  0  0  0  0  0  0  0  0  0  # atno 8008 bound_to 7997
  155.3122  140.0451  157.3052 H   0  0  0  0  0  0  0  0  0  0  0  0  # atno 8009 bound_to 7997
  154.5479  140.2282  155.8542 H   0  0  0  0  0  0  0  0  0  0  0  0  # atno 8010 bound_to 7997
  139.7029  143.9234  152.2436 H   0  0  0  0  0  0  0  0  0  0  0  0  # atno 10167 bound_to 10162
  157.6960  131.0393  150.3670 H   0  0  0  0  0  0  0  0  0  0  0  0  # atno 10718 bound_to 10713
  153.0146  135.6349  154.1732 H   0  0  0  0  0  0  0  0  0  0  0  0  # atno 10763 bound_to 10752
  154.1472  135.2831  155.3147 H   0  0  0  0  0  0  0  0  0  0  0  0  # atno 10764 bound_to 10752
  154.6080  135.5565  153.7505 H   0  0  0  0  0  0  0  0  0  0  0  0  # atno 10765 bound_to 10752
  139.8917  134.9521  156.6521 H   0  0  0  0  0  0  0  0  0  0  0  0  # atno 11005 bound_to 11000
  146.1968  139.5239  142.9769 LP  0  0  0  0  0  0  0  0  0  0  0  0  # atno 17320 bound_to 7965
  145.6136  141.0335  143.1953 LP  0  0  0  0  0  0  0  0  0  0  0  0  # atno 17321 bound_to 7965
  139.9082  144.6872  150.8591 LP  0  0  0  0  0  0  0  0  0  0  0  0  # atno 17342 bound_to 10162
  140.7714  143.3463  151.2104 LP  0  0  0  0  0  0  0  0  0  0  0  0  # atno 17343 bound_to 10162
  156.4100  130.3932  149.6898 LP  0  0  0  0  0  0  0  0  0  0  0  0  # atno 17370 bound_to 10713
  156.4186  130.7757  151.2774 LP  0  0  0  0  0  0  0  0  0  0  0  0  # atno 17371 bound_to 10713
  140.7512  133.8896  155.8348 LP  0  0  0  0  0  0  0  0  0  0  0  0  # atno 17394 bound_to 11000
  140.9999  134.1165  157.4327 LP  0  0  0  0  0  0  0  0  0  0  0  0  # atno 17395 bound_to 11000

$$$$
