AV-unprocessed.smi:146|AV-procd|sdf|1199|dock9
  -GOLD-   2262018363D 1   1.00000     0.00000
 Structure written by MMmdl.
 55 59  0  0  0  0  0  0  0  0  1 V2000
  152.7212  145.1252  158.0438 C   0  0  0  0  0  0  0  0  0  0  0  0
  152.2598  143.8908  158.8340 C   0  0  0  0  0  0  0  0  0  0  0  0
  151.5047  144.3611  160.0942 C   0  0  0  0  0  0  0  0  0  0  0  0
  151.3629  143.0134  157.9395 C   0  0  0  0  0  0  0  0  0  0  0  0
  151.1516  141.7078  158.5498 N   0  0  0  0  0  0  0  0  0  0  0  0
  150.0906  141.0103  158.0697 C   0  0  0  0  0  0  0  0  0  0  0  0
  149.1342  141.6443  157.3394 N   0  0  0  0  0  0  0  0  0  0  0  0
  148.0771  140.9692  156.8786 C   0  0  0  0  0  0  0  0  0  0  0  0
  147.7833  139.6764  157.0274 N   0  0  0  0  0  0  0  0  0  0  0  0
  148.7449  139.0299  157.7466 C   0  0  0  0  0  0  0  0  0  0  0  0
  149.9194  139.6151  158.2993 C   0  0  0  0  0  0  0  0  0  0  0  0
  150.6622  138.6445  158.9609 N   0  0  0  0  0  0  0  0  0  0  0  0
  149.9588  137.5543  158.8232 C   0  0  0  0  0  0  0  0  0  0  0  0
  148.7968  137.6910  158.0967 N   0  0  0  0  0  0  0  0  0  0  0  0
  147.8210  136.6524  157.7950 C   0  0  0  0  0  0  0  0  0  0  0  0
  147.1794  135.9791  159.0326 C   0  0  0  0  0  0  0  0  0  0  0  0
  147.0742  134.4732  158.7549 C   0  0  0  0  0  0  0  0  0  0  0  0
  148.3026  133.9476  158.2943 O   0  0  0  0  0  0  0  0  0  0  0  0
  147.7045  136.3799  160.4226 C   0  0  0  0  0  0  0  0  0  0  0  0
  146.5944  137.2759  160.6417 O   0  0  0  0  0  0  0  0  0  0  0  0
  145.8911  136.6350  159.5570 C   0  0  0  0  0  0  0  0  0  0  0  0
  152.4048  140.9997  158.7789 C   0  0  0  0  0  0  0  0  0  0  0  0
  153.3650  141.8422  159.6512 C   0  0  2  0  0  0  0  0  0  0  0  0
  154.7701  141.2528  159.6192 C   0  0  0  0  0  0  0  0  0  0  0  0
  154.7510  140.2519  160.7635 C   0  0  0  0  0  0  0  0  0  0  0  0
  154.0330  140.9405  161.7712 O   0  0  0  0  0  0  0  0  0  0  0  0
  153.0428  141.7630  161.1598 C   0  0  0  0  0  0  0  0  0  0  0  0
  153.4681  143.1856  159.1577 O   0  0  0  0  0  0  0  0  0  0  0  0
  151.8738  145.7320  157.7228 H   0  0  0  0  0  0  0  0  0  0  0  0
  153.2778  144.8376  157.1511 H   0  0  0  0  0  0  0  0  0  0  0  0
  153.3731  145.7587  158.6462 H   0  0  0  0  0  0  0  0  0  0  0  0
  150.6762  145.0182  159.8284 H   0  0  0  0  0  0  0  0  0  0  0  0
  152.1616  144.9160  160.7646 H   0  0  0  0  0  0  0  0  0  0  0  0
  151.0749  143.5320  160.6544 H   0  0  0  0  0  0  0  0  0  0  0  0
  150.4250  143.5297  157.7383 H   0  0  0  0  0  0  0  0  0  0  0  0
  151.8402  142.8593  156.9707 H   0  0  0  0  0  0  0  0  0  0  0  0
  147.3640  141.5486  156.3109 H   0  0  0  0  0  0  0  0  0  0  0  0
  150.2734  136.6153  159.2535 H   0  0  0  0  0  0  0  0  0  0  0  0
  147.0479  137.0979  157.1679 H   0  0  0  0  0  0  0  0  0  0  0  0
  148.3183  135.9144  157.1652 H   0  0  0  0  0  0  0  0  0  0  0  0
  146.7979  133.9283  159.6581 H   0  0  0  0  0  0  0  0  0  0  0  0
  146.2996  134.2623  158.0168 H   0  0  0  0  0  0  0  0  0  0  0  0
  148.1228  133.1997  157.7453 H   0  0  0  0  0  0  0  0  0  0  0  0
  147.7067  135.5608  161.1439 H   0  0  0  0  0  0  0  0  0  0  0  0
  148.6679  136.8876  160.4231 H   0  0  0  0  0  0  0  0  0  0  0  0
  145.4284  137.3426  158.8707 H   0  0  0  0  0  0  0  0  0  0  0  0
  145.1495  135.9244  159.9260 H   0  0  0  0  0  0  0  0  0  0  0  0
  152.2184  140.0344  159.2515 H   0  0  0  0  0  0  0  0  0  0  0  0
  152.8627  140.7971  157.8094 H   0  0  0  0  0  0  0  0  0  0  0  0
  155.0373  140.8034  158.6624 H   0  0  0  0  0  0  0  0  0  0  0  0
  155.5083  142.0264  159.8371 H   0  0  0  0  0  0  0  0  0  0  0  0
  154.2145  139.3442  160.4835 H   0  0  0  0  0  0  0  0  0  0  0  0
  155.7498  139.9734  161.0997 H   0  0  0  0  0  0  0  0  0  0  0  0
  153.0974  142.7411  161.6368 H   0  0  0  0  0  0  0  0  0  0  0  0
  152.0481  141.3563  161.3451 H   0  0  0  0  0  0  0  0  0  0  0  0
  1  2  1  0  0  0  0
  1 29  1  0  0  0  0
  1 30  1  0  0  0  0
  1 31  1  0  0  0  0
  2 28  1  0  0  0  0
  2  3  1  0  0  0  0
  2  4  1  0  0  0  0
  3 32  1  0  0  0  0
  3 33  1  0  0  0  0
  3 34  1  0  0  0  0
  4  5  1  0  0  0  0
  4 35  1  0  0  0  0
  4 36  1  0  0  0  0
  5  6  1  0  0  0  0
  5 22  1  0  0  0  0
  6 11  1  0  0  0  0
  6  7  2  0  0  0  0
  7  8  1  0  0  0  0
  8  9  2  0  0  0  0
  8 37  1  0  0  0  0
  9 10  1  0  0  0  0
 10 14  1  0  0  0  0
 10 11  2  0  0  0  0
 11 12  1  0  0  0  0
 12 13  2  0  0  0  0
 13 14  1  0  0  0  0
 13 38  1  0  0  0  0
 14 15  1  0  0  0  0
 15 16  1  0  0  0  0
 15 39  1  0  0  0  0
 15 40  1  0  0  0  0
 16 21  1  0  0  0  0
 16 17  1  0  0  0  0
 16 19  1  0  0  0  0
 17 18  1  0  0  0  0
 17 41  1  0  0  0  0
 17 42  1  0  0  0  0
 18 43  1  0  0  0  0
 19 20  1  0  0  0  0
 19 44  1  0  0  0  0
 19 45  1  0  0  0  0
 20 21  1  0  0  0  0
 21 46  1  0  0  0  0
 21 47  1  0  0  0  0
 22 23  1  0  0  0  0
 22 48  1  0  0  0  0
 22 49  1  0  0  0  0
 23 27  1  0  0  0  0
 23 24  1  0  0  0  0
 23 28  1  0  0  0  0
 24 25  1  0  0  0  0
 24 50  1  0  0  0  0
 24 51  1  0  0  0  0
 25 26  1  0  0  0  0
 25 52  1  0  0  0  0
 25 53  1  0  0  0  0
 26 27  1  0  0  0  0
 27 54  1  0  0  0  0
 27 55  1  0  0  0  0
M  END
> <s_m_source_file>
AV-unprocessed.smi

> <i_m_source_file_index>
146

> <i_lp_mmshare_version>
43012

> <i_f3d_flags>
0

> <s_epik_input>
W0NIMl0xT1tDSDJdW0NIMl1bQ0BAXTEyW0NIMl1OKFtDSDJdQyhPMikoW0NIM10pW0NIM10pYyhuW2NIXW4zKWMoYzM0KW5bY0hdbjRbQ0gyXUM1KFtDSDJdW09IXSlbQ0gyXU9bQ0gyXTU=

> <s_epik_cmdline>
J2VwaWtfcHl0aG9uJywgJy1waCcsICc3LjAnLCAnLXRuJywgJzgnLCAnLW1hJywgJzIwMCcsICctbWV0YWxfYmluZGluZycsICctaW1hZScsICc8aW5maWxlLm1hZT4nLCAnLW9tYWUnLCAnPG91dGZpbGUubWFlPic=

> <r_lp_tautomer_probability>
1

> <r_epik_Ionization_Penalty>
0.00353822

> <r_epik_Ionization_Penalty_Charging>
0

> <r_epik_Ionization_Penalty_Neutral>
0.00353822

> <r_epik_State_Penalty>
0.0023805

> <r_epik_Charging_Adjusted_Penalty>
0.0023805

> <i_epik_Tot_Q>
0

> <i_epik_Tot_abs_Q>
0

> <r_epik_Metal_State_Penalty>
-0

> <b_epik_Metal_Only>
0

> <s_lp_Force_Field>
OPLS_2005

> <r_lp_Energy>
56.8345

> <b_lp_Chiralities_Consistent>
1

> <s_lp_Variant>
AV-unprocessed.smi:146-1

> <Gold.Version>
5.8.1

> <Gold.Id.Protein>
6NUR|6NUR_protein|mol2

> <Gold.PLP.Fitness>
46.8236

> <Gold.PLP.PLP>
-43.3987

> <Gold.PLP.part.hbond>
-2.8050

> <Gold.PLP.part.metal>
0.0000

> <Gold.PLP.part.buried>
-7.4037

> <Gold.PLP.part.nonpolar>
-33.3487

> <Gold.PLP.part.repulsive>
0.0676

> <Gold.PLP.ligand.clash>
0.0000

> <Gold.PLP.ligand.torsion>
1.5891

> <Gold.PLP.Chemscore.Hbond>
2.0000

> <Gold.PLP.Chemscore.CHOScore>
0.0000

> <Gold.PLP.Chemscore.Metal>
0.0000

> <Gold.Chemscore.Hbonds>
donor molecule, donor type, donor heavy atom, donor atom, acceptor molecule, acceptor atom, score
      P1  H  6934  6947       L1    20  1.00

> <Gold.PLP.Chemscore.Internal.Correction>
0.6031

> <Gold.Rescore>
     Score         DG    S(hbond)    S(metal)    S(lipo)     H(rot)  DE(clash)    DE(int)     intcor
     15.39     -19.15       1.83        0.00     117.79       2.44       0.08       3.68       ----

> <Gold.Chemscore.Fitness>
15.3881

> <Gold.Chemscore.DG>
-19.1507

> <Gold.Chemscore.ZeroCoef>
-5.4800

> <Gold.Chemscore.Hbond>
1.8350

> <Gold.Chemscore.Metal>
0.0000

> <Gold.Chemscore.Lipo>
117.7947

> <Gold.Chemscore.Internal_Hbond>
0.0000

> <Gold.Chemscore.DEClash>
0.0845

> <Gold.Chemscore.DEInternal>
3.6781

> <Gold.Chemscore.Rot>
2.4376

> <Gold.Chemscore.Internal.Correction>
   9.000000E+99

> <Gold.Chemscore.Hbonds>
donor molecule, donor type, donor heavy atom, donor atom, acceptor molecule, acceptor atom, score
      P1  H  6934  6947       L1    20  0.82

> <Gold.Chemscore.Hbond.Weighted>
-6.1288

> <Gold.Chemscore.Metal.Weighted>
-0.0000

> <Gold.Chemscore.Lipo.Weighted>
-13.7820

> <Gold.Chemscore.Internal_Hbond.Weighted>
0.0000

> <Gold.Chemscore.DEClash.Weighted>
0.0845

> <Gold.Chemscore.DEInternal.Weighted>
3.6781

> <Gold.Chemscore.Rot.Weighted>
6.2402

> <Gold.Chemscore.Internal.Correction.Weighted>
   9.000000E+99

> <Gold.Protein.RotatedTorsions>
[ 6907 6896 6895 6894 ] final   16.71 input  -60.11 | X-H torsion
[ 7974 7965 7964 7962 ] final  158.29 input  175.53 | X-H torsion
[ 8008 7997 7996 7995 ] final   15.26 input   59.86 | X-H torsion
[ 10167 10162 10161 10158 ] final -157.18 input  -65.29 | X-H torsion
[ 10718 10713 10712 10709 ] final  110.94 input   66.30 | X-H torsion
[ 10763 10752 10751 10750 ] final -175.51 input  -60.55 | X-H torsion
[ 11005 11000 10999 10996 ] final  -73.53 input  -57.11 | X-H torsion

> <Gold.Protein.ActiveResidues>
 VAL166  LYS551  ARG553  GLY616  TRP617  ASP618  TYR619  PRO620  LYS621  CYS622 
 ASP623  PHE694  ASN695  SER759  ASP760  ASP761  ALA762  ILE779  LEU786  VAL792 
 PHE793  MET794  SER795  GLU796  ALA797  LYS798  CYS799  TRP800  GLU811  SER814 

> <Gold.Protein.RotatedAtoms>
  151.8381  135.0599  160.0444 H   0  0  0  0  0  0  0  0  0  0  0  0  # atno 6907 bound_to 6896
  152.2829  133.5483  159.5517 H   0  0  0  0  0  0  0  0  0  0  0  0  # atno 6908 bound_to 6896
  150.7197  134.0454  159.3822 H   0  0  0  0  0  0  0  0  0  0  0  0  # atno 6909 bound_to 6896
  144.7854  139.7457  143.6243 H   0  0  0  0  0  0  0  0  0  0  0  0  # atno 7974 bound_to 7965
  154.8602  140.2943  155.5544 H   0  0  0  0  0  0  0  0  0  0  0  0  # atno 8008 bound_to 7997
  156.3019  140.2479  156.3507 H   0  0  0  0  0  0  0  0  0  0  0  0  # atno 8009 bound_to 7997
  154.8927  140.0394  157.1837 H   0  0  0  0  0  0  0  0  0  0  0  0  # atno 8010 bound_to 7997
  139.6791  143.9612  152.2327 H   0  0  0  0  0  0  0  0  0  0  0  0  # atno 10167 bound_to 10162
  157.6469  131.0942  150.6675 H   0  0  0  0  0  0  0  0  0  0  0  0  # atno 10718 bound_to 10713
  154.5835  135.2838  155.0709 H   0  0  0  0  0  0  0  0  0  0  0  0  # atno 10763 bound_to 10752
  154.2036  135.6420  153.5098 H   0  0  0  0  0  0  0  0  0  0  0  0  # atno 10764 bound_to 10752
  153.0096  135.5475  154.6497 H   0  0  0  0  0  0  0  0  0  0  0  0  # atno 10765 bound_to 10752
  141.1624  133.6881  156.7225 H   0  0  0  0  0  0  0  0  0  0  0  0  # atno 11005 bound_to 11000
  146.2084  139.5423  142.9697 LP  0  0  0  0  0  0  0  0  0  0  0  0  # atno 17320 bound_to 7965
  145.5935  141.0366  143.2057 LP  0  0  0  0  0  0  0  0  0  0  0  0  # atno 17321 bound_to 7965
  139.9397  144.6689  150.8279 LP  0  0  0  0  0  0  0  0  0  0  0  0  # atno 17342 bound_to 10162
  140.7646  143.3253  151.2531 LP  0  0  0  0  0  0  0  0  0  0  0  0  # atno 17343 bound_to 10162
  156.6991  130.4618  149.5578 LP  0  0  0  0  0  0  0  0  0  0  0  0  # atno 17370 bound_to 10713
  156.1808  130.6497  151.0949 LP  0  0  0  0  0  0  0  0  0  0  0  0  # atno 17371 bound_to 10713
  140.2805  134.8320  157.3929 LP  0  0  0  0  0  0  0  0  0  0  0  0  # atno 17394 bound_to 11000
  140.1438  134.4938  155.8012 LP  0  0  0  0  0  0  0  0  0  0  0  0  # atno 17395 bound_to 11000

$$$$
