AV-unprocessed.smi:178|AV-procd|sdf|1447|dock7
  -GOLD-   2262019243D 1   1.00000     0.00000
 Structure written by MMmdl.
 50 52  0  0  0  0  0  0  0  0  1 V2000
  151.7266  144.7095  158.7913 C   0  0  0  0  0  0  0  0  0  0  0  0
  151.1173  143.4350  158.9025 O   0  0  0  0  0  0  0  0  0  0  0  0
  150.4196  143.0624  157.7267 C   0  0  0  0  0  0  0  0  0  0  0  0
  150.2379  141.5364  157.7247 C   0  0  0  0  0  0  0  0  0  0  0  0
  150.1034  140.9842  156.3748 N   0  0  0  0  0  0  0  0  0  0  0  0
  151.2553  140.3193  155.7714 C   0  0  0  0  0  0  0  0  0  0  0  0
  151.7446  139.1218  156.5966 C   0  0  0  0  0  0  0  0  0  0  0  0
  151.6717  137.8599  155.8465 C   0  0  0  0  0  0  0  0  0  0  0  0
  151.6142  136.8671  155.2556 N   0  0  0  0  0  0  0  0  0  0  0  0
  148.9768  141.2389  155.6479 C   0  0  0  0  0  0  0  0  0  0  0  0
  149.0297  141.0410  154.3032 N   0  0  0  0  0  0  0  0  0  0  0  0
  147.9652  141.2729  153.5319 C   0  0  0  0  0  0  0  0  0  0  0  0
  146.7560  141.7020  153.8903 N   0  0  0  0  0  0  0  0  0  0  0  0
  146.6836  141.9035  155.2360 C   0  0  0  0  0  0  0  0  0  0  0  0
  147.7315  141.6971  156.1818 C   0  0  0  0  0  0  0  0  0  0  0  0
  147.2593  141.9915  157.4576 N   0  0  0  0  0  0  0  0  0  0  0  0
  146.0209  142.3564  157.2762 C   0  0  0  0  0  0  0  0  0  0  0  0
  145.5956  142.3449  155.9690 N   0  0  0  0  0  0  0  0  0  0  0  0
  144.2749  142.7095  155.4807 C   0  0  0  0  0  0  0  0  0  0  0  0
  144.2433  144.0672  154.7379 C   0  0  1  0  0  0  0  0  0  0  0  0
  144.6426  145.0861  155.6405 O   0  0  0  0  0  0  0  0  0  0  0  0
  145.1902  144.0972  153.5468 C   0  0  0  0  0  0  0  0  0  0  0  0
  144.5667  145.1616  152.6545 C   0  0  0  0  0  0  0  0  0  0  0  0
  143.1708  144.9405  152.7870 O   0  0  0  0  0  0  0  0  0  0  0  0
  142.8819  144.4108  154.0801 C   0  0  2  0  0  0  0  0  0  0  0  0
  141.9627  145.3749  154.8510 C   0  0  0  0  0  0  0  0  0  0  0  0
  152.2551  144.9440  159.7154 H   0  0  0  0  0  0  0  0  0  0  0  0
  150.9825  145.4889  158.6219 H   0  0  0  0  0  0  0  0  0  0  0  0
  152.4496  144.7321  157.9749 H   0  0  0  0  0  0  0  0  0  0  0  0
  149.4504  143.5624  157.6971 H   0  0  0  0  0  0  0  0  0  0  0  0
  150.9801  143.3820  156.8476 H   0  0  0  0  0  0  0  0  0  0  0  0
  151.1019  141.0776  158.2065 H   0  0  0  0  0  0  0  0  0  0  0  0
  149.3797  141.2555  158.3361 H   0  0  0  0  0  0  0  0  0  0  0  0
  150.9719  139.9735  154.7768 H   0  0  0  0  0  0  0  0  0  0  0  0
  152.0624  141.0313  155.6015 H   0  0  0  0  0  0  0  0  0  0  0  0
  152.7786  139.2591  156.9120 H   0  0  0  0  0  0  0  0  0  0  0  0
  151.1444  139.0058  157.4986 H   0  0  0  0  0  0  0  0  0  0  0  0
  148.1030  141.0887  152.4767 H   0  0  0  0  0  0  0  0  0  0  0  0
  145.3833  142.6520  158.0966 H   0  0  0  0  0  0  0  0  0  0  0  0
  143.9149  141.9120  154.8290 H   0  0  0  0  0  0  0  0  0  0  0  0
  143.5966  142.7332  156.3347 H   0  0  0  0  0  0  0  0  0  0  0  0
  145.5445  145.3063  155.4642 H   0  0  0  0  0  0  0  0  0  0  0  0
  146.2256  144.3131  153.8133 H   0  0  0  0  0  0  0  0  0  0  0  0
  145.1737  143.1398  153.0239 H   0  0  0  0  0  0  0  0  0  0  0  0
  144.8091  146.1618  153.0163 H   0  0  0  0  0  0  0  0  0  0  0  0
  144.8891  145.0847  151.6160 H   0  0  0  0  0  0  0  0  0  0  0  0
  142.3324  143.4870  153.8967 H   0  0  0  0  0  0  0  0  0  0  0  0
  141.7418  145.0001  155.8503 H   0  0  0  0  0  0  0  0  0  0  0  0
  141.0142  145.5017  154.3287 H   0  0  0  0  0  0  0  0  0  0  0  0
  142.4122  146.3628  154.9540 H   0  0  0  0  0  0  0  0  0  0  0  0
  1  2  1  0  0  0  0
  1 27  1  0  0  0  0
  1 28  1  0  0  0  0
  1 29  1  0  0  0  0
  2  3  1  0  0  0  0
  3  4  1  0  0  0  0
  3 30  1  0  0  0  0
  3 31  1  0  0  0  0
  4  5  1  0  0  0  0
  4 32  1  0  0  0  0
  4 33  1  0  0  0  0
  5  6  1  0  0  0  0
  5 10  1  0  0  0  0
  6  7  1  0  0  0  0
  6 34  1  0  0  0  0
  6 35  1  0  0  0  0
  7  8  1  0  0  0  0
  7 36  1  0  0  0  0
  7 37  1  0  0  0  0
  8  9  3  0  0  0  0
 10 15  1  0  0  0  0
 10 11  2  0  0  0  0
 11 12  1  0  0  0  0
 12 13  2  0  0  0  0
 12 38  1  0  0  0  0
 13 14  1  0  0  0  0
 14 18  1  0  0  0  0
 14 15  2  0  0  0  0
 15 16  1  0  0  0  0
 16 17  2  0  0  0  0
 17 18  1  0  0  0  0
 17 39  1  0  0  0  0
 18 19  1  0  0  0  0
 19 20  1  0  0  0  0
 19 40  1  0  0  0  0
 19 41  1  0  0  0  0
 20 25  1  0  0  0  0
 20 21  1  0  0  0  0
 20 22  1  0  0  0  0
 21 42  1  0  0  0  0
 22 23  1  0  0  0  0
 22 43  1  0  0  0  0
 22 44  1  0  0  0  0
 23 24  1  0  0  0  0
 23 45  1  0  0  0  0
 23 46  1  0  0  0  0
 24 25  1  0  0  0  0
 25 26  1  0  0  0  0
 25 47  1  0  0  0  0
 26 48  1  0  0  0  0
 26 49  1  0  0  0  0
 26 50  1  0  0  0  0
M  END
> <s_m_source_file>
AV-unprocessed.smi

> <i_m_source_file_index>
178

> <i_lp_mmshare_version>
43012

> <i_f3d_flags>
0

> <s_epik_input>
W0NIM11PW0NIMl1bQ0gyXU4oW0NIMl1bQ0gyXUMjTiljKG5bY0hdbjEpYyhjMTIpbltjSF1uMltDSDJdW0NAQF0zKFtPSF0pW0NIMl1bQ0gyXU9bQ0BIXTNbQ0gzXQ==

> <s_epik_cmdline>
J2VwaWtfcHl0aG9uJywgJy1waCcsICc3LjAnLCAnLXRuJywgJzgnLCAnLW1hJywgJzIwMCcsICctbWV0YWxfYmluZGluZycsICctaW1hZScsICc8aW5maWxlLm1hZT4nLCAnLW9tYWUnLCAnPG91dGZpbGUubWFlPic=

> <r_lp_tautomer_probability>
1

> <r_epik_Ionization_Penalty>
0.000885317

> <r_epik_Ionization_Penalty_Charging>
0

> <r_epik_Ionization_Penalty_Neutral>
0.000885317

> <r_epik_State_Penalty>
0.00047273

> <r_epik_Charging_Adjusted_Penalty>
0.00047273

> <i_epik_Tot_Q>
0

> <i_epik_Tot_abs_Q>
0

> <r_epik_Metal_State_Penalty>
-0

> <b_epik_Metal_Only>
0

> <s_lp_Force_Field>
OPLS_2005

> <r_lp_Energy>
28.3017

> <b_lp_Chiralities_Consistent>
1

> <s_lp_Variant>
AV-unprocessed.smi:178-3

> <Gold.Version>
5.8.1

> <Gold.Id.Protein>
6NUR|6NUR_protein|mol2

> <Gold.PLP.Fitness>
43.2713

> <Gold.PLP.PLP>
-39.5959

> <Gold.PLP.part.hbond>
-3.1379

> <Gold.PLP.part.metal>
0.0000

> <Gold.PLP.part.buried>
-1.6297

> <Gold.PLP.part.nonpolar>
-36.0066

> <Gold.PLP.part.repulsive>
1.1250

> <Gold.PLP.ligand.clash>
0.0000

> <Gold.PLP.ligand.torsion>
1.0751

> <Gold.PLP.Chemscore.Hbond>
1.0066

> <Gold.PLP.Chemscore.CHOScore>
0.8861

> <Gold.PLP.Chemscore.Metal>
0.0000

> <Gold.Chemscore.Hbonds>
donor molecule, donor type, donor heavy atom, donor atom, acceptor molecule, acceptor atom, score
      P1  H 10752 10764       L1     9  1.00
      L1  C    12    38       P1  7957  1.00

> <Gold.PLP.Chemscore.Internal.Correction>
0.1474

> <Gold.Rescore>
     Score         DG    S(hbond)    S(metal)    S(lipo)     H(rot)  DE(clash)    DE(int)     intcor
      4.80      -8.11       0.91        0.00      70.20       3.37       0.19       3.12       ----

> <Gold.Chemscore.Fitness>
4.8006

> <Gold.Chemscore.DG>
-8.1136

> <Gold.Chemscore.ZeroCoef>
-5.4800

> <Gold.Chemscore.Hbond>
0.9147

> <Gold.Chemscore.Metal>
0.0000

> <Gold.Chemscore.Lipo>
70.2034

> <Gold.Chemscore.Internal_Hbond>
0.0000

> <Gold.Chemscore.DEClash>
0.1947

> <Gold.Chemscore.DEInternal>
3.1183

> <Gold.Chemscore.Rot>
3.3732

> <Gold.Chemscore.Internal.Correction>
   9.000000E+99

> <Gold.Chemscore.Hbonds>
donor molecule, donor type, donor heavy atom, donor atom, acceptor molecule, acceptor atom, score
      P1  H 10752 10764       L1     9  0.98

> <Gold.Chemscore.Hbond.Weighted>
-3.0552

> <Gold.Chemscore.Metal.Weighted>
-0.0000

> <Gold.Chemscore.Lipo.Weighted>
-8.2138

> <Gold.Chemscore.Internal_Hbond.Weighted>
0.0000

> <Gold.Chemscore.DEClash.Weighted>
0.1947

> <Gold.Chemscore.DEInternal.Weighted>
3.1183

> <Gold.Chemscore.Rot.Weighted>
8.6354

> <Gold.Chemscore.Internal.Correction.Weighted>
   9.000000E+99

> <Gold.Protein.RotatedTorsions>
[ 6907 6896 6895 6894 ] final -110.13 input  -60.11 | X-H torsion
[ 7974 7965 7964 7962 ] final  106.94 input  175.53 | X-H torsion
[ 8008 7997 7996 7995 ] final -103.97 input   59.86 | X-H torsion
[ 10167 10162 10161 10158 ] final  107.26 input  -65.29 | X-H torsion
[ 10718 10713 10712 10709 ] final -172.03 input   66.30 | X-H torsion
[ 10763 10752 10751 10750 ] final  -62.22 input  -60.55 | X-H torsion
[ 11005 11000 10999 10996 ] final  127.24 input  -57.11 | X-H torsion

> <Gold.Protein.ActiveResidues>
 VAL166  LYS551  ARG553  GLY616  TRP617  ASP618  TYR619  PRO620  LYS621  CYS622 
 ASP623  PHE694  ASN695  SER759  ASP760  ASP761  ALA762  ILE779  LEU786  VAL792 
 PHE793  MET794  SER795  GLU796  ALA797  LYS798  CYS799  TRP800  GLU811  SER814 

> <Gold.Protein.RotatedAtoms>
  150.7605  133.9426  159.3460 H   0  0  0  0  0  0  0  0  0  0  0  0  # atno 6907 bound_to 6896
  151.7336  135.0867  160.0313 H   0  0  0  0  0  0  0  0  0  0  0  0  # atno 6908 bound_to 6896
  152.3574  133.6216  159.6025 H   0  0  0  0  0  0  0  0  0  0  0  0  # atno 6909 bound_to 6896
  145.3001  139.2572  143.3819 H   0  0  0  0  0  0  0  0  0  0  0  0  # atno 7974 bound_to 7965
  154.8786  140.0420  157.1768 H   0  0  0  0  0  0  0  0  0  0  0  0  # atno 8008 bound_to 7997
  154.8663  140.2951  155.5487 H   0  0  0  0  0  0  0  0  0  0  0  0  # atno 8009 bound_to 7997
  156.2999  140.2437  156.3645 H   0  0  0  0  0  0  0  0  0  0  0  0  # atno 8010 bound_to 7997
  139.6941  144.7104  151.1297 H   0  0  0  0  0  0  0  0  0  0  0  0  # atno 10167 bound_to 10162
  156.7495  130.9373  151.3114 H   0  0  0  0  0  0  0  0  0  0  0  0  # atno 10718 bound_to 10713
  154.2965  135.6243  153.5407 H   0  0  0  0  0  0  0  0  0  0  0  0  # atno 10763 bound_to 10752
  152.9846  135.5668  154.5331 H   0  0  0  0  0  0  0  0  0  0  0  0  # atno 10764 bound_to 10752
  154.4953  135.2869  155.1440 H   0  0  0  0  0  0  0  0  0  0  0  0  # atno 10765 bound_to 10752
  139.9497  134.9624  156.8826 H   0  0  0  0  0  0  0  0  0  0  0  0  # atno 11005 bound_to 11000
  146.3155  140.3513  142.8656 LP  0  0  0  0  0  0  0  0  0  0  0  0  # atno 17320 bound_to 7965
  144.9101  140.7747  143.5813 LP  0  0  0  0  0  0  0  0  0  0  0  0  # atno 17321 bound_to 7965
  140.7691  143.5517  150.9198 LP  0  0  0  0  0  0  0  0  0  0  0  0  # atno 17342 bound_to 10162
  139.9195  143.6623  152.3099 LP  0  0  0  0  0  0  0  0  0  0  0  0  # atno 17343 bound_to 10162
  157.6783  130.9115  150.0205 LP  0  0  0  0  0  0  0  0  0  0  0  0  # atno 17370 bound_to 10713
  156.1411  130.3642  149.9581 LP  0  0  0  0  0  0  0  0  0  0  0  0  # atno 17371 bound_to 10713
  140.5748  134.0409  155.7443 LP  0  0  0  0  0  0  0  0  0  0  0  0  # atno 17394 bound_to 11000
  141.1157  133.9544  157.2826 LP  0  0  0  0  0  0  0  0  0  0  0  0  # atno 17395 bound_to 11000

$$$$
