AV-unprocessed.smi:264|AV-procd|sdf|2007|dock1
  -GOLD-   2262021203D 1   1.00000     0.00000
 Structure written by MMmdl.
 52 56  0  0  0  0  0  0  0  0  1 V2000
  153.1971  138.5110  155.0706 C   0  0  0  0  0  0  0  0  0  0  0  0
  151.7959  138.4674  154.4413 C   0  0  2  0  0  0  0  0  0  0  0  0
  151.2528  139.7836  154.5122 O   0  0  0  0  0  0  0  0  0  0  0  0
  149.8457  139.6962  154.6483 C   0  0  0  0  0  0  0  0  0  0  0  0
  149.6805  138.5205  155.5988 C   0  0  0  0  0  0  0  0  0  0  0  0
  150.7494  137.5407  155.1231 C   0  0  1  0  0  0  0  0  0  0  0  0
  150.1751  136.7276  154.1131 O   0  0  0  0  0  0  0  0  0  0  0  0
  151.2796  136.6069  156.2430 C   0  0  0  0  0  0  0  0  0  0  0  0
  150.4117  136.5504  157.4100 N   0  0  0  0  0  0  0  0  0  0  0  0
  150.3113  137.4944  158.4067 C   0  0  0  0  0  0  0  0  0  0  0  0
  149.4575  137.2163  159.3536 N   0  0  0  0  0  0  0  0  0  0  0  0
  148.9169  135.9928  158.9754 C   0  0  0  0  0  0  0  0  0  0  0  0
  147.9426  135.1224  159.5412 C   0  0  0  0  0  0  0  0  0  0  0  0
  147.2850  135.4081  160.6939 N   0  0  0  0  0  0  0  0  0  0  0  0
  148.0154  136.2651  161.6196 C   0  0  0  0  0  0  0  0  0  0  0  0
  147.3451  136.2331  162.9998 C   0  0  0  0  0  0  0  0  0  0  0  0
  145.9701  136.5951  162.8825 O   0  0  0  0  0  0  0  0  0  0  0  0
  145.2098  135.7532  162.0099 C   0  0  1  0  0  0  0  0  0  0  0  0
  145.0124  134.3561  162.6113 C   0  0  0  0  0  0  0  0  0  0  0  0
  143.5211  134.0945  162.4504 C   0  0  0  0  0  0  0  0  0  0  0  0
  142.9658  135.3787  162.6612 O   0  0  0  0  0  0  0  0  0  0  0  0
  143.7712  136.3010  161.9418 C   0  0  0  0  0  0  0  0  0  0  0  0
  145.8649  135.7406  160.6092 C   0  0  0  0  0  0  0  0  0  0  0  0
  147.6799  133.9645  158.8771 N   0  0  0  0  0  0  0  0  0  0  0  0
  148.3121  133.6818  157.7346 C   0  0  0  0  0  0  0  0  0  0  0  0
  149.2314  134.4019  157.0897 N   0  0  0  0  0  0  0  0  0  0  0  0
  149.5099  135.5589  157.7556 C   0  0  0  0  0  0  0  0  0  0  0  0
  153.6805  137.5346  155.0368 H   0  0  0  0  0  0  0  0  0  0  0  0
  153.1598  138.8394  156.1097 H   0  0  0  0  0  0  0  0  0  0  0  0
  153.8374  139.2095  154.5315 H   0  0  0  0  0  0  0  0  0  0  0  0
  151.9020  138.2102  153.3858 H   0  0  0  0  0  0  0  0  0  0  0  0
  149.4208  140.6203  155.0408 H   0  0  0  0  0  0  0  0  0  0  0  0
  149.3916  139.4878  153.6785 H   0  0  0  0  0  0  0  0  0  0  0  0
  149.9061  138.8588  156.6107 H   0  0  0  0  0  0  0  0  0  0  0  0
  148.6707  138.1074  155.6033 H   0  0  0  0  0  0  0  0  0  0  0  0
  150.7632  136.7102  153.3734 H   0  0  0  0  0  0  0  0  0  0  0  0
  151.4027  135.5916  155.8641 H   0  0  0  0  0  0  0  0  0  0  0  0
  152.2642  136.9323  156.5792 H   0  0  0  0  0  0  0  0  0  0  0  0
  150.9007  138.3998  158.4116 H   0  0  0  0  0  0  0  0  0  0  0  0
  149.0567  135.9596  161.7159 H   0  0  0  0  0  0  0  0  0  0  0  0
  148.0194  137.2842  161.2304 H   0  0  0  0  0  0  0  0  0  0  0  0
  147.4478  135.2468  163.4537 H   0  0  0  0  0  0  0  0  0  0  0  0
  147.8373  136.9382  163.6695 H   0  0  0  0  0  0  0  0  0  0  0  0
  145.6265  133.5857  162.1438 H   0  0  0  0  0  0  0  0  0  0  0  0
  145.2488  134.3666  163.6762 H   0  0  0  0  0  0  0  0  0  0  0  0
  143.2871  133.7489  161.4420 H   0  0  0  0  0  0  0  0  0  0  0  0
  143.1394  133.3662  163.1660 H   0  0  0  0  0  0  0  0  0  0  0  0
  143.6783  137.3058  162.3548 H   0  0  0  0  0  0  0  0  0  0  0  0
  143.4106  136.3346  160.9123 H   0  0  0  0  0  0  0  0  0  0  0  0
  145.7628  136.7243  160.1482 H   0  0  0  0  0  0  0  0  0  0  0  0
  145.3488  135.0276  159.9642 H   0  0  0  0  0  0  0  0  0  0  0  0
  148.0415  132.7451  157.2703 H   0  0  0  0  0  0  0  0  0  0  0  0
  1  2  1  0  0  0  0
  1 28  1  0  0  0  0
  1 29  1  0  0  0  0
  1 30  1  0  0  0  0
  2  6  1  0  0  0  0
  2  3  1  0  0  0  0
  2 31  1  0  0  0  0
  3  4  1  0  0  0  0
  4  5  1  0  0  0  0
  4 32  1  0  0  0  0
  4 33  1  0  0  0  0
  5  6  1  0  0  0  0
  5 34  1  0  0  0  0
  5 35  1  0  0  0  0
  6  7  1  0  0  0  0
  6  8  1  0  0  0  0
  7 36  1  0  0  0  0
  8  9  1  0  0  0  0
  8 37  1  0  0  0  0
  8 38  1  0  0  0  0
  9 27  1  0  0  0  0
  9 10  1  0  0  0  0
 10 11  2  0  0  0  0
 10 39  1  0  0  0  0
 11 12  1  0  0  0  0
 12 27  2  0  0  0  0
 12 13  1  0  0  0  0
 13 14  1  0  0  0  0
 13 24  2  0  0  0  0
 14 23  1  0  0  0  0
 14 15  1  0  0  0  0
 15 16  1  0  0  0  0
 15 40  1  0  0  0  0
 15 41  1  0  0  0  0
 16 17  1  0  0  0  0
 16 42  1  0  0  0  0
 16 43  1  0  0  0  0
 17 18  1  0  0  0  0
 18 22  1  0  0  0  0
 18 19  1  0  0  0  0
 18 23  1  0  0  0  0
 19 20  1  0  0  0  0
 19 44  1  0  0  0  0
 19 45  1  0  0  0  0
 20 21  1  0  0  0  0
 20 46  1  0  0  0  0
 20 47  1  0  0  0  0
 21 22  1  0  0  0  0
 22 48  1  0  0  0  0
 22 49  1  0  0  0  0
 23 50  1  0  0  0  0
 23 51  1  0  0  0  0
 24 25  1  0  0  0  0
 25 26  2  0  0  0  0
 25 52  1  0  0  0  0
 26 27  1  0  0  0  0
M  END
> <s_m_source_file>
AV-unprocessed.smi

> <i_m_source_file_index>
264

> <i_lp_mmshare_version>
43012

> <i_f3d_flags>
0

> <s_epik_input>
W0NIMl0xW0NIMl1PW0NAQEhdKFtDSDNdKVtDQEBdMShbT0hdKVtDSDJdbihbY0hdbjIpYyhjMjMpbltjSF1uYzNOKFtDSDJdNClbQ0gyXVtDSDJdT1tDQF00NVtDSDJdW0NIMl1PW0NIMl01

> <s_epik_cmdline>
J2VwaWtfcHl0aG9uJywgJy1waCcsICc3LjAnLCAnLXRuJywgJzgnLCAnLW1hJywgJzIwMCcsICctbWV0YWxfYmluZGluZycsICctaW1hZScsICc8aW5maWxlLm1hZT4nLCAnLW9tYWUnLCAnPG91dGZpbGUubWFlPic=

> <r_lp_tautomer_probability>
1

> <r_epik_Ionization_Penalty>
0.00539389

> <r_epik_Ionization_Penalty_Charging>
0

> <r_epik_Ionization_Penalty_Neutral>
0.00539389

> <r_epik_State_Penalty>
0.00375441

> <r_epik_Charging_Adjusted_Penalty>
0.00375441

> <i_epik_Tot_Q>
0

> <i_epik_Tot_abs_Q>
0

> <r_epik_Metal_State_Penalty>
-0

> <b_epik_Metal_Only>
0

> <s_lp_Force_Field>
OPLS_2005

> <r_lp_Energy>
54.1721

> <b_lp_Chiralities_Consistent>
1

> <s_lp_Variant>
AV-unprocessed.smi:264-1

> <Gold.Version>
5.8.1

> <Gold.Id.Protein>
6NUR|6NUR_protein|mol2

> <Gold.PLP.Fitness>
36.3655

> <Gold.PLP.PLP>
-34.3739

> <Gold.PLP.part.hbond>
-3.1607

> <Gold.PLP.part.metal>
0.0000

> <Gold.PLP.part.buried>
-2.1756

> <Gold.PLP.part.nonpolar>
-28.9098

> <Gold.PLP.part.repulsive>
0.1886

> <Gold.PLP.ligand.clash>
0.0000

> <Gold.PLP.ligand.torsion>
1.6271

> <Gold.PLP.Chemscore.Hbond>
1.6448

> <Gold.PLP.Chemscore.CHOScore>
0.0000

> <Gold.PLP.Chemscore.Metal>
0.0000

> <Gold.Chemscore.Hbonds>
donor molecule, donor type, donor heavy atom, donor atom, acceptor molecule, acceptor atom, score
      L1  H     7    36       P1  7949  0.62
      P1  H  7989  7998       L1     3  0.99

> <Gold.PLP.Chemscore.Internal.Correction>
0.3113

> <Gold.Rescore>
     Score         DG    S(hbond)    S(metal)    S(lipo)     H(rot)  DE(clash)    DE(int)     intcor
     10.46     -13.96       1.05        0.00      88.68       2.11       0.54       2.96       ----

> <Gold.Chemscore.Fitness>
10.4595

> <Gold.Chemscore.DG>
-13.9612

> <Gold.Chemscore.ZeroCoef>
-5.4800

> <Gold.Chemscore.Hbond>
1.0473

> <Gold.Chemscore.Metal>
0.0000

> <Gold.Chemscore.Lipo>
88.6770

> <Gold.Chemscore.Internal_Hbond>
0.0000

> <Gold.Chemscore.DEClash>
0.5417

> <Gold.Chemscore.DEInternal>
2.9599

> <Gold.Chemscore.Rot>
2.1063

> <Gold.Chemscore.Internal.Correction>
   9.000000E+99

> <Gold.Chemscore.Hbonds>
donor molecule, donor type, donor heavy atom, donor atom, acceptor molecule, acceptor atom, score
      L1  H     7    36       P1  7949  0.06
      P1  H  7989  7998       L1     3  0.72

> <Gold.Chemscore.Hbond.Weighted>
-3.4981

> <Gold.Chemscore.Metal.Weighted>
-0.0000

> <Gold.Chemscore.Lipo.Weighted>
-10.3752

> <Gold.Chemscore.Internal_Hbond.Weighted>
0.0000

> <Gold.Chemscore.DEClash.Weighted>
0.5417

> <Gold.Chemscore.DEInternal.Weighted>
2.9599

> <Gold.Chemscore.Rot.Weighted>
5.3921

> <Gold.Chemscore.Internal.Correction.Weighted>
   9.000000E+99

> <Gold.Protein.RotatedTorsions>
[ 6907 6896 6895 6894 ] final   19.07 input  -60.11 | X-H torsion
[ 7974 7965 7964 7962 ] final -132.12 input  175.53 | X-H torsion
[ 8008 7997 7996 7995 ] final  -72.42 input   59.86 | X-H torsion
[ 10167 10162 10161 10158 ] final   42.67 input  -65.29 | X-H torsion
[ 10718 10713 10712 10709 ] final  134.96 input   66.30 | X-H torsion
[ 10763 10752 10751 10750 ] final  129.70 input  -60.55 | X-H torsion
[ 11005 11000 10999 10996 ] final -178.48 input  -57.11 | X-H torsion

> <Gold.Protein.ActiveResidues>
 VAL166  LYS551  ARG553  GLY616  TRP617  ASP618  TYR619  PRO620  LYS621  CYS622 
 ASP623  PHE694  ASN695  SER759  ASP760  ASP761  ALA762  ILE779  LEU786  VAL792 
 PHE793  MET794  SER795  GLU796  ALA797  LYS798  CYS799  TRP800  GLU811  SER814 

> <Gold.Protein.RotatedAtoms>
  151.8752  135.0474  160.0483 H   0  0  0  0  0  0  0  0  0  0  0  0  # atno 6907 bound_to 6896
  152.2557  133.5249  159.5360 H   0  0  0  0  0  0  0  0  0  0  0  0  # atno 6908 bound_to 6896
  150.7099  134.0816  159.3942 H   0  0  0  0  0  0  0  0  0  0  0  0  # atno 6909 bound_to 6896
  144.9315  140.7133  143.4903 H   0  0  0  0  0  0  0  0  0  0  0  0  # atno 7974 bound_to 7965
  154.5165  140.0797  156.8090 H   0  0  0  0  0  0  0  0  0  0  0  0  # atno 8008 bound_to 7997
  155.3670  140.3421  155.4224 H   0  0  0  0  0  0  0  0  0  0  0  0  # atno 8009 bound_to 7997
  156.1633  140.1595  156.8562 H   0  0  0  0  0  0  0  0  0  0  0  0  # atno 8010 bound_to 7997
  140.3521  144.2337  150.6145 H   0  0  0  0  0  0  0  0  0  0  0  0  # atno 10167 bound_to 10162
  157.4620  131.1074  150.9909 H   0  0  0  0  0  0  0  0  0  0  0  0  # atno 10718 bound_to 10713
  153.7460  135.3217  155.3313 H   0  0  0  0  0  0  0  0  0  0  0  0  # atno 10763 bound_to 10752
  154.8279  135.4556  154.0979 H   0  0  0  0  0  0  0  0  0  0  0  0  # atno 10764 bound_to 10752
  153.2168  135.6943  153.8130 H   0  0  0  0  0  0  0  0  0  0  0  0  # atno 10765 bound_to 10752
  140.4292  134.6534  157.4703 H   0  0  0  0  0  0  0  0  0  0  0  0  # atno 11005 bound_to 11000
  145.3135  139.1811  143.4626 LP  0  0  0  0  0  0  0  0  0  0  0  0  # atno 17320 bound_to 7965
  146.3249  140.3142  142.8629 LP  0  0  0  0  0  0  0  0  0  0  0  0  # atno 17321 bound_to 7965
  140.5209  143.2266  151.8390 LP  0  0  0  0  0  0  0  0  0  0  0  0  # atno 17342 bound_to 10162
  139.4825  144.4838  151.9273 LP  0  0  0  0  0  0  0  0  0  0  0  0  # atno 17343 bound_to 10162
  157.0703  130.5861  149.5401 LP  0  0  0  0  0  0  0  0  0  0  0  0  # atno 17370 bound_to 10713
  156.0033  130.5115  150.7740 LP  0  0  0  0  0  0  0  0  0  0  0  0  # atno 17371 bound_to 10713
  140.0146  134.6639  155.9329 LP  0  0  0  0  0  0  0  0  0  0  0  0  # atno 17394 bound_to 11000
  141.1752  133.6540  156.4802 LP  0  0  0  0  0  0  0  0  0  0  0  0  # atno 17395 bound_to 11000

$$$$
