AV-unprocessed.smi:37|AV-procd|sdf|308|dock4
  -GOLD-   2262016123D 1   1.00000     0.00000
 Structure written by MMmdl.
 44 45  0  0  0  0  0  0  0  0  1 V2000
  146.4923  135.1246  162.3950 C   0  0  0  0  0  0  0  0  0  0  0  0
  147.7034  135.0713  161.4547 C   0  0  0  0  0  0  0  0  0  0  0  0
  147.7441  136.2608  160.4983 C   0  0  0  0  0  0  0  0  0  0  0  0
  147.8190  137.4165  160.9154 O   0  0  0  0  0  0  0  0  0  0  0  0
  147.7054  135.8875  159.2088 O   0  0  0  0  0  0  0  0  0  0  0  0
  148.0088  136.8241  158.1869 C   0  0  0  0  0  0  0  0  0  0  0  0
  149.5327  137.0215  158.0995 C   0  0  1  0  0  0  0  0  0  0  0  0
  150.1088  135.7325  157.8738 O   0  0  0  0  0  0  0  0  0  0  0  0
  150.7703  135.7123  156.6466 C   0  0  1  0  0  0  0  0  0  0  0  0
  150.4904  134.3886  155.9770 N   0  0  0  0  0  0  0  0  0  0  0  0
  149.6436  134.3229  154.8793 C   0  0  0  0  0  0  0  0  0  0  0  0
  149.3339  133.1626  154.2544 C   0  0  0  0  0  0  0  0  0  0  0  0
  148.5068  133.1793  153.1955 F   0  0  0  0  0  0  0  0  0  0  0  0
  149.8863  131.8951  154.7232 C   0  0  0  0  0  0  0  0  0  0  0  0
  149.6679  130.7934  154.2231 O   0  0  0  0  0  0  0  0  0  0  0  0
  150.7238  132.0079  155.8369 N   0  0  0  0  0  0  0  0  0  0  0  0
  151.0504  133.1975  156.4914 C   0  0  0  0  0  0  0  0  0  0  0  0
  151.8038  133.1721  157.4633 O   0  0  0  0  0  0  0  0  0  0  0  0
  150.2368  136.8835  155.8315 C   0  0  2  0  0  0  0  0  0  0  0  0
  151.5616  137.5180  154.4882 Br  0  0  0  0  0  0  0  0  0  0  0  0
  150.0116  137.9012  156.9266 C   0  0  1  0  0  0  0  0  0  0  0  0
  149.0814  138.8880  156.4986 O   0  0  0  0  0  0  0  0  0  0  0  0
  149.4230  139.7759  155.5471 C   0  0  0  0  0  0  0  0  0  0  0  0
  150.5147  139.8459  154.9828 O   0  0  0  0  0  0  0  0  0  0  0  0
  148.2995  140.7602  155.2303 C   0  0  0  0  0  0  0  0  0  0  0  0
  147.9351  140.7675  153.7398 C   0  0  0  0  0  0  0  0  0  0  0  0
  151.1271  131.1558  156.1986 H   0  0  0  0  0  0  0  0  0  0  0  0
  146.5052  134.2801  163.0838 H   0  0  0  0  0  0  0  0  0  0  0  0
  145.5534  135.0839  161.8417 H   0  0  0  0  0  0  0  0  0  0  0  0
  146.4936  136.0374  162.9918 H   0  0  0  0  0  0  0  0  0  0  0  0
  148.6247  135.0542  162.0374 H   0  0  0  0  0  0  0  0  0  0  0  0
  147.6813  134.1512  160.8701 H   0  0  0  0  0  0  0  0  0  0  0  0
  147.6306  136.4244  157.2454 H   0  0  0  0  0  0  0  0  0  0  0  0
  147.5136  137.7818  158.3525 H   0  0  0  0  0  0  0  0  0  0  0  0
  149.9074  137.4100  159.0470 H   0  0  0  0  0  0  0  0  0  0  0  0
  151.8390  135.7943  156.8494 H   0  0  0  0  0  0  0  0  0  0  0  0
  149.2055  135.2351  154.5012 H   0  0  0  0  0  0  0  0  0  0  0  0
  149.3070  136.6200  155.3261 H   0  0  0  0  0  0  0  0  0  0  0  0
  150.9749  138.3457  157.1830 H   0  0  0  0  0  0  0  0  0  0  0  0
  147.4248  140.5008  155.8273 H   0  0  0  0  0  0  0  0  0  0  0  0
  148.6090  141.7585  155.5406 H   0  0  0  0  0  0  0  0  0  0  0  0
  147.1676  141.5144  153.5361 H   0  0  0  0  0  0  0  0  0  0  0  0
  147.5462  139.8007  153.4181 H   0  0  0  0  0  0  0  0  0  0  0  0
  148.8005  141.0059  153.1204 H   0  0  0  0  0  0  0  0  0  0  0  0
  1  2  1  0  0  0  0
  1 28  1  0  0  0  0
  1 29  1  0  0  0  0
  1 30  1  0  0  0  0
  2  3  1  0  0  0  0
  2 31  1  0  0  0  0
  2 32  1  0  0  0  0
  3  4  2  0  0  0  0
  3  5  1  0  0  0  0
  5  6  1  0  0  0  0
  6  7  1  0  0  0  0
  6 33  1  0  0  0  0
  6 34  1  0  0  0  0
  7 21  1  0  0  0  0
  7  8  1  0  0  0  0
  7 35  1  0  0  0  0
  8  9  1  0  0  0  0
  9 10  1  0  0  0  0
  9 19  1  0  0  0  0
  9 36  1  0  0  0  0
 10 17  1  0  0  0  0
 10 11  1  0  0  0  0
 11 12  2  0  0  0  0
 11 37  1  0  0  0  0
 12 13  1  0  0  0  0
 12 14  1  0  0  0  0
 14 15  2  0  0  0  0
 14 16  1  0  0  0  0
 16 27  1  0  0  0  0
 16 17  1  0  0  0  0
 17 18  2  0  0  0  0
 19 20  1  0  0  0  0
 19 21  1  0  0  0  0
 19 38  1  0  0  0  0
 21 22  1  0  0  0  0
 21 39  1  0  0  0  0
 22 23  1  0  0  0  0
 23 24  2  0  0  0  0
 23 25  1  0  0  0  0
 25 26  1  0  0  0  0
 25 40  1  0  0  0  0
 25 41  1  0  0  0  0
 26 42  1  0  0  0  0
 26 43  1  0  0  0  0
 26 44  1  0  0  0  0
M  END
> <s_m_source_file>
AV-unprocessed.smi

> <i_m_source_file_index>
37

> <i_lp_mmshare_version>
43012

> <i_f3d_flags>
0

> <s_epik_input>
W0NIM11bQ0gyXUMoPU8pT1tDSDJdW0NAQEhdMU9bQ0BASF0objJbY0hdYyhGKWMoPU8pW25IXWMyPU8pW0NAQEhdKEJyKVtDQEhdMU9DKD1PKVtDSDJdW0NIM10=

> <s_epik_cmdline>
J2VwaWtfcHl0aG9uJywgJy1waCcsICc3LjAnLCAnLXRuJywgJzgnLCAnLW1hJywgJzIwMCcsICctbWV0YWxfYmluZGluZycsICctaW1hZScsICc8aW5maWxlLm1hZT4nLCAnLW9tYWUnLCAnPG91dGZpbGUubWFlPic=

> <r_lp_tautomer_probability>
0.999537

> <r_epik_Ionization_Penalty>
0.104106

> <r_epik_Ionization_Penalty_Charging>
0.104106

> <r_epik_Ionization_Penalty_Neutral>
3.94675e-16

> <r_epik_State_Penalty>
0.0940182

> <r_epik_Charging_Adjusted_Penalty>
0.198124

> <i_epik_Tot_Q>
0

> <i_epik_Tot_abs_Q>
0

> <r_epik_Metal_State_Penalty>
3.05314

> <b_epik_Metal_Only>
0

> <s_epik_Chemistry_Notes>
This compound has an ester and may undergo hydrolysis at high or low pH. This compound contains an acetal/aminal-like group ( X-CH(R)-Y where X, Y are N, S, or O) that may be acid/base labile, releasing an aldehyde.

> <s_lp_Force_Field>
OPLS_2005

> <r_lp_Energy>
26.2696

> <b_lp_Chiralities_Consistent>
1

> <s_lp_Variant>
AV-unprocessed.smi:37-6

> <Gold.Version>
5.8.1

> <Gold.Id.Protein>
6NUR|6NUR_protein|mol2

> <Gold.PLP.Fitness>
51.0989

> <Gold.PLP.PLP>
-38.8408

> <Gold.PLP.part.hbond>
-4.6777

> <Gold.PLP.part.metal>
0.0000

> <Gold.PLP.part.buried>
-4.0485

> <Gold.PLP.part.nonpolar>
-29.5168

> <Gold.PLP.part.repulsive>
0.1609

> <Gold.PLP.ligand.clash>
0.0000

> <Gold.PLP.ligand.torsion>
0.4689

> <Gold.PLP.Chemscore.Hbond>
3.6842

> <Gold.PLP.Chemscore.CHOScore>
0.6279

> <Gold.PLP.Chemscore.Metal>
0.0000

> <Gold.Chemscore.Hbonds>
donor molecule, donor type, donor heavy atom, donor atom, acceptor molecule, acceptor atom, score
      P1  H  6896  6908       L1    18  0.64
      P1  H  6896  6909       L1     8  0.68
      P1  H  6931  6943       L1     4  0.77
      P1  H  6934  6947       L1     4  0.80
      P1  H  7989  7998       L1    24  0.78
      L1  C    11    37       P1  7948  0.32

> <Gold.PLP.Chemscore.Internal.Correction>
0.2594

> <Gold.Rescore>
     Score         DG    S(hbond)    S(metal)    S(lipo)     H(rot)  DE(clash)    DE(int)     intcor
     12.85     -15.03       3.39        0.00      57.75       3.33       0.10       2.08       ----

> <Gold.Chemscore.Fitness>
12.8489

> <Gold.Chemscore.DG>
-15.0296

> <Gold.Chemscore.ZeroCoef>
-5.4800

> <Gold.Chemscore.Hbond>
3.3886

> <Gold.Chemscore.Metal>
0.0000

> <Gold.Chemscore.Lipo>
57.7533

> <Gold.Chemscore.Internal_Hbond>
0.0000

> <Gold.Chemscore.DEClash>
0.1022

> <Gold.Chemscore.DEInternal>
2.0786

> <Gold.Chemscore.Rot>
3.3303

> <Gold.Chemscore.Internal.Correction>
   9.000000E+99

> <Gold.Chemscore.Hbonds>
donor molecule, donor type, donor heavy atom, donor atom, acceptor molecule, acceptor atom, score
      P1  H  6896  6908       L1    18  0.64
      P1  H  6896  6909       L1     8  0.64
      P1  H  6931  6943       L1     4  0.78
      P1  H  6934  6947       L1     4  0.80
      P1  H  7989  7998       L1    24  0.77

> <Gold.Chemscore.Hbond.Weighted>
-11.3181

> <Gold.Chemscore.Metal.Weighted>
-0.0000

> <Gold.Chemscore.Lipo.Weighted>
-6.7571

> <Gold.Chemscore.Internal_Hbond.Weighted>
0.0000

> <Gold.Chemscore.DEClash.Weighted>
0.1022

> <Gold.Chemscore.DEInternal.Weighted>
2.0786

> <Gold.Chemscore.Rot.Weighted>
8.5256

> <Gold.Chemscore.Internal.Correction.Weighted>
   9.000000E+99

> <Gold.Protein.RotatedTorsions>
[ 6907 6896 6895 6894 ] final   51.25 input  -60.11 | X-H torsion
[ 7974 7965 7964 7962 ] final  178.79 input  175.53 | X-H torsion
[ 8008 7997 7996 7995 ] final   41.89 input   59.86 | X-H torsion
[ 10167 10162 10161 10158 ] final  100.95 input  -65.29 | X-H torsion
[ 10718 10713 10712 10709 ] final  -47.25 input   66.30 | X-H torsion
[ 10763 10752 10751 10750 ] final  -89.29 input  -60.55 | X-H torsion
[ 11005 11000 10999 10996 ] final -112.02 input  -57.11 | X-H torsion

> <Gold.Protein.ActiveResidues>
 VAL166  LYS551  ARG553  GLY616  TRP617  ASP618  TYR619  PRO620  LYS621  CYS622 
 ASP623  PHE694  ASN695  SER759  ASP760  ASP761  ALA762  ILE779  LEU786  VAL792 
 PHE793  MET794  SER795  GLU796  ALA797  LYS798  CYS799  TRP800  GLU811  SER814 

> <Gold.Protein.RotatedAtoms>
  152.3106  134.7502  160.0337 H   0  0  0  0  0  0  0  0  0  0  0  0  # atno 6907 bound_to 6896
  151.7984  133.3362  159.3527 H   0  0  0  0  0  0  0  0  0  0  0  0  # atno 6908 bound_to 6896
  150.7318  134.5707  159.5933 H   0  0  0  0  0  0  0  0  0  0  0  0  # atno 6909 bound_to 6896
  144.7152  140.0451  143.6436 H   0  0  0  0  0  0  0  0  0  0  0  0  # atno 7974 bound_to 7965
  155.2771  140.3370  155.4261 H   0  0  0  0  0  0  0  0  0  0  0  0  # atno 8008 bound_to 7997
  156.2107  140.1768  156.7743 H   0  0  0  0  0  0  0  0  0  0  0  0  # atno 8009 bound_to 7997
  154.5682  140.0675  156.8908 H   0  0  0  0  0  0  0  0  0  0  0  0  # atno 8010 bound_to 7997
  139.7481  144.6992  151.0473 H   0  0  0  0  0  0  0  0  0  0  0  0  # atno 10167 bound_to 10162
  156.2102  130.4160  149.9124 H   0  0  0  0  0  0  0  0  0  0  0  0  # atno 10718 bound_to 10713
  154.6537  135.5346  153.7932 H   0  0  0  0  0  0  0  0  0  0  0  0  # atno 10763 bound_to 10752
  153.0401  135.6488  154.0978 H   0  0  0  0  0  0  0  0  0  0  0  0  # atno 10764 bound_to 10752
  154.0893  135.2941  155.3254 H   0  0  0  0  0  0  0  0  0  0  0  0  # atno 10765 bound_to 10752
  141.0700  133.9396  157.2504 H   0  0  0  0  0  0  0  0  0  0  0  0  # atno 11005 bound_to 11000
  145.9991  139.3076  143.0938 LP  0  0  0  0  0  0  0  0  0  0  0  0  # atno 17320 bound_to 7965
  145.8814  140.9360  143.0599 LP  0  0  0  0  0  0  0  0  0  0  0  0  # atno 17321 bound_to 7965
  140.7794  143.4842  150.9978 LP  0  0  0  0  0  0  0  0  0  0  0  0  # atno 17342 bound_to 10162
  139.8529  143.7414  152.3177 LP  0  0  0  0  0  0  0  0  0  0  0  0  # atno 17343 bound_to 10162
  156.6805  130.8856  151.3575 LP  0  0  0  0  0  0  0  0  0  0  0  0  # atno 17370 bound_to 10713
  157.7034  130.9358  150.0856 LP  0  0  0  0  0  0  0  0  0  0  0  0  # atno 17371 bound_to 10713
  139.9514  135.0174  156.9004 LP  0  0  0  0  0  0  0  0  0  0  0  0  # atno 17394 bound_to 11000
  140.5694  134.0458  155.7425 LP  0  0  0  0  0  0  0  0  0  0  0  0  # atno 17395 bound_to 11000

$$$$
