AV-unprocessed.smi:2752|AV-procd|sdf|10608|dock8
  -GOLD-   2272015 63D 1   1.00000     0.00000
 Structure written by MMmdl.
 34 35  0  0  0  0  0  0  0  0  1 V2000
  153.2568  141.5989  160.0932 C   0  0  0  0  0  0  0  0  0  0  0  0
  151.8747  141.6111  159.7736 O   0  0  0  0  0  0  0  0  0  0  0  0
  151.3962  142.8804  159.3498 C   0  0  1  0  0  0  0  0  0  0  0  0
  151.8506  144.0094  160.2854 C   0  0  0  0  0  0  0  0  0  0  0  0
  151.9805  145.2271  159.3781 C   0  0  0  0  0  0  0  0  0  0  0  0
  152.5467  144.6564  158.0793 C   0  0  0  0  0  0  0  0  0  0  0  0
  151.9736  143.2299  157.9608 C   0  0  2  0  0  0  0  0  0  0  0  0
  150.9314  143.1620  156.9393 N   0  0  0  0  0  0  0  0  0  0  0  0
  150.3770  142.0326  156.4765 C   0  0  0  0  0  0  0  0  0  0  0  0
  150.6999  140.9095  156.8649 O   0  0  0  0  0  0  0  0  0  0  0  0
  149.4406  142.2966  155.5484 N   0  0  0  0  0  0  0  0  0  0  0  0
  148.6481  141.3754  154.8133 C   0  0  0  0  0  0  0  0  0  0  0  0
  149.1663  140.0620  154.7449 C   0  0  0  0  0  0  0  0  0  0  0  0
  148.4542  139.0716  154.0405 C   0  0  0  0  0  0  0  0  0  0  0  0
  147.2405  139.4222  153.4236 C   0  0  0  0  0  0  0  0  0  0  0  0
  146.5209  138.5043  152.7355 F   0  0  0  0  0  0  0  0  0  0  0  0
  146.7935  140.7513  153.5393 C   0  0  0  0  0  0  0  0  0  0  0  0
  147.4756  141.7016  154.2135 N   0  0  0  0  0  0  0  0  0  0  0  0
  153.5451  140.6005  160.4213 H   0  0  0  0  0  0  0  0  0  0  0  0
  153.4797  142.2944  160.9030 H   0  0  0  0  0  0  0  0  0  0  0  0
  153.8723  141.8566  159.2307 H   0  0  0  0  0  0  0  0  0  0  0  0
  150.3049  142.8738  159.3029 H   0  0  0  0  0  0  0  0  0  0  0  0
  151.1600  144.1746  161.1128 H   0  0  0  0  0  0  0  0  0  0  0  0
  152.8275  143.7711  160.7092 H   0  0  0  0  0  0  0  0  0  0  0  0
  150.9952  145.6572  159.1942 H   0  0  0  0  0  0  0  0  0  0  0  0
  152.6125  146.0059  159.8056 H   0  0  0  0  0  0  0  0  0  0  0  0
  152.3235  145.2915  157.2210 H   0  0  0  0  0  0  0  0  0  0  0  0
  153.6331  144.5987  158.1585 H   0  0  0  0  0  0  0  0  0  0  0  0
  152.7789  142.5381  157.7051 H   0  0  0  0  0  0  0  0  0  0  0  0
  150.6063  144.0411  156.5652 H   0  0  0  0  0  0  0  0  0  0  0  0
  149.2796  143.2707  155.3398 H   0  0  0  0  0  0  0  0  0  0  0  0
  150.1006  139.8111  155.2258 H   0  0  0  0  0  0  0  0  0  0  0  0
  148.8330  138.0623  153.9761 H   0  0  0  0  0  0  0  0  0  0  0  0
  145.8661  141.0605  153.0805 H   0  0  0  0  0  0  0  0  0  0  0  0
  1  2  1  0  0  0  0
  1 19  1  0  0  0  0
  1 20  1  0  0  0  0
  1 21  1  0  0  0  0
  2  3  1  0  0  0  0
  3  7  1  0  0  0  0
  3  4  1  0  0  0  0
  3 22  1  0  0  0  0
  4  5  1  0  0  0  0
  4 23  1  0  0  0  0
  4 24  1  0  0  0  0
  5  6  1  0  0  0  0
  5 25  1  0  0  0  0
  5 26  1  0  0  0  0
  6  7  1  0  0  0  0
  6 27  1  0  0  0  0
  6 28  1  0  0  0  0
  7  8  1  0  0  0  0
  7 29  1  0  0  0  0
  8  9  1  0  0  0  0
  8 30  1  0  0  0  0
  9 10  2  0  0  0  0
  9 11  1  0  0  0  0
 11 12  1  0  0  0  0
 11 31  1  0  0  0  0
 12 18  1  0  0  0  0
 12 13  2  0  0  0  0
 13 14  1  0  0  0  0
 13 32  1  0  0  0  0
 14 15  2  0  0  0  0
 14 33  1  0  0  0  0
 15 16  1  0  0  0  0
 15 17  1  0  0  0  0
 17 18  2  0  0  0  0
 17 34  1  0  0  0  0
M  END
> <s_m_source_file>
AV-unprocessed.smi

> <i_m_source_file_index>
2752

> <i_lp_mmshare_version>
43012

> <i_f3d_flags>
0

> <s_epik_input>
W0NIM11PW0NAQEhdMVtDSDJdW0NIMl1bQ0gyXVtDQEhdMVtOSF1DKD1PKVtOSF1jMltjSF1bY0hdYyhGKVtjSF1uMg==

> <s_epik_cmdline>
J2VwaWtfcHl0aG9uJywgJy1waCcsICc3LjAnLCAnLXRuJywgJzgnLCAnLW1hJywgJzIwMCcsICctbWV0YWxfYmluZGluZycsICctaW1hZScsICc8aW5maWxlLm1hZT4nLCAnLW9tYWUnLCAnPG91dGZpbGUubWFlPic=

> <r_lp_tautomer_probability>
1

> <r_epik_Ionization_Penalty>
3.49853e-05

> <r_epik_Ionization_Penalty_Charging>
0

> <r_epik_Ionization_Penalty_Neutral>
3.49853e-05

> <r_epik_State_Penalty>
-0

> <r_epik_Charging_Adjusted_Penalty>
0

> <i_epik_Tot_Q>
0

> <i_epik_Tot_abs_Q>
0

> <r_epik_Metal_State_Penalty>
-0

> <b_epik_Metal_Only>
0

> <s_lp_Force_Field>
OPLS_2005

> <r_lp_Energy>
21.736

> <b_lp_Chiralities_Consistent>
1

> <s_lp_Variant>
AV-unprocessed.smi:2752-4

> <Gold.Version>
5.8.1

> <Gold.Id.Protein>
6NUR|6NUR_protein|mol2

> <Gold.PLP.Fitness>
48.5862

> <Gold.PLP.PLP>
-40.8600

> <Gold.PLP.part.hbond>
-1.8642

> <Gold.PLP.part.metal>
0.0000

> <Gold.PLP.part.buried>
-3.3791

> <Gold.PLP.part.nonpolar>
-37.0523

> <Gold.PLP.part.repulsive>
0.4032

> <Gold.PLP.ligand.clash>
0.0000

> <Gold.PLP.ligand.torsion>
0.2650

> <Gold.PLP.Chemscore.Hbond>
1.7520

> <Gold.PLP.Chemscore.CHOScore>
0.9984

> <Gold.PLP.Chemscore.Metal>
0.0000

> <Gold.Chemscore.Hbonds>
donor molecule, donor type, donor heavy atom, donor atom, acceptor molecule, acceptor atom, score
      L1  H     8    30       P1  8028  0.73
      L1  H    11    31       P1  8028  0.99
      L1  C    17    34       P1 10175  1.00

> <Gold.PLP.Chemscore.Internal.Correction>
0.0050

> <Gold.Rescore>
     Score         DG    S(hbond)    S(metal)    S(lipo)     H(rot)  DE(clash)    DE(int)     intcor
     17.74     -19.40       1.86        0.00      93.83       1.28       0.02       1.64       ----

> <Gold.Chemscore.Fitness>
17.7412

> <Gold.Chemscore.DG>
-19.4036

> <Gold.Chemscore.ZeroCoef>
-5.4800

> <Gold.Chemscore.Hbond>
1.8644

> <Gold.Chemscore.Metal>
0.0000

> <Gold.Chemscore.Lipo>
93.8334

> <Gold.Chemscore.Internal_Hbond>
0.0000

> <Gold.Chemscore.DEClash>
0.0177

> <Gold.Chemscore.DEInternal>
1.6446

> <Gold.Chemscore.Rot>
1.2821

> <Gold.Chemscore.Internal.Correction>
   9.000000E+99

> <Gold.Chemscore.Hbonds>
donor molecule, donor type, donor heavy atom, donor atom, acceptor molecule, acceptor atom, score
      L1  H     8    30       P1  8028  0.68
      L1  H    11    31       P1  8028  0.91

> <Gold.Chemscore.Hbond.Weighted>
-6.2273

> <Gold.Chemscore.Metal.Weighted>
-0.0000

> <Gold.Chemscore.Lipo.Weighted>
-10.9785

> <Gold.Chemscore.Internal_Hbond.Weighted>
0.0000

> <Gold.Chemscore.DEClash.Weighted>
0.0177

> <Gold.Chemscore.DEInternal.Weighted>
1.6446

> <Gold.Chemscore.Rot.Weighted>
3.2822

> <Gold.Chemscore.Internal.Correction.Weighted>
   9.000000E+99

> <Gold.Protein.RotatedTorsions>
[ 6907 6896 6895 6894 ] final  -91.50 input  -60.11 | X-H torsion
[ 7974 7965 7964 7962 ] final   22.00 input  175.53 | X-H torsion
[ 8008 7997 7996 7995 ] final   62.78 input   59.86 | X-H torsion
[ 10167 10162 10161 10158 ] final  -67.62 input  -65.29 | X-H torsion
[ 10718 10713 10712 10709 ] final   77.85 input   66.30 | X-H torsion
[ 10763 10752 10751 10750 ] final   98.57 input  -60.55 | X-H torsion
[ 11005 11000 10999 10996 ] final  129.36 input  -57.11 | X-H torsion

> <Gold.Protein.ActiveResidues>
 VAL166  LYS551  ARG553  GLY616  TRP617  ASP618  TYR619  PRO620  LYS621  CYS622 
 ASP623  PHE694  ASN695  SER759  ASP760  ASP761  ALA762  ILE779  LEU786  VAL792 
 PHE793  MET794  SER795  GLU796  ALA797  LYS798  CYS799  TRP800  GLU811  SER814 

> <Gold.Protein.RotatedAtoms>
  150.6893  134.2268  159.4418 H   0  0  0  0  0  0  0  0  0  0  0  0  # atno 6907 bound_to 6896
  152.0221  134.9814  160.0580 H   0  0  0  0  0  0  0  0  0  0  0  0  # atno 6908 bound_to 6896
  152.1387  133.4416  159.4793 H   0  0  0  0  0  0  0  0  0  0  0  0  # atno 6909 bound_to 6896
  146.2048  139.7947  142.8734 H   0  0  0  0  0  0  0  0  0  0  0  0  # atno 7974 bound_to 7965
  155.6197  140.3495  155.4648 H   0  0  0  0  0  0  0  0  0  0  0  0  # atno 8008 bound_to 7997
  156.0089  140.1229  157.0498 H   0  0  0  0  0  0  0  0  0  0  0  0  # atno 8009 bound_to 7997
  154.4274  140.1085  156.5787 H   0  0  0  0  0  0  0  0  0  0  0  0  # atno 8010 bound_to 7997
  140.5569  143.2312  151.6804 H   0  0  0  0  0  0  0  0  0  0  0  0  # atno 10167 bound_to 10162
  157.6725  130.9841  150.1701 H   0  0  0  0  0  0  0  0  0  0  0  0  # atno 10718 bound_to 10713
  153.2907  135.4143  155.1164 H   0  0  0  0  0  0  0  0  0  0  0  0  # atno 10763 bound_to 10752
  154.8519  135.3517  154.5985 H   0  0  0  0  0  0  0  0  0  0  0  0  # atno 10764 bound_to 10752
  153.6407  135.7057  153.5300 H   0  0  0  0  0  0  0  0  0  0  0  0  # atno 10765 bound_to 10752
  139.9611  134.9602  156.9136 H   0  0  0  0  0  0  0  0  0  0  0  0  # atno 11005 bound_to 11000
  145.3359  141.0277  143.3420 LP  0  0  0  0  0  0  0  0  0  0  0  0  # atno 17320 bound_to 7965
  144.8766  139.4963  143.6743 LP  0  0  0  0  0  0  0  0  0  0  0  0  # atno 17321 bound_to 7965
  139.5052  144.3726  152.0455 LP  0  0  0  0  0  0  0  0  0  0  0  0  # atno 17342 bound_to 10162
  140.2849  144.3818  150.6107 LP  0  0  0  0  0  0  0  0  0  0  0  0  # atno 17343 bound_to 10162
  156.2457  130.3695  149.8287 LP  0  0  0  0  0  0  0  0  0  0  0  0  # atno 17370 bound_to 10713
  156.6074  130.8572  151.3446 LP  0  0  0  0  0  0  0  0  0  0  0  0  # atno 17371 bound_to 10713
  140.5498  134.0638  155.7366 LP  0  0  0  0  0  0  0  0  0  0  0  0  # atno 17394 bound_to 11000
  141.1288  133.9337  157.2579 LP  0  0  0  0  0  0  0  0  0  0  0  0  # atno 17395 bound_to 11000

$$$$
