AV-unprocessed.smi:2675|AV-procd|sdf|10363|dock5
  -GOLD-   2272014393D 1   1.00000     0.00000
 Structure written by MMmdl.
 36 37  0  0  0  0  0  0  0  0  1 V2000
  152.5457  143.8700  162.2826 C   0  0  0  0  0  0  0  0  0  0  0  0
  152.0331  144.1063  160.8949 C   0  0  0  0  0  0  0  0  0  0  0  0
  151.0182  145.0320  160.6645 N   0  0  0  0  0  0  0  0  0  0  0  0
  150.8277  144.9752  159.3546 C   0  0  0  0  0  0  0  0  0  0  0  0
  151.6190  144.1036  158.7142 N   0  0  0  0  0  0  0  0  0  0  0  0
  151.6214  143.8280  157.2872 C   0  0  0  0  0  0  0  0  0  0  0  0
  151.0486  142.4408  156.9963 C   0  0  0  0  0  0  0  0  0  0  0  0
  151.6378  141.4397  157.4004 O   0  0  0  0  0  0  0  0  0  0  0  0
  149.9020  142.4083  156.2948 N   0  0  0  0  0  0  0  0  0  0  0  0
  149.1023  141.2406  155.9027 C   0  0  2  0  0  0  0  0  0  0  0  0
  148.8835  140.4274  157.1896 C   0  0  0  0  0  0  0  0  0  0  0  0
  149.8261  140.3791  154.9470 C   0  0  0  0  0  0  0  0  0  0  0  0
  150.3960  139.7033  154.1997 N   0  0  0  0  0  0  0  0  0  0  0  0
  147.7353  141.5599  155.2927 C   0  0  0  0  0  0  0  0  0  0  0  0
  147.0039  140.6543  154.3261 C   0  0  0  0  0  0  0  0  0  0  0  0
  147.5696  141.9730  153.8474 C   0  0  0  0  0  0  0  0  0  0  0  0
  152.4140  143.5241  159.7024 C   0  0  0  0  0  0  0  0  0  0  0  0
  153.4472  142.4818  159.4118 C   0  0  0  0  0  0  0  0  0  0  0  0
  153.3345  143.1190  162.3056 H   0  0  0  0  0  0  0  0  0  0  0  0
  151.7476  143.5261  162.9408 H   0  0  0  0  0  0  0  0  0  0  0  0
  152.9544  144.7859  162.7100 H   0  0  0  0  0  0  0  0  0  0  0  0
  150.0901  145.5802  158.8480 H   0  0  0  0  0  0  0  0  0  0  0  0
  151.0333  144.5918  156.7759 H   0  0  0  0  0  0  0  0  0  0  0  0
  152.6396  143.9037  156.9043 H   0  0  0  0  0  0  0  0  0  0  0  0
  149.5229  143.3015  156.0160 H   0  0  0  0  0  0  0  0  0  0  0  0
  148.3236  139.5126  156.9906 H   0  0  0  0  0  0  0  0  0  0  0  0
  148.3252  140.9989  157.9323 H   0  0  0  0  0  0  0  0  0  0  0  0
  149.8328  140.1355  157.6413 H   0  0  0  0  0  0  0  0  0  0  0  0
  147.0830  142.0763  155.9949 H   0  0  0  0  0  0  0  0  0  0  0  0
  147.4900  139.7503  153.9708 H   0  0  0  0  0  0  0  0  0  0  0  0
  145.9236  140.5823  154.4321 H   0  0  0  0  0  0  0  0  0  0  0  0
  146.8650  142.7739  153.6333 H   0  0  0  0  0  0  0  0  0  0  0  0
  148.4392  141.9343  153.1949 H   0  0  0  0  0  0  0  0  0  0  0  0
  153.9288  142.1282  160.3226 H   0  0  0  0  0  0  0  0  0  0  0  0
  154.2246  142.8794  158.7596 H   0  0  0  0  0  0  0  0  0  0  0  0
  153.0003  141.6187  158.9184 H   0  0  0  0  0  0  0  0  0  0  0  0
  1  2  1  0  0  0  0
  1 19  1  0  0  0  0
  1 20  1  0  0  0  0
  1 21  1  0  0  0  0
  2 17  2  0  0  0  0
  2  3  1  0  0  0  0
  3  4  2  0  0  0  0
  4  5  1  0  0  0  0
  4 22  1  0  0  0  0
  5  6  1  0  0  0  0
  5 17  1  0  0  0  0
  6  7  1  0  0  0  0
  6 23  1  0  0  0  0
  6 24  1  0  0  0  0
  7  8  2  0  0  0  0
  7  9  1  0  0  0  0
  9 10  1  0  0  0  0
  9 25  1  0  0  0  0
 10 11  1  0  0  0  0
 10 12  1  0  0  0  0
 10 14  1  0  0  0  0
 11 26  1  0  0  0  0
 11 27  1  0  0  0  0
 11 28  1  0  0  0  0
 12 13  3  0  0  0  0
 14 16  1  0  0  0  0
 14 15  1  0  0  0  0
 14 29  1  0  0  0  0
 15 16  1  0  0  0  0
 15 30  1  0  0  0  0
 15 31  1  0  0  0  0
 16 32  1  0  0  0  0
 16 33  1  0  0  0  0
 17 18  1  0  0  0  0
 18 34  1  0  0  0  0
 18 35  1  0  0  0  0
 18 36  1  0  0  0  0
M  END
> <s_m_source_file>
AV-unprocessed.smi

> <i_m_source_file_index>
2675

> <i_lp_mmshare_version>
43012

> <i_f3d_flags>
0

> <s_epik_input>
W0NIM11jMW5bY0hdbihjMVtDSDNdKVtDSDJdQyg9TylbTkhdW0NAQF0oW0NIM10pKEMjTilbQ0hdMltDSDJdW0NIMl0y

> <s_epik_cmdline>
J2VwaWtfcHl0aG9uJywgJy1waCcsICc3LjAnLCAnLXRuJywgJzgnLCAnLW1hJywgJzIwMCcsICctbWV0YWxfYmluZGluZycsICctaW1hZScsICc8aW5maWxlLm1hZT4nLCAnLW9tYWUnLCAnPG91dGZpbGUubWFlPic=

> <r_lp_tautomer_probability>
1

> <r_epik_Ionization_Penalty>
0.876174

> <r_epik_Ionization_Penalty_Charging>
0.876172

> <r_epik_Ionization_Penalty_Neutral>
2.64295e-06

> <r_epik_State_Penalty>
0.913958

> <r_epik_Charging_Adjusted_Penalty>
1.79013

> <i_epik_Tot_Q>
0

> <i_epik_Tot_abs_Q>
0

> <r_epik_Metal_State_Penalty>
0.359336

> <b_epik_Metal_Only>
0

> <s_lp_Force_Field>
OPLS_2005

> <r_lp_Energy>
15.5339

> <b_lp_Chiralities_Consistent>
1

> <s_lp_Variant>
AV-unprocessed.smi:2675-4

> <Gold.Version>
5.8.1

> <Gold.Id.Protein>
6NUR|6NUR_protein|mol2

> <Gold.PLP.Fitness>
47.9837

> <Gold.PLP.PLP>
-40.6619

> <Gold.PLP.part.hbond>
-2.0000

> <Gold.PLP.part.metal>
0.0000

> <Gold.PLP.part.buried>
-5.2363

> <Gold.PLP.part.nonpolar>
-34.3154

> <Gold.PLP.part.repulsive>
1.1372

> <Gold.PLP.ligand.clash>
0.0000

> <Gold.PLP.ligand.torsion>
0.9763

> <Gold.PLP.Chemscore.Hbond>
2.0000

> <Gold.PLP.Chemscore.CHOScore>
0.5940

> <Gold.PLP.Chemscore.Metal>
0.0000

> <Gold.Chemscore.Hbonds>
donor molecule, donor type, donor heavy atom, donor atom, acceptor molecule, acceptor atom, score
      L1  H     9    25       P1  8028  1.00
      P1  H  7989  7998       L1    13  1.00
      L1  C     4    22       P1  8029  0.56

> <Gold.PLP.Chemscore.Internal.Correction>
1.4925

> <Gold.Rescore>
     Score         DG    S(hbond)    S(metal)    S(lipo)     H(rot)  DE(clash)    DE(int)     intcor
     11.54     -14.61       1.02        0.00      86.91       1.74       0.22       2.84       ----

> <Gold.Chemscore.Fitness>
11.5427

> <Gold.Chemscore.DG>
-14.6069

> <Gold.Chemscore.ZeroCoef>
-5.4800

> <Gold.Chemscore.Hbond>
1.0239

> <Gold.Chemscore.Metal>
0.0000

> <Gold.Chemscore.Lipo>
86.9136

> <Gold.Chemscore.Internal_Hbond>
0.0000

> <Gold.Chemscore.DEClash>
0.2249

> <Gold.Chemscore.DEInternal>
2.8392

> <Gold.Chemscore.Rot>
1.7429

> <Gold.Chemscore.Internal.Correction>
   9.000000E+99

> <Gold.Chemscore.Hbonds>
donor molecule, donor type, donor heavy atom, donor atom, acceptor molecule, acceptor atom, score
      L1  H     9    25       P1  8028  0.98
      P1  H  7989  7998       L1    13  0.35

> <Gold.Chemscore.Hbond.Weighted>
-3.4197

> <Gold.Chemscore.Metal.Weighted>
-0.0000

> <Gold.Chemscore.Lipo.Weighted>
-10.1689

> <Gold.Chemscore.Internal_Hbond.Weighted>
0.0000

> <Gold.Chemscore.DEClash.Weighted>
0.2249

> <Gold.Chemscore.DEInternal.Weighted>
2.8392

> <Gold.Chemscore.Rot.Weighted>
4.4617

> <Gold.Chemscore.Internal.Correction.Weighted>
   9.000000E+99

> <Gold.Protein.RotatedTorsions>
[ 6907 6896 6895 6894 ] final  -13.51 input  -60.11 | X-H torsion
[ 7974 7965 7964 7962 ] final  144.90 input  175.53 | X-H torsion
[ 8008 7997 7996 7995 ] final    0.62 input   59.86 | X-H torsion
[ 10167 10162 10161 10158 ] final  -16.52 input  -65.29 | X-H torsion
[ 10718 10713 10712 10709 ] final  -11.67 input   66.30 | X-H torsion
[ 10763 10752 10751 10750 ] final  -86.16 input  -60.55 | X-H torsion
[ 11005 11000 10999 10996 ] final   87.71 input  -57.11 | X-H torsion

> <Gold.Protein.ActiveResidues>
 VAL166  LYS551  ARG553  GLY616  TRP617  ASP618  TYR619  PRO620  LYS621  CYS622 
 ASP623  PHE694  ASN695  SER759  ASP760  ASP761  ALA762  ILE779  LEU786  VAL792 
 PHE793  MET794  SER795  GLU796  ALA797  LYS798  CYS799  TRP800  GLU811  SER814 

> <Gold.Protein.RotatedAtoms>
  151.3537  135.0890  159.9411 H   0  0  0  0  0  0  0  0  0  0  0  0  # atno 6907 bound_to 6896
  152.5180  133.9327  159.7598 H   0  0  0  0  0  0  0  0  0  0  0  0  # atno 6908 bound_to 6896
  150.9707  133.6293  159.2768 H   0  0  0  0  0  0  0  0  0  0  0  0  # atno 6909 bound_to 6896
  144.8797  139.5718  143.5848 H   0  0  0  0  0  0  0  0  0  0  0  0  # atno 7974 bound_to 7965
  154.6702  140.2610  155.7015 H   0  0  0  0  0  0  0  0  0  0  0  0  # atno 8008 bound_to 7997
  156.2655  140.2831  156.1130 H   0  0  0  0  0  0  0  0  0  0  0  0  # atno 8009 bound_to 7997
  155.1180  140.0376  157.2732 H   0  0  0  0  0  0  0  0  0  0  0  0  # atno 8010 bound_to 7997
  140.7235  143.5108  150.9752 H   0  0  0  0  0  0  0  0  0  0  0  0  # atno 10167 bound_to 10162
  156.6556  130.4967  149.6047 H   0  0  0  0  0  0  0  0  0  0  0  0  # atno 10718 bound_to 10713
  154.6193  135.5459  153.7558 H   0  0  0  0  0  0  0  0  0  0  0  0  # atno 10763 bound_to 10752
  153.0231  135.6409  154.1463 H   0  0  0  0  0  0  0  0  0  0  0  0  # atno 10764 bound_to 10752
  154.1398  135.2909  155.3143 H   0  0  0  0  0  0  0  0  0  0  0  0  # atno 10765 bound_to 10752
  139.8913  134.8440  156.2897 H   0  0  0  0  0  0  0  0  0  0  0  0  # atno 11005 bound_to 11000
  146.2986  139.7356  142.9108 LP  0  0  0  0  0  0  0  0  0  0  0  0  # atno 17320 bound_to 7965
  145.3976  141.0381  143.3088 LP  0  0  0  0  0  0  0  0  0  0  0  0  # atno 17321 bound_to 7965
  139.8822  143.7058  152.3155 LP  0  0  0  0  0  0  0  0  0  0  0  0  # atno 17342 bound_to 10162
  139.7344  144.7575  151.0751 LP  0  0  0  0  0  0  0  0  0  0  0  0  # atno 17343 bound_to 10162
  156.2050  130.6643  151.1208 LP  0  0  0  0  0  0  0  0  0  0  0  0  # atno 17370 bound_to 10713
  157.7126  131.0726  150.6444 LP  0  0  0  0  0  0  0  0  0  0  0  0  # atno 17371 bound_to 10713
  140.9984  133.7166  156.0922 LP  0  0  0  0  0  0  0  0  0  0  0  0  # atno 17394 bound_to 11000
  140.7531  134.4023  157.5538 LP  0  0  0  0  0  0  0  0  0  0  0  0  # atno 17395 bound_to 11000

$$$$
