AV-unprocessed.smi:72|AV-procd|sdf|734|dock10
  -GOLD-   2262017 63D 1   1.00000     0.00000
 Structure written by MMmdl.
 28 29  0  0  0  0  0  0  0  0  2 V2000
  154.1339  137.7762  155.5748 N   0  0  0  0  0  0  0  0  0  0  0  0
  153.0069  138.2701  155.2987 C   0  0  0  0  0  0  0  0  0  0  0  0
  152.1259  137.5905  154.3736 N   0  0  0  0  0  0  0  0  0  0  0  0
  150.9825  138.1447  154.1091 C   0  0  0  0  0  0  0  0  0  0  0  0
  150.5896  139.4148  154.7042 N   0  0  0  0  0  0  0  0  0  0  0  0
  149.2486  140.0491  154.3944 C   0  0  1  0  0  0  0  0  0  0  0  0
  148.6531  139.3744  153.3315 O   0  0  0  0  0  0  0  0  0  0  0  0
  147.2477  139.5336  153.4379 C   0  0  1  0  0  0  0  0  0  0  0  0
  146.5313  138.4636  152.5997 C   0  0  0  0  0  0  0  0  0  0  0  0
  147.0978  138.3961  151.3084 O   0  0  0  0  0  0  0  0  0  0  0  0
  147.0072  139.3916  154.9462 C   0  0  2  0  0  0  0  0  0  0  0  0
  145.8474  140.1076  155.3227 O   0  0  0  0  0  0  0  0  0  0  0  0
  148.2543  140.0098  155.5769 C   0  0  1  0  0  0  0  0  0  0  0  0
  148.6880  139.2337  156.6794 O   0  0  0  0  0  0  0  0  0  0  0  0
  151.4606  140.0453  155.6310 C   0  0  0  0  0  0  0  0  0  0  0  0
  151.0875  141.0942  156.1569 O   0  0  0  0  0  0  0  0  0  0  0  0
  152.6584  139.4573  155.9056 N   0  5  0  0  0  0  0  0  0  0  0  0
  149.4578  141.0649  154.0545 H   0  0  0  0  0  0  0  0  0  0  0  0
  146.9789  140.5402  153.1098 H   0  0  0  0  0  0  0  0  0  0  0  0
  146.9127  138.3381  155.2167 H   0  0  0  0  0  0  0  0  0  0  0  0
  148.0860  141.0373  155.9029 H   0  0  0  0  0  0  0  0  0  0  0  0
  154.3102  136.9089  155.0893 H   0  0  0  0  0  0  0  0  0  0  0  0
  150.2493  137.6970  153.4373 H   0  0  0  0  0  0  0  0  0  0  0  0
  146.5694  137.4879  153.0853 H   0  0  0  0  0  0  0  0  0  0  0  0
  145.4795  138.7245  152.4796 H   0  0  0  0  0  0  0  0  0  0  0  0
  147.7822  139.0447  151.2463 H   0  0  0  0  0  0  0  0  0  0  0  0
  145.9663  140.4266  156.2043 H   0  0  0  0  0  0  0  0  0  0  0  0
  148.0915  138.5075  156.7853 H   0  0  0  0  0  0  0  0  0  0  0  0
  1  2  2  0  0  0  0
  1 22  1  0  0  0  0
  2 17  1  0  0  0  0
  2  3  1  0  0  0  0
  3  4  2  0  0  0  0
  4  5  1  0  0  0  0
  4 23  1  0  0  0  0
  5  6  1  0  0  0  0
  5 15  1  0  0  0  0
  6 18  1  0  0  0  0
  6 13  1  0  0  0  0
  6  7  1  0  0  0  0
  7  8  1  0  0  0  0
  8 19  1  0  0  0  0
  8  9  1  0  0  0  0
  8 11  1  0  0  0  0
  9 10  1  0  0  0  0
  9 24  1  0  0  0  0
  9 25  1  0  0  0  0
 10 26  1  0  0  0  0
 11 20  1  0  0  0  0
 11 12  1  0  0  0  0
 11 13  1  0  0  0  0
 12 27  1  0  0  0  0
 13 21  1  0  0  0  0
 13 14  1  0  0  0  0
 14 28  1  0  0  0  0
 15 16  2  0  0  0  0
 15 17  1  0  0  0  0
M  CHG  1  17  -1
M  END
> <s_m_source_file>
AV-unprocessed.smi

> <i_m_source_file_index>
72

> <i_lp_mmshare_version>
43012

> <i_f3d_flags>
0

> <s_epik_input>
W05IMl1jMW5bY0hdbihjKD1PKW4xKVtDQEBIXTJPW0NASF0oW0NIMl1bT0hdKVtDQEBIXShbT0hdKVtDQEhdMltPSF0=

> <s_epik_cmdline>
J2VwaWtfcHl0aG9uJywgJy1waCcsICc3LjAnLCAnLXRuJywgJzgnLCAnLW1hJywgJzIwMCcsICctbWV0YWxfYmluZGluZycsICctaW1hZScsICc8aW5maWxlLm1hZT4nLCAnLW9tYWUnLCAnPG91dGZpbGUubWFlPic=

> <r_lp_tautomer_probability>
7.17554e-07

> <r_epik_Ionization_Penalty>
12.8705

> <r_epik_Ionization_Penalty_Charging>
5.64144

> <r_epik_Ionization_Penalty_Neutral>
7.22905

> <r_epik_State_Penalty>
3.30104

> <r_epik_Charging_Adjusted_Penalty>
8.94249

> <i_epik_Tot_Q>
-1

> <i_epik_Tot_abs_Q>
1

> <r_epik_Metal_State_Penalty>
0.529074

> <b_epik_Metal_Only>
1

> <s_epik_Chemistry_Notes>
This compound contains an acetal/aminal-like group ( X-CH(R)-Y where X, Y are N, S, or O) that may be acid/base labile, releasing an aldehyde.

> <s_lp_Force_Field>
OPLS_2005

> <r_lp_Energy>
37.9918

> <b_lp_Chiralities_Consistent>
1

> <s_lp_Variant>
AV-unprocessed.smi:72-72

> <Gold.Version>
5.8.1

> <Gold.Id.Protein>
6NUR|6NUR_protein|mol2

> <Gold.PLP.Fitness>
39.7752

> <Gold.PLP.PLP>
-25.8306

> <Gold.PLP.part.hbond>
-6.9493

> <Gold.PLP.part.metal>
0.0000

> <Gold.PLP.part.buried>
-5.1226

> <Gold.PLP.part.nonpolar>
-18.5341

> <Gold.PLP.part.repulsive>
4.5403

> <Gold.PLP.ligand.clash>
0.0000

> <Gold.PLP.ligand.torsion>
0.2875

> <Gold.PLP.Chemscore.Hbond>
3.7160

> <Gold.PLP.Chemscore.CHOScore>
1.0819

> <Gold.PLP.Chemscore.Metal>
0.0000

> <Gold.Chemscore.Hbonds>
donor molecule, donor type, donor heavy atom, donor atom, acceptor molecule, acceptor atom, score
      L1  H    10    26       P1  7957  1.00
      P1  H  7997  8009       L1    17  2.00
      P1  H 10752 10765       L1     3  0.72
      L1  C     4    23       P1  7948  0.97
      L1  C     4    23       P1  7949  0.11

> <Gold.PLP.Chemscore.Internal.Correction>
0.1258

> <Gold.Rescore>
     Score         DG    S(hbond)    S(metal)    S(lipo)     H(rot)  DE(clash)    DE(int)     intcor
      1.71      -3.80       1.94        0.00      18.66       4.04       1.61       0.48       ----

> <Gold.Chemscore.Fitness>
1.7133

> <Gold.Chemscore.DG>
-3.7985

> <Gold.Chemscore.ZeroCoef>
-5.4800

> <Gold.Chemscore.Hbond>
1.9396

> <Gold.Chemscore.Metal>
0.0000

> <Gold.Chemscore.Lipo>
18.6624

> <Gold.Chemscore.Internal_Hbond>
0.0000

> <Gold.Chemscore.DEClash>
1.6097

> <Gold.Chemscore.DEInternal>
0.4756

> <Gold.Chemscore.Rot>
4.0403

> <Gold.Chemscore.Internal.Correction>
   9.000000E+99

> <Gold.Chemscore.Hbonds>
donor molecule, donor type, donor heavy atom, donor atom, acceptor molecule, acceptor atom, score
      L1  H    10    26       P1  7957  0.61
      P1  H  7997  8009       L1    17  0.26
      P1  H 10752 10765       L1     3  0.27

> <Gold.Chemscore.Hbond.Weighted>
-6.4781

> <Gold.Chemscore.Metal.Weighted>
-0.0000

> <Gold.Chemscore.Lipo.Weighted>
-2.1835

> <Gold.Chemscore.Internal_Hbond.Weighted>
0.0000

> <Gold.Chemscore.DEClash.Weighted>
1.6097

> <Gold.Chemscore.DEInternal.Weighted>
0.4756

> <Gold.Chemscore.Rot.Weighted>
10.3431

> <Gold.Chemscore.Internal.Correction.Weighted>
   9.000000E+99

> <Gold.Protein.RotatedTorsions>
[ 6907 6896 6895 6894 ] final  170.75 input  -60.11 | X-H torsion
[ 7974 7965 7964 7962 ] final   76.12 input  175.53 | X-H torsion
[ 8008 7997 7996 7995 ] final -157.72 input   59.86 | X-H torsion
[ 10167 10162 10161 10158 ] final   33.21 input  -65.29 | X-H torsion
[ 10718 10713 10712 10709 ] final  -46.42 input   66.30 | X-H torsion
[ 10763 10752 10751 10750 ] final  155.38 input  -60.55 | X-H torsion
[ 11005 11000 10999 10996 ] final   94.16 input  -57.11 | X-H torsion

> <Gold.Protein.ActiveResidues>
 VAL166  LYS551  ARG553  GLY616  TRP617  ASP618  TYR619  PRO620  LYS621  CYS622 
 ASP623  PHE694  ASN695  SER759  ASP760  ASP761  ALA762  ILE779  LEU786  VAL792 
 PHE793  MET794  SER795  GLU796  ALA797  LYS798  CYS799  TRP800  GLU811  SER814 

> <Gold.Protein.RotatedAtoms>
  151.8111  133.3382  159.3555 H   0  0  0  0  0  0  0  0  0  0  0  0  # atno 6907 bound_to 6896
  150.7326  134.5663  159.5877 H   0  0  0  0  0  0  0  0  0  0  0  0  # atno 6908 bound_to 6896
  152.3074  134.7540  160.0395 H   0  0  0  0  0  0  0  0  0  0  0  0  # atno 6909 bound_to 6896
  145.7069  139.2601  143.1673 H   0  0  0  0  0  0  0  0  0  0  0  0  # atno 7974 bound_to 7965
  155.7367  140.0809  157.2264 H   0  0  0  0  0  0  0  0  0  0  0  0  # atno 8008 bound_to 7997
  154.4026  140.1585  156.2624 H   0  0  0  0  0  0  0  0  0  0  0  0  # atno 8009 bound_to 7997
  155.9059  140.3407  155.6064 H   0  0  0  0  0  0  0  0  0  0  0  0  # atno 8010 bound_to 7997
  140.4428  144.1163  150.6177 H   0  0  0  0  0  0  0  0  0  0  0  0  # atno 10167 bound_to 10162
  156.2184  130.4164  149.9024 H   0  0  0  0  0  0  0  0  0  0  0  0  # atno 10718 bound_to 10713
  154.1674  135.2806  155.3091 H   0  0  0  0  0  0  0  0  0  0  0  0  # atno 10763 bound_to 10752
  154.6101  135.5501  153.7467 H   0  0  0  0  0  0  0  0  0  0  0  0  # atno 10764 bound_to 10752
  153.0174  135.6413  154.1815 H   0  0  0  0  0  0  0  0  0  0  0  0  # atno 10765 bound_to 10752
  139.8801  134.8830  156.3823 H   0  0  0  0  0  0  0  0  0  0  0  0  # atno 11005 bound_to 11000
  146.0748  140.7830  142.9670 LP  0  0  0  0  0  0  0  0  0  0  0  0  # atno 17320 bound_to 7965
  144.6953  140.3397  143.7201 LP  0  0  0  0  0  0  0  0  0  0  0  0  # atno 17321 bound_to 7965
  140.4299  143.2573  151.9609 LP  0  0  0  0  0  0  0  0  0  0  0  0  # atno 17342 bound_to 10162
  139.4790  144.5754  151.8021 LP  0  0  0  0  0  0  0  0  0  0  0  0  # atno 17343 bound_to 10162
  156.6678  130.8808  151.3557 LP  0  0  0  0  0  0  0  0  0  0  0  0  # atno 17370 bound_to 10713
  157.7075  130.9402  150.0979 LP  0  0  0  0  0  0  0  0  0  0  0  0  # atno 17371 bound_to 10713
  140.9390  133.7527  156.0122 LP  0  0  0  0  0  0  0  0  0  0  0  0  # atno 17394 bound_to 11000
  140.8241  134.3254  157.5371 LP  0  0  0  0  0  0  0  0  0  0  0  0  # atno 17395 bound_to 11000

$$$$
