AV-unprocessed.smi:1166|AV-procd|sdf|4935|dock10
  -GOLD-   22720 3523D 1   1.00000     0.00000
 Structure written by MMmdl.
 47 48  0  0  0  0  0  0  0  0  2 V2000
  150.2274  128.4568  154.7822 C   0  0  0  0  0  0  0  0  0  0  0  0
  149.4055  129.3199  153.9439 N   0  0  0  0  0  0  0  0  0  0  0  0
  148.4003  128.7442  153.0573 C   0  0  0  0  0  0  0  0  0  0  0  0
  149.5276  130.7223  154.0485 C   0  0  0  0  0  0  0  0  0  0  0  0
  150.2748  131.3622  155.0672 C   0  0  0  0  0  0  0  0  0  0  0  0
  150.3505  132.7698  155.1098 C   0  0  0  0  0  0  0  0  0  0  0  0
  149.6741  133.5377  154.1290 C   0  0  0  0  0  0  0  0  0  0  0  0
  149.6691  134.9594  154.0654 N   0  0  0  0  0  0  0  0  0  0  0  0
  150.2719  135.8570  154.8648 C   0  0  0  0  0  0  0  0  0  0  0  0
  150.9946  135.5918  155.8244 O   0  0  0  0  0  0  0  0  0  0  0  0
  149.9858  137.1095  154.4819 N   0  0  0  0  0  0  0  0  0  0  0  0
  150.4659  138.3231  155.1363 C   0  0  1  0  0  0  0  0  0  0  0  0
  149.8335  139.5706  154.4988 C   0  0  0  0  0  0  0  0  0  0  0  0
  150.3098  140.8266  155.2376 C   0  0  0  0  0  0  0  0  0  0  0  0
  150.0057  140.7400  156.7437 C   0  0  0  0  0  0  0  0  0  0  0  0
  150.5417  139.4985  157.3383 N   0  0  0  0  0  0  0  0  0  0  0  0
  152.0173  139.5416  158.2604 S   0  0  0  0  0  0  0  0  0  0  0  0
  151.9454  141.1480  159.1544 C   0  0  0  0  0  0  0  0  0  0  0  0
  151.9560  138.4601  159.2557 O   0  0  0  0  0  0  0  0  0  0  0  0
  153.1393  139.5952  157.3107 O   0  0  0  0  0  0  0  0  0  0  0  0
  150.1429  138.2592  156.6418 C   0  0  0  0  0  0  0  0  0  0  0  0
  148.9477  132.8501  153.1357 C   0  0  0  0  0  0  0  0  0  0  0  0
  148.9024  131.5008  153.1324 N   0  3  0  0  0  0  0  0  0  0  0  0
  151.2848  128.6001  154.5581 H   0  0  0  0  0  0  0  0  0  0  0  0
  149.9920  127.4048  154.6195 H   0  0  0  0  0  0  0  0  0  0  0  0
  150.0609  128.6752  155.8375 H   0  0  0  0  0  0  0  0  0  0  0  0
  147.4007  129.0648  153.3528 H   0  0  0  0  0  0  0  0  0  0  0  0
  148.4237  127.6546  153.0848 H   0  0  0  0  0  0  0  0  0  0  0  0
  148.5748  129.0546  152.0266 H   0  0  0  0  0  0  0  0  0  0  0  0
  150.7958  130.7949  155.8236 H   0  0  0  0  0  0  0  0  0  0  0  0
  150.9297  133.2189  155.8998 H   0  0  0  0  0  0  0  0  0  0  0  0
  149.1132  135.3494  153.3183 H   0  0  0  0  0  0  0  0  0  0  0  0
  149.3854  137.2364  153.6803 H   0  0  0  0  0  0  0  0  0  0  0  0
  151.5479  138.3809  155.0181 H   0  0  0  0  0  0  0  0  0  0  0  0
  150.0997  139.6384  153.4433 H   0  0  0  0  0  0  0  0  0  0  0  0
  148.7455  139.5061  154.5454 H   0  0  0  0  0  0  0  0  0  0  0  0
  151.3789  140.9605  155.0778 H   0  0  0  0  0  0  0  0  0  0  0  0
  149.8274  141.7086  154.8157 H   0  0  0  0  0  0  0  0  0  0  0  0
  150.4029  141.6123  157.2618 H   0  0  0  0  0  0  0  0  0  0  0  0
  148.9264  140.7563  156.8985 H   0  0  0  0  0  0  0  0  0  0  0  0
  152.8373  141.2506  159.7723 H   0  0  0  0  0  0  0  0  0  0  0  0
  151.0667  141.1779  159.7963 H   0  0  0  0  0  0  0  0  0  0  0  0
  151.9161  141.9701  158.4417 H   0  0  0  0  0  0  0  0  0  0  0  0
  149.0706  138.1181  156.7851 H   0  0  0  0  0  0  0  0  0  0  0  0
  150.6287  137.3974  157.0994 H   0  0  0  0  0  0  0  0  0  0  0  0
  148.3989  133.3371  152.3424 H   0  0  0  0  0  0  0  0  0  0  0  0
  148.3648  131.0410  152.3973 H   0  0  0  0  0  0  0  0  0  0  0  0
  1  2  1  0  0  0  0
  1 24  1  0  0  0  0
  1 25  1  0  0  0  0
  1 26  1  0  0  0  0
  2  3  1  0  0  0  0
  2  4  1  0  0  0  0
  3 27  1  0  0  0  0
  3 28  1  0  0  0  0
  3 29  1  0  0  0  0
  4 23  1  0  0  0  0
  4  5  2  0  0  0  0
  5  6  1  0  0  0  0
  5 30  1  0  0  0  0
  6  7  2  0  0  0  0
  6 31  1  0  0  0  0
  7  8  1  0  0  0  0
  7 22  1  0  0  0  0
  8  9  1  0  0  0  0
  8 32  1  0  0  0  0
  9 10  2  0  0  0  0
  9 11  1  0  0  0  0
 11 12  1  0  0  0  0
 11 33  1  0  0  0  0
 12 21  1  0  0  0  0
 12 13  1  0  0  0  0
 12 34  1  0  0  0  0
 13 14  1  0  0  0  0
 13 35  1  0  0  0  0
 13 36  1  0  0  0  0
 14 15  1  0  0  0  0
 14 37  1  0  0  0  0
 14 38  1  0  0  0  0
 15 16  1  0  0  0  0
 15 39  1  0  0  0  0
 15 40  1  0  0  0  0
 16 17  1  0  0  0  0
 16 21  1  0  0  0  0
 17 18  1  0  0  0  0
 17 19  2  0  0  0  0
 17 20  2  0  0  0  0
 18 41  1  0  0  0  0
 18 42  1  0  0  0  0
 18 43  1  0  0  0  0
 21 44  1  0  0  0  0
 21 45  1  0  0  0  0
 22 23  2  0  0  0  0
 22 46  1  0  0  0  0
 23 47  1  0  0  0  0
M  CHG  1  23   1
M  END
> <s_m_source_file>
AV-unprocessed.smi

> <i_m_source_file_index>
1166

> <i_lp_mmshare_version>
43012

> <i_f3d_flags>
0

> <s_epik_input>
W0NIM11OKFtDSDNdKWMxW2NIXVtjSF1jKFtjSF1uMSlbTkhdQyg9TylbTkhdW0NAQEhdMltDSDJdW0NIMl1bQ0gyXU4oW0NIMl0yKVMoPU8pKD1PKVtDSDNd

> <s_epik_cmdline>
J2VwaWtfcHl0aG9uJywgJy1waCcsICc3LjAnLCAnLXRuJywgJzgnLCAnLW1hJywgJzIwMCcsICctbWV0YWxfYmluZGluZycsICctaW1hZScsICc8aW5maWxlLm1hZT4nLCAnLW9tYWUnLCAnPG91dGZpbGUubWFlPic=

> <r_lp_tautomer_probability>
0.999994

> <r_epik_Ionization_Penalty>
0.276583

> <r_epik_Ionization_Penalty_Charging>
0.276565

> <r_epik_Ionization_Penalty_Neutral>
1.87575e-05

> <r_epik_State_Penalty>
0.268949

> <r_epik_Charging_Adjusted_Penalty>
0.545513

> <i_epik_Tot_Q>
1

> <i_epik_Tot_abs_Q>
1

> <r_epik_Metal_State_Penalty>
0.551815

> <b_epik_Metal_Only>
0

> <s_lp_Force_Field>
OPLS_2005

> <r_lp_Energy>
8.45094

> <b_lp_Chiralities_Consistent>
1

> <s_lp_Variant>
AV-unprocessed.smi:1166-2

> <Gold.Version>
5.8.1

> <Gold.Id.Protein>
6NUR|6NUR_protein|mol2

> <Gold.PLP.Fitness>
44.2867

> <Gold.PLP.PLP>
-34.8874

> <Gold.PLP.part.hbond>
-4.8060

> <Gold.PLP.part.metal>
0.0000

> <Gold.PLP.part.buried>
-0.9705

> <Gold.PLP.part.nonpolar>
-27.8193

> <Gold.PLP.part.repulsive>
0.1530

> <Gold.PLP.ligand.clash>
0.0000

> <Gold.PLP.ligand.torsion>
1.2930

> <Gold.PLP.Chemscore.Hbond>
3.3077

> <Gold.PLP.Chemscore.CHOScore>
0.0000

> <Gold.PLP.Chemscore.Metal>
0.0000

> <Gold.Chemscore.Hbonds>
donor molecule, donor type, donor heavy atom, donor atom, acceptor molecule, acceptor atom, score
      L1  H     8    32       P1  7948  1.00
      L1  H    11    33       P1  7948  0.61
      L1  H    23    47       P1 10747  0.29
      P1  H  7997  8010       L1    20  0.98
      P1  H 10752 10764       L1    10  0.49

> <Gold.PLP.Chemscore.Internal.Correction>
2.0623

> <Gold.Rescore>
     Score         DG    S(hbond)    S(metal)    S(lipo)     H(rot)  DE(clash)    DE(int)     intcor
     15.00     -18.90       2.44        0.00      66.88       1.00       0.32       3.58       ----

> <Gold.Chemscore.Fitness>
14.9987

> <Gold.Chemscore.DG>
-18.9008

> <Gold.Chemscore.ZeroCoef>
-5.4800

> <Gold.Chemscore.Hbond>
2.4418

> <Gold.Chemscore.Metal>
0.0000

> <Gold.Chemscore.Lipo>
66.8802

> <Gold.Chemscore.Internal_Hbond>
0.0000

> <Gold.Chemscore.DEClash>
0.3229

> <Gold.Chemscore.DEInternal>
3.5791

> <Gold.Chemscore.Rot>
1.0000

> <Gold.Chemscore.Internal.Correction>
   9.000000E+99

> <Gold.Chemscore.Hbonds>
donor molecule, donor type, donor heavy atom, donor atom, acceptor molecule, acceptor atom, score
      L1  H     8    32       P1  7948  0.33
      L1  H    11    33       P1  7948  0.59
      L1  H    23    47       P1 10747  0.29
      P1  H  7997  8010       L1    20  0.90
      P1  H 10752 10764       L1    10  0.15

> <Gold.Chemscore.Hbond.Weighted>
-8.1558

> <Gold.Chemscore.Metal.Weighted>
-0.0000

> <Gold.Chemscore.Lipo.Weighted>
-7.8250

> <Gold.Chemscore.Internal_Hbond.Weighted>
0.0000

> <Gold.Chemscore.DEClash.Weighted>
0.3229

> <Gold.Chemscore.DEInternal.Weighted>
3.5791

> <Gold.Chemscore.Rot.Weighted>
2.5600

> <Gold.Chemscore.Internal.Correction.Weighted>
   9.000000E+99

> <Gold.Protein.RotatedTorsions>
[ 6907 6896 6895 6894 ] final  -41.94 input  -60.11 | X-H torsion
[ 7974 7965 7964 7962 ] final  159.37 input  175.53 | X-H torsion
[ 8008 7997 7996 7995 ] final   36.87 input   59.86 | X-H torsion
[ 10167 10162 10161 10158 ] final  127.67 input  -65.29 | X-H torsion
[ 10718 10713 10712 10709 ] final  -64.21 input   66.30 | X-H torsion
[ 10763 10752 10751 10750 ] final  -44.21 input  -60.55 | X-H torsion
[ 11005 11000 10999 10996 ] final  122.22 input  -57.11 | X-H torsion

> <Gold.Protein.ActiveResidues>
 VAL166  LYS551  ARG553  GLY616  TRP617  ASP618  TYR619  PRO620  LYS621  CYS622 
 ASP623  PHE694  ASN695  SER759  ASP760  ASP761  ALA762  ILE779  LEU786  VAL792 
 PHE793  MET794  SER795  GLU796  ALA797  LYS798  CYS799  TRP800  GLU811  SER814 

> <Gold.Protein.RotatedAtoms>
  150.9609  134.8997  159.7729 H   0  0  0  0  0  0  0  0  0  0  0  0  # atno 6907 bound_to 6896
  152.5156  134.3674  159.9316 H   0  0  0  0  0  0  0  0  0  0  0  0  # atno 6908 bound_to 6896
  151.3686  133.3822  159.2732 H   0  0  0  0  0  0  0  0  0  0  0  0  # atno 6909 bound_to 6896
  144.7794  139.7608  143.6266 H   0  0  0  0  0  0  0  0  0  0  0  0  # atno 7974 bound_to 7965
  155.1944  140.3310  155.4353 H   0  0  0  0  0  0  0  0  0  0  0  0  # atno 8008 bound_to 7997
  156.2430  140.1904  156.6985 H   0  0  0  0  0  0  0  0  0  0  0  0  # atno 8009 bound_to 7997
  154.6184  140.0599  156.9569 H   0  0  0  0  0  0  0  0  0  0  0  0  # atno 8010 bound_to 7997
  139.5566  144.6853  151.4165 H   0  0  0  0  0  0  0  0  0  0  0  0  # atno 10167 bound_to 10162
  156.0743  130.4230  150.1388 H   0  0  0  0  0  0  0  0  0  0  0  0  # atno 10718 bound_to 10713
  154.0083  135.6684  153.4763 H   0  0  0  0  0  0  0  0  0  0  0  0  # atno 10763 bound_to 10752
  153.0632  135.5016  154.8137 H   0  0  0  0  0  0  0  0  0  0  0  0  # atno 10764 bound_to 10752
  154.7011  135.3079  154.9303 H   0  0  0  0  0  0  0  0  0  0  0  0  # atno 10765 bound_to 10752
  139.9259  134.9640  156.8076 H   0  0  0  0  0  0  0  0  0  0  0  0  # atno 11005 bound_to 11000
  146.1993  139.5278  142.9754 LP  0  0  0  0  0  0  0  0  0  0  0  0  # atno 17320 bound_to 7965
  145.6094  141.0342  143.1975 LP  0  0  0  0  0  0  0  0  0  0  0  0  # atno 17321 bound_to 7965
  140.6840  143.8017  150.7160 LP  0  0  0  0  0  0  0  0  0  0  0  0  # atno 17342 bound_to 10162
  140.1479  143.4383  152.2150 LP  0  0  0  0  0  0  0  0  0  0  0  0  # atno 17343 bound_to 10162
  156.9433  130.9751  151.3512 LP  0  0  0  0  0  0  0  0  0  0  0  0  # atno 17370 bound_to 10713
  157.5830  130.8390  149.8549 LP  0  0  0  0  0  0  0  0  0  0  0  0  # atno 17371 bound_to 10713
  140.6338  133.9881  155.7674 LP  0  0  0  0  0  0  0  0  0  0  0  0  # atno 17394 bound_to 11000
  141.0816  134.0054  157.3377 LP  0  0  0  0  0  0  0  0  0  0  0  0  # atno 17395 bound_to 11000

$$$$
