AV-unprocessed.smi:1527|AV-procd|sdf|6147|dock4
  -GOLD-   22720 6293D 1   1.00000     0.00000
 Structure written by MMmdl.
 30 30  0  0  0  0  0  0  0  0  2 V2000
  153.5301  139.8910  160.0732 C   0  0  0  0  0  0  0  0  0  0  0  0
  154.2423  141.2448  159.9380 C   0  0  0  0  0  0  0  0  0  0  0  0
  153.2824  142.4336  159.7424 C   0  0  2  0  0  0  0  0  0  0  0  0
  152.2082  142.4782  160.8410 C   0  0  0  0  0  0  0  0  0  0  0  0
  152.6511  142.3618  158.4266 N   0  0  0  0  0  0  0  0  0  0  0  0
  151.6744  141.5114  158.0755 C   0  0  0  0  0  0  0  0  0  0  0  0
  151.1935  140.6816  158.8490 O   0  0  0  0  0  0  0  0  0  0  0  0
  151.1660  141.6414  156.6310 C   0  0  0  0  0  0  0  0  0  0  0  0
  151.2437  140.3956  155.8539 N   0  0  0  0  0  0  0  0  0  0  0  0
  152.5664  139.7767  155.8606 N   0  5  0  0  0  0  0  0  0  0  0  0
  152.7652  138.6311  155.1560 C   0  0  0  0  0  0  0  0  0  0  0  0
  153.8538  138.0636  155.0999 O   0  0  0  0  0  0  0  0  0  0  0  0
  151.6331  138.0592  154.4462 C   0  0  0  0  0  0  0  0  0  0  0  0
  150.4165  138.6379  154.4795 C   0  0  0  0  0  0  0  0  0  0  0  0
  150.1589  139.8687  155.2172 C   0  0  0  0  0  0  0  0  0  0  0  0
  149.0473  140.3969  155.2610 O   0  0  0  0  0  0  0  0  0  0  0  0
  154.2540  139.0811  160.1630 H   0  0  0  0  0  0  0  0  0  0  0  0
  152.9086  139.6854  159.2014 H   0  0  0  0  0  0  0  0  0  0  0  0
  152.8909  139.8595  160.9560 H   0  0  0  0  0  0  0  0  0  0  0  0
  154.8660  141.4131  160.8167 H   0  0  0  0  0  0  0  0  0  0  0  0
  154.9245  141.1934  159.0886 H   0  0  0  0  0  0  0  0  0  0  0  0
  153.8716  143.3506  159.8044 H   0  0  0  0  0  0  0  0  0  0  0  0
  152.6620  142.5482  161.8297 H   0  0  0  0  0  0  0  0  0  0  0  0
  151.5846  141.5838  160.8234 H   0  0  0  0  0  0  0  0  0  0  0  0
  151.5539  143.3423  160.7202 H   0  0  0  0  0  0  0  0  0  0  0  0
  152.9797  143.0130  157.7286 H   0  0  0  0  0  0  0  0  0  0  0  0
  150.1376  142.0048  156.6688 H   0  0  0  0  0  0  0  0  0  0  0  0
  151.7327  142.4213  156.1194 H   0  0  0  0  0  0  0  0  0  0  0  0
  151.7699  137.1485  153.8819 H   0  0  0  0  0  0  0  0  0  0  0  0
  149.6033  138.1772  153.9389 H   0  0  0  0  0  0  0  0  0  0  0  0
  1  2  1  0  0  0  0
  1 17  1  0  0  0  0
  1 18  1  0  0  0  0
  1 19  1  0  0  0  0
  2  3  1  0  0  0  0
  2 20  1  0  0  0  0
  2 21  1  0  0  0  0
  3  4  1  0  0  0  0
  3  5  1  0  0  0  0
  3 22  1  0  0  0  0
  4 23  1  0  0  0  0
  4 24  1  0  0  0  0
  4 25  1  0  0  0  0
  5  6  1  0  0  0  0
  5 26  1  0  0  0  0
  6  7  2  0  0  0  0
  6  8  1  0  0  0  0
  8 27  1  0  0  0  0
  8 28  1  0  0  0  0
  8  9  1  0  0  0  0
  9 10  1  0  0  0  0
  9 15  1  0  0  0  0
 10 11  1  0  0  0  0
 11 12  2  0  0  0  0
 11 13  1  0  0  0  0
 13 29  1  0  0  0  0
 13 14  2  0  0  0  0
 14 30  1  0  0  0  0
 14 15  1  0  0  0  0
 15 16  2  0  0  0  0
M  CHG  1  10  -1
M  END
> <s_m_source_file>
AV-unprocessed.smi

> <i_m_source_file_index>
1527

> <i_lp_mmshare_version>
43012

> <i_f3d_flags>
0

> <s_epik_input>
W0NIM11bQ0gyXVtDQEhdKFtDSDNdKVtOSF1DKD1PKVtDSDJdbjFbbkhdYyg9TylbY0hdW2NIXWMxPU8=

> <s_epik_cmdline>
J2VwaWtfcHl0aG9uJywgJy1waCcsICc3LjAnLCAnLXRuJywgJzgnLCAnLW1hJywgJzIwMCcsICctbWV0YWxfYmluZGluZycsICctaW1hZScsICc8aW5maWxlLm1hZT4nLCAnLW9tYWUnLCAnPG91dGZpbGUubWFlPic=

> <r_lp_tautomer_probability>
1

> <r_epik_Ionization_Penalty>
0.0984334

> <r_epik_Ionization_Penalty_Charging>
0.0984334

> <r_epik_Ionization_Penalty_Neutral>
1.93017e-08

> <r_epik_State_Penalty>
0.0346952

> <r_epik_Charging_Adjusted_Penalty>
0.133129

> <i_epik_Tot_Q>
-1

> <i_epik_Tot_abs_Q>
1

> <r_epik_Metal_State_Penalty>
0.0346952

> <b_epik_Metal_Only>
0

> <s_lp_Force_Field>
OPLS_2005

> <r_lp_Energy>
18.7632

> <b_lp_Chiralities_Consistent>
1

> <s_lp_Variant>
AV-unprocessed.smi:1527-1

> <Gold.Version>
5.8.1

> <Gold.Id.Protein>
6NUR|6NUR_protein|mol2

> <Gold.PLP.Fitness>
38.1444

> <Gold.PLP.PLP>
-32.5974

> <Gold.PLP.part.hbond>
-2.5951

> <Gold.PLP.part.metal>
0.0000

> <Gold.PLP.part.buried>
-1.8337

> <Gold.PLP.part.nonpolar>
-28.4895

> <Gold.PLP.part.repulsive>
0.1542

> <Gold.PLP.ligand.clash>
0.0000

> <Gold.PLP.ligand.torsion>
0.2343

> <Gold.PLP.Chemscore.Hbond>
2.0000

> <Gold.PLP.Chemscore.CHOScore>
0.0000

> <Gold.PLP.Chemscore.Metal>
0.0000

> <Gold.Chemscore.Hbonds>
donor molecule, donor type, donor heavy atom, donor atom, acceptor molecule, acceptor atom, score
      P1  H  7997  8010       L1    10  1.90

> <Gold.PLP.Chemscore.Internal.Correction>
0.0156

> <Gold.Rescore>
     Score         DG    S(hbond)    S(metal)    S(lipo)     H(rot)  DE(clash)    DE(int)     intcor
      6.36      -9.82       0.63        0.00      61.62       1.94       0.55       2.92       ----

> <Gold.Chemscore.Fitness>
6.3592

> <Gold.Chemscore.DG>
-9.8231

> <Gold.Chemscore.ZeroCoef>
-5.4800

> <Gold.Chemscore.Hbond>
0.6325

> <Gold.Chemscore.Metal>
0.0000

> <Gold.Chemscore.Lipo>
61.6209

> <Gold.Chemscore.Internal_Hbond>
0.0000

> <Gold.Chemscore.DEClash>
0.5475

> <Gold.Chemscore.DEInternal>
2.9164

> <Gold.Chemscore.Rot>
1.9449

> <Gold.Chemscore.Internal.Correction>
   9.000000E+99

> <Gold.Chemscore.Hbonds>
donor molecule, donor type, donor heavy atom, donor atom, acceptor molecule, acceptor atom, score
      P1  H  7997  8010       L1    10  0.22

> <Gold.Chemscore.Hbond.Weighted>
-2.1125

> <Gold.Chemscore.Metal.Weighted>
-0.0000

> <Gold.Chemscore.Lipo.Weighted>
-7.2096

> <Gold.Chemscore.Internal_Hbond.Weighted>
0.0000

> <Gold.Chemscore.DEClash.Weighted>
0.5475

> <Gold.Chemscore.DEInternal.Weighted>
2.9164

> <Gold.Chemscore.Rot.Weighted>
4.9791

> <Gold.Chemscore.Internal.Correction.Weighted>
   9.000000E+99

> <Gold.Protein.RotatedTorsions>
[ 6907 6896 6895 6894 ] final   34.78 input  -60.11 | X-H torsion
[ 7974 7965 7964 7962 ] final  -97.37 input  175.53 | X-H torsion
[ 8008 7997 7996 7995 ] final   76.76 input   59.86 | X-H torsion
[ 10167 10162 10161 10158 ] final  166.10 input  -65.29 | X-H torsion
[ 10718 10713 10712 10709 ] final -129.84 input   66.30 | X-H torsion
[ 10763 10752 10751 10750 ] final  157.79 input  -60.55 | X-H torsion
[ 11005 11000 10999 10996 ] final  112.25 input  -57.11 | X-H torsion

> <Gold.Protein.ActiveResidues>
 VAL166  LYS551  ARG553  GLY616  TRP617  ASP618  TYR619  PRO620  LYS621  CYS622 
 ASP623  PHE694  ASN695  SER759  ASP760  ASP761  ALA762  ILE779  LEU786  VAL792 
 PHE793  MET794  SER795  GLU796  ALA797  LYS798  CYS799  TRP800  GLU811  SER814 

> <Gold.Protein.RotatedAtoms>
  152.1070  134.9301  160.0567 H   0  0  0  0  0  0  0  0  0  0  0  0  # atno 6907 bound_to 6896
  152.0493  133.4007  159.4378 H   0  0  0  0  0  0  0  0  0  0  0  0  # atno 6908 bound_to 6896
  150.6842  134.3246  159.4845 H   0  0  0  0  0  0  0  0  0  0  0  0  # atno 6909 bound_to 6896
  145.3346  140.9448  143.2642 H   0  0  0  0  0  0  0  0  0  0  0  0  # atno 7974 bound_to 7965
  155.8320  140.3466  155.5578 H   0  0  0  0  0  0  0  0  0  0  0  0  # atno 8008 bound_to 7997
  155.8232  140.0916  157.1856 H   0  0  0  0  0  0  0  0  0  0  0  0  # atno 8009 bound_to 7997
  154.4004  140.1426  156.3512 H   0  0  0  0  0  0  0  0  0  0  0  0  # atno 8010 bound_to 7997
  139.4918  144.4063  151.9351 H   0  0  0  0  0  0  0  0  0  0  0  0  # atno 10167 bound_to 10162
  156.2086  130.6904  151.0623 H   0  0  0  0  0  0  0  0  0  0  0  0  # atno 10718 bound_to 10713
  154.2058  135.2788  155.2975 H   0  0  0  0  0  0  0  0  0  0  0  0  # atno 10763 bound_to 10752
  154.5818  135.5587  153.7196 H   0  0  0  0  0  0  0  0  0  0  0  0  # atno 10764 bound_to 10752
  153.0076  135.6346  154.2197 H   0  0  0  0  0  0  0  0  0  0  0  0  # atno 10765 bound_to 10752
  139.8923  134.9526  156.6557 H   0  0  0  0  0  0  0  0  0  0  0  0  # atno 11005 bound_to 11000
  144.8837  139.4869  143.6711 LP  0  0  0  0  0  0  0  0  0  0  0  0  # atno 17320 bound_to 7965
  146.3032  139.7493  142.9076 LP  0  0  0  0  0  0  0  0  0  0  0  0  # atno 17321 bound_to 7965
  140.3503  144.3096  150.5950 LP  0  0  0  0  0  0  0  0  0  0  0  0  # atno 17342 bound_to 10162
  140.5490  143.2209  151.7958 LP  0  0  0  0  0  0  0  0  0  0  0  0  # atno 17343 bound_to 10162
  157.7026  131.0770  150.6771 LP  0  0  0  0  0  0  0  0  0  0  0  0  # atno 17370 bound_to 10713
  156.6830  130.4573  149.5622 LP  0  0  0  0  0  0  0  0  0  0  0  0  # atno 17371 bound_to 10713
  140.7486  133.8916  155.8330 LP  0  0  0  0  0  0  0  0  0  0  0  0  # atno 17394 bound_to 11000
  141.0019  134.1139  157.4309 LP  0  0  0  0  0  0  0  0  0  0  0  0  # atno 17395 bound_to 11000

$$$$
