AV-unprocessed.smi:1374|AV-procd|sdf|5587|dock7
  -GOLD-   22720 5183D 1   1.00000     0.00000
 Structure written by MMmdl.
 43 44  0  0  0  0  0  0  0  0  1 V2000
  154.1374  143.4234  164.0575 C   0  0  0  0  0  0  0  0  0  0  0  0
  153.2810  143.6983  162.8167 C   0  0  0  0  0  0  0  0  0  0  0  0
  152.8897  142.4133  162.0752 C   0  0  0  0  0  0  0  0  0  0  0  0
  154.1147  141.6299  161.5747 C   0  0  0  0  0  0  0  0  0  0  0  0
  153.7532  140.3632  160.9704 N   0  0  0  0  0  0  0  0  0  0  0  0
  152.9403  140.2507  159.8385 C   0  0  0  0  0  0  0  0  0  0  0  0
  152.4396  141.4180  159.2804 N   0  0  0  0  0  0  0  0  0  0  0  0
  152.5959  139.0338  159.3191 C   0  0  0  0  0  0  0  0  0  0  0  0
  151.7856  138.9226  158.1687 N   0  0  0  0  0  0  0  0  0  0  0  0
  150.3465  139.1347  158.3639 C   0  0  0  0  0  0  0  0  0  0  0  0
  152.2532  138.6925  156.9065 C   0  0  0  0  0  0  0  0  0  0  0  0
  153.4160  138.3261  156.7214 O   0  0  0  0  0  0  0  0  0  0  0  0
  151.3299  138.9405  155.7939 C   0  0  0  0  0  0  0  0  0  0  0  0
  151.0598  140.2198  155.4464 C   0  0  0  0  0  0  0  0  0  0  0  0
  150.1712  140.5744  154.4622 O   0  0  0  0  0  0  0  0  0  0  0  0
  149.3525  139.5123  153.9870 C   0  0  0  0  0  0  0  0  0  0  0  0
  150.1710  138.2199  153.8624 C   0  0  0  0  0  0  0  0  0  0  0  0
  150.7464  137.8904  155.1201 O   0  0  0  0  0  0  0  0  0  0  0  0
  153.1122  137.7944  159.9202 C   0  0  0  0  0  0  0  0  0  0  0  0
  152.9061  136.6540  159.5069 O   0  0  0  0  0  0  0  0  0  0  0  0
  153.8927  137.9754  161.0586 N   0  0  0  0  0  0  0  0  0  0  0  0
  154.2232  139.2002  161.6263 C   0  0  0  0  0  0  0  0  0  0  0  0
  154.8985  139.2253  162.6559 O   0  0  0  0  0  0  0  0  0  0  0  0
  154.2454  137.1461  161.5133 H   0  0  0  0  0  0  0  0  0  0  0  0
  154.4000  144.3533  164.5621 H   0  0  0  0  0  0  0  0  0  0  0  0
  155.0651  142.9162  163.7912 H   0  0  0  0  0  0  0  0  0  0  0  0
  153.6049  142.7959  164.7726 H   0  0  0  0  0  0  0  0  0  0  0  0
  152.3810  144.2377  163.1144 H   0  0  0  0  0  0  0  0  0  0  0  0
  153.8275  144.3577  162.1417 H   0  0  0  0  0  0  0  0  0  0  0  0
  152.2947  141.7818  162.7363 H   0  0  0  0  0  0  0  0  0  0  0  0
  152.2479  142.6643  161.2295 H   0  0  0  0  0  0  0  0  0  0  0  0
  154.6714  142.1920  160.8254 H   0  0  0  0  0  0  0  0  0  0  0  0
  154.8339  141.4351  162.3723 H   0  0  0  0  0  0  0  0  0  0  0  0
  152.6494  142.3255  159.6712 H   0  0  0  0  0  0  0  0  0  0  0  0
  151.9137  141.4128  158.4184 H   0  0  0  0  0  0  0  0  0  0  0  0
  149.7790  138.2626  158.0360 H   0  0  0  0  0  0  0  0  0  0  0  0
  150.0021  140.0019  157.7984 H   0  0  0  0  0  0  0  0  0  0  0  0
  150.0978  139.3151  159.4107 H   0  0  0  0  0  0  0  0  0  0  0  0
  151.4868  141.0892  155.9258 H   0  0  0  0  0  0  0  0  0  0  0  0
  148.5178  139.3685  154.6743 H   0  0  0  0  0  0  0  0  0  0  0  0
  148.9302  139.7916  153.0218 H   0  0  0  0  0  0  0  0  0  0  0  0
  149.5406  137.3942  153.5320 H   0  0  0  0  0  0  0  0  0  0  0  0
  150.9642  138.3358  153.1225 H   0  0  0  0  0  0  0  0  0  0  0  0
  1  2  1  0  0  0  0
  1 25  1  0  0  0  0
  1 26  1  0  0  0  0
  1 27  1  0  0  0  0
  2  3  1  0  0  0  0
  2 28  1  0  0  0  0
  2 29  1  0  0  0  0
  3  4  1  0  0  0  0
  3 30  1  0  0  0  0
  3 31  1  0  0  0  0
  4  5  1  0  0  0  0
  4 32  1  0  0  0  0
  4 33  1  0  0  0  0
  5 22  1  0  0  0  0
  5  6  1  0  0  0  0
  6  7  1  0  0  0  0
  6  8  2  0  0  0  0
  7 34  1  0  0  0  0
  7 35  1  0  0  0  0
  8  9  1  0  0  0  0
  8 19  1  0  0  0  0
  9 10  1  0  0  0  0
  9 11  1  0  0  0  0
 10 36  1  0  0  0  0
 10 37  1  0  0  0  0
 10 38  1  0  0  0  0
 11 12  2  0  0  0  0
 11 13  1  0  0  0  0
 13 18  1  0  0  0  0
 13 14  2  0  0  0  0
 14 15  1  0  0  0  0
 14 39  1  0  0  0  0
 15 16  1  0  0  0  0
 16 17  1  0  0  0  0
 16 40  1  0  0  0  0
 16 41  1  0  0  0  0
 17 18  1  0  0  0  0
 17 42  1  0  0  0  0
 17 43  1  0  0  0  0
 19 20  2  0  0  0  0
 19 21  1  0  0  0  0
 21 24  1  0  0  0  0
 21 22  1  0  0  0  0
 22 23  2  0  0  0  0
M  END
> <s_m_source_file>
AV-unprocessed.smi

> <i_m_source_file_index>
1374

> <i_lp_mmshare_version>
43012

> <i_f3d_flags>
0

> <s_epik_input>
W0NIM11bQ0gyXVtDSDJdW0NIMl1uMWMoW05IMl0pYyhjKD1PKVtuSF1jMT1PKU4oW0NIM10pQyg9TylDMj1bQ0hdT1tDSDJdW0NIMl1PMg==

> <s_epik_cmdline>
J2VwaWtfcHl0aG9uJywgJy1waCcsICc3LjAnLCAnLXRuJywgJzgnLCAnLW1hJywgJzIwMCcsICctbWV0YWxfYmluZGluZycsICctaW1hZScsICc8aW5maWxlLm1hZT4nLCAnLW9tYWUnLCAnPG91dGZpbGUubWFlPic=

> <r_lp_tautomer_probability>
1

> <r_epik_Ionization_Penalty>
3.28524e-05

> <r_epik_Ionization_Penalty_Charging>
2.39265e-05

> <r_epik_Ionization_Penalty_Neutral>
8.92594e-06

> <r_epik_State_Penalty>
-0

> <r_epik_Charging_Adjusted_Penalty>
2.39265e-05

> <i_epik_Tot_Q>
0

> <i_epik_Tot_abs_Q>
0

> <r_epik_Metal_State_Penalty>
0.0232519

> <b_epik_Metal_Only>
0

> <s_epik_Chemistry_Notes>
This compound has an imine and may undergo hydrolysis.

> <s_lp_Force_Field>
OPLS_2005

> <r_lp_Energy>
27.3757

> <b_lp_Chiralities_Consistent>
1

> <s_lp_Variant>
AV-unprocessed.smi:1374-1

> <Gold.Version>
5.8.1

> <Gold.Id.Protein>
6NUR|6NUR_protein|mol2

> <Gold.PLP.Fitness>
42.5200

> <Gold.PLP.PLP>
-38.1922

> <Gold.PLP.part.hbond>
-3.0000

> <Gold.PLP.part.metal>
0.0000

> <Gold.PLP.part.buried>
-3.0976

> <Gold.PLP.part.nonpolar>
-32.0613

> <Gold.PLP.part.repulsive>
0.3130

> <Gold.PLP.ligand.clash>
0.0000

> <Gold.PLP.ligand.torsion>
2.9240

> <Gold.PLP.Chemscore.Hbond>
2.2601

> <Gold.PLP.Chemscore.CHOScore>
0.0000

> <Gold.PLP.Chemscore.Metal>
0.0000

> <Gold.Chemscore.Hbonds>
donor molecule, donor type, donor heavy atom, donor atom, acceptor molecule, acceptor atom, score
      P1  H  6896  6907       L1    20  1.00
      P1  H  7989  7998       L1    15  0.22
      P1  H  7997  8009       L1    12  0.88

> <Gold.PLP.Chemscore.Internal.Correction>
3.3957

> <Gold.Rescore>
     Score         DG    S(hbond)    S(metal)    S(lipo)     H(rot)  DE(clash)    DE(int)     intcor
     12.77     -17.07       1.80        0.00      80.37       1.49       0.28       4.03       ----

> <Gold.Chemscore.Fitness>
12.7659

> <Gold.Chemscore.DG>
-17.0722

> <Gold.Chemscore.ZeroCoef>
-5.4800

> <Gold.Chemscore.Hbond>
1.7954

> <Gold.Chemscore.Metal>
0.0000

> <Gold.Chemscore.Lipo>
80.3726

> <Gold.Chemscore.Internal_Hbond>
0.0000

> <Gold.Chemscore.DEClash>
0.2806

> <Gold.Chemscore.DEInternal>
4.0258

> <Gold.Chemscore.Rot>
1.4875

> <Gold.Chemscore.Internal.Correction>
   9.000000E+99

> <Gold.Chemscore.Hbonds>
donor molecule, donor type, donor heavy atom, donor atom, acceptor molecule, acceptor atom, score
      P1  H  6896  6907       L1    20  0.99
      P1  H  7997  8009       L1    12  0.33

> <Gold.Chemscore.Hbond.Weighted>
-5.9967

> <Gold.Chemscore.Metal.Weighted>
-0.0000

> <Gold.Chemscore.Lipo.Weighted>
-9.4036

> <Gold.Chemscore.Internal_Hbond.Weighted>
0.0000

> <Gold.Chemscore.DEClash.Weighted>
0.2806

> <Gold.Chemscore.DEInternal.Weighted>
4.0258

> <Gold.Chemscore.Rot.Weighted>
3.8081

> <Gold.Chemscore.Internal.Correction.Weighted>
   9.000000E+99

> <Gold.Protein.RotatedTorsions>
[ 6907 6896 6895 6894 ] final   23.10 input  -60.11 | X-H torsion
[ 7974 7965 7964 7962 ] final  111.35 input  175.53 | X-H torsion
[ 8008 7997 7996 7995 ] final  178.80 input   59.86 | X-H torsion
[ 10167 10162 10161 10158 ] final   94.10 input  -65.29 | X-H torsion
[ 10718 10713 10712 10709 ] final   44.26 input   66.30 | X-H torsion
[ 10763 10752 10751 10750 ] final   38.15 input  -60.55 | X-H torsion
[ 11005 11000 10999 10996 ] final  143.67 input  -57.11 | X-H torsion

> <Gold.Protein.ActiveResidues>
 VAL166  LYS551  ARG553  GLY616  TRP617  ASP618  TYR619  PRO620  LYS621  CYS622 
 ASP623  PHE694  ASN695  SER759  ASP760  ASP761  ALA762  ILE779  LEU786  VAL792 
 PHE793  MET794  SER795  GLU796  ALA797  LYS798  CYS799  TRP800  GLU811  SER814 

> <Gold.Protein.RotatedAtoms>
  151.9372  135.0230  160.0533 H   0  0  0  0  0  0  0  0  0  0  0  0  # atno 6907 bound_to 6896
  152.2068  133.4877  159.5096 H   0  0  0  0  0  0  0  0  0  0  0  0  # atno 6908 bound_to 6896
  150.6967  134.1436  159.4157 H   0  0  0  0  0  0  0  0  0  0  0  0  # atno 6909 bound_to 6896
  145.2433  139.2769  143.4106 H   0  0  0  0  0  0  0  0  0  0  0  0  # atno 7974 bound_to 7965
  156.0506  140.1324  157.0054 H   0  0  0  0  0  0  0  0  0  0  0  0  # atno 8008 bound_to 7997
  154.4433  140.1011  156.6441 H   0  0  0  0  0  0  0  0  0  0  0  0  # atno 8009 bound_to 7997
  155.5529  140.3463  155.4475 H   0  0  0  0  0  0  0  0  0  0  0  0  # atno 8010 bound_to 7997
  139.8116  144.6771  150.9633 H   0  0  0  0  0  0  0  0  0  0  0  0  # atno 10167 bound_to 10162
  157.4249  130.7991  149.7549 H   0  0  0  0  0  0  0  0  0  0  0  0  # atno 10718 bound_to 10713
  153.0011  135.6257  154.2258 H   0  0  0  0  0  0  0  0  0  0  0  0  # atno 10763 bound_to 10752
  154.2001  135.2804  155.2995 H   0  0  0  0  0  0  0  0  0  0  0  0  # atno 10764 bound_to 10752
  154.5691  135.5682  153.7137 H   0  0  0  0  0  0  0  0  0  0  0  0  # atno 10765 bound_to 10752
  140.0572  134.9224  157.1120 H   0  0  0  0  0  0  0  0  0  0  0  0  # atno 11005 bound_to 11000
  146.3322  140.2803  142.8610 LP  0  0  0  0  0  0  0  0  0  0  0  0  # atno 17320 bound_to 7965
  144.9569  140.8235  143.5537 LP  0  0  0  0  0  0  0  0  0  0  0  0  # atno 17321 bound_to 7965
  140.7817  143.4179  151.0887 LP  0  0  0  0  0  0  0  0  0  0  0  0  # atno 17342 bound_to 10162
  139.7846  143.8306  152.3143 LP  0  0  0  0  0  0  0  0  0  0  0  0  # atno 17343 bound_to 10162
  155.9893  130.3953  150.3079 LP  0  0  0  0  0  0  0  0  0  0  0  0  # atno 17370 bound_to 10713
  157.1230  131.0252  151.3001 LP  0  0  0  0  0  0  0  0  0  0  0  0  # atno 17371 bound_to 10713
  140.3826  134.2270  155.7170 LP  0  0  0  0  0  0  0  0  0  0  0  0  # atno 17394 bound_to 11000
  141.1957  133.8099  157.0703 LP  0  0  0  0  0  0  0  0  0  0  0  0  # atno 17395 bound_to 11000

$$$$
