AV-unprocessed.smi:156|AV-procd|sdf|1290|dock2
  -GOLD-   2262018573D 1   1.00000     0.00000
 Structure written by MMmdl.
 51 53  0  0  0  0  0  0  0  0  1 V2000
  145.8767  133.5054  159.2763 C   0  0  0  0  0  0  0  0  0  0  0  0
  146.7958  134.4534  158.4826 C   0  0  1  0  0  0  0  0  0  0  0  0
  147.9694  135.0678  159.3003 C   0  0  1  0  0  0  0  0  0  0  0  0
  148.9215  135.8642  158.3860 C   0  0  0  0  0  0  0  0  0  0  0  0
  147.3468  136.1595  160.6745 S   0  0  0  0  0  0  0  0  0  0  0  0
  146.4923  134.9885  161.8115 C   0  0  0  0  0  0  0  0  0  0  0  0
  148.5043  136.7229  161.3861 O   0  0  0  0  0  0  0  0  0  0  0  0
  146.3218  137.0620  160.1282 O   0  0  0  0  0  0  0  0  0  0  0  0
  147.2699  133.7767  157.2662 N   0  0  0  0  0  0  0  0  0  0  0  0
  147.9150  132.4698  157.3492 C   0  0  0  0  0  0  0  0  0  0  0  0
  146.7628  134.1721  156.0685 C   0  0  0  0  0  0  0  0  0  0  0  0
  145.8258  135.1565  156.0680 N   0  0  0  0  0  0  0  0  0  0  0  0
  145.2988  135.5931  154.9213 C   0  0  0  0  0  0  0  0  0  0  0  0
  145.5588  135.1886  153.6777 N   0  0  0  0  0  0  0  0  0  0  0  0
  146.4941  134.1963  153.6660 C   0  0  0  0  0  0  0  0  0  0  0  0
  147.1486  133.6384  154.8022 C   0  0  0  0  0  0  0  0  0  0  0  0
  148.0386  132.6534  154.3872 N   0  0  0  0  0  0  0  0  0  0  0  0
  147.9208  132.6351  153.0884 C   0  0  0  0  0  0  0  0  0  0  0  0
  146.9989  133.5160  152.5705 N   0  0  0  0  0  0  0  0  0  0  0  0
  146.6576  133.7048  151.1669 C   0  0  0  0  0  0  0  0  0  0  0  0
  145.4037  132.9357  150.6876 C   0  0  0  0  0  0  0  0  0  0  0  0
  145.9257  131.6769  149.9728 C   0  0  0  0  0  0  0  0  0  0  0  0
  146.5297  130.7526  150.8556 O   0  0  0  0  0  0  0  0  0  0  0  0
  144.2916  132.7414  151.7335 C   0  0  0  0  0  0  0  0  0  0  0  0
  143.5013  133.8089  151.1655 O   0  0  0  0  0  0  0  0  0  0  0  0
  144.3126  133.7531  149.9715 C   0  0  0  0  0  0  0  0  0  0  0  0
  145.3106  134.0351  160.0414 H   0  0  0  0  0  0  0  0  0  0  0  0
  146.4427  132.7095  159.7612 H   0  0  0  0  0  0  0  0  0  0  0  0
  145.1420  133.0379  158.6197 H   0  0  0  0  0  0  0  0  0  0  0  0
  146.1583  135.2908  158.1988 H   0  0  0  0  0  0  0  0  0  0  0  0
  148.5356  134.2739  159.7858 H   0  0  0  0  0  0  0  0  0  0  0  0
  149.2876  135.2564  157.5587 H   0  0  0  0  0  0  0  0  0  0  0  0
  149.8044  136.2091  158.9214 H   0  0  0  0  0  0  0  0  0  0  0  0
  148.4225  136.7345  157.9592 H   0  0  0  0  0  0  0  0  0  0  0  0
  145.9624  135.5570  162.5757 H   0  0  0  0  0  0  0  0  0  0  0  0
  147.2201  134.3416  162.2993 H   0  0  0  0  0  0  0  0  0  0  0  0
  145.7772  134.3873  161.2506 H   0  0  0  0  0  0  0  0  0  0  0  0
  148.4881  132.2596  156.4455 H   0  0  0  0  0  0  0  0  0  0  0  0
  147.1723  131.6827  157.4809 H   0  0  0  0  0  0  0  0  0  0  0  0
  148.6063  132.4215  158.1892 H   0  0  0  0  0  0  0  0  0  0  0  0
  144.5623  136.3772  155.0145 H   0  0  0  0  0  0  0  0  0  0  0  0
  148.5058  131.9697  152.4710 H   0  0  0  0  0  0  0  0  0  0  0  0
  146.5359  134.7760  151.0003 H   0  0  0  0  0  0  0  0  0  0  0  0
  147.5264  133.4126  150.5756 H   0  0  0  0  0  0  0  0  0  0  0  0
  145.1149  131.1622  149.4558 H   0  0  0  0  0  0  0  0  0  0  0  0
  146.6629  131.9415  149.2140 H   0  0  0  0  0  0  0  0  0  0  0  0
  147.4353  130.6452  150.6072 H   0  0  0  0  0  0  0  0  0  0  0  0
  143.7724  131.7841  151.6730 H   0  0  0  0  0  0  0  0  0  0  0  0
  144.5952  132.9380  152.7606 H   0  0  0  0  0  0  0  0  0  0  0  0
  144.6245  134.7368  149.6254 H   0  0  0  0  0  0  0  0  0  0  0  0
  143.8032  133.2195  149.1681 H   0  0  0  0  0  0  0  0  0  0  0  0
  1  2  1  0  0  0  0
  1 27  1  0  0  0  0
  1 28  1  0  0  0  0
  1 29  1  0  0  0  0
  2  3  1  0  0  0  0
  2  9  1  0  0  0  0
  2 30  1  0  0  0  0
  3  4  1  0  0  0  0
  3  5  1  0  0  0  0
  3 31  1  0  0  0  0
  4 32  1  0  0  0  0
  4 33  1  0  0  0  0
  4 34  1  0  0  0  0
  5  6  1  0  0  0  0
  5  7  2  0  0  0  0
  5  8  2  0  0  0  0
  6 35  1  0  0  0  0
  6 36  1  0  0  0  0
  6 37  1  0  0  0  0
  9 10  1  0  0  0  0
  9 11  1  0  0  0  0
 10 38  1  0  0  0  0
 10 39  1  0  0  0  0
 10 40  1  0  0  0  0
 11 16  1  0  0  0  0
 11 12  2  0  0  0  0
 12 13  1  0  0  0  0
 13 14  2  0  0  0  0
 13 41  1  0  0  0  0
 14 15  1  0  0  0  0
 15 19  1  0  0  0  0
 15 16  2  0  0  0  0
 16 17  1  0  0  0  0
 17 18  2  0  0  0  0
 18 19  1  0  0  0  0
 18 42  1  0  0  0  0
 19 20  1  0  0  0  0
 20 21  1  0  0  0  0
 20 43  1  0  0  0  0
 20 44  1  0  0  0  0
 21 26  1  0  0  0  0
 21 22  1  0  0  0  0
 21 24  1  0  0  0  0
 22 23  1  0  0  0  0
 22 45  1  0  0  0  0
 22 46  1  0  0  0  0
 23 47  1  0  0  0  0
 24 25  1  0  0  0  0
 24 48  1  0  0  0  0
 24 49  1  0  0  0  0
 25 26  1  0  0  0  0
 26 50  1  0  0  0  0
 26 51  1  0  0  0  0
M  END
> <s_m_source_file>
AV-unprocessed.smi

> <i_m_source_file_index>
156

> <i_lp_mmshare_version>
43012

> <i_f3d_flags>
0

> <s_epik_input>
W0NIM11TKD1PKSg9TylbQ0BASF0oW0NIM10pW0NAQEhdKFtDSDNdKU4oW0NIM10pYyhuW2NIXW4xKWMoYzEyKW5bY0hdbjJbQ0gyXUMzKFtDSDJdW09IXSlbQ0gyXU9bQ0gyXTM=

> <s_epik_cmdline>
J2VwaWtfcHl0aG9uJywgJy1waCcsICc3LjAnLCAnLXRuJywgJzgnLCAnLW1hJywgJzIwMCcsICctbWV0YWxfYmluZGluZycsICctaW1hZScsICc8aW5maWxlLm1hZT4nLCAnLW9tYWUnLCAnPG91dGZpbGUubWFlPic=

> <r_lp_tautomer_probability>
1

> <r_epik_Ionization_Penalty>
0.00107697

> <r_epik_Ionization_Penalty_Charging>
0

> <r_epik_Ionization_Penalty_Neutral>
0.00107697

> <r_epik_State_Penalty>
0.000614712

> <r_epik_Charging_Adjusted_Penalty>
0.000614712

> <i_epik_Tot_Q>
0

> <i_epik_Tot_abs_Q>
0

> <r_epik_Metal_State_Penalty>
-0

> <b_epik_Metal_Only>
0

> <s_lp_Force_Field>
OPLS_2005

> <r_lp_Energy>
27.5373

> <b_lp_Chiralities_Consistent>
1

> <s_lp_Variant>
AV-unprocessed.smi:156-4

> <Gold.Version>
5.8.1

> <Gold.Id.Protein>
6NUR|6NUR_protein|mol2

> <Gold.PLP.Fitness>
36.9787

> <Gold.PLP.PLP>
-27.6773

> <Gold.PLP.part.hbond>
-2.7499

> <Gold.PLP.part.metal>
0.0000

> <Gold.PLP.part.buried>
-3.9190

> <Gold.PLP.part.nonpolar>
-21.9620

> <Gold.PLP.part.repulsive>
0.5964

> <Gold.PLP.ligand.clash>
0.0000

> <Gold.PLP.ligand.torsion>
1.8791

> <Gold.PLP.Chemscore.Hbond>
2.9013

> <Gold.PLP.Chemscore.CHOScore>
1.0000

> <Gold.PLP.Chemscore.Metal>
0.0000

> <Gold.Chemscore.Hbonds>
donor molecule, donor type, donor heavy atom, donor atom, acceptor molecule, acceptor atom, score
      L1  H    23    47       P1 10747  1.00
      P1  H  6931  6943       L1     7  1.00
      P1  H  6934  6947       L1     8  0.37
      L1  C    18    42       P1 10747  1.00

> <Gold.PLP.Chemscore.Internal.Correction>
1.3560

> <Gold.Rescore>
     Score         DG    S(hbond)    S(metal)    S(lipo)     H(rot)  DE(clash)    DE(int)     intcor
      8.97     -13.26       2.74        0.00      58.66       3.21       0.22       4.06       ----

> <Gold.Chemscore.Fitness>
8.9747

> <Gold.Chemscore.DG>
-13.2608

> <Gold.Chemscore.ZeroCoef>
-5.4800

> <Gold.Chemscore.Hbond>
2.7363

> <Gold.Chemscore.Metal>
0.0000

> <Gold.Chemscore.Lipo>
58.6578

> <Gold.Chemscore.Internal_Hbond>
0.0000

> <Gold.Chemscore.DEClash>
0.2242

> <Gold.Chemscore.DEInternal>
4.0618

> <Gold.Chemscore.Rot>
3.2115

> <Gold.Chemscore.Internal.Correction>
   9.000000E+99

> <Gold.Chemscore.Hbonds>
donor molecule, donor type, donor heavy atom, donor atom, acceptor molecule, acceptor atom, score
      L1  H    23    47       P1 10747  0.97
      P1  H  6931  6943       L1     7  1.00
      P1  H  6934  6947       L1     8  0.08

> <Gold.Chemscore.Hbond.Weighted>
-9.1393

> <Gold.Chemscore.Metal.Weighted>
-0.0000

> <Gold.Chemscore.Lipo.Weighted>
-6.8630

> <Gold.Chemscore.Internal_Hbond.Weighted>
0.0000

> <Gold.Chemscore.DEClash.Weighted>
0.2242

> <Gold.Chemscore.DEInternal.Weighted>
4.0618

> <Gold.Chemscore.Rot.Weighted>
8.2215

> <Gold.Chemscore.Internal.Correction.Weighted>
   9.000000E+99

> <Gold.Protein.RotatedTorsions>
[ 6907 6896 6895 6894 ] final  140.63 input  -60.11 | X-H torsion
[ 7974 7965 7964 7962 ] final   35.20 input  175.53 | X-H torsion
[ 8008 7997 7996 7995 ] final   23.48 input   59.86 | X-H torsion
[ 10167 10162 10161 10158 ] final  130.08 input  -65.29 | X-H torsion
[ 10718 10713 10712 10709 ] final   95.69 input   66.30 | X-H torsion
[ 10763 10752 10751 10750 ] final  -54.01 input  -60.55 | X-H torsion
[ 11005 11000 10999 10996 ] final  141.02 input  -57.11 | X-H torsion

> <Gold.Protein.ActiveResidues>
 VAL166  LYS551  ARG553  GLY616  TRP617  ASP618  TYR619  PRO620  LYS621  CYS622 
 ASP623  PHE694  ASN695  SER759  ASP760  ASP761  ALA762  ILE779  LEU786  VAL792 
 PHE793  MET794  SER795  GLU796  ALA797  LYS798  CYS799  TRP800  GLU811  SER814 

> <Gold.Protein.RotatedAtoms>
  152.2407  133.5133  159.5268 H   0  0  0  0  0  0  0  0  0  0  0  0  # atno 6907 bound_to 6896
  150.7063  134.1093  159.4003 H   0  0  0  0  0  0  0  0  0  0  0  0  # atno 6908 bound_to 6896
  151.9014  135.0376  160.0557 H   0  0  0  0  0  0  0  0  0  0  0  0  # atno 6909 bound_to 6896
  146.1300  139.6173  142.9233 H   0  0  0  0  0  0  0  0  0  0  0  0  # atno 7974 bound_to 7965
  154.9815  140.3102  155.4944 H   0  0  0  0  0  0  0  0  0  0  0  0  # atno 8008 bound_to 7997
  156.2952  140.2265  156.4854 H   0  0  0  0  0  0  0  0  0  0  0  0  # atno 8009 bound_to 7997
  154.7785  140.0447  157.1096 H   0  0  0  0  0  0  0  0  0  0  0  0  # atno 8010 bound_to 7997
  139.5447  144.6762  151.4512 H   0  0  0  0  0  0  0  0  0  0  0  0  # atno 10167 bound_to 10162
  157.6936  131.0554  150.4378 H   0  0  0  0  0  0  0  0  0  0  0  0  # atno 10718 bound_to 10713
  154.1679  135.6464  153.5002 H   0  0  0  0  0  0  0  0  0  0  0  0  # atno 10763 bound_to 10752
  153.0092  135.5376  154.6643 H   0  0  0  0  0  0  0  0  0  0  0  0  # atno 10764 bound_to 10752
  154.5974  135.2940  155.0543 H   0  0  0  0  0  0  0  0  0  0  0  0  # atno 10765 bound_to 10752
  140.0370  134.9324  157.0772 H   0  0  0  0  0  0  0  0  0  0  0  0  # atno 11005 bound_to 11000
  145.5282  141.0428  143.2398 LP  0  0  0  0  0  0  0  0  0  0  0  0  # atno 17320 bound_to 7965
  144.7681  139.6799  143.7206 LP  0  0  0  0  0  0  0  0  0  0  0  0  # atno 17321 bound_to 7965
  140.6690  143.8334  150.6977 LP  0  0  0  0  0  0  0  0  0  0  0  0  # atno 17342 bound_to 10162
  140.1752  143.4160  152.1972 LP  0  0  0  0  0  0  0  0  0  0  0  0  # atno 17343 bound_to 10162
  156.4739  130.4059  149.6501 LP  0  0  0  0  0  0  0  0  0  0  0  0  # atno 17370 bound_to 10713
  156.3572  130.7462  151.2430 LP  0  0  0  0  0  0  0  0  0  0  0  0  # atno 17371 bound_to 10713
  140.4131  134.1960  155.7163 LP  0  0  0  0  0  0  0  0  0  0  0  0  # atno 17394 bound_to 11000
  141.1863  133.8306  157.1075 LP  0  0  0  0  0  0  0  0  0  0  0  0  # atno 17395 bound_to 11000

$$$$
