AV-unprocessed.smi:1005|AV-procd|sdf|4371|dock10
  -GOLD-   22720 2283D 1   1.00000     0.00000
 Structure written by MMmdl.
 57 59  0  0  0  0  0  0  0  0  3 V2000
  152.5160  143.5139  160.6588 C   0  0  0  0  0  0  0  0  0  0  0  0
  152.3566  142.5393  159.5046 C   0  0  0  0  0  0  0  0  0  0  0  0
  151.5215  142.8920  158.4214 C   0  0  0  0  0  0  0  0  0  0  0  0
  151.3221  142.0054  157.3411 C   0  0  0  0  0  0  0  0  0  0  0  0
  150.5566  142.1467  156.1978 N   0  0  0  0  0  0  0  0  0  0  0  0
  150.7656  140.9838  155.5893 C   0  0  0  0  0  0  0  0  0  0  0  0
  151.5960  140.1109  156.1927 N   0  0  0  0  0  0  0  0  0  0  0  0
  151.9688  138.7926  155.7032 C   0  0  0  0  0  0  0  0  0  0  0  0
  151.1882  138.3661  154.4423 C   0  0  1  0  0  0  0  0  0  0  0  0
  151.6986  137.1185  154.0186 O   0  0  0  0  0  0  0  0  0  0  0  0
  149.6613  138.2398  154.6634 C   0  0  0  0  0  0  0  0  0  0  0  0
  149.3074  137.3202  155.7786 N   0  3  1  0  0  0  0  0  0  0  0  0
  148.2462  137.8568  156.6651 C   0  0  0  0  0  0  0  0  0  0  0  0
  146.8564  137.7152  156.0176 C   0  0  0  0  0  0  0  0  0  0  0  0
  146.6195  136.3497  155.6945 O   0  0  0  0  0  0  0  0  0  0  0  0
  147.5561  135.8369  154.7520 C   0  0  2  0  0  0  0  0  0  0  0  0
  147.1736  134.3778  154.4436 C   0  0  0  0  0  0  0  0  0  0  0  0
  148.0323  133.7699  153.3954 N   0  3  0  0  0  0  0  0  0  0  0  0
  149.3556  133.3362  153.8981 C   0  0  0  0  0  0  0  0  0  0  0  0
  147.3429  132.6752  152.6773 C   0  0  0  0  0  0  0  0  0  0  0  0
  148.9716  135.9311  155.3645 C   0  0  0  0  0  0  0  0  0  0  0  0
  151.9858  140.7435  157.3713 C   0  0  0  0  0  0  0  0  0  0  0  0
  152.8249  140.3847  158.4422 C   0  0  0  0  0  0  0  0  0  0  0  0
  153.0176  141.2851  159.5110 C   0  0  0  0  0  0  0  0  0  0  0  0
  153.9298  140.8880  160.6578 C   0  0  0  0  0  0  0  0  0  0  0  0
  152.0817  144.4855  160.4211 H   0  0  0  0  0  0  0  0  0  0  0  0
  153.5667  143.6707  160.9013 H   0  0  0  0  0  0  0  0  0  0  0  0
  152.0127  143.1294  161.5464 H   0  0  0  0  0  0  0  0  0  0  0  0
  151.0157  143.8467  158.4164 H   0  0  0  0  0  0  0  0  0  0  0  0
  150.2944  140.7573  154.6438 H   0  0  0  0  0  0  0  0  0  0  0  0
  153.0413  138.7927  155.5043 H   0  0  0  0  0  0  0  0  0  0  0  0
  151.8010  138.0717  156.5054 H   0  0  0  0  0  0  0  0  0  0  0  0
  151.4102  139.0831  153.6564 H   0  0  0  0  0  0  0  0  0  0  0  0
  151.0815  136.7162  153.4271 H   0  0  0  0  0  0  0  0  0  0  0  0
  149.2578  139.2348  154.8582 H   0  0  0  0  0  0  0  0  0  0  0  0
  149.1577  137.8983  153.7614 H   0  0  0  0  0  0  0  0  0  0  0  0
  148.2650  137.2974  157.6014 H   0  0  0  0  0  0  0  0  0  0  0  0
  148.4499  138.8960  156.9264 H   0  0  0  0  0  0  0  0  0  0  0  0
  146.0856  138.0494  156.7122 H   0  0  0  0  0  0  0  0  0  0  0  0
  146.7667  138.3364  155.1252 H   0  0  0  0  0  0  0  0  0  0  0  0
  147.5135  136.4242  153.8354 H   0  0  0  0  0  0  0  0  0  0  0  0
  147.2212  133.7686  155.3480 H   0  0  0  0  0  0  0  0  0  0  0  0
  146.1324  134.3598  154.1174 H   0  0  0  0  0  0  0  0  0  0  0  0
  149.2424  132.5465  154.6403 H   0  0  0  0  0  0  0  0  0  0  0  0
  149.9076  134.1575  154.3530 H   0  0  0  0  0  0  0  0  0  0  0  0
  149.9666  132.9475  153.0829 H   0  0  0  0  0  0  0  0  0  0  0  0
  147.0952  131.8577  153.3559 H   0  0  0  0  0  0  0  0  0  0  0  0
  147.9723  132.2788  151.8798 H   0  0  0  0  0  0  0  0  0  0  0  0
  146.4198  133.0326  152.2198 H   0  0  0  0  0  0  0  0  0  0  0  0
  149.7092  135.5280  154.6731 H   0  0  0  0  0  0  0  0  0  0  0  0
  149.0219  135.2991  156.2524 H   0  0  0  0  0  0  0  0  0  0  0  0
  153.3109  139.4211  158.4510 H   0  0  0  0  0  0  0  0  0  0  0  0
  154.2786  139.8603  160.5520 H   0  0  0  0  0  0  0  0  0  0  0  0
  153.4063  140.9655  161.6111 H   0  0  0  0  0  0  0  0  0  0  0  0
  154.8047  141.5378  160.6883 H   0  0  0  0  0  0  0  0  0  0  0  0
  148.1999  134.4902  152.7069 H   0  0  0  0  0  0  0  0  0  0  0  0
  150.1400  137.2625  156.3481 H   0  0  0  0  0  0  0  0  0  0  0  0
  1  2  1  0  0  0  0
  1 26  1  0  0  0  0
  1 27  1  0  0  0  0
  1 28  1  0  0  0  0
  2 24  1  0  0  0  0
  2  3  2  0  0  0  0
  3  4  1  0  0  0  0
  3 29  1  0  0  0  0
  4 22  2  0  0  0  0
  4  5  1  0  0  0  0
  5  6  2  0  0  0  0
  6  7  1  0  0  0  0
  6 30  1  0  0  0  0
  7  8  1  0  0  0  0
  7 22  1  0  0  0  0
  8  9  1  0  0  0  0
  8 31  1  0  0  0  0
  8 32  1  0  0  0  0
  9 10  1  0  0  0  0
  9 11  1  0  0  0  0
  9 33  1  0  0  0  0
 10 34  1  0  0  0  0
 11 12  1  0  0  0  0
 11 35  1  0  0  0  0
 11 36  1  0  0  0  0
 12 21  1  0  0  0  0
 12 13  1  0  0  0  0
 12 57  1  0  0  0  0
 13 14  1  0  0  0  0
 13 37  1  0  0  0  0
 13 38  1  0  0  0  0
 14 15  1  0  0  0  0
 14 39  1  0  0  0  0
 14 40  1  0  0  0  0
 15 16  1  0  0  0  0
 16 17  1  0  0  0  0
 16 21  1  0  0  0  0
 16 41  1  0  0  0  0
 17 18  1  0  0  0  0
 17 42  1  0  0  0  0
 17 43  1  0  0  0  0
 18 19  1  0  0  0  0
 18 20  1  0  0  0  0
 18 56  1  0  0  0  0
 19 44  1  0  0  0  0
 19 45  1  0  0  0  0
 19 46  1  0  0  0  0
 20 47  1  0  0  0  0
 20 48  1  0  0  0  0
 20 49  1  0  0  0  0
 21 50  1  0  0  0  0
 21 51  1  0  0  0  0
 22 23  1  0  0  0  0
 23 24  2  0  0  0  0
 23 52  1  0  0  0  0
 24 25  1  0  0  0  0
 25 53  1  0  0  0  0
 25 54  1  0  0  0  0
 25 55  1  0  0  0  0
M  CHG  1  12   1
M  CHG  1  18   1
M  END
> <s_m_source_file>
AV-unprocessed.smi

> <i_m_source_file_index>
1005

> <i_lp_mmshare_version>
43012

> <i_f3d_flags>
0

> <s_epik_input>
W0NIM11jKFtjSF0xKWMoW0NIM10pW2NIXWMoYzEyKW4oW2NIXW4yKVtDSDJdW0NASF0oW09IXSlbQ0gyXU4zW0NIMl1bQ0gyXU9bQ0BIXShbQ0gyXTMpW0NIMl1OKFtDSDNdKVtDSDNd

> <s_epik_cmdline>
J2VwaWtfcHl0aG9uJywgJy1waCcsICc3LjAnLCAnLXRuJywgJzgnLCAnLW1hJywgJzIwMCcsICctbWV0YWxfYmluZGluZycsICctaW1hZScsICc8aW5maWxlLm1hZT4nLCAnLW9tYWUnLCAnPG91dGZpbGUubWFlPic=

> <r_epik_Ionization_Penalty>
1.0968

> <r_epik_Ionization_Penalty_Charging>
1.0096

> <r_epik_Ionization_Penalty_Neutral>
0.0871956

> <r_epik_State_Penalty>
1.31185

> <r_epik_Charging_Adjusted_Penalty>
2.32145

> <i_epik_Tot_Q>
2

> <i_epik_Tot_abs_Q>
2

> <r_epik_Metal_State_Penalty>
1.22442

> <b_epik_Metal_Only>
0

> <s_lp_Force_Field>
OPLS_2005

> <r_lp_Energy>
34.2577

> <b_lp_Chiralities_Consistent>
1

> <s_lp_Variant>
AV-unprocessed.smi:1005-10

> <Gold.Version>
5.8.1

> <Gold.Id.Protein>
6NUR|6NUR_protein|mol2

> <Gold.PLP.Fitness>
52.0735

> <Gold.PLP.PLP>
-43.5336

> <Gold.PLP.part.hbond>
-3.0000

> <Gold.PLP.part.metal>
0.0000

> <Gold.PLP.part.buried>
-3.9368

> <Gold.PLP.part.nonpolar>
-35.9089

> <Gold.PLP.part.repulsive>
0.1391

> <Gold.PLP.ligand.clash>
0.0000

> <Gold.PLP.ligand.torsion>
0.8704

> <Gold.PLP.Chemscore.Hbond>
3.4036

> <Gold.PLP.Chemscore.CHOScore>
0.0000

> <Gold.PLP.Chemscore.Metal>
0.0000

> <Gold.Chemscore.Hbonds>
donor molecule, donor type, donor heavy atom, donor atom, acceptor molecule, acceptor atom, score
      L1  H    10    34       P1  7949  0.64
      L1  H    18    56       P1  7948  1.98
      P1  H 10752 10763       L1    10  0.64

> <Gold.PLP.Chemscore.Internal.Correction>
0.0699

> <Gold.Rescore>
     Score         DG    S(hbond)    S(metal)    S(lipo)     H(rot)  DE(clash)    DE(int)     intcor
     14.44     -16.07       1.29        0.00     107.88       2.48       0.09       1.54       ----

> <Gold.Chemscore.Fitness>
14.4370

> <Gold.Chemscore.DG>
-16.0741

> <Gold.Chemscore.ZeroCoef>
-5.4800

> <Gold.Chemscore.Hbond>
1.2948

> <Gold.Chemscore.Metal>
0.0000

> <Gold.Chemscore.Lipo>
107.8774

> <Gold.Chemscore.Internal_Hbond>
0.0000

> <Gold.Chemscore.DEClash>
0.0948

> <Gold.Chemscore.DEInternal>
1.5423

> <Gold.Chemscore.Rot>
2.4814

> <Gold.Chemscore.Internal.Correction>
   9.000000E+99

> <Gold.Chemscore.Hbonds>
donor molecule, donor type, donor heavy atom, donor atom, acceptor molecule, acceptor atom, score
      L1  H    10    34       P1  7949  0.24
      L1  H    18    56       P1  7948  0.32
      P1  H 10752 10763       L1    10  0.10

> <Gold.Chemscore.Hbond.Weighted>
-4.3248

> <Gold.Chemscore.Metal.Weighted>
-0.0000

> <Gold.Chemscore.Lipo.Weighted>
-12.6217

> <Gold.Chemscore.Internal_Hbond.Weighted>
0.0000

> <Gold.Chemscore.DEClash.Weighted>
0.0948

> <Gold.Chemscore.DEInternal.Weighted>
1.5423

> <Gold.Chemscore.Rot.Weighted>
6.3524

> <Gold.Chemscore.Internal.Correction.Weighted>
   9.000000E+99

> <Gold.Protein.RotatedTorsions>
[ 6907 6896 6895 6894 ] final  124.07 input  -60.11 | X-H torsion
[ 7974 7965 7964 7962 ] final   70.79 input  175.53 | X-H torsion
[ 8008 7997 7996 7995 ] final -132.44 input   59.86 | X-H torsion
[ 10167 10162 10161 10158 ] final   46.73 input  -65.29 | X-H torsion
[ 10718 10713 10712 10709 ] final  101.09 input   66.30 | X-H torsion
[ 10763 10752 10751 10750 ] final    6.99 input  -60.55 | X-H torsion
[ 11005 11000 10999 10996 ] final   11.53 input  -57.11 | X-H torsion

> <Gold.Protein.ActiveResidues>
 VAL166  LYS551  ARG553  GLY616  TRP617  ASP618  TYR619  PRO620  LYS621  CYS622 
 ASP623  PHE694  ASN695  SER759  ASP760  ASP761  ALA762  ILE779  LEU786  VAL792 
 PHE793  MET794  SER795  GLU796  ALA797  LYS798  CYS799  TRP800  GLU811  SER814 

> <Gold.Protein.RotatedAtoms>
  152.4108  133.6961  159.6396 H   0  0  0  0  0  0  0  0  0  0  0  0  # atno 6907 bound_to 6896
  150.7989  133.8627  159.3245 H   0  0  0  0  0  0  0  0  0  0  0  0  # atno 6908 bound_to 6896
  151.6369  135.1019  160.0185 H   0  0  0  0  0  0  0  0  0  0  0  0  # atno 6909 bound_to 6896
  145.7738  139.2855  143.1305 H   0  0  0  0  0  0  0  0  0  0  0  0  # atno 7974 bound_to 7965
  155.3290  140.0466  157.3042 H   0  0  0  0  0  0  0  0  0  0  0  0  # atno 8008 bound_to 7997
  154.5338  140.2266  155.8723 H   0  0  0  0  0  0  0  0  0  0  0  0  # atno 8009 bound_to 7997
  156.1815  140.3072  155.9164 H   0  0  0  0  0  0  0  0  0  0  0  0  # atno 8010 bound_to 7997
  140.3109  144.2821  150.6200 H   0  0  0  0  0  0  0  0  0  0  0  0  # atno 10167 bound_to 10162
  157.6838  131.0716  150.5199 H   0  0  0  0  0  0  0  0  0  0  0  0  # atno 10718 bound_to 10713
  153.2414  135.6904  153.7778 H   0  0  0  0  0  0  0  0  0  0  0  0  # atno 10763 bound_to 10752
  153.6907  135.3313  155.3202 H   0  0  0  0  0  0  0  0  0  0  0  0  # atno 10764 bound_to 10752
  154.8357  135.4544  154.1338 H   0  0  0  0  0  0  0  0  0  0  0  0  # atno 10765 bound_to 10752
  140.5021  134.0735  155.7796 H   0  0  0  0  0  0  0  0  0  0  0  0  # atno 11005 bound_to 11000
  146.0143  140.8407  142.9955 LP  0  0  0  0  0  0  0  0  0  0  0  0  # atno 17320 bound_to 7965
  144.6808  140.2535  143.7328 LP  0  0  0  0  0  0  0  0  0  0  0  0  # atno 17321 bound_to 7965
  140.5569  143.2198  151.7833 LP  0  0  0  0  0  0  0  0  0  0  0  0  # atno 17342 bound_to 10162
  139.4894  144.4402  151.9773 LP  0  0  0  0  0  0  0  0  0  0  0  0  # atno 17343 bound_to 10162
  156.5513  130.4232  149.6106 LP  0  0  0  0  0  0  0  0  0  0  0  0  # atno 17370 bound_to 10713
  156.2900  130.7119  151.1965 LP  0  0  0  0  0  0  0  0  0  0  0  0  # atno 17371 bound_to 10713
  141.1430  133.9105  157.2282 LP  0  0  0  0  0  0  0  0  0  0  0  0  # atno 17394 bound_to 11000
  139.9707  135.0129  156.9504 LP  0  0  0  0  0  0  0  0  0  0  0  0  # atno 17395 bound_to 11000

$$$$
