AV-unprocessed.smi:2792|AV-procd|sdf|10772|dock4
  -GOLD-   2272015213D 1   1.00000     0.00000
 Structure written by MMmdl.
 44 46  0  0  0  0  0  0  0  0  1 V2000
  145.5569  136.0323  151.5081 C   0  0  0  0  0  0  0  0  0  0  0  0
  145.0188  136.6002  152.8326 C   0  0  0  0  0  0  0  0  0  0  0  0
  146.0232  137.4302  153.6695 C   0  0  1  0  0  0  0  0  0  0  0  0
  145.4554  137.8093  155.0540 C   0  0  0  0  0  0  0  0  0  0  0  0
  147.1718  136.6327  153.8865 O   0  0  0  0  0  0  0  0  0  0  0  0
  146.4560  138.6774  152.8544 C   0  0  0  0  0  0  0  0  0  0  0  0
  147.1750  139.6825  153.6239 N   0  0  0  0  0  0  0  0  0  0  0  0
  146.6922  140.9066  154.0316 C   0  0  0  0  0  0  0  0  0  0  0  0
  147.5306  141.6389  154.7134 N   0  0  0  0  0  0  0  0  0  0  0  0
  148.6825  140.8649  154.7691 C   0  0  0  0  0  0  0  0  0  0  0  0
  149.9637  141.0488  155.3498 C   0  0  0  0  0  0  0  0  0  0  0  0
  150.2698  142.1780  156.0262 N   0  0  0  0  0  0  0  0  0  0  0  0
  151.3534  142.1824  157.0039 C   0  0  0  0  0  0  0  0  0  0  0  0
  151.3636  143.3770  157.9448 C   0  0  0  0  0  0  0  0  0  0  0  0
  150.3063  143.5774  158.8585 C   0  0  0  0  0  0  0  0  0  0  0  0
  150.3237  144.6831  159.7306 C   0  0  0  0  0  0  0  0  0  0  0  0
  151.3965  145.5947  159.6913 C   0  0  0  0  0  0  0  0  0  0  0  0
  152.4507  145.4012  158.7777 C   0  0  0  0  0  0  0  0  0  0  0  0
  152.4333  144.2958  157.9049 C   0  0  0  0  0  0  0  0  0  0  0  0
  150.8770  140.0542  155.1948 N   0  0  0  0  0  0  0  0  0  0  0  0
  150.5526  138.9455  154.5224 C   0  0  0  0  0  0  0  0  0  0  0  0
  149.3955  138.6350  153.9332 N   0  0  0  0  0  0  0  0  0  0  0  0
  148.4793  139.6341  154.0845 C   0  0  0  0  0  0  0  0  0  0  0  0
  144.7620  135.5255  150.9608 H   0  0  0  0  0  0  0  0  0  0  0  0
  146.3489  135.3022  151.6718 H   0  0  0  0  0  0  0  0  0  0  0  0
  145.9482  136.8181  150.8618 H   0  0  0  0  0  0  0  0  0  0  0  0
  144.1463  137.2162  152.6095 H   0  0  0  0  0  0  0  0  0  0  0  0
  144.6474  135.7712  153.4364 H   0  0  0  0  0  0  0  0  0  0  0  0
  144.5666  138.4331  154.9557 H   0  0  0  0  0  0  0  0  0  0  0  0
  146.1799  138.3586  155.6553 H   0  0  0  0  0  0  0  0  0  0  0  0
  145.1804  136.9303  155.6363 H   0  0  0  0  0  0  0  0  0  0  0  0
  147.6993  136.6446  153.1023 H   0  0  0  0  0  0  0  0  0  0  0  0
  147.0814  138.3832  152.0101 H   0  0  0  0  0  0  0  0  0  0  0  0
  145.5768  139.1577  152.4229 H   0  0  0  0  0  0  0  0  0  0  0  0
  145.6874  141.2377  153.8123 H   0  0  0  0  0  0  0  0  0  0  0  0
  149.6660  142.9873  156.0391 H   0  0  0  0  0  0  0  0  0  0  0  0
  151.3246  141.2552  157.5778 H   0  0  0  0  0  0  0  0  0  0  0  0
  152.2978  142.1734  156.4595 H   0  0  0  0  0  0  0  0  0  0  0  0
  149.4804  142.8821  158.8950 H   0  0  0  0  0  0  0  0  0  0  0  0
  149.5141  144.8319  160.4300 H   0  0  0  0  0  0  0  0  0  0  0  0
  151.4108  146.4423  160.3606 H   0  0  0  0  0  0  0  0  0  0  0  0
  153.2735  146.1002  158.7468 H   0  0  0  0  0  0  0  0  0  0  0  0
  153.2470  144.1524  157.2090 H   0  0  0  0  0  0  0  0  0  0  0  0
  151.3312  138.2010  154.4459 H   0  0  0  0  0  0  0  0  0  0  0  0
  1  2  1  0  0  0  0
  1 24  1  0  0  0  0
  1 25  1  0  0  0  0
  1 26  1  0  0  0  0
  2  3  1  0  0  0  0
  2 27  1  0  0  0  0
  2 28  1  0  0  0  0
  3  4  1  0  0  0  0
  3  5  1  0  0  0  0
  3  6  1  0  0  0  0
  4 29  1  0  0  0  0
  4 30  1  0  0  0  0
  4 31  1  0  0  0  0
  5 32  1  0  0  0  0
  6  7  1  0  0  0  0
  6 33  1  0  0  0  0
  6 34  1  0  0  0  0
  7 23  1  0  0  0  0
  7  8  1  0  0  0  0
  8  9  2  0  0  0  0
  8 35  1  0  0  0  0
  9 10  1  0  0  0  0
 10 23  2  0  0  0  0
 10 11  1  0  0  0  0
 11 12  1  0  0  0  0
 11 20  2  0  0  0  0
 12 13  1  0  0  0  0
 12 36  1  0  0  0  0
 13 14  1  0  0  0  0
 13 37  1  0  0  0  0
 13 38  1  0  0  0  0
 14 19  1  0  0  0  0
 14 15  2  0  0  0  0
 15 16  1  0  0  0  0
 15 39  1  0  0  0  0
 16 17  2  0  0  0  0
 16 40  1  0  0  0  0
 17 18  1  0  0  0  0
 17 41  1  0  0  0  0
 18 19  2  0  0  0  0
 18 42  1  0  0  0  0
 19 43  1  0  0  0  0
 20 21  1  0  0  0  0
 21 22  2  0  0  0  0
 21 44  1  0  0  0  0
 22 23  1  0  0  0  0
M  END
> <s_m_source_file>
AV-unprocessed.smi

> <i_m_source_file_index>
2792

> <i_lp_mmshare_version>
43012

> <i_f3d_flags>
0

> <s_epik_input>
W0NIM11bQ0gyXVtDQEBdKFtDSDNdKShbT0hdKVtDSDJdbihbY0hdbjEpYyhjMTIpbltjSF1uYzJbTkhdW0NIMl1jM1tjSF1bY0hdW2NIXVtjSF1bY0hdMw==

> <s_epik_cmdline>
J2VwaWtfcHl0aG9uJywgJy1waCcsICc3LjAnLCAnLXRuJywgJzgnLCAnLW1hJywgJzIwMCcsICctbWV0YWxfYmluZGluZycsICctaW1hZScsICc8aW5maWxlLm1hZT4nLCAnLW9tYWUnLCAnPG91dGZpbGUubWFlPic=

> <r_lp_tautomer_probability>
1

> <r_epik_Ionization_Penalty>
0.00163025

> <r_epik_Ionization_Penalty_Charging>
0

> <r_epik_Ionization_Penalty_Neutral>
0.00163025

> <r_epik_State_Penalty>
-0

> <r_epik_Charging_Adjusted_Penalty>
0

> <i_epik_Tot_Q>
0

> <i_epik_Tot_abs_Q>
0

> <r_epik_Metal_State_Penalty>
-0

> <b_epik_Metal_Only>
0

> <s_lp_Force_Field>
OPLS_2005

> <r_lp_Energy>
13.0485

> <b_lp_Chiralities_Consistent>
1

> <s_lp_Variant>
AV-unprocessed.smi:2792-1

> <Gold.Version>
5.8.1

> <Gold.Id.Protein>
6NUR|6NUR_protein|mol2

> <Gold.PLP.Fitness>
56.0116

> <Gold.PLP.PLP>
-47.3827

> <Gold.PLP.part.hbond>
-2.6635

> <Gold.PLP.part.metal>
0.0000

> <Gold.PLP.part.buried>
-5.7897

> <Gold.PLP.part.nonpolar>
-41.5925

> <Gold.PLP.part.repulsive>
1.6770

> <Gold.PLP.ligand.clash>
0.0000

> <Gold.PLP.ligand.torsion>
0.5731

> <Gold.PLP.Chemscore.Hbond>
2.2100

> <Gold.PLP.Chemscore.CHOScore>
1.0000

> <Gold.PLP.Chemscore.Metal>
0.0000

> <Gold.Chemscore.Hbonds>
donor molecule, donor type, donor heavy atom, donor atom, acceptor molecule, acceptor atom, score
      L1  H     5    32       P1  7948  1.00
      L1  H    12    36       P1  8028  1.00
      P1  H  7989  7998       L1    20  0.32
      L1  C     8    35       P1 10175  1.00

> <Gold.PLP.Chemscore.Internal.Correction>
0.1451

> <Gold.Rescore>
     Score         DG    S(hbond)    S(metal)    S(lipo)     H(rot)  DE(clash)    DE(int)     intcor
     15.03     -17.60       1.94        0.00     103.55       2.52       1.10       1.46       ----

> <Gold.Chemscore.Fitness>
15.0344

> <Gold.Chemscore.DG>
-17.5979

> <Gold.Chemscore.ZeroCoef>
-5.4800

> <Gold.Chemscore.Hbond>
1.9359

> <Gold.Chemscore.Metal>
0.0000

> <Gold.Chemscore.Lipo>
103.5542

> <Gold.Chemscore.Internal_Hbond>
0.0000

> <Gold.Chemscore.DEClash>
1.1017

> <Gold.Chemscore.DEInternal>
1.4618

> <Gold.Chemscore.Rot>
2.5250

> <Gold.Chemscore.Internal.Correction>
   9.000000E+99

> <Gold.Chemscore.Hbonds>
donor molecule, donor type, donor heavy atom, donor atom, acceptor molecule, acceptor atom, score
      L1  H     5    32       P1  7948  1.00
      L1  H    12    36       P1  8028  0.99

> <Gold.Chemscore.Hbond.Weighted>
-6.4660

> <Gold.Chemscore.Metal.Weighted>
-0.0000

> <Gold.Chemscore.Lipo.Weighted>
-12.1158

> <Gold.Chemscore.Internal_Hbond.Weighted>
0.0000

> <Gold.Chemscore.DEClash.Weighted>
1.1017

> <Gold.Chemscore.DEInternal.Weighted>
1.4618

> <Gold.Chemscore.Rot.Weighted>
6.4639

> <Gold.Chemscore.Internal.Correction.Weighted>
   9.000000E+99

> <Gold.Protein.RotatedTorsions>
[ 6907 6896 6895 6894 ] final   19.64 input  -60.11 | X-H torsion
[ 7974 7965 7964 7962 ] final  140.94 input  175.53 | X-H torsion
[ 8008 7997 7996 7995 ] final   43.96 input   59.86 | X-H torsion
[ 10167 10162 10161 10158 ] final  158.06 input  -65.29 | X-H torsion
[ 10718 10713 10712 10709 ] final -105.29 input   66.30 | X-H torsion
[ 10763 10752 10751 10750 ] final   54.14 input  -60.55 | X-H torsion
[ 11005 11000 10999 10996 ] final  103.69 input  -57.11 | X-H torsion

> <Gold.Protein.ActiveResidues>
 VAL166  LYS551  ARG553  GLY616  TRP617  ASP618  TYR619  PRO620  LYS621  CYS622 
 ASP623  PHE694  ASN695  SER759  ASP760  ASP761  ALA762  ILE779  LEU786  VAL792 
 PHE793  MET794  SER795  GLU796  ALA797  LYS798  CYS799  TRP800  GLU811  SER814 

> <Gold.Protein.RotatedAtoms>
  151.8840  135.0442  160.0491 H   0  0  0  0  0  0  0  0  0  0  0  0  # atno 6907 bound_to 6896
  152.2490  133.5194  159.5322 H   0  0  0  0  0  0  0  0  0  0  0  0  # atno 6908 bound_to 6896
  150.7077  134.0902  159.3971 H   0  0  0  0  0  0  0  0  0  0  0  0  # atno 6909 bound_to 6896
  144.9141  139.5254  143.5694 H   0  0  0  0  0  0  0  0  0  0  0  0  # atno 7974 bound_to 7965
  155.3114  140.3391  155.4244 H   0  0  0  0  0  0  0  0  0  0  0  0  # atno 8008 bound_to 7997
  156.1954  140.1713  156.8047 H   0  0  0  0  0  0  0  0  0  0  0  0  # atno 8009 bound_to 7997
  154.5492  140.0709  156.8623 H   0  0  0  0  0  0  0  0  0  0  0  0  # atno 8010 bound_to 7997
  139.4825  144.4859  151.8377 H   0  0  0  0  0  0  0  0  0  0  0  0  # atno 10167 bound_to 10162
  156.0340  130.5556  150.7518 H   0  0  0  0  0  0  0  0  0  0  0  0  # atno 10718 bound_to 10713
  152.9801  135.5755  154.4855 H   0  0  0  0  0  0  0  0  0  0  0  0  # atno 10763 bound_to 10752
  154.4397  135.2775  155.1858 H   0  0  0  0  0  0  0  0  0  0  0  0  # atno 10764 bound_to 10752
  154.3531  135.6205  153.5706 H   0  0  0  0  0  0  0  0  0  0  0  0  # atno 10765 bound_to 10752
  139.8785  134.9272  156.5248 H   0  0  0  0  0  0  0  0  0  0  0  0  # atno 11005 bound_to 11000
  146.3173  139.7970  142.8973 LP  0  0  0  0  0  0  0  0  0  0  0  0  # atno 17320 bound_to 7965
  145.3405  141.0286  143.3395 LP  0  0  0  0  0  0  0  0  0  0  0  0  # atno 17321 bound_to 7965
  140.4339  144.2078  150.5889 LP  0  0  0  0  0  0  0  0  0  0  0  0  # atno 17342 bound_to 10162
  140.4751  143.2399  151.9034 LP  0  0  0  0  0  0  0  0  0  0  0  0  # atno 17343 bound_to 10162
  157.5060  131.0922  151.0256 LP  0  0  0  0  0  0  0  0  0  0  0  0  # atno 17370 bound_to 10713
  157.0624  130.5831  149.5388 LP  0  0  0  0  0  0  0  0  0  0  0  0  # atno 17371 bound_to 10713
  140.8424  133.8195  155.9088 LP  0  0  0  0  0  0  0  0  0  0  0  0  # atno 17394 bound_to 11000
  140.9224  134.2125  157.4918 LP  0  0  0  0  0  0  0  0  0  0  0  0  # atno 17395 bound_to 11000

$$$$
