AV-unprocessed.smi:644|AV-procd|sdf|3158|dock1
  -GOLD-   22720 0 83D 1   1.00000     0.00000
 Structure written by MMmdl.
 38 40  0  0  0  0  0  0  0  0  2 V2000
  152.1915  144.4780  160.6714 C   0  0  0  0  0  0  0  0  0  0  0  0
  152.0844  143.3808  159.6261 C   0  0  0  0  0  0  0  0  0  0  0  0
  151.2515  143.5961  158.5047 C   0  0  0  0  0  0  0  0  0  0  0  0
  151.1729  142.5732  157.5670 C   0  0  0  0  0  0  0  0  0  0  0  0
  150.4515  142.4760  156.3747 N   0  3  0  0  0  0  0  0  0  0  0  0
  150.6950  141.2686  155.7933 C   0  0  0  0  0  0  0  0  0  0  0  0
  151.5620  140.5949  156.5969 N   0  0  0  0  0  0  0  0  0  0  0  0
  152.1433  139.2547  156.4468 C   0  0  0  0  0  0  0  0  0  0  0  0
  151.6697  138.5403  155.1664 C   0  0  1  0  0  0  0  0  0  0  0  0
  152.7954  138.1049  154.4279 O   0  0  0  0  0  0  0  0  0  0  0  0
  150.7684  137.3358  155.4796 C   0  0  0  0  0  0  0  0  0  0  0  0
  151.6020  136.1238  156.5507 S   0  0  0  0  0  0  0  0  0  0  0  0
  150.4438  134.7947  156.4788 C   0  0  0  0  0  0  0  0  0  0  0  0
  149.7853  134.2844  157.5297 N   0  0  0  0  0  0  0  0  0  0  0  0
  148.9391  133.2444  157.1689 N   0  0  0  0  0  0  0  0  0  0  0  0
  148.9895  133.0070  155.8560 C   0  0  0  0  0  0  0  0  0  0  0  0
  150.0757  134.0316  154.9364 S   0  0  0  0  0  0  0  0  0  0  0  0
  151.8881  141.3692  157.7146 C   0  0  0  0  0  0  0  0  0  0  0  0
  152.7137  141.1403  158.8123 C   0  0  0  0  0  0  0  0  0  0  0  0
  152.8063  142.1682  159.7778 C   0  0  0  0  0  0  0  0  0  0  0  0
  153.6983  141.9468  160.9876 C   0  0  0  0  0  0  0  0  0  0  0  0
  151.5754  145.3391  160.4109 H   0  0  0  0  0  0  0  0  0  0  0  0
  153.2223  144.8214  160.7622 H   0  0  0  0  0  0  0  0  0  0  0  0
  151.8601  144.1141  161.6442 H   0  0  0  0  0  0  0  0  0  0  0  0
  150.6983  144.5161  158.3831 H   0  0  0  0  0  0  0  0  0  0  0  0
  150.2729  140.9079  154.8663 H   0  0  0  0  0  0  0  0  0  0  0  0
  153.2285  139.3665  156.4398 H   0  0  0  0  0  0  0  0  0  0  0  0
  151.8976  138.6717  157.3353 H   0  0  0  0  0  0  0  0  0  0  0  0
  151.1142  139.2450  154.5467 H   0  0  0  0  0  0  0  0  0  0  0  0
  152.9179  138.6915  153.6966 H   0  0  0  0  0  0  0  0  0  0  0  0
  149.8439  137.6677  155.9542 H   0  0  0  0  0  0  0  0  0  0  0  0
  150.4927  136.8366  154.5500 H   0  0  0  0  0  0  0  0  0  0  0  0
  148.3832  132.2234  155.4264 H   0  0  0  0  0  0  0  0  0  0  0  0
  153.2612  140.2165  158.9269 H   0  0  0  0  0  0  0  0  0  0  0  0
  154.1718  140.9651  160.9602 H   0  0  0  0  0  0  0  0  0  0  0  0
  153.1181  142.0102  161.9084 H   0  0  0  0  0  0  0  0  0  0  0  0
  154.4888  142.6970  161.0231 H   0  0  0  0  0  0  0  0  0  0  0  0
  149.8356  143.1783  155.9854 H   0  0  0  0  0  0  0  0  0  0  0  0
  1  2  1  0  0  0  0
  1 22  1  0  0  0  0
  1 23  1  0  0  0  0
  1 24  1  0  0  0  0
  2 20  1  0  0  0  0
  2  3  2  0  0  0  0
  3  4  1  0  0  0  0
  3 25  1  0  0  0  0
  4 18  2  0  0  0  0
  4  5  1  0  0  0  0
  5  6  2  0  0  0  0
  5 38  1  0  0  0  0
  6  7  1  0  0  0  0
  6 26  1  0  0  0  0
  7  8  1  0  0  0  0
  7 18  1  0  0  0  0
  8  9  1  0  0  0  0
  8 27  1  0  0  0  0
  8 28  1  0  0  0  0
  9 10  1  0  0  0  0
  9 11  1  0  0  0  0
  9 29  1  0  0  0  0
 10 30  1  0  0  0  0
 11 12  1  0  0  0  0
 11 31  1  0  0  0  0
 11 32  1  0  0  0  0
 12 13  1  0  0  0  0
 13 17  1  0  0  0  0
 13 14  2  0  0  0  0
 14 15  1  0  0  0  0
 15 16  2  0  0  0  0
 16 17  1  0  0  0  0
 16 33  1  0  0  0  0
 18 19  1  0  0  0  0
 19 20  2  0  0  0  0
 19 34  1  0  0  0  0
 20 21  1  0  0  0  0
 21 35  1  0  0  0  0
 21 36  1  0  0  0  0
 21 37  1  0  0  0  0
M  CHG  1   5   1
M  END
> <s_m_source_file>
AV-unprocessed.smi

> <i_m_source_file_index>
644

> <i_lp_mmshare_version>
43012

> <i_f3d_flags>
0

> <s_epik_input>
W0NIM11jKFtjSF0xKWMoW0NIM10pW2NIXWMoYzEyKW4oW2NIXW4yKVtDSDJdW0NASF0oW09IXSlbQ0gyXVNjM25uW2NIXXMz

> <s_epik_cmdline>
J2VwaWtfcHl0aG9uJywgJy1waCcsICc3LjAnLCAnLXRuJywgJzgnLCAnLW1hJywgJzIwMCcsICctbWV0YWxfYmluZGluZycsICctaW1hZScsICc8aW5maWxlLm1hZT4nLCAnLW9tYWUnLCAnPG91dGZpbGUubWFlPic=

> <r_lp_tautomer_probability>
1

> <r_epik_Ionization_Penalty>
1.07492

> <r_epik_Ionization_Penalty_Charging>
1.07491

> <r_epik_Ionization_Penalty_Neutral>
3.80549e-06

> <r_epik_State_Penalty>
1.12982

> <r_epik_Charging_Adjusted_Penalty>
2.20473

> <i_epik_Tot_Q>
1

> <i_epik_Tot_abs_Q>
1

> <r_epik_Metal_State_Penalty>
1.2206

> <b_epik_Metal_Only>
0

> <s_lp_Force_Field>
OPLS_2005

> <r_lp_Energy>
12.6095

> <b_lp_Chiralities_Consistent>
1

> <s_lp_Variant>
AV-unprocessed.smi:644-4

> <Gold.Version>
5.8.1

> <Gold.Id.Protein>
6NUR|6NUR_protein|mol2

> <Gold.PLP.Fitness>
50.9448

> <Gold.PLP.PLP>
-43.3237

> <Gold.PLP.part.hbond>
-2.8672

> <Gold.PLP.part.metal>
0.0000

> <Gold.PLP.part.buried>
-5.7077

> <Gold.PLP.part.nonpolar>
-33.8242

> <Gold.PLP.part.repulsive>
0.0852

> <Gold.PLP.ligand.clash>
0.0000

> <Gold.PLP.ligand.torsion>
0.7494

> <Gold.PLP.Chemscore.Hbond>
3.0000

> <Gold.PLP.Chemscore.CHOScore>
0.0000

> <Gold.PLP.Chemscore.Metal>
0.0000

> <Gold.Chemscore.Hbonds>
donor molecule, donor type, donor heavy atom, donor atom, acceptor molecule, acceptor atom, score
      L1  H     5    38       P1  8028  2.00
      P1  H  6896  6909       L1    14  1.00

> <Gold.PLP.Chemscore.Internal.Correction>
0.1199

> <Gold.Rescore>
     Score         DG    S(hbond)    S(metal)    S(lipo)     H(rot)  DE(clash)    DE(int)     intcor
     18.37     -19.14       1.97        0.00     115.93       2.53       0.02       0.75       ----

> <Gold.Chemscore.Fitness>
18.3671

> <Gold.Chemscore.DG>
-19.1387

> <Gold.Chemscore.ZeroCoef>
-5.4800

> <Gold.Chemscore.Hbond>
1.9687

> <Gold.Chemscore.Metal>
0.0000

> <Gold.Chemscore.Lipo>
115.9302

> <Gold.Chemscore.Internal_Hbond>
0.0000

> <Gold.Chemscore.DEClash>
0.0197

> <Gold.Chemscore.DEInternal>
0.7520

> <Gold.Chemscore.Rot>
2.5315

> <Gold.Chemscore.Internal.Correction>
   9.000000E+99

> <Gold.Chemscore.Hbonds>
donor molecule, donor type, donor heavy atom, donor atom, acceptor molecule, acceptor atom, score
      L1  H     5    38       P1  8028  1.00
      P1  H  6896  6909       L1    14  0.78

> <Gold.Chemscore.Hbond.Weighted>
-6.5754

> <Gold.Chemscore.Metal.Weighted>
-0.0000

> <Gold.Chemscore.Lipo.Weighted>
-13.5638

> <Gold.Chemscore.Internal_Hbond.Weighted>
0.0000

> <Gold.Chemscore.DEClash.Weighted>
0.0197

> <Gold.Chemscore.DEInternal.Weighted>
0.7520

> <Gold.Chemscore.Rot.Weighted>
6.4805

> <Gold.Chemscore.Internal.Correction.Weighted>
   9.000000E+99

> <Gold.Protein.RotatedTorsions>
[ 6907 6896 6895 6894 ] final   14.34 input  -60.11 | X-H torsion
[ 7974 7965 7964 7962 ] final -136.66 input  175.53 | X-H torsion
[ 8008 7997 7996 7995 ] final  -18.79 input   59.86 | X-H torsion
[ 10167 10162 10161 10158 ] final  -67.96 input  -65.29 | X-H torsion
[ 10718 10713 10712 10709 ] final   14.04 input   66.30 | X-H torsion
[ 10763 10752 10751 10750 ] final  -47.10 input  -60.55 | X-H torsion
[ 11005 11000 10999 10996 ] final  130.65 input  -57.11 | X-H torsion

> <Gold.Protein.ActiveResidues>
 VAL166  LYS551  ARG553  GLY616  TRP617  ASP618  TYR619  PRO620  LYS621  CYS622 
 ASP623  PHE694  ASN695  SER759  ASP760  ASP761  ALA762  ILE779  LEU786  VAL792 
 PHE793  MET794  SER795  GLU796  ALA797  LYS798  CYS799  TRP800  GLU811  SER814 

> <Gold.Protein.RotatedAtoms>
  151.8007  135.0709  160.0399 H   0  0  0  0  0  0  0  0  0  0  0  0  # atno 6907 bound_to 6896
  152.3091  133.5729  159.5677 H   0  0  0  0  0  0  0  0  0  0  0  0  # atno 6908 bound_to 6896
  150.7311  134.0095  159.3707 H   0  0  0  0  0  0  0  0  0  0  0  0  # atno 6909 bound_to 6896
  144.8908  140.6639  143.5147 H   0  0  0  0  0  0  0  0  0  0  0  0  # atno 7974 bound_to 7965
  154.4881  140.2106  155.9609 H   0  0  0  0  0  0  0  0  0  0  0  0  # atno 8008 bound_to 7997
  156.1266  140.3204  155.8255 H   0  0  0  0  0  0  0  0  0  0  0  0  # atno 8009 bound_to 7997
  155.4372  140.0507  157.3004 H   0  0  0  0  0  0  0  0  0  0  0  0  # atno 8010 bound_to 7997
  140.5543  143.2312  151.6851 H   0  0  0  0  0  0  0  0  0  0  0  0  # atno 10167 bound_to 10162
  157.0334  130.6202  149.5739 H   0  0  0  0  0  0  0  0  0  0  0  0  # atno 10718 bound_to 10713
  154.0558  135.6625  153.4806 H   0  0  0  0  0  0  0  0  0  0  0  0  # atno 10763 bound_to 10752
  153.0446  135.5123  154.7706 H   0  0  0  0  0  0  0  0  0  0  0  0  # atno 10764 bound_to 10752
  154.6727  135.3032  154.9686 H   0  0  0  0  0  0  0  0  0  0  0  0  # atno 10765 bound_to 10752
  139.9684  134.9584  156.9324 H   0  0  0  0  0  0  0  0  0  0  0  0  # atno 11005 bound_to 11000
  145.3787  139.1642  143.4292 LP  0  0  0  0  0  0  0  0  0  0  0  0  # atno 17320 bound_to 7965
  146.3052  140.3866  142.8689 LP  0  0  0  0  0  0  0  0  0  0  0  0  # atno 17321 bound_to 7965
  139.5041  144.3766  152.0417 LP  0  0  0  0  0  0  0  0  0  0  0  0  # atno 17342 bound_to 10162
  140.2886  144.3779  150.6095 LP  0  0  0  0  0  0  0  0  0  0  0  0  # atno 17343 bound_to 10162
  156.0062  130.5149  150.7836 LP  0  0  0  0  0  0  0  0  0  0  0  0  # atno 17370 bound_to 10713
  157.5160  131.0928  151.0139 LP  0  0  0  0  0  0  0  0  0  0  0  0  # atno 17371 bound_to 10713
  140.5346  134.0780  155.7325 LP  0  0  0  0  0  0  0  0  0  0  0  0  # atno 17394 bound_to 11000
  141.1364  133.9214  157.2424 LP  0  0  0  0  0  0  0  0  0  0  0  0  # atno 17395 bound_to 11000

$$$$
