AV-unprocessed.smi:775|AV-procd|sdf|3695|dock9
  -GOLD-   22720 1113D 1   1.00000     0.00000
 Structure written by MMmdl.
 39 40  0  0  0  0  0  0  0  0  2 V2000
  145.3641  137.2644  152.3210 C   0  0  0  0  0  0  0  0  0  0  0  0
  145.5935  135.9678  151.5284 C   0  0  2  0  0  0  0  0  0  0  0  0
  144.2949  135.1463  151.3374 C   0  0  0  0  0  0  0  0  0  0  0  0
  144.5283  133.7679  150.9373 N   0  0  0  0  0  0  0  0  0  0  0  0
  143.6011  132.7681  150.7251 C   0  0  0  0  0  0  0  0  0  0  0  0
  144.2890  131.6447  150.3664 C   0  0  0  0  0  0  0  0  0  0  0  0
  145.6501  132.0581  150.3945 C   0  0  0  0  0  0  0  0  0  0  0  0
  145.7895  133.3283  150.7382 N   0  0  0  0  0  0  0  0  0  0  0  0
  146.6656  135.1788  152.1771 N   0  3  0  0  0  0  0  0  0  0  0  0
  146.3916  134.7432  153.5649 C   0  0  0  0  0  0  0  0  0  0  0  0
  147.6692  134.6593  154.4148 C   0  0  0  0  0  0  0  0  0  0  0  0
  147.7566  135.3708  155.4173 O   0  0  0  0  0  0  0  0  0  0  0  0
  148.6572  133.8086  154.0401 N   0  0  0  0  0  0  0  0  0  0  0  0
  148.5912  132.9138  152.8799 C   0  0  0  0  0  0  0  0  0  0  0  0
  148.4909  131.4662  153.3915 C   0  0  0  0  0  0  0  0  0  0  0  0
  149.4610  131.1876  154.4521 N   0  0  0  0  0  0  0  0  0  0  0  0
  150.1273  132.1185  155.1602 C   0  0  0  0  0  0  0  0  0  0  0  0
  150.9342  131.8096  156.0335 O   0  0  0  0  0  0  0  0  0  0  0  0
  149.8628  133.6070  154.8606 C   0  0  0  0  0  0  0  0  0  0  0  0
  144.5726  137.8648  151.8716 H   0  0  0  0  0  0  0  0  0  0  0  0
  146.2673  137.8755  152.3403 H   0  0  0  0  0  0  0  0  0  0  0  0
  145.0834  137.0636  153.3553 H   0  0  0  0  0  0  0  0  0  0  0  0
  145.9525  136.2594  150.5404 H   0  0  0  0  0  0  0  0  0  0  0  0
  143.7239  135.1427  152.2672 H   0  0  0  0  0  0  0  0  0  0  0  0
  143.6429  135.6115  150.5981 H   0  0  0  0  0  0  0  0  0  0  0  0
  142.5407  132.9361  150.8442 H   0  0  0  0  0  0  0  0  0  0  0  0
  143.8826  130.6736  150.1248 H   0  0  0  0  0  0  0  0  0  0  0  0
  146.5347  131.4772  150.1779 H   0  0  0  0  0  0  0  0  0  0  0  0
  146.8123  134.3447  151.6265 H   0  0  0  0  0  0  0  0  0  0  0  0
  145.7055  135.4470  154.0352 H   0  0  0  0  0  0  0  0  0  0  0  0
  145.9122  133.7638  153.5401 H   0  0  0  0  0  0  0  0  0  0  0  0
  147.7820  133.1256  152.1829 H   0  0  0  0  0  0  0  0  0  0  0  0
  149.5091  133.0354  152.3023 H   0  0  0  0  0  0  0  0  0  0  0  0
  147.4922  131.2799  153.7880 H   0  0  0  0  0  0  0  0  0  0  0  0
  148.6426  130.7635  152.5718 H   0  0  0  0  0  0  0  0  0  0  0  0
  149.6458  130.2165  154.6596 H   0  0  0  0  0  0  0  0  0  0  0  0
  150.7214  134.0078  154.3210 H   0  0  0  0  0  0  0  0  0  0  0  0
  149.8265  134.1373  155.8133 H   0  0  0  0  0  0  0  0  0  0  0  0
  147.5203  135.7174  152.1643 H   0  0  0  0  0  0  0  0  0  0  0  0
  1  2  1  0  0  0  0
  1 20  1  0  0  0  0
  1 21  1  0  0  0  0
  1 22  1  0  0  0  0
  2  3  1  0  0  0  0
  2  9  1  0  0  0  0
  2 23  1  0  0  0  0
  3  4  1  0  0  0  0
  3 24  1  0  0  0  0
  3 25  1  0  0  0  0
  4  8  1  0  0  0  0
  4  5  1  0  0  0  0
  5  6  2  0  0  0  0
  5 26  1  0  0  0  0
  6  7  1  0  0  0  0
  6 27  1  0  0  0  0
  7  8  2  0  0  0  0
  7 28  1  0  0  0  0
  9 10  1  0  0  0  0
  9 29  1  0  0  0  0
  9 39  1  0  0  0  0
 10 11  1  0  0  0  0
 10 30  1  0  0  0  0
 10 31  1  0  0  0  0
 11 12  2  0  0  0  0
 11 13  1  0  0  0  0
 13 19  1  0  0  0  0
 13 14  1  0  0  0  0
 14 15  1  0  0  0  0
 14 32  1  0  0  0  0
 14 33  1  0  0  0  0
 15 16  1  0  0  0  0
 15 34  1  0  0  0  0
 15 35  1  0  0  0  0
 16 17  1  0  0  0  0
 16 36  1  0  0  0  0
 17 18  2  0  0  0  0
 17 19  1  0  0  0  0
 19 37  1  0  0  0  0
 19 38  1  0  0  0  0
M  CHG  1   9   1
M  END
> <s_m_source_file>
AV-unprocessed.smi

> <i_m_source_file_index>
775

> <i_lp_mmshare_version>
43012

> <i_f3d_flags>
0

> <s_epik_input>
bjFbY0hdW2NIXVtjSF1uMVtDSDJdW0NAQEhdKFtDSDNdKVtOSF1bQ0gyXUMoPU8pTjJbQ0gyXVtDSDJdW05IXUMoPU8pW0NIMl0y

> <s_epik_cmdline>
J2VwaWtfcHl0aG9uJywgJy1waCcsICc3LjAnLCAnLXRuJywgJzgnLCAnLW1hJywgJzIwMCcsICctbWV0YWxfYmluZGluZycsICctaW1hZScsICc8aW5maWxlLm1hZT4nLCAnLW9tYWUnLCAnPG91dGZpbGUubWFlPic=

> <r_lp_tautomer_probability>
1

> <r_epik_Ionization_Penalty>
0.165651

> <r_epik_Ionization_Penalty_Charging>
0.165647

> <r_epik_Ionization_Penalty_Neutral>
3.4358e-06

> <r_epik_State_Penalty>
0.15499

> <r_epik_Charging_Adjusted_Penalty>
0.320637

> <i_epik_Tot_Q>
1

> <i_epik_Tot_abs_Q>
1

> <r_epik_Metal_State_Penalty>
0.155003

> <b_epik_Metal_Only>
0

> <s_lp_Force_Field>
OPLS_2005

> <r_lp_Energy>
21.6432

> <b_lp_Chiralities_Consistent>
1

> <s_lp_Variant>
AV-unprocessed.smi:775-1

> <Gold.Version>
5.8.1

> <Gold.Id.Protein>
6NUR|6NUR_protein|mol2

> <Gold.PLP.Fitness>
44.5508

> <Gold.PLP.PLP>
-33.2922

> <Gold.PLP.part.hbond>
-0.9331

> <Gold.PLP.part.metal>
0.0000

> <Gold.PLP.part.buried>
-3.7149

> <Gold.PLP.part.nonpolar>
-29.1637

> <Gold.PLP.part.repulsive>
0.2490

> <Gold.PLP.ligand.clash>
0.0000

> <Gold.PLP.ligand.torsion>
0.3827

> <Gold.PLP.Chemscore.Hbond>
2.0000

> <Gold.PLP.Chemscore.CHOScore>
1.9915

> <Gold.PLP.Chemscore.Metal>
0.0000

> <Gold.Chemscore.Hbonds>
donor molecule, donor type, donor heavy atom, donor atom, acceptor molecule, acceptor atom, score
      L1  H     9    39       P1  7948  1.98
      L1  C     5    26       P1 10186  1.00
      L1  C     7    28       P1 10747  1.00

> <Gold.PLP.Chemscore.Internal.Correction>
0.0494

> <Gold.Rescore>
     Score         DG    S(hbond)    S(metal)    S(lipo)     H(rot)  DE(clash)    DE(int)     intcor
     10.47     -10.83       0.98        0.00      65.49       2.18       0.01       0.36       ----

> <Gold.Chemscore.Fitness>
10.4676

> <Gold.Chemscore.DG>
-10.8333

> <Gold.Chemscore.ZeroCoef>
-5.4800

> <Gold.Chemscore.Hbond>
0.9817

> <Gold.Chemscore.Metal>
0.0000

> <Gold.Chemscore.Lipo>
65.4920

> <Gold.Chemscore.Internal_Hbond>
0.0000

> <Gold.Chemscore.DEClash>
0.0078

> <Gold.Chemscore.DEInternal>
0.3579

> <Gold.Chemscore.Rot>
2.1828

> <Gold.Chemscore.Internal.Correction>
   9.000000E+99

> <Gold.Chemscore.Hbonds>
donor molecule, donor type, donor heavy atom, donor atom, acceptor molecule, acceptor atom, score
      L1  H     9    39       P1  7948  0.92

> <Gold.Chemscore.Hbond.Weighted>
-3.2788

> <Gold.Chemscore.Metal.Weighted>
-0.0000

> <Gold.Chemscore.Lipo.Weighted>
-7.6626

> <Gold.Chemscore.Internal_Hbond.Weighted>
0.0000

> <Gold.Chemscore.DEClash.Weighted>
0.0078

> <Gold.Chemscore.DEInternal.Weighted>
0.3579

> <Gold.Chemscore.Rot.Weighted>
5.5880

> <Gold.Chemscore.Internal.Correction.Weighted>
   9.000000E+99

> <Gold.Protein.RotatedTorsions>
[ 6907 6896 6895 6894 ] final  -84.97 input  -60.11 | X-H torsion
[ 7974 7965 7964 7962 ] final  122.31 input  175.53 | X-H torsion
[ 8008 7997 7996 7995 ] final  -73.13 input   59.86 | X-H torsion
[ 10167 10162 10161 10158 ] final   35.56 input  -65.29 | X-H torsion
[ 10718 10713 10712 10709 ] final  -22.13 input   66.30 | X-H torsion
[ 10763 10752 10751 10750 ] final   88.52 input  -60.55 | X-H torsion
[ 11005 11000 10999 10996 ] final  129.45 input  -57.11 | X-H torsion

> <Gold.Protein.ActiveResidues>
 VAL166  LYS551  ARG553  GLY616  TRP617  ASP618  TYR619  PRO620  LYS621  CYS622 
 ASP623  PHE694  ASN695  SER759  ASP760  ASP761  ALA762  ILE779  LEU786  VAL792 
 PHE793  MET794  SER795  GLU796  ALA797  LYS798  CYS799  TRP800  GLU811  SER814 

> <Gold.Protein.RotatedAtoms>
  150.6873  134.3276  159.4813 H   0  0  0  0  0  0  0  0  0  0  0  0  # atno 6907 bound_to 6896
  152.1145  134.9248  160.0574 H   0  0  0  0  0  0  0  0  0  0  0  0  # atno 6908 bound_to 6896
  152.0478  133.3971  159.4401 H   0  0  0  0  0  0  0  0  0  0  0  0  # atno 6909 bound_to 6896
  145.1091  139.3465  143.4772 H   0  0  0  0  0  0  0  0  0  0  0  0  # atno 7974 bound_to 7965
  154.5222  140.0785  156.8192 H   0  0  0  0  0  0  0  0  0  0  0  0  # atno 8008 bound_to 7997
  155.3552  140.3415  155.4221 H   0  0  0  0  0  0  0  0  0  0  0  0  # atno 8009 bound_to 7997
  156.1693  140.1614  156.8463 H   0  0  0  0  0  0  0  0  0  0  0  0  # atno 8010 bound_to 7997
  140.4210  144.1459  150.6148 H   0  0  0  0  0  0  0  0  0  0  0  0  # atno 10167 bound_to 10162
  156.5087  130.4605  149.6660 H   0  0  0  0  0  0  0  0  0  0  0  0  # atno 10718 bound_to 10713
  153.1777  135.4504  154.9986 H   0  0  0  0  0  0  0  0  0  0  0  0  # atno 10763 bound_to 10752
  154.8009  135.3255  154.7555 H   0  0  0  0  0  0  0  0  0  0  0  0  # atno 10764 bound_to 10752
  153.8023  135.6961  153.4908 H   0  0  0  0  0  0  0  0  0  0  0  0  # atno 10765 bound_to 10752
  139.9616  134.9601  156.9150 H   0  0  0  0  0  0  0  0  0  0  0  0  # atno 11005 bound_to 11000
  146.3527  140.1002  142.8608 LP  0  0  0  0  0  0  0  0  0  0  0  0  # atno 17320 bound_to 7965
  145.0868  140.9258  143.4793 LP  0  0  0  0  0  0  0  0  0  0  0  0  # atno 17321 bound_to 7965
  140.4533  143.2478  151.9318 LP  0  0  0  0  0  0  0  0  0  0  0  0  # atno 17342 bound_to 10162
  139.4782  144.5540  151.8342 LP  0  0  0  0  0  0  0  0  0  0  0  0  # atno 17343 bound_to 10162
  156.3261  130.7307  151.2228 LP  0  0  0  0  0  0  0  0  0  0  0  0  # atno 17370 bound_to 10713
  157.7453  131.0442  150.4783 LP  0  0  0  0  0  0  0  0  0  0  0  0  # atno 17371 bound_to 10713
  140.5487  134.0648  155.7362 LP  0  0  0  0  0  0  0  0  0  0  0  0  # atno 17394 bound_to 11000
  141.1294  133.9328  157.2568 LP  0  0  0  0  0  0  0  0  0  0  0  0  # atno 17395 bound_to 11000

$$$$
