AV-unprocessed.smi:2095|AV-procd|sdf|8557|dock9
  -GOLD-   2272011283D 1   1.00000     0.00000
 Structure written by MMmdl.
 42 43  0  0  0  0  0  0  0  0  2 V2000
  145.9827  132.3063  149.9317 C   0  0  0  0  0  0  0  0  0  0  0  0
  146.3002  133.5873  150.7158 C   0  0  1  0  0  0  0  0  0  0  0  0
  145.1004  134.5507  150.7282 C   0  0  0  0  0  0  0  0  0  0  0  0
  145.4336  135.8102  151.5392 C   0  0  0  0  0  0  0  0  0  0  0  0
  145.9042  135.4461  152.9566 C   0  0  0  0  0  0  0  0  0  0  0  0
  147.0653  134.5189  152.9048 N   0  3  1  0  0  0  0  0  0  0  0  0
  147.7261  134.3208  154.2277 C   0  0  2  0  0  0  0  0  0  0  0  0
  147.1326  133.1002  154.9573 C   0  0  0  0  0  0  0  0  0  0  0  0
  147.7315  135.5976  155.1078 C   0  0  0  0  0  0  0  0  0  0  0  0
  148.5289  136.6654  154.5161 N   0  0  0  0  0  0  0  0  0  0  0  0
  148.5869  137.9248  154.9753 C   0  0  0  0  0  0  0  0  0  0  0  0
  148.0149  138.3004  155.9983 O   0  0  0  0  0  0  0  0  0  0  0  0
  149.3879  138.9185  154.1352 C   0  0  0  0  0  0  0  0  0  0  0  0
  150.7944  138.8581  154.4841 N   0  0  0  0  0  0  0  0  0  0  0  0
  151.6676  137.8502  154.4321 C   0  0  0  0  0  0  0  0  0  0  0  0
  152.8601  138.2139  154.8783 N   0  0  0  0  0  0  0  0  0  0  0  0
  152.6770  139.5435  155.2202 N   0  0  0  0  0  0  0  0  0  0  0  0
  151.4530  139.9314  154.9891 N   0  0  0  0  0  0  0  0  0  0  0  0
  146.7421  133.2715  152.1587 C   0  0  0  0  0  0  0  0  0  0  0  0
  145.1548  131.7590  150.3835 H   0  0  0  0  0  0  0  0  0  0  0  0
  146.8450  131.6396  149.9013 H   0  0  0  0  0  0  0  0  0  0  0  0
  145.7076  132.5346  148.9015 H   0  0  0  0  0  0  0  0  0  0  0  0
  147.1292  134.0847  150.2098 H   0  0  0  0  0  0  0  0  0  0  0  0
  144.8264  134.8273  149.7094 H   0  0  0  0  0  0  0  0  0  0  0  0
  144.2298  134.0562  151.1613 H   0  0  0  0  0  0  0  0  0  0  0  0
  146.2126  136.3785  151.0290 H   0  0  0  0  0  0  0  0  0  0  0  0
  144.5604  136.4613  151.5919 H   0  0  0  0  0  0  0  0  0  0  0  0
  146.1781  136.3599  153.4851 H   0  0  0  0  0  0  0  0  0  0  0  0
  145.0862  134.9894  153.5151 H   0  0  0  0  0  0  0  0  0  0  0  0
  148.7630  134.0563  154.0156 H   0  0  0  0  0  0  0  0  0  0  0  0
  147.7338  132.8271  155.8252 H   0  0  0  0  0  0  0  0  0  0  0  0
  147.1014  132.2283  154.3034 H   0  0  0  0  0  0  0  0  0  0  0  0
  146.1195  133.2891  155.3117 H   0  0  0  0  0  0  0  0  0  0  0  0
  146.7184  135.9600  155.2853 H   0  0  0  0  0  0  0  0  0  0  0  0
  148.1608  135.3863  156.0872 H   0  0  0  0  0  0  0  0  0  0  0  0
  149.0329  136.4453  153.6687 H   0  0  0  0  0  0  0  0  0  0  0  0
  149.2773  138.6882  153.0746 H   0  0  0  0  0  0  0  0  0  0  0  0
  149.0176  139.9336  154.2880 H   0  0  0  0  0  0  0  0  0  0  0  0
  151.4287  136.8575  154.0796 H   0  0  0  0  0  0  0  0  0  0  0  0
  145.9493  132.7260  152.6725 H   0  0  0  0  0  0  0  0  0  0  0  0
  147.6126  132.6168  152.1305 H   0  0  0  0  0  0  0  0  0  0  0  0
  147.7541  134.9998  152.3441 H   0  0  0  0  0  0  0  0  0  0  0  0
  1  2  1  0  0  0  0
  1 20  1  0  0  0  0
  1 21  1  0  0  0  0
  1 22  1  0  0  0  0
  2 19  1  0  0  0  0
  2  3  1  0  0  0  0
  2 23  1  0  0  0  0
  3  4  1  0  0  0  0
  3 24  1  0  0  0  0
  3 25  1  0  0  0  0
  4  5  1  0  0  0  0
  4 26  1  0  0  0  0
  4 27  1  0  0  0  0
  5  6  1  0  0  0  0
  5 28  1  0  0  0  0
  5 29  1  0  0  0  0
  6  7  1  0  0  0  0
  6 19  1  0  0  0  0
  6 42  1  0  0  0  0
  7  8  1  0  0  0  0
  7  9  1  0  0  0  0
  7 30  1  0  0  0  0
  8 31  1  0  0  0  0
  8 32  1  0  0  0  0
  8 33  1  0  0  0  0
  9 10  1  0  0  0  0
  9 34  1  0  0  0  0
  9 35  1  0  0  0  0
 10 11  1  0  0  0  0
 10 36  1  0  0  0  0
 11 12  2  0  0  0  0
 11 13  1  0  0  0  0
 13 14  1  0  0  0  0
 13 37  1  0  0  0  0
 13 38  1  0  0  0  0
 14 18  1  0  0  0  0
 14 15  1  0  0  0  0
 15 16  2  0  0  0  0
 15 39  1  0  0  0  0
 16 17  1  0  0  0  0
 17 18  2  0  0  0  0
 19 40  1  0  0  0  0
 19 41  1  0  0  0  0
M  CHG  1   6   1
M  END
> <s_m_source_file>
AV-unprocessed.smi

> <i_m_source_file_index>
2095

> <i_lp_mmshare_version>
43012

> <i_f3d_flags>
0

> <s_epik_input>
W0NIM11bQ0BASF0xW0NIMl1bQ0gyXVtDSDJdTihbQ0gyXTEpW0NASF0oW0NIM10pW0NIMl1bTkhdQyg9TylbQ0gyXW4yW2NIXW5ubjI=

> <s_epik_cmdline>
J2VwaWtfcHl0aG9uJywgJy1waCcsICc3LjAnLCAnLXRuJywgJzgnLCAnLW1hJywgJzIwMCcsICctbWV0YWxfYmluZGluZycsICctaW1hZScsICc8aW5maWxlLm1hZT4nLCAnLW9tYWUnLCAnPG91dGZpbGUubWFlPic=

> <r_lp_tautomer_probability>
1

> <r_epik_Ionization_Penalty>
0.00268321

> <r_epik_Ionization_Penalty_Charging>
0.00267875

> <r_epik_Ionization_Penalty_Neutral>
4.46125e-06

> <r_epik_State_Penalty>
0.00186642

> <r_epik_Charging_Adjusted_Penalty>
0.00454517

> <i_epik_Tot_Q>
1

> <i_epik_Tot_abs_Q>
1

> <r_epik_Metal_State_Penalty>
-0

> <b_epik_Metal_Only>
0

> <s_lp_Force_Field>
OPLS_2005

> <r_lp_Energy>
21.2581

> <b_lp_Chiralities_Consistent>
1

> <s_lp_Variant>
AV-unprocessed.smi:2095-4

> <Gold.Version>
5.8.1

> <Gold.Id.Protein>
6NUR|6NUR_protein|mol2

> <Gold.PLP.Fitness>
48.4381

> <Gold.PLP.PLP>
-32.1916

> <Gold.PLP.part.hbond>
-5.6563

> <Gold.PLP.part.metal>
0.0000

> <Gold.PLP.part.buried>
-5.1666

> <Gold.PLP.part.nonpolar>
-22.4238

> <Gold.PLP.part.repulsive>
0.1121

> <Gold.PLP.ligand.clash>
0.0000

> <Gold.PLP.ligand.torsion>
0.9221

> <Gold.PLP.Chemscore.Hbond>
4.9920

> <Gold.PLP.Chemscore.CHOScore>
1.0000

> <Gold.PLP.Chemscore.Metal>
0.0000

> <Gold.Chemscore.Hbonds>
donor molecule, donor type, donor heavy atom, donor atom, acceptor molecule, acceptor atom, score
      L1  H     6    42       P1  7948  2.00
      L1  H    10    36       P1  7948  0.96
      P1  H  7989  7998       L1    18  0.95
      P1  H  7997  8009       L1    17  1.00
      L1  C    15    39       P1  7949  0.46

> <Gold.PLP.Chemscore.Internal.Correction>
0.1147

> <Gold.Rescore>
     Score         DG    S(hbond)    S(metal)    S(lipo)     H(rot)  DE(clash)    DE(int)     intcor
     14.49     -15.57       3.21        0.00      52.35       2.64       0.24       0.84       ----

> <Gold.Chemscore.Fitness>
14.4903

> <Gold.Chemscore.DG>
-15.5739

> <Gold.Chemscore.ZeroCoef>
-5.4800

> <Gold.Chemscore.Hbond>
3.2147

> <Gold.Chemscore.Metal>
0.0000

> <Gold.Chemscore.Lipo>
52.3518

> <Gold.Chemscore.Internal_Hbond>
0.0000

> <Gold.Chemscore.DEClash>
0.2427

> <Gold.Chemscore.DEInternal>
0.8410

> <Gold.Chemscore.Rot>
2.6439

> <Gold.Chemscore.Internal.Correction>
   9.000000E+99

> <Gold.Chemscore.Hbonds>
donor molecule, donor type, donor heavy atom, donor atom, acceptor molecule, acceptor atom, score
      L1  H     6    42       P1  7948  0.92
      L1  H    10    36       P1  7948  0.92
      P1  H  7989  7998       L1    18  0.06
      P1  H  7997  8009       L1    17  0.58

> <Gold.Chemscore.Hbond.Weighted>
-10.7372

> <Gold.Chemscore.Metal.Weighted>
-0.0000

> <Gold.Chemscore.Lipo.Weighted>
-6.1252

> <Gold.Chemscore.Internal_Hbond.Weighted>
0.0000

> <Gold.Chemscore.DEClash.Weighted>
0.2427

> <Gold.Chemscore.DEInternal.Weighted>
0.8410

> <Gold.Chemscore.Rot.Weighted>
6.7685

> <Gold.Chemscore.Internal.Correction.Weighted>
   9.000000E+99

> <Gold.Protein.RotatedTorsions>
[ 6907 6896 6895 6894 ] final  122.97 input  -60.11 | X-H torsion
[ 7974 7965 7964 7962 ] final  161.30 input  175.53 | X-H torsion
[ 8008 7997 7996 7995 ] final -141.88 input   59.86 | X-H torsion
[ 10167 10162 10161 10158 ] final   54.66 input  -65.29 | X-H torsion
[ 10718 10713 10712 10709 ] final -114.93 input   66.30 | X-H torsion
[ 10763 10752 10751 10750 ] final  151.22 input  -60.55 | X-H torsion
[ 11005 11000 10999 10996 ] final  -90.57 input  -57.11 | X-H torsion

> <Gold.Protein.ActiveResidues>
 VAL166  LYS551  ARG553  GLY616  TRP617  ASP618  TYR619  PRO620  LYS621  CYS622 
 ASP623  PHE694  ASN695  SER759  ASP760  ASP761  ALA762  ILE779  LEU786  VAL792 
 PHE793  MET794  SER795  GLU796  ALA797  LYS798  CYS799  TRP800  GLU811  SER814 

> <Gold.Protein.RotatedAtoms>
  152.4200  133.7100  159.6472 H   0  0  0  0  0  0  0  0  0  0  0  0  # atno 6907 bound_to 6896
  150.8076  133.8471  159.3204 H   0  0  0  0  0  0  0  0  0  0  0  0  # atno 6908 bound_to 6896
  151.6190  135.1035  160.0149 H   0  0  0  0  0  0  0  0  0  0  0  0  # atno 6909 bound_to 6896
  144.7693  139.7878  143.6303 H   0  0  0  0  0  0  0  0  0  0  0  0  # atno 7974 bound_to 7965
  155.4850  140.0563  157.2962 H   0  0  0  0  0  0  0  0  0  0  0  0  # atno 8008 bound_to 7997
  154.4645  140.2012  156.0107 H   0  0  0  0  0  0  0  0  0  0  0  0  # atno 8009 bound_to 7997
  156.0950  140.3228  155.7870 H   0  0  0  0  0  0  0  0  0  0  0  0  # atno 8010 bound_to 7997
  140.2277  144.3720  150.6426 H   0  0  0  0  0  0  0  0  0  0  0  0  # atno 10167 bound_to 10162
  156.0862  130.6053  150.8839 H   0  0  0  0  0  0  0  0  0  0  0  0  # atno 10718 bound_to 10713
  154.1002  135.2846  155.3253 H   0  0  0  0  0  0  0  0  0  0  0  0  # atno 10763 bound_to 10752
  154.6560  135.5352  153.7963 H   0  0  0  0  0  0  0  0  0  0  0  0  # atno 10764 bound_to 10752
  153.0381  135.6522  154.1166 H   0  0  0  0  0  0  0  0  0  0  0  0  # atno 10765 bound_to 10752
  141.1563  133.7700  156.9757 H   0  0  0  0  0  0  0  0  0  0  0  0  # atno 11005 bound_to 11000
  146.1826  139.5026  142.9856 LP  0  0  0  0  0  0  0  0  0  0  0  0  # atno 17320 bound_to 7965
  145.6373  141.0292  143.1831 LP  0  0  0  0  0  0  0  0  0  0  0  0  # atno 17321 bound_to 7965
  140.6208  143.2176  151.6698 LP  0  0  0  0  0  0  0  0  0  0  0  0  # atno 17342 bound_to 10162
  139.5121  144.3487  152.0672 LP  0  0  0  0  0  0  0  0  0  0  0  0  # atno 17343 bound_to 10162
  157.5997  131.0941  150.8981 LP  0  0  0  0  0  0  0  0  0  0  0  0  # atno 17370 bound_to 10713
  156.9141  130.5291  149.5280 LP  0  0  0  0  0  0  0  0  0  0  0  0  # atno 17371 bound_to 10713
  140.1100  134.9483  157.2051 LP  0  0  0  0  0  0  0  0  0  0  0  0  # atno 17394 bound_to 11000
  140.3207  134.2920  155.7247 LP  0  0  0  0  0  0  0  0  0  0  0  0  # atno 17395 bound_to 11000

$$$$
