AV-unprocessed.smi:406|AV-procd|sdf|2500|dock4
  -GOLD-   2262022443D 1   1.00000     0.00000
 Structure written by MMmdl.
 34 35  0  0  0  0  0  0  0  0  2 V2000
  152.0361  145.2188  159.4444 C   0  0  0  0  0  0  0  0  0  0  0  0
  152.7799  143.9801  158.9343 C   0  0  0  0  0  0  0  0  0  0  0  0
  153.3208  143.1084  160.0786 C   0  0  0  0  0  0  0  0  0  0  0  0
  153.3388  141.6970  159.7167 N   0  0  0  0  0  0  0  0  0  0  0  0
  152.2633  140.9632  159.3867 C   0  0  0  0  0  0  0  0  0  0  0  0
  151.1156  141.4085  159.3824 O   0  0  0  0  0  0  0  0  0  0  0  0
  152.5175  139.5003  159.0105 C   0  0  0  0  0  0  0  0  0  0  0  0
  151.2157  138.7855  158.7901 C   0  0  0  0  0  0  0  0  0  0  0  0
  150.2866  139.0397  157.8146 C   0  0  0  0  0  0  0  0  0  0  0  0
  148.9536  137.9235  157.8907 S   0  0  0  0  0  0  0  0  0  0  0  0
  149.7163  137.1216  159.2646 C   0  0  0  0  0  0  0  0  0  0  0  0
  149.2162  136.0446  159.8969 N   0  5  0  0  0  0  0  0  0  0  0  0
  148.0798  136.0747  160.6481 C   0  0  0  0  0  0  0  0  0  0  0  0
  147.4879  137.0954  160.9953 O   0  0  0  0  0  0  0  0  0  0  0  0
  147.5719  134.7337  161.0999 C   0  0  0  0  0  0  0  0  0  0  0  0
  146.1296  134.6300  161.5561 C   0  0  0  0  0  0  0  0  0  0  0  0
  147.2406  134.5663  162.5706 C   0  0  0  0  0  0  0  0  0  0  0  0
  150.8562  137.7230  159.6236 N   0  0  0  0  0  0  0  0  0  0  0  0
  151.6621  145.8172  158.6135 H   0  0  0  0  0  0  0  0  0  0  0  0
  152.6918  145.8521  160.0425 H   0  0  0  0  0  0  0  0  0  0  0  0
  151.1835  144.9386  160.0636 H   0  0  0  0  0  0  0  0  0  0  0  0
  152.1085  143.3897  158.3094 H   0  0  0  0  0  0  0  0  0  0  0  0
  153.6009  144.2979  158.2905 H   0  0  0  0  0  0  0  0  0  0  0  0
  154.3213  143.4331  160.3698 H   0  0  0  0  0  0  0  0  0  0  0  0
  152.6894  143.2193  160.9607 H   0  0  0  0  0  0  0  0  0  0  0  0
  154.2424  141.2454  159.6867 H   0  0  0  0  0  0  0  0  0  0  0  0
  153.1379  139.4669  158.1141 H   0  0  0  0  0  0  0  0  0  0  0  0
  153.0906  139.0154  159.8015 H   0  0  0  0  0  0  0  0  0  0  0  0
  150.3126  139.8010  157.0496 H   0  0  0  0  0  0  0  0  0  0  0  0
  148.0230  133.8670  160.6197 H   0  0  0  0  0  0  0  0  0  0  0  0
  145.5206  135.5319  161.5378 H   0  0  0  0  0  0  0  0  0  0  0  0
  145.6026  133.7118  161.3052 H   0  0  0  0  0  0  0  0  0  0  0  0
  147.4667  133.6019  163.0202 H   0  0  0  0  0  0  0  0  0  0  0  0
  147.3545  135.4216  163.2344 H   0  0  0  0  0  0  0  0  0  0  0  0
  1  2  1  0  0  0  0
  1 19  1  0  0  0  0
  1 20  1  0  0  0  0
  1 21  1  0  0  0  0
  2  3  1  0  0  0  0
  2 22  1  0  0  0  0
  2 23  1  0  0  0  0
  3  4  1  0  0  0  0
  3 24  1  0  0  0  0
  3 25  1  0  0  0  0
  4  5  1  0  0  0  0
  4 26  1  0  0  0  0
  5  6  2  0  0  0  0
  5  7  1  0  0  0  0
  7  8  1  0  0  0  0
  7 27  1  0  0  0  0
  7 28  1  0  0  0  0
  8 18  1  0  0  0  0
  8  9  2  0  0  0  0
  9 10  1  0  0  0  0
  9 29  1  0  0  0  0
 10 11  1  0  0  0  0
 11 12  1  0  0  0  0
 11 18  2  0  0  0  0
 12 13  1  0  0  0  0
 13 14  2  0  0  0  0
 13 15  1  0  0  0  0
 15 17  1  0  0  0  0
 15 16  1  0  0  0  0
 15 30  1  0  0  0  0
 16 17  1  0  0  0  0
 16 31  1  0  0  0  0
 16 32  1  0  0  0  0
 17 33  1  0  0  0  0
 17 34  1  0  0  0  0
M  CHG  1  12  -1
M  END
> <s_m_source_file>
AV-unprocessed.smi

> <i_m_source_file_index>
406

> <i_lp_mmshare_version>
43012

> <i_f3d_flags>
0

> <s_epik_input>
W0NIM11bQ0gyXVtDSDJdW05IXUMoPU8pW0NIMl1jMVtjSF1zYyhuMSlbTkhdQyg9TylbQ0hdMltDSDJdW0NIMl0y

> <s_epik_cmdline>
J2VwaWtfcHl0aG9uJywgJy1waCcsICc3LjAnLCAnLXRuJywgJzgnLCAnLW1hJywgJzIwMCcsICctbWV0YWxfYmluZGluZycsICctaW1hZScsICc8aW5maWxlLm1hZT4nLCAnLW9tYWUnLCAnPG91dGZpbGUubWFlPic=

> <r_lp_tautomer_probability>
1

> <r_epik_Ionization_Penalty>
5.51776

> <r_epik_Ionization_Penalty_Charging>
5.00105

> <r_epik_Ionization_Penalty_Neutral>
0.516708

> <r_epik_State_Penalty>
5.00092

> <r_epik_Charging_Adjusted_Penalty>
10.002

> <i_epik_Tot_Q>
-1

> <i_epik_Tot_abs_Q>
1

> <r_epik_Metal_State_Penalty>
1.12078

> <b_epik_Metal_Only>
1

> <s_lp_Force_Field>
OPLS_2005

> <r_lp_Energy>
6.22345

> <b_lp_Chiralities_Consistent>
1

> <s_lp_Variant>
AV-unprocessed.smi:406-2

> <Gold.Version>
5.8.1

> <Gold.Id.Protein>
6NUR|6NUR_protein|mol2

> <Gold.PLP.Fitness>
47.4721

> <Gold.PLP.PLP>
-38.2901

> <Gold.PLP.part.hbond>
-4.1517

> <Gold.PLP.part.metal>
0.0000

> <Gold.PLP.part.buried>
-5.7211

> <Gold.PLP.part.nonpolar>
-29.0775

> <Gold.PLP.part.repulsive>
0.0766

> <Gold.PLP.ligand.clash>
0.0000

> <Gold.PLP.ligand.torsion>
1.2971

> <Gold.PLP.Chemscore.Hbond>
3.8705

> <Gold.PLP.Chemscore.CHOScore>
0.0000

> <Gold.PLP.Chemscore.Metal>
0.0000

> <Gold.Chemscore.Hbonds>
donor molecule, donor type, donor heavy atom, donor atom, acceptor molecule, acceptor atom, score
      P1  H  6896  6909       L1    12  1.80
      P1  H  6931  6943       L1    14  0.67
      P1  H  6934  6947       L1    14  1.00

> <Gold.PLP.Chemscore.Internal.Correction>
0.1647

> <Gold.Rescore>
     Score         DG    S(hbond)    S(metal)    S(lipo)     H(rot)  DE(clash)    DE(int)     intcor
     15.13     -18.05       2.50        0.00      76.44       1.85       0.05       2.87       ----

> <Gold.Chemscore.Fitness>
15.1317

> <Gold.Chemscore.DG>
-18.0512

> <Gold.Chemscore.ZeroCoef>
-5.4800

> <Gold.Chemscore.Hbond>
2.5025

> <Gold.Chemscore.Metal>
0.0000

> <Gold.Chemscore.Lipo>
76.4379

> <Gold.Chemscore.Internal_Hbond>
0.0000

> <Gold.Chemscore.DEClash>
0.0515

> <Gold.Chemscore.DEInternal>
2.8680

> <Gold.Chemscore.Rot>
1.8478

> <Gold.Chemscore.Internal.Correction>
   9.000000E+99

> <Gold.Chemscore.Hbonds>
donor molecule, donor type, donor heavy atom, donor atom, acceptor molecule, acceptor atom, score
      P1  H  6896  6909       L1    12  0.17
      P1  H  6931  6943       L1    14  0.26
      P1  H  6934  6947       L1    14  0.94

> <Gold.Chemscore.Hbond.Weighted>
-8.3585

> <Gold.Chemscore.Metal.Weighted>
-0.0000

> <Gold.Chemscore.Lipo.Weighted>
-8.9432

> <Gold.Chemscore.Internal_Hbond.Weighted>
0.0000

> <Gold.Chemscore.DEClash.Weighted>
0.0515

> <Gold.Chemscore.DEInternal.Weighted>
2.8680

> <Gold.Chemscore.Rot.Weighted>
4.7305

> <Gold.Chemscore.Internal.Correction.Weighted>
   9.000000E+99

> <Gold.Protein.RotatedTorsions>
[ 6907 6896 6895 6894 ] final   69.39 input  -60.11 | X-H torsion
[ 7974 7965 7964 7962 ] final  -31.63 input  175.53 | X-H torsion
[ 8008 7997 7996 7995 ] final   44.36 input   59.86 | X-H torsion
[ 10167 10162 10161 10158 ] final  142.77 input  -65.29 | X-H torsion
[ 10718 10713 10712 10709 ] final  -58.13 input   66.30 | X-H torsion
[ 10763 10752 10751 10750 ] final  113.69 input  -60.55 | X-H torsion
[ 11005 11000 10999 10996 ] final -122.79 input  -57.11 | X-H torsion

> <Gold.Protein.ActiveResidues>
 VAL166  LYS551  ARG553  GLY616  TRP617  ASP618  TYR619  PRO620  LYS621  CYS622 
 ASP623  PHE694  ASN695  SER759  ASP760  ASP761  ALA762  ILE779  LEU786  VAL792 
 PHE793  MET794  SER795  GLU796  ALA797  LYS798  CYS799  TRP800  GLU811  SER814 

> <Gold.Protein.RotatedAtoms>
  152.4683  134.5023  159.9728 H   0  0  0  0  0  0  0  0  0  0  0  0  # atno 6907 bound_to 6896
  151.5056  133.3489  159.2884 H   0  0  0  0  0  0  0  0  0  0  0  0  # atno 6908 bound_to 6896
  150.8678  134.8074  159.7194 H   0  0  0  0  0  0  0  0  0  0  0  0  # atno 6909 bound_to 6896
  146.1053  140.5691  142.8802 H   0  0  0  0  0  0  0  0  0  0  0  0  # atno 7974 bound_to 7965
  155.3180  140.3395  155.4242 H   0  0  0  0  0  0  0  0  0  0  0  0  # atno 8008 bound_to 7997
  156.1923  140.1702  156.8105 H   0  0  0  0  0  0  0  0  0  0  0  0  # atno 8009 bound_to 7997
  154.5457  140.0716  156.8568 H   0  0  0  0  0  0  0  0  0  0  0  0  # atno 8010 bound_to 7997
  139.4986  144.6085  151.6325 H   0  0  0  0  0  0  0  0  0  0  0  0  # atno 10167 bound_to 10162
  156.1158  130.4170  150.0535 H   0  0  0  0  0  0  0  0  0  0  0  0  # atno 10718 bound_to 10713
  153.4962  135.3648  155.2517 H   0  0  0  0  0  0  0  0  0  0  0  0  # atno 10763 bound_to 10752
  154.8750  135.3989  154.3531 H   0  0  0  0  0  0  0  0  0  0  0  0  # atno 10764 bound_to 10752
  153.4159  135.7079  153.6393 H   0  0  0  0  0  0  0  0  0  0  0  0  # atno 10765 bound_to 10752
  140.9968  134.0460  157.3587 H   0  0  0  0  0  0  0  0  0  0  0  0  # atno 11005 bound_to 11000
  144.7465  140.5082  143.6832 LP  0  0  0  0  0  0  0  0  0  0  0  0  # atno 17320 bound_to 7965
  145.5774  139.1487  143.3255 LP  0  0  0  0  0  0  0  0  0  0  0  0  # atno 17321 bound_to 7965
  140.5753  144.0039  150.6238 LP  0  0  0  0  0  0  0  0  0  0  0  0  # atno 17342 bound_to 10162
  140.3170  143.3161  152.0822 LP  0  0  0  0  0  0  0  0  0  0  0  0  # atno 17343 bound_to 10162
  156.8487  130.9451  151.3627 LP  0  0  0  0  0  0  0  0  0  0  0  0  # atno 17370 bound_to 10713
  157.6341  130.8753  149.9327 LP  0  0  0  0  0  0  0  0  0  0  0  0  # atno 17371 bound_to 10713
  139.9019  135.0167  156.7307 LP  0  0  0  0  0  0  0  0  0  0  0  0  # atno 17394 bound_to 11000
  140.6952  133.9354  155.7990 LP  0  0  0  0  0  0  0  0  0  0  0  0  # atno 17395 bound_to 11000

$$$$
