#       Name:                AV-unprocessed.smi:236
#       Creating user name   scv26
#       Creation time:       Thu Mar 26 20:39:18 2020


#       File generated by GOLD software.
#

@<TRIPOS>MOLECULE
AV-unprocessed.smi:236
    70    74     1
SMALL
NO_CHARGES


@<TRIPOS>ATOM
      1 ****        -7.0841  -2.9051   2.3273 C.3            1 S1                 0.0000
      2 ****        -6.5490  -1.5240   1.9158 C.3            1 S1                 0.0000
      3 ****        -7.0673  -0.5468   2.8133 O.3            1 S1                 0.0000
      4 ****        -6.1397   0.5197   2.9010 C.3            1 S1                 0.0000
      5 ****        -4.8104  -0.2157   2.9476 C.3            1 S1                 0.0000
      6 ****        -5.0054  -1.3402   1.9287 C.3            1 S1                 0.0000
      7 ****        -4.3223  -2.4899   2.4005 O.3            1 S1                 0.0000
      8 ****        -4.4746  -1.0006   0.5108 C.3            1 S1                 0.0000
      9 ****        -3.0499  -0.7068   0.4575 N.pl3          1 S1                 0.0000
     10 ****        -2.0187  -1.6181   0.4063 C.2            1 S1                 0.0000
     11 ****        -0.8207  -1.1019   0.3649 N.2            1 S1                 0.0000
     12 ****        -1.0424   0.2700   0.3687 C.ar           1 S1                 0.0000
     13 ****        -0.1989   1.4167   0.3381 C.ar           1 S1                 0.0000
     14 ****         1.1494   1.3840   0.3025 N.3            1 S1                 0.0000
     15 ****         1.7498   0.9605   1.5600 C.3            1 S1                 0.0000
     16 ****         3.2774   1.1108   1.4840 C.3            1 S1                 0.0000
     17 ****         3.7687   0.3862   0.3603 O.3            1 S1                 0.0000
     18 ****         3.2444   0.8725  -0.8744 C.3            1 S1                 0.0000
     19 ****         3.8938   0.0790  -2.0152 C.3            1 S1                 0.0000
     20 ****         5.2443   0.4889  -2.1513 O.3            1 S1                 0.0000
     21 ****         5.9353  -0.2306  -3.1573 C.3            1 S1                 0.0000
     22 ****         7.3571   0.2825  -3.2415 C.3            1 S1                 0.0000
     23 ****         7.7232   1.3923  -4.2012 C.3            1 S1                 0.0000
     24 ****         8.2032  -0.0129  -4.4592 C.3            1 S1                 0.0000
     25 ****         1.7132   0.6988  -0.8540 C.3            1 S1                 0.0000
     26 ****        -0.7841   2.6389   0.3636 N.ar           1 S1                 0.0000
     27 ****        -2.1161   2.7407   0.4074 C.ar           1 S1                 0.0000
     28 ****        -3.0278   1.7660   0.4381 N.ar           1 S1                 0.0000
     29 ****        -2.4397   0.5351   0.4207 C.ar           1 S1                 0.0000
     30 ****        -6.7200  -3.6844   1.6576 H              1 S1                 0.0000
     31 ****        -8.1736  -2.9235   2.2931 H              1 S1                 0.0000
     32 ****        -6.7831  -3.1623   3.3433 H              1 S1                 0.0000
     33 ****        -6.9406  -1.2843   0.9261 H              1 S1                 0.0000
     34 ****        -6.2113   1.1526   2.0149 H              1 S1                 0.0000
     35 ****        -6.3143   1.1342   3.7843 H              1 S1                 0.0000
     36 ****        -3.9595   0.4349   2.7535 H              1 S1                 0.0000
     37 ****        -4.6794  -0.6259   3.9505 H              1 S1                 0.0000
     38 ****        -3.4044  -2.2804   2.4797 H              1 S1                 0.0000
     39 ****        -4.6729  -1.8301  -0.1693 H              1 S1                 0.0000
     40 ****        -5.0120  -0.1429   0.1044 H              1 S1                 0.0000
     41 ****        -2.1841  -2.6858   0.4067 H              1 S1                 0.0000
     42 ****         1.3553   1.5580   2.3828 H              1 S1                 0.0000
     43 ****         1.4900  -0.0795   1.7609 H              1 S1                 0.0000
     44 ****         3.5628   2.1611   1.4066 H              1 S1                 0.0000
     45 ****         3.7400   0.7204   2.3904 H              1 S1                 0.0000
     46 ****         3.4882   1.9304  -0.9898 H              1 S1                 0.0000
     47 ****         3.8276  -0.9927  -1.8204 H              1 S1                 0.0000
     48 ****         3.3684   0.2765  -2.9511 H              1 S1                 0.0000
     49 ****         5.9565  -1.2938  -2.9139 H              1 S1                 0.0000
     50 ****         5.4414  -0.1159  -4.1236 H              1 S1                 0.0000
     51 ****         7.8858   0.2714  -2.2902 H              1 S1                 0.0000
     52 ****         6.9406   1.7828  -4.8490 H              1 S1                 0.0000
     53 ****         8.4576   2.1220  -3.8661 H              1 S1                 0.0000
     54 ****         9.2591  -0.2204  -4.2984 H              1 S1                 0.0000
     55 ****         7.7405  -0.5587  -5.2793 H              1 S1                 0.0000
     56 ****         1.4656  -0.3625  -0.8182 H              1 S1                 0.0000
     57 ****         1.2768   1.1024  -1.7686 H              1 S1                 0.0000
     58 ****        -2.5073   3.7474   0.4214 H              1 S1                 0.0000
     59 ****        -7.1988  -0.9547   3.7168 LP             1 S1                 0.0000
     60 ****        -7.9427  -0.2052   2.4712 LP             1 S1                 0.0000
     61 ****        -4.4422  -3.2430   1.7536 LP             1 S1                 0.0000
     62 ****        -4.6861  -2.7562   3.2931 LP             1 S1                 0.0000
     63 ****         0.0554  -1.5831   0.3369 LP             1 S1                 0.0000
     64 ****         1.4097   2.3413   0.1771 LP             1 S1                 0.0000
     65 ****         3.5122  -0.5751   0.4613 LP             1 S1                 0.0000
     66 ****         4.7653   0.4647   0.3387 LP             1 S1                 0.0000
     67 ****         5.7112   0.3469  -1.2785 LP             1 S1                 0.0000
     68 ****         5.2616   1.4612  -2.3843 LP             1 S1                 0.0000
     69 ****        -0.2196   3.4642   0.3496 LP             1 S1                 0.0000
     70 ****        -4.0156   1.9186   0.4698 LP             1 S1                 0.0000
@<TRIPOS>BOND
    1    1    2 1     
    2    1   30 1     
    3    1   31 1     
    4    1   32 1     
    5    2    6 1     
    6    2    3 1     
    7    2   33 1     
    8    3    4 1     
    9    4    5 1     
   10    4   34 1     
   11    4   35 1     
   12    5    6 1     
   13    5   36 1     
   14    5   37 1     
   15    6    7 1     
   16    6    8 1     
   17    7   38 1     
   18    8    9 1     
   19    8   39 1     
   20    8   40 1     
   21    9   29 1     
   22    9   10 1     
   23   10   11 2     
   24   10   41 1     
   25   11   12 1     
   26   12   29 ar    
   27   12   13 ar    
   28   13   14 1     
   29   13   26 ar    
   30   14   25 1     
   31   14   15 1     
   32   15   16 1     
   33   15   42 1     
   34   15   43 1     
   35   16   17 1     
   36   16   44 1     
   37   16   45 1     
   38   17   18 1     
   39   18   19 1     
   40   18   25 1     
   41   18   46 1     
   42   19   20 1     
   43   19   47 1     
   44   19   48 1     
   45   20   21 1     
   46   21   22 1     
   47   21   49 1     
   48   21   50 1     
   49   22   24 1     
   50   22   23 1     
   51   22   51 1     
   52   23   24 1     
   53   23   52 1     
   54   23   53 1     
   55   24   54 1     
   56   24   55 1     
   57   25   56 1     
   58   25   57 1     
   59   26   27 ar    
   60   27   28 ar    
   61   27   58 1     
   62   28   29 ar    
   63    3   59 1     
   64    3   60 1     
   65    7   61 1     
   66    7   62 1     
   67   11   63 1     
   68   14   64 1     
   69   17   65 1     
   70   17   66 1     
   71   20   67 1     
   72   20   68 1     
   73   26   69 1     
   74   28   70 1     
@<TRIPOS>SUBSTRUCTURE
      1 S1             1
@<TRIPOS>SET
LONE_PAIRS      STATIC     ATOMS    <user>   **** ""
12 59 60 61 62 63 64 65 66 67 68 69 70
DONOR_HYDROGENS      STATIC     ATOMS    <user>   **** ""
1 38
ATOM$BLUE        STATIC     ATOMS    COLORGROUP SYSTEM
12 59 60 61 62 63 64 65 66 67 68 69 70
ATOM$RED        STATIC     ATOMS    COLORGROUP SYSTEM
1 38
