AV-unprocessed.smi:2032|AV-procd|sdf|8244|dock6
  -GOLD-   2272010513D 1   1.00000     0.00000
 Structure written by MMmdl.
 43 44  0  0  0  0  0  0  0  0  2 V2000
  147.3159  137.8827  154.1387 C   0  0  0  0  0  0  0  0  0  0  0  0
  148.0824  137.6668  155.4566 C   0  0  1  0  0  0  0  0  0  0  0  0
  148.8118  136.3114  155.5322 C   0  0  0  0  0  0  0  0  0  0  0  0
  150.0313  136.2747  154.6759 N   0  3  2  0  0  0  0  0  0  0  0  0
  150.7491  134.9541  154.7068 C   0  0  1  0  0  0  0  0  0  0  0  0
  151.5084  134.7487  156.0416 C   0  0  0  0  0  0  0  0  0  0  0  0
  149.7908  133.7609  154.4306 C   0  0  0  0  0  0  0  0  0  0  0  0
  148.8618  134.0036  153.3287 N   0  0  0  0  0  0  0  0  0  0  0  0
  147.7785  133.2634  153.0484 C   0  0  0  0  0  0  0  0  0  0  0  0
  147.4573  132.2618  153.6884 O   0  0  0  0  0  0  0  0  0  0  0  0
  147.1136  133.7556  151.9886 N   0  0  0  0  0  0  0  0  0  0  0  0
  145.9337  133.2511  151.3813 C   0  0  0  0  0  0  0  0  0  0  0  0
  145.7650  131.9794  151.0005 N   0  0  0  0  0  0  0  0  0  0  0  0
  144.5060  131.7646  150.4340 C   0  0  0  0  0  0  0  0  0  0  0  0
  143.7245  132.8923  150.3892 C   0  0  0  0  0  0  0  0  0  0  0  0
  144.5427  134.2768  151.0623 S   0  0  0  0  0  0  0  0  0  0  0  0
  150.8966  137.4431  155.0000 C   0  0  0  0  0  0  0  0  0  0  0  0
  150.1245  138.7708  154.8962 C   0  0  2  0  0  0  0  0  0  0  0  0
  150.9832  139.9666  155.3241 C   0  0  0  0  0  0  0  0  0  0  0  0
  148.9846  138.7298  155.7440 O   0  0  0  0  0  0  0  0  0  0  0  0
  146.5297  137.1363  154.0226 H   0  0  0  0  0  0  0  0  0  0  0  0
  147.9620  137.8076  153.2646 H   0  0  0  0  0  0  0  0  0  0  0  0
  146.8415  138.8642  154.1218 H   0  0  0  0  0  0  0  0  0  0  0  0
  147.3395  137.6845  156.2546 H   0  0  0  0  0  0  0  0  0  0  0  0
  149.1000  136.1088  156.5648 H   0  0  0  0  0  0  0  0  0  0  0  0
  148.0960  135.5438  155.2457 H   0  0  0  0  0  0  0  0  0  0  0  0
  151.4916  134.9686  153.9071 H   0  0  0  0  0  0  0  0  0  0  0  0
  151.9912  133.7743  156.0953 H   0  0  0  0  0  0  0  0  0  0  0  0
  150.8358  134.8285  156.8963 H   0  0  0  0  0  0  0  0  0  0  0  0
  152.3190  135.4627  156.1761 H   0  0  0  0  0  0  0  0  0  0  0  0
  150.3640  132.8460  154.2709 H   0  0  0  0  0  0  0  0  0  0  0  0
  149.1448  133.5746  155.2865 H   0  0  0  0  0  0  0  0  0  0  0  0
  149.0497  134.8063  152.7455 H   0  0  0  0  0  0  0  0  0  0  0  0
  147.4958  134.5878  151.5639 H   0  0  0  0  0  0  0  0  0  0  0  0
  144.2480  130.7747  150.0877 H   0  0  0  0  0  0  0  0  0  0  0  0
  142.7211  132.9918  150.0029 H   0  0  0  0  0  0  0  0  0  0  0  0
  151.3115  137.3205  156.0020 H   0  0  0  0  0  0  0  0  0  0  0  0
  151.7332  137.5162  154.3083 H   0  0  0  0  0  0  0  0  0  0  0  0
  149.8140  138.9351  153.8643 H   0  0  0  0  0  0  0  0  0  0  0  0
  151.8695  140.0589  154.6960 H   0  0  0  0  0  0  0  0  0  0  0  0
  151.3151  139.8659  156.3580 H   0  0  0  0  0  0  0  0  0  0  0  0
  150.4224  140.8981  155.2443 H   0  0  0  0  0  0  0  0  0  0  0  0
  149.7176  136.4070  153.7246 H   0  0  0  0  0  0  0  0  0  0  0  0
  1  2  1  0  0  0  0
  1 21  1  0  0  0  0
  1 22  1  0  0  0  0
  1 23  1  0  0  0  0
  2 20  1  0  0  0  0
  2  3  1  0  0  0  0
  2 24  1  0  0  0  0
  3  4  1  0  0  0  0
  3 25  1  0  0  0  0
  3 26  1  0  0  0  0
  4  5  1  0  0  0  0
  4 17  1  0  0  0  0
  4 43  1  0  0  0  0
  5  6  1  0  0  0  0
  5  7  1  0  0  0  0
  5 27  1  0  0  0  0
  6 28  1  0  0  0  0
  6 29  1  0  0  0  0
  6 30  1  0  0  0  0
  7  8  1  0  0  0  0
  7 31  1  0  0  0  0
  7 32  1  0  0  0  0
  8  9  1  0  0  0  0
  8 33  1  0  0  0  0
  9 10  2  0  0  0  0
  9 11  1  0  0  0  0
 11 12  1  0  0  0  0
 11 34  1  0  0  0  0
 12 16  1  0  0  0  0
 12 13  2  0  0  0  0
 13 14  1  0  0  0  0
 14 15  2  0  0  0  0
 14 35  1  0  0  0  0
 15 16  1  0  0  0  0
 15 36  1  0  0  0  0
 17 18  1  0  0  0  0
 17 37  1  0  0  0  0
 17 38  1  0  0  0  0
 18 19  1  0  0  0  0
 18 20  1  0  0  0  0
 18 39  1  0  0  0  0
 19 40  1  0  0  0  0
 19 41  1  0  0  0  0
 19 42  1  0  0  0  0
M  CHG  1   4   1
M  END
> <s_m_source_file>
AV-unprocessed.smi

> <i_m_source_file_index>
2032

> <i_lp_mmshare_version>
43012

> <i_f3d_flags>
0

> <s_epik_input>
W0NIM11bQ0BASF0xW0NIMl1OKFtDSDJdW0NASF0oTzEpW0NIM10pW0NASF0oW0NIM10pW0NIMl1bTkhdQyg9TylbTkhdYzJuW2NIXVtjSF1zMg==

> <s_epik_cmdline>
J2VwaWtfcHl0aG9uJywgJy1waCcsICc3LjAnLCAnLXRuJywgJzgnLCAnLW1hJywgJzIwMCcsICctbWV0YWxfYmluZGluZycsICctaW1hZScsICc8aW5maWxlLm1hZT4nLCAnLW9tYWUnLCAnPG91dGZpbGUubWFlPic=

> <r_lp_tautomer_probability>
0.999

> <r_epik_Ionization_Penalty>
0.695838

> <r_epik_Ionization_Penalty_Charging>
0.695697

> <r_epik_Ionization_Penalty_Neutral>
0.000141198

> <r_epik_State_Penalty>
0.717972

> <r_epik_Charging_Adjusted_Penalty>
1.41367

> <i_epik_Tot_Q>
1

> <i_epik_Tot_abs_Q>
1

> <r_epik_Metal_State_Penalty>
0.756405

> <b_epik_Metal_Only>
0

> <s_lp_Force_Field>
OPLS_2005

> <r_lp_Energy>
22.0252

> <b_lp_Chiralities_Consistent>
1

> <s_lp_Variant>
AV-unprocessed.smi:2032-14

> <Gold.Version>
5.8.1

> <Gold.Id.Protein>
6NUR|6NUR_protein|mol2

> <Gold.PLP.Fitness>
40.5704

> <Gold.PLP.PLP>
-28.6533

> <Gold.PLP.part.hbond>
-3.0000

> <Gold.PLP.part.metal>
0.0000

> <Gold.PLP.part.buried>
-2.2451

> <Gold.PLP.part.nonpolar>
-24.0836

> <Gold.PLP.part.repulsive>
0.2743

> <Gold.PLP.ligand.clash>
0.0000

> <Gold.PLP.ligand.torsion>
0.7062

> <Gold.PLP.Chemscore.Hbond>
3.4221

> <Gold.PLP.Chemscore.CHOScore>
1.0000

> <Gold.PLP.Chemscore.Metal>
0.0000

> <Gold.Chemscore.Hbonds>
donor molecule, donor type, donor heavy atom, donor atom, acceptor molecule, acceptor atom, score
      L1  H     4    43       P1  7948  2.00
      L1  H     8    33       P1  7948  0.40
      L1  H    11    34       P1  7948  0.60
      L1  C    15    36       P1 10186  1.00

> <Gold.PLP.Chemscore.Internal.Correction>
0.0633

> <Gold.Rescore>
     Score         DG    S(hbond)    S(metal)    S(lipo)     H(rot)  DE(clash)    DE(int)     intcor
     13.22     -14.43       1.75        0.00      61.87       1.61       0.45       0.75       ----

> <Gold.Chemscore.Fitness>
13.2249

> <Gold.Chemscore.DG>
-14.4257

> <Gold.Chemscore.ZeroCoef>
-5.4800

> <Gold.Chemscore.Hbond>
1.7457

> <Gold.Chemscore.Metal>
0.0000

> <Gold.Chemscore.Lipo>
61.8731

> <Gold.Chemscore.Internal_Hbond>
0.0000

> <Gold.Chemscore.DEClash>
0.4473

> <Gold.Chemscore.DEInternal>
0.7535

> <Gold.Chemscore.Rot>
1.6110

> <Gold.Chemscore.Internal.Correction>
   9.000000E+99

> <Gold.Chemscore.Hbonds>
donor molecule, donor type, donor heavy atom, donor atom, acceptor molecule, acceptor atom, score
      L1  H     4    43       P1  7948  0.44
      L1  H     8    33       P1  7948  0.01
      L1  H    11    34       P1  7948  0.18

> <Gold.Chemscore.Hbond.Weighted>
-5.8307

> <Gold.Chemscore.Metal.Weighted>
-0.0000

> <Gold.Chemscore.Lipo.Weighted>
-7.2392

> <Gold.Chemscore.Internal_Hbond.Weighted>
0.0000

> <Gold.Chemscore.DEClash.Weighted>
0.4473

> <Gold.Chemscore.DEInternal.Weighted>
0.7535

> <Gold.Chemscore.Rot.Weighted>
4.1242

> <Gold.Chemscore.Internal.Correction.Weighted>
   9.000000E+99

> <Gold.Protein.RotatedTorsions>
[ 6907 6896 6895 6894 ] final -113.49 input  -60.11 | X-H torsion
[ 7974 7965 7964 7962 ] final   26.31 input  175.53 | X-H torsion
[ 8008 7997 7996 7995 ] final   -4.88 input   59.86 | X-H torsion
[ 10167 10162 10161 10158 ] final  104.46 input  -65.29 | X-H torsion
[ 10718 10713 10712 10709 ] final  -41.86 input   66.30 | X-H torsion
[ 10763 10752 10751 10750 ] final   87.19 input  -60.55 | X-H torsion
[ 11005 11000 10999 10996 ] final  -86.55 input  -57.11 | X-H torsion

> <Gold.Protein.ActiveResidues>
 VAL166  LYS551  ARG553  GLY616  TRP617  ASP618  TYR619  PRO620  LYS621  CYS622 
 ASP623  PHE694  ASN695  SER759  ASP760  ASP761  ALA762  ILE779  LEU786  VAL792 
 PHE793  MET794  SER795  GLU796  ALA797  LYS798  CYS799  TRP800  GLU811  SER814 

> <Gold.Protein.RotatedAtoms>
  150.7832  133.8938  159.3320 H   0  0  0  0  0  0  0  0  0  0  0  0  # atno 6907 bound_to 6896
  151.6795  135.0962  160.0223 H   0  0  0  0  0  0  0  0  0  0  0  0  # atno 6908 bound_to 6896
  152.3890  133.6613  159.6257 H   0  0  0  0  0  0  0  0  0  0  0  0  # atno 6909 bound_to 6896
  146.1844  139.7345  142.8877 H   0  0  0  0  0  0  0  0  0  0  0  0  # atno 7974 bound_to 7965
  154.6097  140.2473  155.7685 H   0  0  0  0  0  0  0  0  0  0  0  0  # atno 8008 bound_to 7997
  156.2363  140.2949  156.0272 H   0  0  0  0  0  0  0  0  0  0  0  0  # atno 8009 bound_to 7997
  155.2072  140.0396  157.2918 H   0  0  0  0  0  0  0  0  0  0  0  0  # atno 8010 bound_to 7997
  139.7175  144.7065  151.0925 H   0  0  0  0  0  0  0  0  0  0  0  0  # atno 10167 bound_to 10162
  156.2658  130.4201  149.8492 H   0  0  0  0  0  0  0  0  0  0  0  0  # atno 10718 bound_to 10713
  153.1644  135.4552  154.9817 H   0  0  0  0  0  0  0  0  0  0  0  0  # atno 10763 bound_to 10752
  154.7921  135.3224  154.7755 H   0  0  0  0  0  0  0  0  0  0  0  0  # atno 10764 bound_to 10752
  153.8240  135.6944  153.4878 H   0  0  0  0  0  0  0  0  0  0  0  0  # atno 10765 bound_to 10752
  141.1628  133.7461  156.9178 H   0  0  0  0  0  0  0  0  0  0  0  0  # atno 11005 bound_to 11000
  145.3982  141.0381  143.3085 LP  0  0  0  0  0  0  0  0  0  0  0  0  # atno 17320 bound_to 7965
  144.8371  139.5533  143.6917 LP  0  0  0  0  0  0  0  0  0  0  0  0  # atno 17321 bound_to 7965
  140.7747  143.5210  150.9537 LP  0  0  0  0  0  0  0  0  0  0  0  0  # atno 17342 bound_to 10162
  139.8896  143.6970  152.3147 LP  0  0  0  0  0  0  0  0  0  0  0  0  # atno 17343 bound_to 10162
  156.5991  130.8539  151.3427 LP  0  0  0  0  0  0  0  0  0  0  0  0  # atno 17370 bound_to 10713
  157.7267  130.9632  150.1666 LP  0  0  0  0  0  0  0  0  0  0  0  0  # atno 17371 bound_to 10713
  140.1472  134.9254  157.2545 LP  0  0  0  0  0  0  0  0  0  0  0  0  # atno 17394 bound_to 11000
  140.2765  134.3399  155.7356 LP  0  0  0  0  0  0  0  0  0  0  0  0  # atno 17395 bound_to 11000

$$$$
