#       Name:                AV-unprocessed.smi:2855
#       Creating user name   scv26
#       Creation time:       Fri Mar 27 15:43:37 2020


#       File generated by GOLD software.
#

@<TRIPOS>MOLECULE
AV-unprocessed.smi:2855
    53    54     1
SMALL
NO_CHARGES


@<TRIPOS>ATOM
      1 ****        -3.0490  -2.9558   1.2484 C.3            1 S1                 0.0000
      2 ****        -3.4220  -1.4648   1.3271 C.3            1 S1                 0.0000
      3 ****        -3.0601  -0.8308   2.6823 C.3            1 S1                 0.0000
      4 ****        -1.5466  -0.6143   2.8440 C.3            1 S1                 0.0000
      5 ****        -0.9544   0.2347   1.6939 C.3            1 S1                 0.0000
      6 ****         0.5605   0.5519   1.8812 C.3            1 S1                 0.0000
      7 ****         1.4651  -0.6939   1.9113 C.3            1 S1                 0.0000
      8 ****         0.8271   1.4450   3.1056 C.3            1 S1                 0.0000
      9 ****        -1.3021  -0.4100   0.3224 C.3            1 S1                 0.0000
     10 ****        -0.8541   0.4371  -0.7819 N.am           1 S1                 0.0000
     11 ****         0.0724   0.1152  -1.6980 C.2            1 S1                 0.0000
     12 ****         0.6393  -0.9775  -1.7378 O.2            1 S1                 0.0000
     13 ****         0.3976   1.1962  -2.7374 C.3            1 S1                 0.0000
     14 ****         1.8087   1.1746  -3.1471 N.am           1 S1                 0.0000
     15 ****         2.1839   0.5790  -4.3430 C.2            1 S1                 0.0000
     16 ****         3.4668   0.5107  -4.7711 C.2            1 S1                 0.0000
     17 ****         4.5449   1.0784  -3.9685 C.2            1 S1                 0.0000
     18 ****         5.7360   1.0671  -4.2713 O.2            1 S1                 0.0000
     19 ****         4.1272   1.6671  -2.7720 N.am           1 S1                 0.0000
     20 ****         2.8075   1.7390  -2.3236 C.2            1 S1                 0.0000
     21 ****         2.5482   2.2771  -1.2476 O.2            1 S1                 0.0000
     22 ****        -2.8207  -0.6397   0.1740 C.3            1 S1                 0.0000
     23 ****         4.8394   2.0714  -2.1816 H              1 S1                 0.0000
     24 ****        -1.9750  -3.1177   1.3360 H              1 S1                 0.0000
     25 ****        -3.3703  -3.3883   0.3006 H              1 S1                 0.0000
     26 ****        -3.5325  -3.5212   2.0454 H              1 S1                 0.0000
     27 ****        -4.5073  -1.4172   1.2277 H              1 S1                 0.0000
     28 ****        -3.5655   0.1315   2.7720 H              1 S1                 0.0000
     29 ****        -3.4384  -1.4463   3.4992 H              1 S1                 0.0000
     30 ****        -1.3709  -0.1313   3.8044 H              1 S1                 0.0000
     31 ****        -1.0480  -1.5818   2.8953 H              1 S1                 0.0000
     32 ****        -1.4716   1.1956   1.7199 H              1 S1                 0.0000
     33 ****         0.8811   1.1455   1.0250 H              1 S1                 0.0000
     34 ****         1.2578  -1.3243   2.7758 H              1 S1                 0.0000
     35 ****         2.5155  -0.4064   1.9646 H              1 S1                 0.0000
     36 ****         1.3481  -1.3028   1.0157 H              1 S1                 0.0000
     37 ****         0.6343   0.9219   4.0419 H              1 S1                 0.0000
     38 ****         0.2047   2.3399   3.0860 H              1 S1                 0.0000
     39 ****         1.8668   1.7730   3.1272 H              1 S1                 0.0000
     40 ****        -0.8157  -1.3838   0.2644 H              1 S1                 0.0000
     41 ****        -1.2682   1.3561  -0.8391 H              1 S1                 0.0000
     42 ****        -0.2536   1.0429  -3.5989 H              1 S1                 0.0000
     43 ****         0.1373   2.1838  -2.3506 H              1 S1                 0.0000
     44 ****         1.4194   0.1404  -4.9684 H              1 S1                 0.0000
     45 ****         3.6964   0.0321  -5.7122 H              1 S1                 0.0000
     46 ****        -3.0350  -1.1256  -0.7790 H              1 S1                 0.0000
     47 ****        -3.3255   0.3271   0.1372 H              1 S1                 0.0000
     48 ****         0.4164  -1.6813  -1.0632 LP             1 S1                 0.0000
     49 ****         1.3225  -1.1609  -2.4446 LP             1 S1                 0.0000
     50 ****         6.0300   0.6443  -5.1285 LP             1 S1                 0.0000
     51 ****         6.4111   1.4807  -3.6604 LP             1 S1                 0.0000
     52 ****         1.6018   2.3260  -0.9282 LP             1 S1                 0.0000
     53 ****         3.2839   2.6654  -0.6926 LP             1 S1                 0.0000
@<TRIPOS>BOND
    1    1    2 1     
    2    1   24 1     
    3    1   25 1     
    4    1   26 1     
    5    2   22 1     
    6    2    3 1     
    7    2   27 1     
    8    3    4 1     
    9    3   28 1     
   10    3   29 1     
   11    4    5 1     
   12    4   30 1     
   13    4   31 1     
   14    5    6 1     
   15    5    9 1     
   16    5   32 1     
   17    6    7 1     
   18    6    8 1     
   19    6   33 1     
   20    7   34 1     
   21    7   35 1     
   22    7   36 1     
   23    8   37 1     
   24    8   38 1     
   25    8   39 1     
   26    9   10 1     
   27    9   22 1     
   28    9   40 1     
   29   10   11 am    
   30   10   41 1     
   31   11   12 2     
   32   11   13 1     
   33   13   14 1     
   34   13   42 1     
   35   13   43 1     
   36   14   20 1     
   37   14   15 1     
   38   15   16 2     
   39   15   44 1     
   40   16   17 1     
   41   16   45 1     
   42   17   18 2     
   43   17   19 1     
   44   19   23 1     
   45   19   20 1     
   46   20   21 2     
   47   22   46 1     
   48   22   47 1     
   49   12   48 1     
   50   12   49 1     
   51   18   50 1     
   52   18   51 1     
   53   21   52 1     
   54   21   53 1     
@<TRIPOS>SUBSTRUCTURE
      1 S1             1
@<TRIPOS>SET
LONE_PAIRS      STATIC     ATOMS    <user>   **** ""
6 48 49 50 51 52 53
DONOR_HYDROGENS      STATIC     ATOMS    <user>   **** ""
2 41 23
ATOM$BLUE        STATIC     ATOMS    COLORGROUP SYSTEM
6 48 49 50 51 52 53
ATOM$RED        STATIC     ATOMS    COLORGROUP SYSTEM
2 41 23
