AV-unprocessed.smi:1754|AV-procd|sdf|7069|dock8
  -GOLD-   22720 8283D 1   1.00000     0.00000
 Structure written by MMmdl.
 44 45  0  0  0  0  0  0  0  0  3 V2000
  152.1680  145.4689  159.1940 C   0  0  0  0  0  0  0  0  0  0  0  0
  151.4648  144.2048  158.6829 C   0  0  0  0  0  0  0  0  0  0  0  0
  152.0929  142.9850  159.1832 N   0  0  0  0  0  0  0  0  0  0  0  0
  153.0088  143.0734  160.3193 C   0  0  0  0  0  0  0  0  0  0  0  0
  152.3140  143.5911  161.5858 C   0  0  0  0  0  0  0  0  0  0  0  0
  151.8614  141.7446  158.5447 C   0  0  0  0  0  0  0  0  0  0  0  0
  152.7018  140.6154  158.7068 C   0  0  0  0  0  0  0  0  0  0  0  0
  152.3992  139.4117  158.0381 C   0  0  0  0  0  0  0  0  0  0  0  0
  151.2672  139.3393  157.2017 C   0  0  0  0  0  0  0  0  0  0  0  0
  150.9877  138.0982  156.5695 N   0  0  0  0  0  0  0  0  0  0  0  0
  151.8346  137.0959  156.2275 C   0  0  0  0  0  0  0  0  0  0  0  0
  153.0198  137.1825  156.5437 O   0  0  0  0  0  0  0  0  0  0  0  0
  151.3558  135.9990  155.5657 N   0  5  0  0  0  0  0  0  0  0  0  0
  149.9820  135.7031  155.1218 C   0  0  1  0  0  0  0  0  0  0  0  0
  149.9659  134.3446  154.3872 C   0  0  0  0  0  0  0  0  0  0  0  0
  149.9511  133.2045  155.4147 C   0  0  0  0  0  0  0  0  0  0  0  0
  148.9554  133.8305  156.8166 S   0  0  0  0  0  0  0  0  0  0  0  0
  147.5660  133.3704  156.6661 O   0  0  0  0  0  0  0  0  0  0  0  0
  149.6883  133.6078  158.0726 O   0  0  0  0  0  0  0  0  0  0  0  0
  149.0442  135.6037  156.3418 C   0  0  0  0  0  0  0  0  0  0  0  0
  150.4512  140.4877  157.0800 C   0  0  0  0  0  0  0  0  0  0  0  0
  150.7782  141.6198  157.7391 N   0  3  0  0  0  0  0  0  0  0  0  0
  151.6897  146.3637  158.7955 H   0  0  0  0  0  0  0  0  0  0  0  0
  153.2147  145.4901  158.8890 H   0  0  0  0  0  0  0  0  0  0  0  0
  152.1353  145.5319  160.2819 H   0  0  0  0  0  0  0  0  0  0  0  0
  150.4039  144.2254  158.9306 H   0  0  0  0  0  0  0  0  0  0  0  0
  151.5070  144.1935  157.5934 H   0  0  0  0  0  0  0  0  0  0  0  0
  153.4132  142.0798  160.5155 H   0  0  0  0  0  0  0  0  0  0  0  0
  153.8697  143.6961  160.0747 H   0  0  0  0  0  0  0  0  0  0  0  0
  153.0145  143.6322  162.4200 H   0  0  0  0  0  0  0  0  0  0  0  0
  151.4883  142.9422  161.8788 H   0  0  0  0  0  0  0  0  0  0  0  0
  151.9153  144.5952  161.4387 H   0  0  0  0  0  0  0  0  0  0  0  0
  153.5821  140.6501  159.3300 H   0  0  0  0  0  0  0  0  0  0  0  0
  153.0392  138.5507  158.1644 H   0  0  0  0  0  0  0  0  0  0  0  0
  150.0131  137.9203  156.3757 H   0  0  0  0  0  0  0  0  0  0  0  0
  149.6117  136.4745  154.4447 H   0  0  0  0  0  0  0  0  0  0  0  0
  149.0500  134.2850  153.7985 H   0  0  0  0  0  0  0  0  0  0  0  0
  150.7922  134.2429  153.6825 H   0  0  0  0  0  0  0  0  0  0  0  0
  149.5198  132.2825  155.0258 H   0  0  0  0  0  0  0  0  0  0  0  0
  150.9574  132.9912  155.7793 H   0  0  0  0  0  0  0  0  0  0  0  0
  149.3668  136.2025  157.1942 H   0  0  0  0  0  0  0  0  0  0  0  0
  148.0372  135.9202  156.0710 H   0  0  0  0  0  0  0  0  0  0  0  0
  149.5442  140.5460  156.4973 H   0  0  0  0  0  0  0  0  0  0  0  0
  150.1667  142.4284  157.6273 H   0  0  0  0  0  0  0  0  0  0  0  0
  1  2  1  0  0  0  0
  1 23  1  0  0  0  0
  1 24  1  0  0  0  0
  1 25  1  0  0  0  0
  2  3  1  0  0  0  0
  2 26  1  0  0  0  0
  2 27  1  0  0  0  0
  3  4  1  0  0  0  0
  3  6  1  0  0  0  0
  4  5  1  0  0  0  0
  4 28  1  0  0  0  0
  4 29  1  0  0  0  0
  5 30  1  0  0  0  0
  5 31  1  0  0  0  0
  5 32  1  0  0  0  0
  6 22  1  0  0  0  0
  6  7  2  0  0  0  0
  7  8  1  0  0  0  0
  7 33  1  0  0  0  0
  8  9  2  0  0  0  0
  8 34  1  0  0  0  0
  9 10  1  0  0  0  0
  9 21  1  0  0  0  0
 10 11  1  0  0  0  0
 10 35  1  0  0  0  0
 11 12  2  0  0  0  0
 11 13  1  0  0  0  0
 13 14  1  0  0  0  0
 14 20  1  0  0  0  0
 14 15  1  0  0  0  0
 14 36  1  0  0  0  0
 15 16  1  0  0  0  0
 15 37  1  0  0  0  0
 15 38  1  0  0  0  0
 16 17  1  0  0  0  0
 16 39  1  0  0  0  0
 16 40  1  0  0  0  0
 17 18  2  0  0  0  0
 17 19  2  0  0  0  0
 17 20  1  0  0  0  0
 20 41  1  0  0  0  0
 20 42  1  0  0  0  0
 21 22  2  0  0  0  0
 21 43  1  0  0  0  0
 22 44  1  0  0  0  0
M  CHG  1  13  -1
M  CHG  1  22   1
M  END
> <s_m_source_file>
AV-unprocessed.smi

> <i_m_source_file_index>
1754

> <i_lp_mmshare_version>
43012

> <i_f3d_flags>
0

> <s_epik_input>
W0NIM11bQ0gyXU4oW0NIMl1bQ0gzXSljMVtjSF1bY0hdYyhbY0hdbjEpW05IXUMoPU8pW05IXVtDQEBIXShbQ0gyXTIpW0NIMl1bQ0gyXVMyKD1PKT1P

> <s_epik_cmdline>
J2VwaWtfcHl0aG9uJywgJy1waCcsICc3LjAnLCAnLXRuJywgJzgnLCAnLW1hJywgJzIwMCcsICctbWV0YWxfYmluZGluZycsICctaW1hZScsICc8aW5maWxlLm1hZT4nLCAnLW9tYWUnLCAnPG91dGZpbGUubWFlPic=

> <r_lp_tautomer_probability>
0.999994

> <r_epik_Ionization_Penalty>
7.1175

> <r_epik_Ionization_Penalty_Charging>
7.11749

> <r_epik_Ionization_Penalty_Neutral>
3.13064e-06

> <r_epik_State_Penalty>
6.65299

> <r_epik_Charging_Adjusted_Penalty>
13.7705

> <i_epik_Tot_Q>
0

> <i_epik_Tot_abs_Q>
2

> <r_epik_Metal_State_Penalty>
2.60496

> <b_epik_Metal_Only>
1

> <s_lp_Force_Field>
OPLS_2005

> <r_lp_Energy>
22.4709

> <b_lp_Chiralities_Consistent>
1

> <s_lp_Variant>
AV-unprocessed.smi:1754-6

> <Gold.Version>
5.8.1

> <Gold.Id.Protein>
6NUR|6NUR_protein|mol2

> <Gold.PLP.Fitness>
44.8773

> <Gold.PLP.PLP>
-36.6998

> <Gold.PLP.part.hbond>
-2.6646

> <Gold.PLP.part.metal>
0.0000

> <Gold.PLP.part.buried>
-4.6473

> <Gold.PLP.part.nonpolar>
-29.8288

> <Gold.PLP.part.repulsive>
0.1373

> <Gold.PLP.ligand.clash>
0.0000

> <Gold.PLP.ligand.torsion>
0.5166

> <Gold.PLP.Chemscore.Hbond>
3.0000

> <Gold.PLP.Chemscore.CHOScore>
0.0000

> <Gold.PLP.Chemscore.Metal>
0.0000

> <Gold.Chemscore.Hbonds>
donor molecule, donor type, donor heavy atom, donor atom, acceptor molecule, acceptor atom, score
      P1  H  6896  6907       L1    19  1.00
      P1  H 10752 10763       L1    13  1.80

> <Gold.PLP.Chemscore.Internal.Correction>
0.2107

> <Gold.Rescore>
     Score         DG    S(hbond)    S(metal)    S(lipo)     H(rot)  DE(clash)    DE(int)     intcor
     15.46     -17.98       1.59        0.00      91.68       1.39       0.45       2.07       ----

> <Gold.Chemscore.Fitness>
15.4611

> <Gold.Chemscore.DG>
-17.9757

> <Gold.Chemscore.ZeroCoef>
-5.4800

> <Gold.Chemscore.Hbond>
1.5933

> <Gold.Chemscore.Metal>
0.0000

> <Gold.Chemscore.Lipo>
91.6789

> <Gold.Chemscore.Internal_Hbond>
0.0000

> <Gold.Chemscore.DEClash>
0.4462

> <Gold.Chemscore.DEInternal>
2.0684

> <Gold.Chemscore.Rot>
1.3876

> <Gold.Chemscore.Internal.Correction>
   9.000000E+99

> <Gold.Chemscore.Hbonds>
donor molecule, donor type, donor heavy atom, donor atom, acceptor molecule, acceptor atom, score
      P1  H  6896  6907       L1    19  1.00
      P1  H 10752 10763       L1    13  0.17

> <Gold.Chemscore.Hbond.Weighted>
-5.3216

> <Gold.Chemscore.Metal.Weighted>
-0.0000

> <Gold.Chemscore.Lipo.Weighted>
-10.7264

> <Gold.Chemscore.Internal_Hbond.Weighted>
0.0000

> <Gold.Chemscore.DEClash.Weighted>
0.4462

> <Gold.Chemscore.DEInternal.Weighted>
2.0684

> <Gold.Chemscore.Rot.Weighted>
3.5524

> <Gold.Chemscore.Internal.Correction.Weighted>
   9.000000E+99

> <Gold.Protein.RotatedTorsions>
[ 6907 6896 6895 6894 ] final -122.06 input  -60.11 | X-H torsion
[ 7974 7965 7964 7962 ] final  165.57 input  175.53 | X-H torsion
[ 8008 7997 7996 7995 ] final   42.94 input   59.86 | X-H torsion
[ 10167 10162 10161 10158 ] final  -77.84 input  -65.29 | X-H torsion
[ 10718 10713 10712 10709 ] final  174.34 input   66.30 | X-H torsion
[ 10763 10752 10751 10750 ] final   54.41 input  -60.55 | X-H torsion
[ 11005 11000 10999 10996 ] final  -65.64 input  -57.11 | X-H torsion

> <Gold.Protein.ActiveResidues>
 VAL166  LYS551  ARG553  GLY616  TRP617  ASP618  TYR619  PRO620  LYS621  CYS622 
 ASP623  PHE694  ASN695  SER759  ASP760  ASP761  ALA762  ILE779  LEU786  VAL792 
 PHE793  MET794  SER795  GLU796  ALA797  LYS798  CYS799  TRP800  GLU811  SER814 

> <Gold.Protein.RotatedAtoms>
  150.8541  133.7742  159.3014 H   0  0  0  0  0  0  0  0  0  0  0  0  # atno 6907 bound_to 6896
  151.5405  135.1067  159.9934 H   0  0  0  0  0  0  0  0  0  0  0  0  # atno 6908 bound_to 6896
  152.4576  133.7711  159.6855 H   0  0  0  0  0  0  0  0  0  0  0  0  # atno 6909 bound_to 6896
  144.7497  139.8489  143.6370 H   0  0  0  0  0  0  0  0  0  0  0  0  # atno 7974 bound_to 7965
  155.2945  140.3381  155.4250 H   0  0  0  0  0  0  0  0  0  0  0  0  # atno 8008 bound_to 7997
  156.2030  140.1740  156.7898 H   0  0  0  0  0  0  0  0  0  0  0  0  # atno 8009 bound_to 7997
  154.5584  140.0692  156.8764 H   0  0  0  0  0  0  0  0  0  0  0  0  # atno 8010 bound_to 7997
  140.4734  143.2420  151.8169 H   0  0  0  0  0  0  0  0  0  0  0  0  # atno 10167 bound_to 10162
  156.9510  131.0031  151.2948 H   0  0  0  0  0  0  0  0  0  0  0  0  # atno 10718 bound_to 10713
  152.9804  135.5746  154.4900 H   0  0  0  0  0  0  0  0  0  0  0  0  # atno 10763 bound_to 10752
  154.4436  135.2776  155.1832 H   0  0  0  0  0  0  0  0  0  0  0  0  # atno 10764 bound_to 10752
  154.3490  135.6213  153.5687 H   0  0  0  0  0  0  0  0  0  0  0  0  # atno 10765 bound_to 10752
  141.1460  133.6685  156.6017 H   0  0  0  0  0  0  0  0  0  0  0  0  # atno 11005 bound_to 11000
  146.1430  139.4492  143.0097 LP  0  0  0  0  0  0  0  0  0  0  0  0  # atno 17320 bound_to 7965
  145.6989  141.0142  143.1515 LP  0  0  0  0  0  0  0  0  0  0  0  0  # atno 17321 bound_to 7965
  139.4822  144.4863  151.9243 LP  0  0  0  0  0  0  0  0  0  0  0  0  # atno 17342 bound_to 10162
  140.3948  144.2569  150.5897 LP  0  0  0  0  0  0  0  0  0  0  0  0  # atno 17343 bound_to 10162
  157.5721  130.8318  149.8406 LP  0  0  0  0  0  0  0  0  0  0  0  0  # atno 17370 bound_to 10713
  156.0362  130.3750  150.1553 LP  0  0  0  0  0  0  0  0  0  0  0  0  # atno 17371 bound_to 10713
  140.3683  134.7628  157.4581 LP  0  0  0  0  0  0  0  0  0  0  0  0  # atno 17394 bound_to 11000
  140.0730  134.5835  155.8621 LP  0  0  0  0  0  0  0  0  0  0  0  0  # atno 17395 bound_to 11000

$$$$
