AV-unprocessed.smi:6|AV-procd|sdf|40|dock10
  -GOLD-   2262015153D 1   1.00000     0.00000
 Structure written by MMmdl.
 38 39  0  0  0  0  0  0  0  0  2 V2000
  145.5952  131.9662  151.0996 C   0  0  0  0  0  0  0  0  0  0  0  0
  144.9137  133.0181  151.9883 C   0  0  0  0  0  0  0  0  0  0  0  0
  144.5306  134.2937  151.2225 C   0  0  0  0  0  0  0  0  0  0  0  0
  145.7294  133.3276  153.2355 C   0  0  0  0  0  0  0  0  0  0  0  0
  145.2205  133.0191  154.4395 N   0  3  0  0  0  0  0  0  0  0  0  0
  145.9307  133.2973  155.5600 C   0  0  0  0  0  0  0  0  0  0  0  0
  147.1966  133.9056  155.4688 C   0  0  0  0  0  0  0  0  0  0  0  0
  147.6708  134.2002  154.1789 C   0  0  0  0  0  0  0  0  0  0  0  0
  148.9244  134.8077  154.0245 N   0  0  0  0  0  0  0  0  0  0  0  0
  149.7380  135.1171  155.1945 C   0  0  0  0  0  0  0  0  0  0  0  0
  150.2464  136.5505  155.2039 C   0  0  0  0  0  0  0  0  0  0  0  0
  149.5456  137.5630  154.6320 C   0  0  0  0  0  0  0  0  0  0  0  0
  149.9641  138.8842  154.6417 N   0  0  0  0  0  0  0  0  0  0  0  0
  149.2178  139.9504  154.0313 C   0  0  0  0  0  0  0  0  0  0  0  0
  151.1736  139.2333  155.2776 C   0  0  0  0  0  0  0  0  0  0  0  0
  151.6038  140.3861  155.3204 O   0  0  0  0  0  0  0  0  0  0  0  0
  151.8864  138.1963  155.8777 N   0  0  0  0  0  0  0  0  0  0  0  0
  151.5063  136.8507  155.8949 C   0  0  0  0  0  0  0  0  0  0  0  0
  152.2197  136.0266  156.4646 O   0  0  0  0  0  0  0  0  0  0  0  0
  146.9292  133.9080  153.0875 N   0  0  0  0  0  0  0  0  0  0  0  0
  152.7506  138.4386  156.3406 H   0  0  0  0  0  0  0  0  0  0  0  0
  145.7803  131.0451  151.6526 H   0  0  0  0  0  0  0  0  0  0  0  0
  146.5522  132.3248  150.7191 H   0  0  0  0  0  0  0  0  0  0  0  0
  144.9720  131.7159  150.2406 H   0  0  0  0  0  0  0  0  0  0  0  0
  143.9768  132.5712  152.3252 H   0  0  0  0  0  0  0  0  0  0  0  0
  143.9795  134.9843  151.8616 H   0  0  0  0  0  0  0  0  0  0  0  0
  143.8981  134.0613  150.3654 H   0  0  0  0  0  0  0  0  0  0  0  0
  145.4129  134.8156  150.8504 H   0  0  0  0  0  0  0  0  0  0  0  0
  145.4614  133.0246  156.4939 H   0  0  0  0  0  0  0  0  0  0  0  0
  147.7732  134.1346  156.3532 H   0  0  0  0  0  0  0  0  0  0  0  0
  149.1306  135.2861  153.1592 H   0  0  0  0  0  0  0  0  0  0  0  0
  149.1475  134.9297  156.0920 H   0  0  0  0  0  0  0  0  0  0  0  0
  150.5987  134.4481  155.2373 H   0  0  0  0  0  0  0  0  0  0  0  0
  148.6128  137.3235  154.1416 H   0  0  0  0  0  0  0  0  0  0  0  0
  149.8454  140.3941  153.2559 H   0  0  0  0  0  0  0  0  0  0  0  0
  148.9615  140.6675  154.8138 H   0  0  0  0  0  0  0  0  0  0  0  0
  148.3125  139.5301  153.5920 H   0  0  0  0  0  0  0  0  0  0  0  0
  144.3031  132.5796  154.5202 H   0  0  0  0  0  0  0  0  0  0  0  0
  1  2  1  0  0  0  0
  1 22  1  0  0  0  0
  1 23  1  0  0  0  0
  1 24  1  0  0  0  0
  2  3  1  0  0  0  0
  2  4  1  0  0  0  0
  2 25  1  0  0  0  0
  3 26  1  0  0  0  0
  3 27  1  0  0  0  0
  3 28  1  0  0  0  0
  4 20  1  0  0  0  0
  4  5  2  0  0  0  0
  5  6  1  0  0  0  0
  5 38  1  0  0  0  0
  6  7  2  0  0  0  0
  6 29  1  0  0  0  0
  7  8  1  0  0  0  0
  7 30  1  0  0  0  0
  8  9  1  0  0  0  0
  8 20  2  0  0  0  0
  9 10  1  0  0  0  0
  9 31  1  0  0  0  0
 10 11  1  0  0  0  0
 10 32  1  0  0  0  0
 10 33  1  0  0  0  0
 11 18  1  0  0  0  0
 11 12  2  0  0  0  0
 12 13  1  0  0  0  0
 12 34  1  0  0  0  0
 13 14  1  0  0  0  0
 13 15  1  0  0  0  0
 14 35  1  0  0  0  0
 14 36  1  0  0  0  0
 14 37  1  0  0  0  0
 15 16  2  0  0  0  0
 15 17  1  0  0  0  0
 17 21  1  0  0  0  0
 17 18  1  0  0  0  0
 18 19  2  0  0  0  0
M  CHG  1   5   1
M  END
> <s_m_source_file>
AV-unprocessed.smi

> <i_m_source_file_index>
6

> <i_lp_mmshare_version>
43012

> <i_f3d_flags>
0

> <s_epik_input>
W0NIM11bQ0hdKFtDSDNdKWMxbltjSF1bY0hdYyhuMSlbTkhdW0NIMl1jMltjSF1uKFtDSDNdKWMoPU8pW25IXWMyPU8=

> <s_epik_cmdline>
J2VwaWtfcHl0aG9uJywgJy1waCcsICc3LjAnLCAnLXRuJywgJzgnLCAnLW1hJywgJzIwMCcsICctbWV0YWxfYmluZGluZycsICctaW1hZScsICc8aW5maWxlLm1hZT4nLCAnLW9tYWUnLCAnPG91dGZpbGUubWFlPic=

> <r_lp_tautomer_probability>
0.998874

> <r_epik_Ionization_Penalty>
0.537311

> <r_epik_Ionization_Penalty_Charging>
0.537291

> <r_epik_Ionization_Penalty_Neutral>
2.09214e-05

> <r_epik_State_Penalty>
0.545757

> <r_epik_Charging_Adjusted_Penalty>
1.08305

> <i_epik_Tot_Q>
1

> <i_epik_Tot_abs_Q>
1

> <r_epik_Metal_State_Penalty>
0.947272

> <b_epik_Metal_Only>
0

> <s_lp_Force_Field>
OPLS_2005

> <r_lp_Energy>
10.386

> <b_lp_Chiralities_Consistent>
1

> <s_lp_Variant>
AV-unprocessed.smi:6-2

> <Gold.Version>
5.8.1

> <Gold.Id.Protein>
6NUR|6NUR_protein|mol2

> <Gold.PLP.Fitness>
39.7988

> <Gold.PLP.PLP>
-24.2495

> <Gold.PLP.part.hbond>
-4.0000

> <Gold.PLP.part.metal>
0.0000

> <Gold.PLP.part.buried>
-0.7552

> <Gold.PLP.part.nonpolar>
-19.4337

> <Gold.PLP.part.repulsive>
0.2513

> <Gold.PLP.ligand.clash>
0.0000

> <Gold.PLP.ligand.torsion>
0.4544

> <Gold.PLP.Chemscore.Hbond>
4.8640

> <Gold.PLP.Chemscore.CHOScore>
0.5981

> <Gold.PLP.Chemscore.Metal>
0.0000

> <Gold.Chemscore.Hbonds>
donor molecule, donor type, donor heavy atom, donor atom, acceptor molecule, acceptor atom, score
      L1  H     5    38       P1 10957  2.00
      L1  H     9    31       P1  7948  0.95
      P1  H  7989  7998       L1    16  0.86
      P1  H 10752 10763       L1    19  1.00
      L1  C    12    34       P1  7948  0.62

> <Gold.PLP.Chemscore.Internal.Correction>
0.0719

> <Gold.Rescore>
     Score         DG    S(hbond)    S(metal)    S(lipo)     H(rot)  DE(clash)    DE(int)     intcor
     16.81     -17.47       3.57        0.00      37.35       1.68       0.23       0.44       ----

> <Gold.Chemscore.Fitness>
16.8067

> <Gold.Chemscore.DG>
-17.4706

> <Gold.Chemscore.ZeroCoef>
-5.4800

> <Gold.Chemscore.Hbond>
3.5685

> <Gold.Chemscore.Metal>
0.0000

> <Gold.Chemscore.Lipo>
37.3494

> <Gold.Chemscore.Internal_Hbond>
0.0000

> <Gold.Chemscore.DEClash>
0.2276

> <Gold.Chemscore.DEInternal>
0.4363

> <Gold.Chemscore.Rot>
1.6789

> <Gold.Chemscore.Internal.Correction>
   9.000000E+99

> <Gold.Chemscore.Hbonds>
donor molecule, donor type, donor heavy atom, donor atom, acceptor molecule, acceptor atom, score
      L1  H     5    38       P1 10957  0.93
      L1  H     9    31       P1  7948  0.21
      P1  H  7989  7998       L1    16  0.34
      P1  H 10752 10763       L1    19  0.40

> <Gold.Chemscore.Hbond.Weighted>
-11.9187

> <Gold.Chemscore.Metal.Weighted>
-0.0000

> <Gold.Chemscore.Lipo.Weighted>
-4.3699

> <Gold.Chemscore.Internal_Hbond.Weighted>
0.0000

> <Gold.Chemscore.DEClash.Weighted>
0.2276

> <Gold.Chemscore.DEInternal.Weighted>
0.4363

> <Gold.Chemscore.Rot.Weighted>
4.2980

> <Gold.Chemscore.Internal.Correction.Weighted>
   9.000000E+99

> <Gold.Protein.RotatedTorsions>
[ 6907 6896 6895 6894 ] final  172.10 input  -60.11 | X-H torsion
[ 7974 7965 7964 7962 ] final   -0.71 input  175.53 | X-H torsion
[ 8008 7997 7996 7995 ] final  -23.92 input   59.86 | X-H torsion
[ 10167 10162 10161 10158 ] final  -86.64 input  -65.29 | X-H torsion
[ 10718 10713 10712 10709 ] final   28.61 input   66.30 | X-H torsion
[ 10763 10752 10751 10750 ] final   99.36 input  -60.55 | X-H torsion
[ 11005 11000 10999 10996 ] final  -37.99 input  -57.11 | X-H torsion

> <Gold.Protein.ActiveResidues>
 VAL166  LYS551  ARG553  GLY616  TRP617  ASP618  TYR619  PRO620  LYS621  CYS622 
 ASP623  PHE694  ASN695  SER759  ASP760  ASP761  ALA762  ILE779  LEU786  VAL792 
 PHE793  MET794  SER795  GLU796  ALA797  LYS798  CYS799  TRP800  GLU811  SER814 

> <Gold.Protein.RotatedAtoms>
  151.7896  133.3358  159.3494 H   0  0  0  0  0  0  0  0  0  0  0  0  # atno 6907 bound_to 6896
  150.7396  134.5855  159.5970 H   0  0  0  0  0  0  0  0  0  0  0  0  # atno 6908 bound_to 6896
  152.3219  134.7371  160.0363 H   0  0  0  0  0  0  0  0  0  0  0  0  # atno 6909 bound_to 6896
  146.2424  140.1310  142.8338 H   0  0  0  0  0  0  0  0  0  0  0  0  # atno 7974 bound_to 7965
  154.4558  140.1968  156.0384 H   0  0  0  0  0  0  0  0  0  0  0  0  # atno 8008 bound_to 7997
  156.0743  140.3280  155.7586 H   0  0  0  0  0  0  0  0  0  0  0  0  # atno 8009 bound_to 7997
  155.5214  140.0570  157.2897 H   0  0  0  0  0  0  0  0  0  0  0  0  # atno 8010 bound_to 7997
  140.3922  143.2700  151.9250 H   0  0  0  0  0  0  0  0  0  0  0  0  # atno 10167 bound_to 10162
  157.2357  130.7045  149.6334 H   0  0  0  0  0  0  0  0  0  0  0  0  # atno 10718 bound_to 10713
  153.3005  135.4116  155.1248 H   0  0  0  0  0  0  0  0  0  0  0  0  # atno 10763 bound_to 10752
  154.8548  135.3540  154.5858 H   0  0  0  0  0  0  0  0  0  0  0  0  # atno 10764 bound_to 10752
  153.6283  135.7062  153.5343 H   0  0  0  0  0  0  0  0  0  0  0  0  # atno 10765 bound_to 10752
  140.9994  133.6963  156.1994 H   0  0  0  0  0  0  0  0  0  0  0  0  # atno 11005 bound_to 11000
  145.0326  140.8883  143.5100 LP  0  0  0  0  0  0  0  0  0  0  0  0  # atno 17320 bound_to 7965
  145.1377  139.2592  143.5506 LP  0  0  0  0  0  0  0  0  0  0  0  0  # atno 17321 bound_to 7965
  139.4788  144.5716  151.8078 LP  0  0  0  0  0  0  0  0  0  0  0  0  # atno 17342 bound_to 10162
  140.4828  144.1425  150.5935 LP  0  0  0  0  0  0  0  0  0  0  0  0  # atno 17343 bound_to 10162
  155.9673  130.4474  150.5580 LP  0  0  0  0  0  0  0  0  0  0  0  0  # atno 17370 bound_to 10713
  157.3432  131.0720  151.1772 LP  0  0  0  0  0  0  0  0  0  0  0  0  # atno 17371 bound_to 10713
  140.6914  134.4662  157.5588 LP  0  0  0  0  0  0  0  0  0  0  0  0  # atno 17394 bound_to 11000
  139.9031  134.8511  156.1815 LP  0  0  0  0  0  0  0  0  0  0  0  0  # atno 17395 bound_to 11000

$$$$
