#       Name:                AV-unprocessed.smi:3280
#       Creating user name   scv26
#       Creation time:       Fri Mar 27 18:47:06 2020


#       File generated by GOLD software.
#

@<TRIPOS>MOLECULE
AV-unprocessed.smi:3280
    43    44     1
SMALL
NO_CHARGES


@<TRIPOS>ATOM
      1 ****        -5.3789  -1.4091   2.3963 C.3            1 S1                 0.0000
      2 ****        -4.9315  -0.1039   1.7209 C.3            1 S1                 0.0000
      3 ****        -5.3205  -0.0339   0.2368 C.3            1 S1                 0.0000
      4 ****        -3.4695   0.1547   1.9218 C.2            1 S1                 0.0000
      5 ****        -3.0431   1.2462   2.5474 N.2            1 S1                 0.0000
      6 ****        -1.6474   1.1231   2.5040 O.3            1 S1                 0.0000
      7 ****        -1.4001  -0.0454   1.8663 C.2            1 S1                 0.0000
      8 ****         0.0156  -0.4426   1.6142 C.3            1 S1                 0.0000
      9 ****         0.5624   0.1479   0.3084 C.3            1 S1                 0.0000
     10 ****         1.9707  -0.2495   0.0963 N.4            1 S1                 1.0000
     11 ****         2.5546   0.1382  -1.2079 C.3            1 S1                 0.0000
     12 ****         3.8441  -0.6731  -1.4445 C.3            1 S1                 0.0000
     13 ****         4.4788  -0.4073  -2.8193 C.3            1 S1                 0.0000
     14 ****         4.8866   1.0604  -3.0021 C.3            1 S1                 0.0000
     15 ****         3.4441   2.1528  -2.9062 S.3            1 S1                 0.0000
     16 ****         2.8302   1.6555  -1.2736 C.3            1 S1                 0.0000
     17 ****        -2.4957  -0.6806   1.4608 N.2            1 S1                 0.0000
     18 ****        -5.1500  -1.3983   3.4625 H              1 S1                 0.0000
     19 ****        -4.8819  -2.2747   1.9571 H              1 S1                 0.0000
     20 ****        -6.4541  -1.5557   2.2909 H              1 S1                 0.0000
     21 ****        -5.4749   0.7004   2.2201 H              1 S1                 0.0000
     22 ****        -5.0557   0.9330  -0.1924 H              1 S1                 0.0000
     23 ****        -6.3943  -0.1699   0.1060 H              1 S1                 0.0000
     24 ****        -4.8153  -0.8066  -0.3433 H              1 S1                 0.0000
     25 ****         0.6230  -0.1159   2.4594 H              1 S1                 0.0000
     26 ****         0.0717  -1.5318   1.5889 H              1 S1                 0.0000
     27 ****        -0.0425  -0.1973  -0.5314 H              1 S1                 0.0000
     28 ****         0.4849   1.2347   0.3388 H              1 S1                 0.0000
     29 ****         2.5405   0.1323   0.8379 H              1 S1                 0.0000
     30 ****         1.8387  -0.1289  -1.9869 H              1 S1                 0.0000
     31 ****         4.5707  -0.4528  -0.6610 H              1 S1                 0.0000
     32 ****         3.6232  -1.7381  -1.3627 H              1 S1                 0.0000
     33 ****         5.3590  -1.0402  -2.9362 H              1 S1                 0.0000
     34 ****         3.7868  -0.6991  -3.6103 H              1 S1                 0.0000
     35 ****         5.6087   1.3545  -2.2396 H              1 S1                 0.0000
     36 ****         5.3681   1.2015  -3.9701 H              1 S1                 0.0000
     37 ****         1.9254   2.2310  -1.0817 H              1 S1                 0.0000
     38 ****         3.5599   1.9470  -0.5173 H              1 S1                 0.0000
     39 ****         2.0069  -1.2574   0.1531 H              1 S1                 0.0000
     40 ****        -3.5877   1.9804   2.9526 LP             1 S1                 0.0000
     41 ****        -1.2707   1.1009   3.4301 LP             1 S1                 0.0000
     42 ****        -1.2459   1.8872   1.9990 LP             1 S1                 0.0000
     43 ****        -2.5819  -1.5388   0.9546 LP             1 S1                 0.0000
@<TRIPOS>BOND
    1    1    2 1     
    2    1   18 1     
    3    1   19 1     
    4    1   20 1     
    5    2    3 1     
    6    2    4 1     
    7    2   21 1     
    8    3   22 1     
    9    3   23 1     
   10    3   24 1     
   11    4   17 1     
   12    4    5 2     
   13    5    6 1     
   14    6    7 1     
   15    7    8 1     
   16    7   17 2     
   17    8    9 1     
   18    8   25 1     
   19    8   26 1     
   20    9   10 1     
   21    9   27 1     
   22    9   28 1     
   23   10   11 1     
   24   10   29 1     
   25   10   39 1     
   26   11   16 1     
   27   11   12 1     
   28   11   30 1     
   29   12   13 1     
   30   12   31 1     
   31   12   32 1     
   32   13   14 1     
   33   13   33 1     
   34   13   34 1     
   35   14   15 1     
   36   14   35 1     
   37   14   36 1     
   38   15   16 1     
   39   16   37 1     
   40   16   38 1     
   41    5   40 1     
   42    6   41 1     
   43    6   42 1     
   44   17   43 1     
@<TRIPOS>SUBSTRUCTURE
      1 S1             1
@<TRIPOS>SET
LONE_PAIRS      STATIC     ATOMS    <user>   **** ""
4 40 41 42 43
DONOR_HYDROGENS      STATIC     ATOMS    <user>   **** ""
2 29 39
ATOM$BLUE        STATIC     ATOMS    COLORGROUP SYSTEM
4 40 41 42 43
ATOM$RED        STATIC     ATOMS    COLORGROUP SYSTEM
2 29 39
