AV-unprocessed.smi:2247|AV-procd|sdf|9091|dock1
  -GOLD-   2272012293D 1   1.00000     0.00000
 Structure written by MMmdl.
 34 35  0  0  0  0  0  0  0  0  1 V2000
  152.7122  143.1921  161.7813 C   0  0  0  0  0  0  0  0  0  0  0  0
  152.5289  142.1020  160.7127 C   0  0  0  0  0  0  0  0  0  0  0  0
  153.7191  141.1340  160.6316 C   0  0  0  0  0  0  0  0  0  0  0  0
  152.2251  142.6666  159.3909 N   0  0  0  0  0  0  0  0  0  0  0  0
  152.3380  144.0913  159.1194 C   0  0  0  0  0  0  0  0  0  0  0  0
  151.6999  144.2737  157.7393 C   0  0  0  0  0  0  0  0  0  0  0  0
  151.7076  142.8857  157.0797 C   0  0  2  0  0  0  0  0  0  0  0  0
  150.4399  142.6509  156.3897 N   0  0  0  0  0  0  0  0  0  0  0  0
  150.1181  141.5457  155.7001 C   0  0  0  0  0  0  0  0  0  0  0  0
  150.9047  140.6001  155.5865 O   0  0  0  0  0  0  0  0  0  0  0  0
  148.8508  141.6744  155.1514 N   0  0  0  0  0  0  0  0  0  0  0  0
  148.2812  140.6408  154.6107 C   0  0  0  0  0  0  0  0  0  0  0  0
  148.6926  139.3243  154.4187 N   0  0  0  0  0  0  0  0  0  0  0  0
  147.6903  138.6540  153.7751 C   0  0  0  0  0  0  0  0  0  0  0  0
  146.6908  139.5065  153.5697 C   0  0  0  0  0  0  0  0  0  0  0  0
  147.0231  140.7297  154.0703 O   0  0  0  0  0  0  0  0  0  0  0  0
  151.8611  141.9766  158.3002 C   0  0  0  0  0  0  0  0  0  0  0  0
  151.6975  140.7576  158.2429 O   0  0  0  0  0  0  0  0  0  0  0  0
  152.7986  142.7491  162.7738 H   0  0  0  0  0  0  0  0  0  0  0  0
  151.8613  143.8740  161.7994 H   0  0  0  0  0  0  0  0  0  0  0  0
  153.6136  143.7808  161.6108 H   0  0  0  0  0  0  0  0  0  0  0  0
  151.6701  141.5109  161.0354 H   0  0  0  0  0  0  0  0  0  0  0  0
  153.8961  140.6517  161.5933 H   0  0  0  0  0  0  0  0  0  0  0  0
  154.6358  141.6517  160.3481 H   0  0  0  0  0  0  0  0  0  0  0  0
  153.5376  140.3483  159.8974 H   0  0  0  0  0  0  0  0  0  0  0  0
  151.8361  144.7048  159.8673 H   0  0  0  0  0  0  0  0  0  0  0  0
  153.3918  144.3714  159.0984 H   0  0  0  0  0  0  0  0  0  0  0  0
  150.6782  144.6367  157.8662 H   0  0  0  0  0  0  0  0  0  0  0  0
  152.2313  145.0135  157.1398 H   0  0  0  0  0  0  0  0  0  0  0  0
  152.5708  142.7690  156.4225 H   0  0  0  0  0  0  0  0  0  0  0  0
  149.7525  143.3887  156.4402 H   0  0  0  0  0  0  0  0  0  0  0  0
  149.5663  138.8963  154.6905 H   0  0  0  0  0  0  0  0  0  0  0  0
  147.8032  137.6092  153.5254 H   0  0  0  0  0  0  0  0  0  0  0  0
  145.7225  139.4022  153.1029 H   0  0  0  0  0  0  0  0  0  0  0  0
  1  2  1  0  0  0  0
  1 19  1  0  0  0  0
  1 20  1  0  0  0  0
  1 21  1  0  0  0  0
  2  3  1  0  0  0  0
  2  4  1  0  0  0  0
  2 22  1  0  0  0  0
  3 23  1  0  0  0  0
  3 24  1  0  0  0  0
  3 25  1  0  0  0  0
  4 17  1  0  0  0  0
  4  5  1  0  0  0  0
  5  6  1  0  0  0  0
  5 26  1  0  0  0  0
  5 27  1  0  0  0  0
  6  7  1  0  0  0  0
  6 28  1  0  0  0  0
  6 29  1  0  0  0  0
  7  8  1  0  0  0  0
  7 17  1  0  0  0  0
  7 30  1  0  0  0  0
  8 31  1  0  0  0  0
  8  9  1  0  0  0  0
  9 11  1  0  0  0  0
  9 10  2  0  0  0  0
 11 12  2  0  0  0  0
 12 16  1  0  0  0  0
 12 13  1  0  0  0  0
 13 32  1  0  0  0  0
 13 14  1  0  0  0  0
 14 33  1  0  0  0  0
 14 15  2  0  0  0  0
 15 34  1  0  0  0  0
 15 16  1  0  0  0  0
 17 18  2  0  0  0  0
M  END
> <s_m_source_file>
AV-unprocessed.smi

> <i_m_source_file_index>
2247

> <i_lp_mmshare_version>
43012

> <i_f3d_flags>
0

> <s_epik_input>
W0NIM11bQ0hdKFtDSDNdKU4xW0NIMl1bQ0gyXVtDQEhdKEMxPU8pW05IXUMoPU8pW05IXWMybltjSF1bY0hdbzI=

> <s_epik_cmdline>
J2VwaWtfcHl0aG9uJywgJy1waCcsICc3LjAnLCAnLXRuJywgJzgnLCAnLW1hJywgJzIwMCcsICctbWV0YWxfYmluZGluZycsICctaW1hZScsICc8aW5maWxlLm1hZT4nLCAnLW9tYWUnLCAnPG91dGZpbGUubWFlPic=

> <r_lp_tautomer_probability>
0.107061

> <r_epik_Ionization_Penalty>
0.180736

> <r_epik_Ionization_Penalty_Charging>
0.180388

> <r_epik_Ionization_Penalty_Neutral>
0.000348501

> <r_epik_State_Penalty>
2.44396

> <r_epik_Charging_Adjusted_Penalty>
2.62435

> <i_epik_Tot_Q>
0

> <i_epik_Tot_abs_Q>
0

> <r_epik_Metal_State_Penalty>
4.38331

> <b_epik_Metal_Only>
0

> <s_lp_Force_Field>
OPLS_2005

> <r_lp_Energy>
46.2393

> <b_lp_Chiralities_Consistent>
1

> <s_lp_Variant>
AV-unprocessed.smi:2247-6

> <Gold.Version>
5.8.1

> <Gold.Id.Protein>
6NUR|6NUR_protein|mol2

> <Gold.PLP.Fitness>
48.7796

> <Gold.PLP.PLP>
-37.7234

> <Gold.PLP.part.hbond>
-2.5889

> <Gold.PLP.part.metal>
0.0000

> <Gold.PLP.part.buried>
-4.4790

> <Gold.PLP.part.nonpolar>
-31.0911

> <Gold.PLP.part.repulsive>
1.4595

> <Gold.PLP.ligand.clash>
0.0000

> <Gold.PLP.ligand.torsion>
0.1561

> <Gold.PLP.Chemscore.Hbond>
1.7644

> <Gold.PLP.Chemscore.CHOScore>
1.9909

> <Gold.PLP.Chemscore.Metal>
0.0000

> <Gold.Chemscore.Hbonds>
donor molecule, donor type, donor heavy atom, donor atom, acceptor molecule, acceptor atom, score
      L1  H     8    31       P1  8028  0.99
      P1  H  7989  7998       L1    10  0.47
      L1  C    14    33       P1  7948  1.00
      L1  C    15    34       P1 10175  1.00

> <Gold.PLP.Chemscore.Internal.Correction>
0.1026

> <Gold.Rescore>
     Score         DG    S(hbond)    S(metal)    S(lipo)     H(rot)  DE(clash)    DE(int)     intcor
     11.66     -14.70       0.99        0.00      79.69       1.33       0.44       2.60       ----

> <Gold.Chemscore.Fitness>
11.6574

> <Gold.Chemscore.DG>
-14.6955

> <Gold.Chemscore.ZeroCoef>
-5.4800

> <Gold.Chemscore.Hbond>
0.9898

> <Gold.Chemscore.Metal>
0.0000

> <Gold.Chemscore.Lipo>
79.6930

> <Gold.Chemscore.Internal_Hbond>
0.0000

> <Gold.Chemscore.DEClash>
0.4409

> <Gold.Chemscore.DEInternal>
2.5972

> <Gold.Chemscore.Rot>
1.3338

> <Gold.Chemscore.Internal.Correction>
   9.000000E+99

> <Gold.Chemscore.Hbonds>
donor molecule, donor type, donor heavy atom, donor atom, acceptor molecule, acceptor atom, score
      L1  H     8    31       P1  8028  0.94
      P1  H  7989  7998       L1    10  0.13

> <Gold.Chemscore.Hbond.Weighted>
-3.3059

> <Gold.Chemscore.Metal.Weighted>
-0.0000

> <Gold.Chemscore.Lipo.Weighted>
-9.3241

> <Gold.Chemscore.Internal_Hbond.Weighted>
0.0000

> <Gold.Chemscore.DEClash.Weighted>
0.4409

> <Gold.Chemscore.DEInternal.Weighted>
2.5972

> <Gold.Chemscore.Rot.Weighted>
3.4145

> <Gold.Chemscore.Internal.Correction.Weighted>
   9.000000E+99

> <Gold.Protein.RotatedTorsions>
[ 6907 6896 6895 6894 ] final -131.38 input  -60.11 | X-H torsion
[ 7974 7965 7964 7962 ] final  -30.95 input  175.53 | X-H torsion
[ 8008 7997 7996 7995 ] final  116.87 input   59.86 | X-H torsion
[ 10167 10162 10161 10158 ] final   -2.32 input  -65.29 | X-H torsion
[ 10718 10713 10712 10709 ] final  -86.80 input   66.30 | X-H torsion
[ 10763 10752 10751 10750 ] final   88.44 input  -60.55 | X-H torsion
[ 11005 11000 10999 10996 ] final  131.83 input  -57.11 | X-H torsion

> <Gold.Protein.ActiveResidues>
 VAL166  LYS551  ARG553  GLY616  TRP617  ASP618  TYR619  PRO620  LYS621  CYS622 
 ASP623  PHE694  ASN695  SER759  ASP760  ASP761  ALA762  ILE779  LEU786  VAL792 
 PHE793  MET794  SER795  GLU796  ALA797  LYS798  CYS799  TRP800  GLU811  SER814 

> <Gold.Protein.RotatedAtoms>
  150.9503  133.6557  159.2773 H   0  0  0  0  0  0  0  0  0  0  0  0  # atno 6907 bound_to 6896
  151.3915  135.0955  159.9537 H   0  0  0  0  0  0  0  0  0  0  0  0  # atno 6908 bound_to 6896
  152.5107  133.9016  159.7498 H   0  0  0  0  0  0  0  0  0  0  0  0  # atno 6909 bound_to 6896
  146.1105  140.5605  142.8780 H   0  0  0  0  0  0  0  0  0  0  0  0  # atno 7974 bound_to 7965
  156.2463  140.2908  156.0590 H   0  0  0  0  0  0  0  0  0  0  0  0  # atno 8008 bound_to 7997
  155.1797  140.0404  157.2897 H   0  0  0  0  0  0  0  0  0  0  0  0  # atno 8009 bound_to 7997
  154.6268  140.2489  155.7488 H   0  0  0  0  0  0  0  0  0  0  0  0  # atno 8010 bound_to 7997
  140.6846  143.6671  150.8217 H   0  0  0  0  0  0  0  0  0  0  0  0  # atno 10167 bound_to 10162
  155.9988  130.4777  150.4770 H   0  0  0  0  0  0  0  0  0  0  0  0  # atno 10718 bound_to 10713
  153.1769  135.4507  154.9976 H   0  0  0  0  0  0  0  0  0  0  0  0  # atno 10763 bound_to 10752
  154.8004  135.3253  154.7567 H   0  0  0  0  0  0  0  0  0  0  0  0  # atno 10764 bound_to 10752
  153.8036  135.6960  153.4906 H   0  0  0  0  0  0  0  0  0  0  0  0  # atno 10765 bound_to 10752
  139.9754  134.9565  156.9495 H   0  0  0  0  0  0  0  0  0  0  0  0  # atno 11005 bound_to 11000
  144.7507  140.5184  143.6804 LP  0  0  0  0  0  0  0  0  0  0  0  0  # atno 17320 bound_to 7965
  145.5674  139.1482  143.3307 LP  0  0  0  0  0  0  0  0  0  0  0  0  # atno 17321 bound_to 7965
  140.0376  143.5379  152.2732 LP  0  0  0  0  0  0  0  0  0  0  0  0  # atno 17342 bound_to 10162
  139.6195  144.7626  151.2772 LP  0  0  0  0  0  0  0  0  0  0  0  0  # atno 17343 bound_to 10162
  157.2779  131.0601  151.2217 LP  0  0  0  0  0  0  0  0  0  0  0  0  # atno 17370 bound_to 10713
  157.3274  130.6967  149.6304 LP  0  0  0  0  0  0  0  0  0  0  0  0  # atno 17371 bound_to 10713
  140.5206  134.0911  155.7291 LP  0  0  0  0  0  0  0  0  0  0  0  0  # atno 17394 bound_to 11000
  141.1431  133.9103  157.2279 LP  0  0  0  0  0  0  0  0  0  0  0  0  # atno 17395 bound_to 11000

$$$$
