AV-unprocessed.smi:1537|AV-procd|sdf|6191|dock4
  -GOLD-   22720 6353D 1   1.00000     0.00000
 Structure written by MMmdl.
 43 43  0  0  0  0  0  0  0  0  1 V2000
  154.3165  140.8004  160.4417 C   0  0  0  0  0  0  0  0  0  0  0  0
  153.1587  141.3919  159.6312 C   0  0  0  0  0  0  0  0  0  0  0  0
  152.5398  142.5741  160.2983 C   0  0  0  0  0  0  0  0  0  0  0  0
  151.5571  143.2958  159.7536 N   0  0  0  0  0  0  0  0  0  0  0  0
  151.1756  144.3790  160.5529 C   0  0  0  0  0  0  0  0  0  0  0  0
  150.0818  145.3003  160.0973 C   0  0  0  0  0  0  0  0  0  0  0  0
  148.7162  144.7351  160.4906 C   0  0  0  0  0  0  0  0  0  0  0  0
  148.5027  144.3906  161.6531 O   0  0  0  0  0  0  0  0  0  0  0  0
  147.8023  144.6411  159.5109 N   0  0  0  0  0  0  0  0  0  0  0  0
  146.4458  144.1196  159.6656 C   0  0  1  0  0  0  0  0  0  0  0  0
  145.4712  145.1501  159.0718 C   0  0  0  0  0  0  0  0  0  0  0  0
  146.2777  142.8020  158.8914 C   0  0  0  0  0  0  0  0  0  0  0  0
  145.9280  141.7757  159.4761 O   0  0  0  0  0  0  0  0  0  0  0  0
  146.5490  142.8586  157.5755 N   0  0  0  0  0  0  0  0  0  0  0  0
  146.4787  141.7813  156.5812 C   0  0  0  0  0  0  0  0  0  0  0  0
  147.4382  140.6747  157.0526 C   0  0  0  0  0  0  0  0  0  0  0  0
  146.9385  142.2878  155.1978 C   0  0  0  0  0  0  0  0  0  0  0  0
  145.0500  141.2032  156.5022 C   0  0  0  0  0  0  0  0  0  0  0  0
  151.8927  144.4665  161.7206 C   0  0  0  0  0  0  0  0  0  0  0  0
  153.0822  143.2006  161.8506 S   0  0  0  0  0  0  0  0  0  0  0  0
  154.7466  139.9377  159.9329 H   0  0  0  0  0  0  0  0  0  0  0  0
  153.9801  140.4737  161.4261 H   0  0  0  0  0  0  0  0  0  0  0  0
  155.1110  141.5336  160.5851 H   0  0  0  0  0  0  0  0  0  0  0  0
  153.5092  141.6881  158.6417 H   0  0  0  0  0  0  0  0  0  0  0  0
  152.3886  140.6356  159.4765 H   0  0  0  0  0  0  0  0  0  0  0  0
  150.2002  146.2937  160.5326 H   0  0  0  0  0  0  0  0  0  0  0  0
  150.1184  145.4329  159.0153 H   0  0  0  0  0  0  0  0  0  0  0  0
  148.0691  144.9452  158.5857 H   0  0  0  0  0  0  0  0  0  0  0  0
  146.2220  143.9700  160.7239 H   0  0  0  0  0  0  0  0  0  0  0  0
  144.4367  144.8162  159.1630 H   0  0  0  0  0  0  0  0  0  0  0  0
  145.6691  145.3359  158.0148 H   0  0  0  0  0  0  0  0  0  0  0  0
  145.5503  146.1045  159.5935 H   0  0  0  0  0  0  0  0  0  0  0  0
  146.8308  143.7590  157.2162 H   0  0  0  0  0  0  0  0  0  0  0  0
  147.4442  139.8326  156.3596 H   0  0  0  0  0  0  0  0  0  0  0  0
  147.1517  140.2903  158.0323 H   0  0  0  0  0  0  0  0  0  0  0  0
  148.4625  141.0415  157.1302 H   0  0  0  0  0  0  0  0  0  0  0  0
  147.9343  142.7299  155.2480 H   0  0  0  0  0  0  0  0  0  0  0  0
  146.2639  143.0410  154.7908 H   0  0  0  0  0  0  0  0  0  0  0  0
  146.9786  141.4722  154.4751 H   0  0  0  0  0  0  0  0  0  0  0  0
  145.0131  140.3400  155.8370 H   0  0  0  0  0  0  0  0  0  0  0  0
  144.3328  141.9296  156.1205 H   0  0  0  0  0  0  0  0  0  0  0  0
  144.6992  140.8770  157.4819 H   0  0  0  0  0  0  0  0  0  0  0  0
  151.7987  145.2025  162.5055 H   0  0  0  0  0  0  0  0  0  0  0  0
  1  2  1  0  0  0  0
  1 21  1  0  0  0  0
  1 22  1  0  0  0  0
  1 23  1  0  0  0  0
  2  3  1  0  0  0  0
  2 24  1  0  0  0  0
  2 25  1  0  0  0  0
  3 20  1  0  0  0  0
  3  4  2  0  0  0  0
  4  5  1  0  0  0  0
  5  6  1  0  0  0  0
  5 19  2  0  0  0  0
  6  7  1  0  0  0  0
  6 26  1  0  0  0  0
  6 27  1  0  0  0  0
  7  8  2  0  0  0  0
  7  9  1  0  0  0  0
  9 10  1  0  0  0  0
  9 28  1  0  0  0  0
 10 11  1  0  0  0  0
 10 12  1  0  0  0  0
 10 29  1  0  0  0  0
 11 30  1  0  0  0  0
 11 31  1  0  0  0  0
 11 32  1  0  0  0  0
 12 13  2  0  0  0  0
 12 14  1  0  0  0  0
 14 15  1  0  0  0  0
 14 33  1  0  0  0  0
 15 16  1  0  0  0  0
 15 17  1  0  0  0  0
 15 18  1  0  0  0  0
 16 34  1  0  0  0  0
 16 35  1  0  0  0  0
 16 36  1  0  0  0  0
 17 37  1  0  0  0  0
 17 38  1  0  0  0  0
 17 39  1  0  0  0  0
 18 40  1  0  0  0  0
 18 41  1  0  0  0  0
 18 42  1  0  0  0  0
 19 20  1  0  0  0  0
 19 43  1  0  0  0  0
M  END
> <s_m_source_file>
AV-unprocessed.smi

> <i_m_source_file_index>
1537

> <i_lp_mmshare_version>
43012

> <i_f3d_flags>
0

> <s_epik_input>
W0NIM11bQ0gyXWMxbmMoW2NIXXMxKVtDSDJdQyg9TylbTkhdW0NASF0oW0NIM10pQyg9TylbTkhdQyhbQ0gzXSkoW0NIM10pW0NIM10=

> <s_epik_cmdline>
J2VwaWtfcHl0aG9uJywgJy1waCcsICc3LjAnLCAnLXRuJywgJzgnLCAnLW1hJywgJzIwMCcsICctbWV0YWxfYmluZGluZycsICctaW1hZScsICc8aW5maWxlLm1hZT4nLCAnLW9tYWUnLCAnPG91dGZpbGUubWFlPic=

> <r_lp_tautomer_probability>
1

> <r_epik_Ionization_Penalty>
4.05444e-05

> <r_epik_Ionization_Penalty_Charging>
0

> <r_epik_Ionization_Penalty_Neutral>
4.05444e-05

> <r_epik_State_Penalty>
-0

> <r_epik_Charging_Adjusted_Penalty>
0

> <i_epik_Tot_Q>
0

> <i_epik_Tot_abs_Q>
0

> <r_epik_Metal_State_Penalty>
-0

> <b_epik_Metal_Only>
0

> <s_lp_Force_Field>
OPLS_2005

> <r_lp_Energy>
-2.34744

> <b_lp_Chiralities_Consistent>
1

> <s_lp_Variant>
AV-unprocessed.smi:1537-2

> <Gold.Version>
5.8.1

> <Gold.Id.Protein>
6NUR|6NUR_protein|mol2

> <Gold.PLP.Fitness>
40.9960

> <Gold.PLP.PLP>
-33.5684

> <Gold.PLP.part.hbond>
-3.2494

> <Gold.PLP.part.metal>
0.0000

> <Gold.PLP.part.buried>
-4.9533

> <Gold.PLP.part.nonpolar>
-25.3734

> <Gold.PLP.part.repulsive>
0.3482

> <Gold.PLP.ligand.clash>
0.0000

> <Gold.PLP.ligand.torsion>
0.4986

> <Gold.PLP.Chemscore.Hbond>
2.7823

> <Gold.PLP.Chemscore.CHOScore>
0.0000

> <Gold.PLP.Chemscore.Metal>
0.0000

> <Gold.Chemscore.Hbonds>
donor molecule, donor type, donor heavy atom, donor atom, acceptor molecule, acceptor atom, score
      L1  H     9    28       P1  8029  1.00
      P1  H  6933  6944       L1     8  0.77
      P1  H  6934  6946       L1    13  1.00

> <Gold.PLP.Chemscore.Internal.Correction>
0.0779

> <Gold.Rescore>
     Score         DG    S(hbond)    S(metal)    S(lipo)     H(rot)  DE(clash)    DE(int)     intcor
     18.69     -19.43       2.65        0.00      84.69       1.88       0.01       0.73       ----

> <Gold.Chemscore.Fitness>
18.6939

> <Gold.Chemscore.DG>
-19.4301

> <Gold.Chemscore.ZeroCoef>
-5.4800

> <Gold.Chemscore.Hbond>
2.6485

> <Gold.Chemscore.Metal>
0.0000

> <Gold.Chemscore.Lipo>
84.6857

> <Gold.Chemscore.Internal_Hbond>
0.0000

> <Gold.Chemscore.DEClash>
0.0089

> <Gold.Chemscore.DEInternal>
0.7273

> <Gold.Chemscore.Rot>
1.8766

> <Gold.Chemscore.Internal.Correction>
   9.000000E+99

> <Gold.Chemscore.Hbonds>
donor molecule, donor type, donor heavy atom, donor atom, acceptor molecule, acceptor atom, score
      L1  H     9    28       P1  8029  0.95
      P1  H  6933  6944       L1     8  0.21
      P1  H  6934  6946       L1    13  0.98

> <Gold.Chemscore.Hbond.Weighted>
-8.8461

> <Gold.Chemscore.Metal.Weighted>
-0.0000

> <Gold.Chemscore.Lipo.Weighted>
-9.9082

> <Gold.Chemscore.Internal_Hbond.Weighted>
0.0000

> <Gold.Chemscore.DEClash.Weighted>
0.0089

> <Gold.Chemscore.DEInternal.Weighted>
0.7273

> <Gold.Chemscore.Rot.Weighted>
4.8042

> <Gold.Chemscore.Internal.Correction.Weighted>
   9.000000E+99

> <Gold.Protein.RotatedTorsions>
[ 6907 6896 6895 6894 ] final   13.37 input  -60.11 | X-H torsion
[ 7974 7965 7964 7962 ] final -133.81 input  175.53 | X-H torsion
[ 8008 7997 7996 7995 ] final -137.10 input   59.86 | X-H torsion
[ 10167 10162 10161 10158 ] final   93.39 input  -65.29 | X-H torsion
[ 10718 10713 10712 10709 ] final   57.10 input   66.30 | X-H torsion
[ 10763 10752 10751 10750 ] final  140.75 input  -60.55 | X-H torsion
[ 11005 11000 10999 10996 ] final -117.67 input  -57.11 | X-H torsion

> <Gold.Protein.ActiveResidues>
 VAL166  LYS551  ARG553  GLY616  TRP617  ASP618  TYR619  PRO620  LYS621  CYS622 
 ASP623  PHE694  ASN695  SER759  ASP760  ASP761  ALA762  ILE779  LEU786  VAL792 
 PHE793  MET794  SER795  GLU796  ALA797  LYS798  CYS799  TRP800  GLU811  SER814 

> <Gold.Protein.RotatedAtoms>
  151.7852  135.0751  160.0379 H   0  0  0  0  0  0  0  0  0  0  0  0  # atno 6907 bound_to 6896
  152.3195  133.5834  159.5743 H   0  0  0  0  0  0  0  0  0  0  0  0  # atno 6908 bound_to 6896
  150.7362  133.9948  159.3661 H   0  0  0  0  0  0  0  0  0  0  0  0  # atno 6909 bound_to 6896
  144.9159  140.6954  143.4995 H   0  0  0  0  0  0  0  0  0  0  0  0  # atno 7974 bound_to 7965
  155.4062  140.0509  157.3034 H   0  0  0  0  0  0  0  0  0  0  0  0  # atno 8008 bound_to 7997
  154.4967  140.2141  155.9392 H   0  0  0  0  0  0  0  0  0  0  0  0  # atno 8009 bound_to 7997
  156.1415  140.3153  155.8508 H   0  0  0  0  0  0  0  0  0  0  0  0  # atno 8010 bound_to 7997
  139.8185  144.6742  150.9549 H   0  0  0  0  0  0  0  0  0  0  0  0  # atno 10167 bound_to 10162
  157.5486  130.8749  149.8929 H   0  0  0  0  0  0  0  0  0  0  0  0  # atno 10718 bound_to 10713
  153.9279  135.2993  155.3446 H   0  0  0  0  0  0  0  0  0  0  0  0  # atno 10763 bound_to 10752
  154.7542  135.4965  153.9347 H   0  0  0  0  0  0  0  0  0  0  0  0  # atno 10764 bound_to 10752
  153.1107  135.6758  153.9609 H   0  0  0  0  0  0  0  0  0  0  0  0  # atno 10765 bound_to 10752
  141.0338  133.9940  157.3101 H   0  0  0  0  0  0  0  0  0  0  0  0  # atno 11005 bound_to 11000
  145.3376  139.1741  143.4503 LP  0  0  0  0  0  0  0  0  0  0  0  0  # atno 17320 bound_to 7965
  146.3182  140.3413  142.8648 LP  0  0  0  0  0  0  0  0  0  0  0  0  # atno 17321 bound_to 7965
  140.7814  143.4115  151.0985 LP  0  0  0  0  0  0  0  0  0  0  0  0  # atno 17342 bound_to 10162
  139.7777  143.8401  152.3132 LP  0  0  0  0  0  0  0  0  0  0  0  0  # atno 17343 bound_to 10162
  156.0557  130.3709  150.1097 LP  0  0  0  0  0  0  0  0  0  0  0  0  # atno 17370 bound_to 10713
  156.9271  130.9702  151.3539 LP  0  0  0  0  0  0  0  0  0  0  0  0  # atno 17371 bound_to 10713
  139.9226  135.0201  156.8121 LP  0  0  0  0  0  0  0  0  0  0  0  0  # atno 17394 bound_to 11000
  140.6358  133.9864  155.7683 LP  0  0  0  0  0  0  0  0  0  0  0  0  # atno 17395 bound_to 11000

$$$$
