#       Name:                AV-unprocessed.smi:1554
#       Creating user name   scv26
#       Creation time:       Fri Mar 27 06:44:04 2020


#       File generated by GOLD software.
#

@<TRIPOS>MOLECULE
AV-unprocessed.smi:1554
    53    55     1
SMALL
NO_CHARGES


@<TRIPOS>ATOM
      1 ****        -3.5520   4.1260   3.8596 C.3            1 S1                 0.0000
      2 ****        -3.1283   3.2269   2.7105 C.ar           1 S1                 0.0000
      3 ****        -3.3236   3.6854   1.3881 C.ar           1 S1                 0.0000
      4 ****        -2.9247   2.8410   0.3587 C.ar           1 S1                 0.0000
      5 ****        -2.9784   3.0015  -1.0274 N.pl3          1 S1                 1.0000
      6 ****        -2.4655   1.8951  -1.6331 C.2            1 S1                 0.0000
      7 ****        -2.0858   1.0295  -0.6545 N.pl3          1 S1                 0.0000
      8 ****        -1.4783  -0.3048  -0.7675 C.3            1 S1                 0.0000
      9 ****         0.0566  -0.2570  -0.9004 C.3            1 S1                 0.0000
     10 ****         0.6128   0.3375   0.2555 O.3            1 S1                 0.0000
     11 ****         0.6536  -1.6698  -1.0560 C.3            1 S1                 0.0000
     12 ****         2.0921  -1.7222  -1.3238 N.3            1 S1                 0.0000
     13 ****         2.4433  -1.2095  -2.6469 C.3            1 S1                 0.0000
     14 ****         3.9552  -1.3037  -2.9155 C.3            1 S1                 0.0000
     15 ****         4.3875  -2.6510  -2.7572 O.3            1 S1                 0.0000
     16 ****         4.1092  -3.1758  -1.4621 C.3            1 S1                 0.0000
     17 ****         4.6238  -4.6181  -1.4052 C.3            1 S1                 0.0000
     18 ****         2.5932  -3.0872  -1.2002 C.3            1 S1                 0.0000
     19 ****        -2.3519   1.5782   0.6060 C.ar           1 S1                 0.0000
     20 ****        -2.1518   1.1122   1.9033 C.ar           1 S1                 0.0000
     21 ****        -2.5479   1.9572   2.9646 C.ar           1 S1                 0.0000
     22 ****        -2.3394   1.4752   4.3902 C.3            1 S1                 0.0000
     23 ****        -4.0102   5.0469   3.4977 H              1 S1                 0.0000
     24 ****        -2.6905   4.3997   4.4691 H              1 S1                 0.0000
     25 ****        -4.2795   3.6203   4.4946 H              1 S1                 0.0000
     26 ****        -3.7629   4.6516   1.1867 H              1 S1                 0.0000
     27 ****        -2.3768   1.7333  -2.6977 H              1 S1                 0.0000
     28 ****        -1.7865  -0.9148   0.0822 H              1 S1                 0.0000
     29 ****        -1.9097  -0.7760  -1.6516 H              1 S1                 0.0000
     30 ****         0.3044   0.3641  -1.7603 H              1 S1                 0.0000
     31 ****         1.5543   0.3317   0.1672 H              1 S1                 0.0000
     32 ****         0.4384  -2.2268  -0.1426 H              1 S1                 0.0000
     33 ****         0.1252  -2.1962  -1.8524 H              1 S1                 0.0000
     34 ****         1.9053  -1.7670  -3.4152 H              1 S1                 0.0000
     35 ****         2.1416  -0.1680  -2.7466 H              1 S1                 0.0000
     36 ****         4.1816  -0.9742  -3.9296 H              1 S1                 0.0000
     37 ****         4.5095  -0.6541  -2.2363 H              1 S1                 0.0000
     38 ****         4.6437  -2.5832  -0.7175 H              1 S1                 0.0000
     39 ****         4.4400  -5.0627  -0.4267 H              1 S1                 0.0000
     40 ****         5.6974  -4.6560  -1.5911 H              1 S1                 0.0000
     41 ****         4.1335  -5.2412  -2.1537 H              1 S1                 0.0000
     42 ****         2.3796  -3.4682  -0.2008 H              1 S1                 0.0000
     43 ****         2.0657  -3.7377  -1.9000 H              1 S1                 0.0000
     44 ****        -1.7052   0.1484   2.0977 H              1 S1                 0.0000
     45 ****        -1.8276   0.5125   4.4150 H              1 S1                 0.0000
     46 ****        -3.2978   1.3572   4.8962 H              1 S1                 0.0000
     47 ****        -1.7346   2.1865   4.9530 H              1 S1                 0.0000
     48 ****        -3.3369   3.8060  -1.5259 H              1 S1                 0.0000
     49 ****         0.3456  -0.1837   1.0661 LP             1 S1                 0.0000
     50 ****         0.2868   1.2789   0.3422 LP             1 S1                 0.0000
     51 ****         2.5205  -1.1326  -0.6390 LP             1 S1                 0.0000
     52 ****         5.3748  -2.6891  -2.9112 LP             1 S1                 0.0000
     53 ****         3.9219  -3.2172  -3.4374 LP             1 S1                 0.0000
@<TRIPOS>BOND
    1    1    2 1     
    2    1   23 1     
    3    1   24 1     
    4    1   25 1     
    5    2   21 ar    
    6    2    3 ar    
    7    3    4 ar    
    8    3   26 1     
    9    4   19 ar    
   10    4    5 1     
   11    5    6 2     
   12    5   48 1     
   13    6    7 1     
   14    6   27 1     
   15    7    8 1     
   16    7   19 1     
   17    8    9 1     
   18    8   28 1     
   19    8   29 1     
   20    9   10 1     
   21    9   11 1     
   22    9   30 1     
   23   10   31 1     
   24   11   12 1     
   25   11   32 1     
   26   11   33 1     
   27   12   18 1     
   28   12   13 1     
   29   13   14 1     
   30   13   34 1     
   31   13   35 1     
   32   14   15 1     
   33   14   36 1     
   34   14   37 1     
   35   15   16 1     
   36   16   17 1     
   37   16   18 1     
   38   16   38 1     
   39   17   39 1     
   40   17   40 1     
   41   17   41 1     
   42   18   42 1     
   43   18   43 1     
   44   19   20 ar    
   45   20   21 ar    
   46   20   44 1     
   47   21   22 1     
   48   22   45 1     
   49   22   46 1     
   50   22   47 1     
   51   10   49 1     
   52   10   50 1     
   53   12   51 1     
   54   15   52 1     
   55   15   53 1     
@<TRIPOS>SUBSTRUCTURE
      1 S1             1
@<TRIPOS>SET
LONE_PAIRS      STATIC     ATOMS    <user>   **** ""
5 49 50 51 52 53
DONOR_HYDROGENS      STATIC     ATOMS    <user>   **** ""
2 48 31
ATOM$BLUE        STATIC     ATOMS    COLORGROUP SYSTEM
5 49 50 51 52 53
ATOM$RED        STATIC     ATOMS    COLORGROUP SYSTEM
2 48 31
