AV-unprocessed.smi:3006|AV-procd|sdf|11445|dock10
  -GOLD-   2272016373D 1   1.00000     0.00000
 Structure written by MMmdl.
 44 45  0  0  0  0  0  0  0  0  1 V2000
  152.2510  130.8535  159.9783 C   0  0  0  0  0  0  0  0  0  0  0  0
  151.8320  131.3850  158.6506 C   0  0  0  0  0  0  0  0  0  0  0  0
  151.2133  132.5576  158.4908 N   0  0  0  0  0  0  0  0  0  0  0  0
  150.9141  132.8308  157.1522 C   0  0  0  0  0  0  0  0  0  0  0  0
  150.2106  134.1023  156.7861 C   0  0  0  0  0  0  0  0  0  0  0  0
  150.0529  134.2607  155.2651 C   0  0  0  0  0  0  0  0  0  0  0  0
  150.3293  135.6272  154.8371 N   0  0  0  0  0  0  0  0  0  0  0  0
  151.3074  136.4098  155.3236 C   0  0  0  0  0  0  0  0  0  0  0  0
  152.0939  136.0166  156.1864 O   0  0  0  0  0  0  0  0  0  0  0  0
  151.3870  137.6357  154.7500 N   0  0  0  0  0  0  0  0  0  0  0  0
  150.3892  138.2645  153.8777 C   0  0  0  0  0  0  0  0  0  0  0  0
  149.6886  139.3930  154.6591 C   0  0  0  0  0  0  0  0  0  0  0  0
  150.6523  140.4103  155.1145 N   0  0  0  0  0  0  0  0  0  0  0  0
  149.9802  141.4960  155.8576 C   0  0  0  0  0  0  0  0  0  0  0  0
  150.9989  142.4818  156.4708 C   0  0  0  0  0  0  0  0  0  0  0  0
  149.0857  140.9524  156.9935 C   0  0  0  0  0  0  0  0  0  0  0  0
  151.6899  139.7542  155.9288 C   0  0  0  0  0  0  0  0  0  0  0  0
  152.3867  138.6281  155.1424 C   0  0  0  0  0  0  0  0  0  0  0  0
  151.3231  131.8406  156.2937 C   0  0  0  0  0  0  0  0  0  0  0  0
  152.0957  130.5266  157.1374 S   0  0  0  0  0  0  0  0  0  0  0  0
  152.7315  131.6373  160.5641 H   0  0  0  0  0  0  0  0  0  0  0  0
  152.9554  130.0313  159.8519 H   0  0  0  0  0  0  0  0  0  0  0  0
  151.3810  130.4890  160.5247 H   0  0  0  0  0  0  0  0  0  0  0  0
  149.2282  134.1314  157.2590 H   0  0  0  0  0  0  0  0  0  0  0  0
  150.7601  134.9547  157.1875 H   0  0  0  0  0  0  0  0  0  0  0  0
  150.7053  133.5620  154.7385 H   0  0  0  0  0  0  0  0  0  0  0  0
  149.0328  134.0149  154.9683 H   0  0  0  0  0  0  0  0  0  0  0  0
  149.7343  136.0084  154.1159 H   0  0  0  0  0  0  0  0  0  0  0  0
  150.8846  138.6704  152.9943 H   0  0  0  0  0  0  0  0  0  0  0  0
  149.6387  137.5715  153.4979 H   0  0  0  0  0  0  0  0  0  0  0  0
  148.9494  139.8336  153.9929 H   0  0  0  0  0  0  0  0  0  0  0  0
  149.1485  138.9812  155.5133 H   0  0  0  0  0  0  0  0  0  0  0  0
  149.3451  142.0504  155.1649 H   0  0  0  0  0  0  0  0  0  0  0  0
  150.5053  143.1917  157.1351 H   0  0  0  0  0  0  0  0  0  0  0  0
  151.5043  143.0836  155.7163 H   0  0  0  0  0  0  0  0  0  0  0  0
  151.7562  141.9594  157.0564 H   0  0  0  0  0  0  0  0  0  0  0  0
  148.7183  141.7626  157.6241 H   0  0  0  0  0  0  0  0  0  0  0  0
  149.6317  140.2606  157.6360 H   0  0  0  0  0  0  0  0  0  0  0  0
  148.1988  140.4439  156.6168 H   0  0  0  0  0  0  0  0  0  0  0  0
  152.4600  140.4672  156.2181 H   0  0  0  0  0  0  0  0  0  0  0  0
  151.2520  139.3591  156.8468 H   0  0  0  0  0  0  0  0  0  0  0  0
  153.1883  138.1976  155.7443 H   0  0  0  0  0  0  0  0  0  0  0  0
  152.8710  139.0316  154.2516 H   0  0  0  0  0  0  0  0  0  0  0  0
  151.2148  131.8038  155.2198 H   0  0  0  0  0  0  0  0  0  0  0  0
  1  2  1  0  0  0  0
  1 21  1  0  0  0  0
  1 22  1  0  0  0  0
  1 23  1  0  0  0  0
  2 20  1  0  0  0  0
  2  3  2  0  0  0  0
  3  4  1  0  0  0  0
  4  5  1  0  0  0  0
  4 19  2  0  0  0  0
  5  6  1  0  0  0  0
  5 24  1  0  0  0  0
  5 25  1  0  0  0  0
  6  7  1  0  0  0  0
  6 26  1  0  0  0  0
  6 27  1  0  0  0  0
  7  8  1  0  0  0  0
  7 28  1  0  0  0  0
  8  9  2  0  0  0  0
  8 10  1  0  0  0  0
 10 18  1  0  0  0  0
 10 11  1  0  0  0  0
 11 12  1  0  0  0  0
 11 29  1  0  0  0  0
 11 30  1  0  0  0  0
 12 13  1  0  0  0  0
 12 31  1  0  0  0  0
 12 32  1  0  0  0  0
 13 14  1  0  0  0  0
 13 17  1  0  0  0  0
 14 15  1  0  0  0  0
 14 16  1  0  0  0  0
 14 33  1  0  0  0  0
 15 34  1  0  0  0  0
 15 35  1  0  0  0  0
 15 36  1  0  0  0  0
 16 37  1  0  0  0  0
 16 38  1  0  0  0  0
 16 39  1  0  0  0  0
 17 18  1  0  0  0  0
 17 40  1  0  0  0  0
 17 41  1  0  0  0  0
 18 42  1  0  0  0  0
 18 43  1  0  0  0  0
 19 20  1  0  0  0  0
 19 44  1  0  0  0  0
M  END
> <s_m_source_file>
AV-unprocessed.smi

> <i_m_source_file_index>
3006

> <i_lp_mmshare_version>
43012

> <i_f3d_flags>
0

> <s_epik_input>
W0NIM11jMW5jKFtjSF1zMSlbQ0gyXVtDSDJdW05IXUMoPU8pTjJbQ0gyXVtDSDJdTihbQ0hdKFtDSDNdKVtDSDNdKVtDSDJdW0NIMl0y

> <s_epik_cmdline>
J2VwaWtfcHl0aG9uJywgJy1waCcsICc3LjAnLCAnLXRuJywgJzgnLCAnLW1hJywgJzIwMCcsICctbWV0YWxfYmluZGluZycsICctaW1hZScsICc8aW5maWxlLm1hZT4nLCAnLW9tYWUnLCAnPG91dGZpbGUubWFlPic=

> <r_epik_Ionization_Penalty>
0.875753

> <r_epik_Ionization_Penalty_Charging>
0

> <r_epik_Ionization_Penalty_Neutral>
0.875753

> <r_epik_State_Penalty>
0.930306

> <r_epik_Charging_Adjusted_Penalty>
0.930306

> <i_epik_Tot_Q>
0

> <i_epik_Tot_abs_Q>
0

> <r_epik_Metal_State_Penalty>
0.928801

> <b_epik_Metal_Only>
0

> <s_lp_Force_Field>
OPLS_2005

> <r_lp_Energy>
38.048

> <b_lp_Chiralities_Consistent>
1

> <s_lp_Variant>
AV-unprocessed.smi:3006-2

> <Gold.Version>
5.8.1

> <Gold.Id.Protein>
6NUR|6NUR_protein|mol2

> <Gold.PLP.Fitness>
43.3749

> <Gold.PLP.PLP>
-32.5824

> <Gold.PLP.part.hbond>
-4.7564

> <Gold.PLP.part.metal>
0.0000

> <Gold.PLP.part.buried>
-0.0664

> <Gold.PLP.part.nonpolar>
-28.5228

> <Gold.PLP.part.repulsive>
0.1633

> <Gold.PLP.ligand.clash>
0.0000

> <Gold.PLP.ligand.torsion>
0.5577

> <Gold.PLP.Chemscore.Hbond>
3.9440

> <Gold.PLP.Chemscore.CHOScore>
0.0000

> <Gold.PLP.Chemscore.Metal>
0.0000

> <Gold.Chemscore.Hbonds>
donor molecule, donor type, donor heavy atom, donor atom, acceptor molecule, acceptor atom, score
      L1  H     7    28       P1  7948  0.18
      P1  H  6896  6907       L1     3  0.08
      P1  H  7989  7998       L1    13  1.00
      P1  H 10752 10764       L1     9  0.55

> <Gold.PLP.Chemscore.Internal.Correction>
0.0759

> <Gold.Rescore>
     Score         DG    S(hbond)    S(metal)    S(lipo)     H(rot)  DE(clash)    DE(int)     intcor
     16.43     -18.41       2.43        0.00      71.45       1.39       0.10       1.88       ----

> <Gold.Chemscore.Fitness>
16.4320

> <Gold.Chemscore.DG>
-18.4074

> <Gold.Chemscore.ZeroCoef>
-5.4800

> <Gold.Chemscore.Hbond>
2.4299

> <Gold.Chemscore.Metal>
0.0000

> <Gold.Chemscore.Lipo>
71.4531

> <Gold.Chemscore.Internal_Hbond>
0.0000

> <Gold.Chemscore.DEClash>
0.0959

> <Gold.Chemscore.DEInternal>
1.8796

> <Gold.Chemscore.Rot>
1.3861

> <Gold.Chemscore.Internal.Correction>
   9.000000E+99

> <Gold.Chemscore.Hbonds>
donor molecule, donor type, donor heavy atom, donor atom, acceptor molecule, acceptor atom, score
      L1  H     7    28       P1  7948  0.07
      P1  H  6896  6907       L1     3  0.09
      P1  H  7989  7998       L1    13  0.14
      P1  H 10752 10764       L1     9  0.03

> <Gold.Chemscore.Hbond.Weighted>
-8.1159

> <Gold.Chemscore.Metal.Weighted>
-0.0000

> <Gold.Chemscore.Lipo.Weighted>
-8.3600

> <Gold.Chemscore.Internal_Hbond.Weighted>
0.0000

> <Gold.Chemscore.DEClash.Weighted>
0.0959

> <Gold.Chemscore.DEInternal.Weighted>
1.8796

> <Gold.Chemscore.Rot.Weighted>
3.5484

> <Gold.Chemscore.Internal.Correction.Weighted>
   9.000000E+99

> <Gold.Protein.RotatedTorsions>
[ 6907 6896 6895 6894 ] final -144.47 input  -60.11 | X-H torsion
[ 7974 7965 7964 7962 ] final  101.86 input  175.53 | X-H torsion
[ 8008 7997 7996 7995 ] final    5.86 input   59.86 | X-H torsion
[ 10167 10162 10161 10158 ] final -151.70 input  -65.29 | X-H torsion
[ 10718 10713 10712 10709 ] final   54.40 input   66.30 | X-H torsion
[ 10763 10752 10751 10750 ] final  -31.13 input  -60.55 | X-H torsion
[ 11005 11000 10999 10996 ] final  177.93 input  -57.11 | X-H torsion

> <Gold.Protein.ActiveResidues>
 VAL166  LYS551  ARG553  GLY616  TRP617  ASP618  TYR619  PRO620  LYS621  CYS622 
 ASP623  PHE694  ASN695  SER759  ASP760  ASP761  ALA762  ILE779  LEU786  VAL792 
 PHE793  MET794  SER795  GLU796  ALA797  LYS798  CYS799  TRP800  GLU811  SER814 

> <Gold.Protein.RotatedAtoms>
  151.1145  133.5149  159.2604 H   0  0  0  0  0  0  0  0  0  0  0  0  # atno 6907 bound_to 6896
  151.1930  135.0410  159.8850 H   0  0  0  0  0  0  0  0  0  0  0  0  # atno 6908 bound_to 6896
  152.5452  134.0983  159.8360 H   0  0  0  0  0  0  0  0  0  0  0  0  # atno 6909 bound_to 6896
  145.3667  139.2406  143.3477 H   0  0  0  0  0  0  0  0  0  0  0  0  # atno 7974 bound_to 7965
  154.7337  140.2735  155.6433 H   0  0  0  0  0  0  0  0  0  0  0  0  # atno 8008 bound_to 7997
  156.2856  140.2710  156.1970 H   0  0  0  0  0  0  0  0  0  0  0  0  # atno 8009 bound_to 7997
  155.0348  140.0371  157.2477 H   0  0  0  0  0  0  0  0  0  0  0  0  # atno 8010 bound_to 7997
  139.7244  143.8906  152.2514 H   0  0  0  0  0  0  0  0  0  0  0  0  # atno 10167 bound_to 10162
  157.5253  130.8593  149.8613 H   0  0  0  0  0  0  0  0  0  0  0  0  # atno 10718 bound_to 10713
  153.7924  135.6897  153.4869 H   0  0  0  0  0  0  0  0  0  0  0  0  # atno 10763 bound_to 10752
  153.1741  135.4531  154.9940 H   0  0  0  0  0  0  0  0  0  0  0  0  # atno 10764 bound_to 10752
  154.8039  135.3349  154.7419 H   0  0  0  0  0  0  0  0  0  0  0  0  # atno 10765 bound_to 10752
  140.3895  134.6874  157.4499 H   0  0  0  0  0  0  0  0  0  0  0  0  # atno 11005 bound_to 11000
  146.2903  140.4310  142.8742 LP  0  0  0  0  0  0  0  0  0  0  0  0  # atno 17320 bound_to 7965
  144.8606  140.7134  143.6109 LP  0  0  0  0  0  0  0  0  0  0  0  0  # atno 17321 bound_to 7965
  139.8811  144.7017  150.8877 LP  0  0  0  0  0  0  0  0  0  0  0  0  # atno 17342 bound_to 10162
  140.7760  143.3660  151.1737 LP  0  0  0  0  0  0  0  0  0  0  0  0  # atno 17343 bound_to 10162
  156.0383  130.3745  150.1503 LP  0  0  0  0  0  0  0  0  0  0  0  0  # atno 17370 bound_to 10713
  156.9690  130.9828  151.3463 LP  0  0  0  0  0  0  0  0  0  0  0  0  # atno 17371 bound_to 10713
  140.0417  134.6258  155.8972 LP  0  0  0  0  0  0  0  0  0  0  0  0  # atno 17394 bound_to 11000
  141.1895  133.6566  156.5373 LP  0  0  0  0  0  0  0  0  0  0  0  0  # atno 17395 bound_to 11000

$$$$
