AV-unprocessed.smi:245|AV-procd|sdf|1877|dock1
  -GOLD-   2262020523D 1   1.00000     0.00000
 Structure written by MMmdl.
 54 58  0  0  0  0  0  0  0  0  1 V2000
  155.2855  139.8864  159.8582 O   0  0  0  0  0  0  0  0  0  0  0  0
  154.3796  140.5389  159.3450 C   0  0  0  0  0  0  0  0  0  0  0  0
  153.3011  139.8167  158.5173 C   0  0  0  0  0  0  0  0  0  0  0  0
  152.2330  140.6776  157.9814 N   0  0  0  0  0  0  0  0  0  0  0  0
  151.1769  139.9327  157.5737 C   0  0  0  0  0  0  0  0  0  0  0  0
  150.5888  139.0566  158.4310 N   0  0  0  0  0  0  0  0  0  0  0  0
  149.5604  138.3085  158.0208 C   0  0  0  0  0  0  0  0  0  0  0  0
  148.9821  138.2713  156.8184 N   0  0  0  0  0  0  0  0  0  0  0  0
  149.5810  139.1381  155.9514 C   0  0  0  0  0  0  0  0  0  0  0  0
  150.6755  139.9981  156.2465 C   0  0  0  0  0  0  0  0  0  0  0  0
  151.0125  140.7440  155.1249 N   0  0  0  0  0  0  0  0  0  0  0  0
  150.1603  140.3510  154.2174 C   0  0  0  0  0  0  0  0  0  0  0  0
  149.2729  139.3771  154.6226 N   0  0  0  0  0  0  0  0  0  0  0  0
  148.2219  138.7833  153.8443 C   0  0  0  0  0  0  0  0  0  0  0  0
  146.7782  139.2920  153.9112 C   0  0  0  0  0  0  0  0  0  0  0  0
  146.2518  137.8425  153.8038 C   0  0  0  0  0  0  0  0  0  0  0  0
  145.1640  137.4649  154.8212 C   0  0  0  0  0  0  0  0  0  0  0  0
  143.9377  138.1032  154.5287 O   0  0  0  0  0  0  0  0  0  0  0  0
  145.7578  137.3758  152.4161 C   0  0  0  0  0  0  0  0  0  0  0  0
  146.5965  137.7896  151.3566 O   0  0  0  0  0  0  0  0  0  0  0  0
  147.6775  137.4008  154.2067 C   0  0  0  0  0  0  0  0  0  0  0  0
  151.9584  141.9417  158.6761 C   0  0  2  0  0  0  0  0  0  0  0  0
  150.9553  142.8593  157.9333 C   0  0  0  0  0  0  0  0  0  0  0  0
  150.7260  144.1701  158.7052 C   0  0  0  0  0  0  0  0  0  0  0  0
  152.0461  144.9119  158.9679 C   0  0  0  0  0  0  0  0  0  0  0  0
  153.0688  144.0039  159.6695 C   0  0  0  0  0  0  0  0  0  0  0  0
  153.2858  142.7077  158.8699 C   0  0  1  0  0  0  0  0  0  0  0  0
  154.2953  141.8688  159.5032 N   0  0  0  0  0  0  0  0  0  0  0  0
  153.7972  139.3137  157.6863 H   0  0  0  0  0  0  0  0  0  0  0  0
  152.8727  139.0351  159.1482 H   0  0  0  0  0  0  0  0  0  0  0  0
  149.1423  137.6427  158.7614 H   0  0  0  0  0  0  0  0  0  0  0  0
  150.1579  140.7699  153.2220 H   0  0  0  0  0  0  0  0  0  0  0  0
  148.5624  138.7946  152.8082 H   0  0  0  0  0  0  0  0  0  0  0  0
  146.5277  139.7583  154.8646 H   0  0  0  0  0  0  0  0  0  0  0  0
  146.4952  139.9401  153.0810 H   0  0  0  0  0  0  0  0  0  0  0  0
  145.0046  136.3864  154.8476 H   0  0  0  0  0  0  0  0  0  0  0  0
  145.4566  137.7577  155.8301 H   0  0  0  0  0  0  0  0  0  0  0  0
  144.0996  138.7931  153.9034 H   0  0  0  0  0  0  0  0  0  0  0  0
  145.6885  136.2883  152.3768 H   0  0  0  0  0  0  0  0  0  0  0  0
  144.7587  137.7597  152.2076 H   0  0  0  0  0  0  0  0  0  0  0  0
  147.4865  137.5512  151.5674 H   0  0  0  0  0  0  0  0  0  0  0  0
  148.0924  136.5874  153.6107 H   0  0  0  0  0  0  0  0  0  0  0  0
  147.7735  137.1864  155.2723 H   0  0  0  0  0  0  0  0  0  0  0  0
  151.5488  141.7001  159.6593 H   0  0  0  0  0  0  0  0  0  0  0  0
  151.3299  143.0829  156.9334 H   0  0  0  0  0  0  0  0  0  0  0  0
  149.9923  142.3687  157.7960 H   0  0  0  0  0  0  0  0  0  0  0  0
  150.0436  144.8137  158.1495 H   0  0  0  0  0  0  0  0  0  0  0  0
  150.2372  143.9503  159.6553 H   0  0  0  0  0  0  0  0  0  0  0  0
  152.4603  145.2625  158.0217 H   0  0  0  0  0  0  0  0  0  0  0  0
  151.8606  145.8006  159.5716 H   0  0  0  0  0  0  0  0  0  0  0  0
  154.0126  144.5380  159.7855 H   0  0  0  0  0  0  0  0  0  0  0  0
  152.7198  143.7664  160.6754 H   0  0  0  0  0  0  0  0  0  0  0  0
  153.6824  142.9738  157.8882 H   0  0  0  0  0  0  0  0  0  0  0  0
  154.9973  142.3301  160.0635 H   0  0  0  0  0  0  0  0  0  0  0  0
  1  2  2  0  0  0  0
  2 28  1  0  0  0  0
  2  3  1  0  0  0  0
  3  4  1  0  0  0  0
  3 29  1  0  0  0  0
  3 30  1  0  0  0  0
  4  5  1  0  0  0  0
  4 22  1  0  0  0  0
  5 10  1  0  0  0  0
  5  6  2  0  0  0  0
  6  7  1  0  0  0  0
  7  8  2  0  0  0  0
  7 31  1  0  0  0  0
  8  9  1  0  0  0  0
  9 13  1  0  0  0  0
  9 10  2  0  0  0  0
 10 11  1  0  0  0  0
 11 12  2  0  0  0  0
 12 13  1  0  0  0  0
 12 32  1  0  0  0  0
 13 14  1  0  0  0  0
 14 21  1  0  0  0  0
 14 15  1  0  0  0  0
 14 33  1  0  0  0  0
 15 16  1  0  0  0  0
 15 34  1  0  0  0  0
 15 35  1  0  0  0  0
 16 17  1  0  0  0  0
 16 19  1  0  0  0  0
 16 21  1  0  0  0  0
 17 18  1  0  0  0  0
 17 36  1  0  0  0  0
 17 37  1  0  0  0  0
 18 38  1  0  0  0  0
 19 20  1  0  0  0  0
 19 39  1  0  0  0  0
 19 40  1  0  0  0  0
 20 41  1  0  0  0  0
 21 42  1  0  0  0  0
 21 43  1  0  0  0  0
 22 27  1  0  0  0  0
 22 23  1  0  0  0  0
 22 44  1  0  0  0  0
 23 24  1  0  0  0  0
 23 45  1  0  0  0  0
 23 46  1  0  0  0  0
 24 25  1  0  0  0  0
 24 47  1  0  0  0  0
 24 48  1  0  0  0  0
 25 26  1  0  0  0  0
 25 49  1  0  0  0  0
 25 50  1  0  0  0  0
 26 27  1  0  0  0  0
 26 51  1  0  0  0  0
 26 52  1  0  0  0  0
 27 28  1  0  0  0  0
 27 53  1  0  0  0  0
 28 54  1  0  0  0  0
M  END
> <s_m_source_file>
AV-unprocessed.smi

> <i_m_source_file_index>
245

> <i_lp_mmshare_version>
43012

> <i_f3d_flags>
0

> <s_epik_input>
W0NIMl0xW0NIMl1bQ0gyXVtDSDJdW0NASF0oW0NASF0xMilbTkhdQyg9TylbQ0gyXU4yYyhuW2NIXW4zKWMoYzM0KW5bY0hdbjRbQ0hdKFtDSDJdNSlbQ0gyXUM1KFtDSDJdW09IXSlbQ0gyXVtPSF0=

> <s_epik_cmdline>
J2VwaWtfcHl0aG9uJywgJy1waCcsICc3LjAnLCAnLXRuJywgJzgnLCAnLW1hJywgJzIwMCcsICctbWV0YWxfYmluZGluZycsICctaW1hZScsICc8aW5maWxlLm1hZT4nLCAnLW9tYWUnLCAnPG91dGZpbGUubWFlPic=

> <r_lp_tautomer_probability>
1

> <r_epik_Ionization_Penalty>
0.000702616

> <r_epik_Ionization_Penalty_Charging>
0

> <r_epik_Ionization_Penalty_Neutral>
0.000702616

> <r_epik_State_Penalty>
0.000343985

> <r_epik_Charging_Adjusted_Penalty>
0.000343985

> <i_epik_Tot_Q>
0

> <i_epik_Tot_abs_Q>
0

> <r_epik_Metal_State_Penalty>
-0

> <b_epik_Metal_Only>
0

> <s_lp_Force_Field>
OPLS_2005

> <r_lp_Energy>
50.1647

> <b_lp_Chiralities_Consistent>
1

> <s_lp_Variant>
AV-unprocessed.smi:245-2

> <Gold.Version>
5.8.1

> <Gold.Id.Protein>
6NUR|6NUR_protein|mol2

> <Gold.PLP.Fitness>
47.2460

> <Gold.PLP.PLP>
-39.9974

> <Gold.PLP.part.hbond>
-3.8982

> <Gold.PLP.part.metal>
0.0000

> <Gold.PLP.part.buried>
-4.9315

> <Gold.PLP.part.nonpolar>
-32.2081

> <Gold.PLP.part.repulsive>
0.0926

> <Gold.PLP.ligand.clash>
0.0000

> <Gold.PLP.ligand.torsion>
1.1807

> <Gold.PLP.Chemscore.Hbond>
1.9280

> <Gold.PLP.Chemscore.CHOScore>
1.0000

> <Gold.PLP.Chemscore.Metal>
0.0000

> <Gold.Chemscore.Hbonds>
donor molecule, donor type, donor heavy atom, donor atom, acceptor molecule, acceptor atom, score
      L1  H    18    38       P1 10175  0.50
      L1  H    20    41       P1  7948  1.00
      L1  C    12    32       P1  7957  1.00

> <Gold.PLP.Chemscore.Internal.Correction>
0.8259

> <Gold.Rescore>
     Score         DG    S(hbond)    S(metal)    S(lipo)     H(rot)  DE(clash)    DE(int)     intcor
     13.23     -15.31       1.98        0.00      99.21       3.28       0.89       1.19       ----

> <Gold.Chemscore.Fitness>
13.2312

> <Gold.Chemscore.DG>
-15.3088

> <Gold.Chemscore.ZeroCoef>
-5.4800

> <Gold.Chemscore.Hbond>
1.9780

> <Gold.Chemscore.Metal>
0.0000

> <Gold.Chemscore.Lipo>
99.2146

> <Gold.Chemscore.Internal_Hbond>
0.0000

> <Gold.Chemscore.DEClash>
0.8926

> <Gold.Chemscore.DEInternal>
1.1851

> <Gold.Chemscore.Rot>
3.2758

> <Gold.Chemscore.Internal.Correction>
   9.000000E+99

> <Gold.Chemscore.Hbonds>
donor molecule, donor type, donor heavy atom, donor atom, acceptor molecule, acceptor atom, score
      L1  H    18    38       P1 10175  0.49
      L1  H    20    41       P1  7948  0.96

> <Gold.Chemscore.Hbond.Weighted>
-6.6066

> <Gold.Chemscore.Metal.Weighted>
-0.0000

> <Gold.Chemscore.Lipo.Weighted>
-11.6081

> <Gold.Chemscore.Internal_Hbond.Weighted>
0.0000

> <Gold.Chemscore.DEClash.Weighted>
0.8926

> <Gold.Chemscore.DEInternal.Weighted>
1.1851

> <Gold.Chemscore.Rot.Weighted>
8.3859

> <Gold.Chemscore.Internal.Correction.Weighted>
   9.000000E+99

> <Gold.Protein.RotatedTorsions>
[ 6907 6896 6895 6894 ] final  169.58 input  -60.11 | X-H torsion
[ 7974 7965 7964 7962 ] final  125.26 input  175.53 | X-H torsion
[ 8008 7997 7996 7995 ] final  107.95 input   59.86 | X-H torsion
[ 10167 10162 10161 10158 ] final -176.16 input  -65.29 | X-H torsion
[ 10718 10713 10712 10709 ] final   72.04 input   66.30 | X-H torsion
[ 10763 10752 10751 10750 ] final  -18.35 input  -60.55 | X-H torsion
[ 11005 11000 10999 10996 ] final   48.62 input  -57.11 | X-H torsion

> <Gold.Protein.ActiveResidues>
 VAL166  LYS551  ARG553  GLY616  TRP617  ASP618  TYR619  PRO620  LYS621  CYS622 
 ASP623  PHE694  ASN695  SER759  ASP760  ASP761  ALA762  ILE779  LEU786  VAL792 
 PHE793  MET794  SER795  GLU796  ALA797  LYS798  CYS799  TRP800  GLU811  SER814 

> <Gold.Protein.RotatedAtoms>
  151.8296  133.3406  159.3608 H   0  0  0  0  0  0  0  0  0  0  0  0  # atno 6907 bound_to 6896
  150.7268  134.5496  159.5797 H   0  0  0  0  0  0  0  0  0  0  0  0  # atno 6908 bound_to 6896
  152.2946  134.7683  160.0422 H   0  0  0  0  0  0  0  0  0  0  0  0  # atno 6909 bound_to 6896
  145.0751  139.3700  143.4938 H   0  0  0  0  0  0  0  0  0  0  0  0  # atno 7974 bound_to 7965
  156.1865  140.3085  155.9248 H   0  0  0  0  0  0  0  0  0  0  0  0  # atno 8008 bound_to 7997
  155.3270  140.0459  157.3058 H   0  0  0  0  0  0  0  0  0  0  0  0  # atno 8009 bound_to 7997
  154.5401  140.2259  155.8665 H   0  0  0  0  0  0  0  0  0  0  0  0  # atno 8010 bound_to 7997
  139.5544  144.2027  152.1133 H   0  0  0  0  0  0  0  0  0  0  0  0  # atno 10167 bound_to 10162
  157.6481  130.9559  150.0873 H   0  0  0  0  0  0  0  0  0  0  0  0  # atno 10718 bound_to 10713
  153.5880  135.7003  153.5435 H   0  0  0  0  0  0  0  0  0  0  0  0  # atno 10763 bound_to 10752
  153.3203  135.4076  155.1411 H   0  0  0  0  0  0  0  0  0  0  0  0  # atno 10764 bound_to 10752
  154.8606  135.3694  154.5410 H   0  0  0  0  0  0  0  0  0  0  0  0  # atno 10765 bound_to 10752
  140.1175  134.4873  155.8625 H   0  0  0  0  0  0  0  0  0  0  0  0  # atno 11005 bound_to 11000
  146.3530  140.0514  142.8635 LP  0  0  0  0  0  0  0  0  0  0  0  0  # atno 17320 bound_to 7965
  145.1246  140.9482  143.4580 LP  0  0  0  0  0  0  0  0  0  0  0  0  # atno 17321 bound_to 7965
  140.1528  144.5098  150.6677 LP  0  0  0  0  0  0  0  0  0  0  0  0  # atno 17342 bound_to 10162
  140.6813  143.2328  151.5375 LP  0  0  0  0  0  0  0  0  0  0  0  0  # atno 17343 bound_to 10162
  156.1832  130.3651  149.9007 LP  0  0  0  0  0  0  0  0  0  0  0  0  # atno 17370 bound_to 10713
  156.6954  130.8912  151.3593 LP  0  0  0  0  0  0  0  0  0  0  0  0  # atno 17371 bound_to 10713
  141.2144  133.6749  156.6824 LP  0  0  0  0  0  0  0  0  0  0  0  0  # atno 17394 bound_to 11000
  140.3009  134.8164  157.4096 LP  0  0  0  0  0  0  0  0  0  0  0  0  # atno 17395 bound_to 11000

$$$$
