AV-unprocessed.smi:149|AV-procd|sdf|1241|dock1
  -GOLD-   2262018453D 1   1.00000     0.00000
 Structure written by MMmdl.
 59 63  0  0  0  0  0  0  0  0  1 V2000
  151.8152  144.3188  157.7957 C   0  0  0  0  0  0  0  0  0  0  0  0
  151.3894  142.8841  158.1534 C   0  0  1  0  0  0  0  0  0  0  0  0
  150.7317  142.1887  156.9489 C   0  0  0  0  0  0  0  0  0  0  0  0
  151.5209  141.0007  156.6656 N   0  0  0  0  0  0  0  0  0  0  0  0
  151.0064  140.0310  155.8600 C   0  0  0  0  0  0  0  0  0  0  0  0
  150.2276  140.4148  154.8126 N   0  0  0  0  0  0  0  0  0  0  0  0
  149.6977  139.5093  153.9865 C   0  0  0  0  0  0  0  0  0  0  0  0
  149.8140  138.1820  154.0209 N   0  0  0  0  0  0  0  0  0  0  0  0
  150.5978  137.7822  155.0622 C   0  0  0  0  0  0  0  0  0  0  0  0
  151.2357  138.6293  156.0155 C   0  0  0  0  0  0  0  0  0  0  0  0
  151.9681  137.8496  156.9056 N   0  0  0  0  0  0  0  0  0  0  0  0
  151.7754  136.6241  156.5042 C   0  0  0  0  0  0  0  0  0  0  0  0
  150.9375  136.4896  155.4223 N   0  0  0  0  0  0  0  0  0  0  0  0
  150.5814  135.2693  154.7603 C   0  0  0  0  0  0  0  0  0  0  0  0
  149.1165  134.8575  154.5988 C   0  0  0  0  0  0  0  0  0  0  0  0
  149.5266  133.3729  154.7124 C   0  0  0  0  0  0  0  0  0  0  0  0
  148.5889  132.5012  155.5645 C   0  0  0  0  0  0  0  0  0  0  0  0
  148.2488  133.1441  156.7762 O   0  0  0  0  0  0  0  0  0  0  0  0
  149.8051  132.6659  153.3705 C   0  0  0  0  0  0  0  0  0  0  0  0
  148.6241  132.5177  152.6091 O   0  0  0  0  0  0  0  0  0  0  0  0
  150.7773  133.9128  155.4422 C   0  0  0  0  0  0  0  0  0  0  0  0
  152.2633  140.6542  157.8600 C   0  0  0  0  0  0  0  0  0  0  0  0
  152.5706  141.9767  158.5779 C   0  0  2  0  0  0  0  0  0  0  0  0
  152.7657  141.8037  160.0270 N   0  0  0  0  0  0  0  0  0  0  0  0
  154.0708  141.2143  160.3331 C   0  0  0  0  0  0  0  0  0  0  0  0
  154.2893  141.0298  161.8446 C   0  0  0  0  0  0  0  0  0  0  0  0
  154.1453  142.2825  162.5031 O   0  0  0  0  0  0  0  0  0  0  0  0
  152.8692  142.8696  162.2781 C   0  0  0  0  0  0  0  0  0  0  0  0
  152.6428  143.0586  160.7679 C   0  0  0  0  0  0  0  0  0  0  0  0
  152.5282  144.3233  156.9705 H   0  0  0  0  0  0  0  0  0  0  0  0
  152.2840  144.8279  158.6363 H   0  0  0  0  0  0  0  0  0  0  0  0
  150.9549  144.9159  157.4925 H   0  0  0  0  0  0  0  0  0  0  0  0
  150.6508  142.9217  158.9554 H   0  0  0  0  0  0  0  0  0  0  0  0
  149.7028  141.9133  157.1859 H   0  0  0  0  0  0  0  0  0  0  0  0
  150.7099  142.8359  156.0711 H   0  0  0  0  0  0  0  0  0  0  0  0
  149.0919  139.9050  153.1847 H   0  0  0  0  0  0  0  0  0  0  0  0
  152.2374  135.7805  156.9963 H   0  0  0  0  0  0  0  0  0  0  0  0
  151.0855  135.2923  153.7927 H   0  0  0  0  0  0  0  0  0  0  0  0
  148.4962  135.1933  155.4323 H   0  0  0  0  0  0  0  0  0  0  0  0
  148.6705  135.1385  153.6441 H   0  0  0  0  0  0  0  0  0  0  0  0
  147.6749  132.2482  155.0272 H   0  0  0  0  0  0  0  0  0  0  0  0
  149.0662  131.5535  155.8157 H   0  0  0  0  0  0  0  0  0  0  0  0
  147.4342  132.7822  157.0902 H   0  0  0  0  0  0  0  0  0  0  0  0
  150.5406  133.2088  152.7765 H   0  0  0  0  0  0  0  0  0  0  0  0
  150.2230  131.6717  153.5293 H   0  0  0  0  0  0  0  0  0  0  0  0
  148.7789  131.8692  151.9395 H   0  0  0  0  0  0  0  0  0  0  0  0
  151.7137  133.4147  155.1886 H   0  0  0  0  0  0  0  0  0  0  0  0
  150.6470  133.9670  156.5246 H   0  0  0  0  0  0  0  0  0  0  0  0
  151.6515  140.0000  158.4836 H   0  0  0  0  0  0  0  0  0  0  0  0
  153.1893  140.1356  157.6119 H   0  0  0  0  0  0  0  0  0  0  0  0
  153.4830  142.3838  158.1381 H   0  0  0  0  0  0  0  0  0  0  0  0
  154.1719  140.2413  159.8526 H   0  0  0  0  0  0  0  0  0  0  0  0
  154.8645  141.8448  159.9294 H   0  0  0  0  0  0  0  0  0  0  0  0
  153.5780  140.3105  162.2534 H   0  0  0  0  0  0  0  0  0  0  0  0
  155.2880  140.6388  162.0380 H   0  0  0  0  0  0  0  0  0  0  0  0
  152.0897  142.2389  162.7086 H   0  0  0  0  0  0  0  0  0  0  0  0
  152.8237  143.8301  162.7913 H   0  0  0  0  0  0  0  0  0  0  0  0
  153.3568  143.7883  160.3827 H   0  0  0  0  0  0  0  0  0  0  0  0
  151.6496  143.4828  160.6281 H   0  0  0  0  0  0  0  0  0  0  0  0
  1  2  1  0  0  0  0
  1 30  1  0  0  0  0
  1 31  1  0  0  0  0
  1 32  1  0  0  0  0
  2 23  1  0  0  0  0
  2  3  1  0  0  0  0
  2 33  1  0  0  0  0
  3  4  1  0  0  0  0
  3 34  1  0  0  0  0
  3 35  1  0  0  0  0
  4  5  1  0  0  0  0
  4 22  1  0  0  0  0
  5 10  1  0  0  0  0
  5  6  2  0  0  0  0
  6  7  1  0  0  0  0
  7  8  2  0  0  0  0
  7 36  1  0  0  0  0
  8  9  1  0  0  0  0
  9 13  1  0  0  0  0
  9 10  2  0  0  0  0
 10 11  1  0  0  0  0
 11 12  2  0  0  0  0
 12 13  1  0  0  0  0
 12 37  1  0  0  0  0
 13 14  1  0  0  0  0
 14 21  1  0  0  0  0
 14 15  1  0  0  0  0
 14 38  1  0  0  0  0
 15 16  1  0  0  0  0
 15 39  1  0  0  0  0
 15 40  1  0  0  0  0
 16 17  1  0  0  0  0
 16 19  1  0  0  0  0
 16 21  1  0  0  0  0
 17 18  1  0  0  0  0
 17 41  1  0  0  0  0
 17 42  1  0  0  0  0
 18 43  1  0  0  0  0
 19 20  1  0  0  0  0
 19 44  1  0  0  0  0
 19 45  1  0  0  0  0
 20 46  1  0  0  0  0
 21 47  1  0  0  0  0
 21 48  1  0  0  0  0
 22 23  1  0  0  0  0
 22 49  1  0  0  0  0
 22 50  1  0  0  0  0
 23 24  1  0  0  0  0
 23 51  1  0  0  0  0
 24 29  1  0  0  0  0
 24 25  1  0  0  0  0
 25 26  1  0  0  0  0
 25 52  1  0  0  0  0
 25 53  1  0  0  0  0
 26 27  1  0  0  0  0
 26 54  1  0  0  0  0
 26 55  1  0  0  0  0
 27 28  1  0  0  0  0
 28 29  1  0  0  0  0
 28 56  1  0  0  0  0
 28 57  1  0  0  0  0
 29 58  1  0  0  0  0
 29 59  1  0  0  0  0
M  END
> <s_m_source_file>
AV-unprocessed.smi

> <i_m_source_file_index>
149

> <i_lp_mmshare_version>
43012

> <i_f3d_flags>
0

> <s_epik_input>
W0NIMl0xW0NIMl1PW0NIMl1bQ0gyXU4xW0NAQEhdMltDSDJdTihbQ0gyXVtDQEhdMltDSDNdKWMobltjSF1uMyljKGMzNCluW2NIXW40W0NIXShbQ0gyXTUpW0NIMl1DNShbQ0gyXVtPSF0pW0NIMl1bT0hd

> <s_epik_cmdline>
J2VwaWtfcHl0aG9uJywgJy1waCcsICc3LjAnLCAnLXRuJywgJzgnLCAnLW1hJywgJzIwMCcsICctbWV0YWxfYmluZGluZycsICctaW1hZScsICc8aW5maWxlLm1hZT4nLCAnLW9tYWUnLCAnPG91dGZpbGUubWFlPic=

> <r_lp_tautomer_probability>
1

> <r_epik_Ionization_Penalty>
0.41918

> <r_epik_Ionization_Penalty_Charging>
0

> <r_epik_Ionization_Penalty_Neutral>
0.41918

> <r_epik_State_Penalty>
0.654916

> <r_epik_Charging_Adjusted_Penalty>
0.654916

> <i_epik_Tot_Q>
0

> <i_epik_Tot_abs_Q>
0

> <r_epik_Metal_State_Penalty>
0.653217

> <b_epik_Metal_Only>
0

> <s_lp_Force_Field>
OPLS_2005

> <r_lp_Energy>
73.5543

> <b_lp_Chiralities_Consistent>
1

> <s_lp_Variant>
AV-unprocessed.smi:149-8

> <Gold.Version>
5.8.1

> <Gold.Id.Protein>
6NUR|6NUR_protein|mol2

> <Gold.PLP.Fitness>
55.0108

> <Gold.PLP.PLP>
-48.9220

> <Gold.PLP.part.hbond>
-2.9250

> <Gold.PLP.part.metal>
0.0000

> <Gold.PLP.part.buried>
-3.4412

> <Gold.PLP.part.nonpolar>
-42.0113

> <Gold.PLP.part.repulsive>
1.1556

> <Gold.PLP.ligand.clash>
0.0000

> <Gold.PLP.ligand.torsion>
0.9852

> <Gold.PLP.Chemscore.Hbond>
1.3813

> <Gold.PLP.Chemscore.CHOScore>
0.9995

> <Gold.PLP.Chemscore.Metal>
0.0000

> <Gold.Chemscore.Hbonds>
donor molecule, donor type, donor heavy atom, donor atom, acceptor molecule, acceptor atom, score
      L1  H    20    46       P1 10747  1.00
      P1  H  7989  7998       L1     6  0.60
      L1  C     7    36       P1  7957  0.94

> <Gold.PLP.Chemscore.Internal.Correction>
0.9169

> <Gold.Rescore>
     Score         DG    S(hbond)    S(metal)    S(lipo)     H(rot)  DE(clash)    DE(int)     intcor
     11.21     -13.91       0.75        0.00     123.70       3.34       0.41       2.29       ----

> <Gold.Chemscore.Fitness>
11.2139

> <Gold.Chemscore.DG>
-13.9114

> <Gold.Chemscore.ZeroCoef>
-5.4800

> <Gold.Chemscore.Hbond>
0.7524

> <Gold.Chemscore.Metal>
0.0000

> <Gold.Chemscore.Lipo>
123.6981

> <Gold.Chemscore.Internal_Hbond>
0.0000

> <Gold.Chemscore.DEClash>
0.4076

> <Gold.Chemscore.DEInternal>
2.2899

> <Gold.Chemscore.Rot>
3.3416

> <Gold.Chemscore.Internal.Correction>
   9.000000E+99

> <Gold.Chemscore.Hbonds>
donor molecule, donor type, donor heavy atom, donor atom, acceptor molecule, acceptor atom, score
      L1  H    20    46       P1 10747  0.96
      P1  H  7989  7998       L1     6  0.01

> <Gold.Chemscore.Hbond.Weighted>
-2.5132

> <Gold.Chemscore.Metal.Weighted>
-0.0000

> <Gold.Chemscore.Lipo.Weighted>
-14.4727

> <Gold.Chemscore.Internal_Hbond.Weighted>
0.0000

> <Gold.Chemscore.DEClash.Weighted>
0.4076

> <Gold.Chemscore.DEInternal.Weighted>
2.2899

> <Gold.Chemscore.Rot.Weighted>
8.5545

> <Gold.Chemscore.Internal.Correction.Weighted>
   9.000000E+99

> <Gold.Protein.RotatedTorsions>
[ 6907 6896 6895 6894 ] final  161.89 input  -60.11 | X-H torsion
[ 7974 7965 7964 7962 ] final -123.52 input  175.53 | X-H torsion
[ 8008 7997 7996 7995 ] final  108.99 input   59.86 | X-H torsion
[ 10167 10162 10161 10158 ] final  -85.15 input  -65.29 | X-H torsion
[ 10718 10713 10712 10709 ] final   82.86 input   66.30 | X-H torsion
[ 10763 10752 10751 10750 ] final  -65.59 input  -60.55 | X-H torsion
[ 11005 11000 10999 10996 ] final  -59.64 input  -57.11 | X-H torsion

> <Gold.Protein.ActiveResidues>
 VAL166  LYS551  ARG553  GLY616  TRP617  ASP618  TYR619  PRO620  LYS621  CYS622 
 ASP623  PHE694  ASN695  SER759  ASP760  ASP761  ALA762  ILE779  LEU786  VAL792 
 PHE793  MET794  SER795  GLU796  ALA797  LYS798  CYS799  TRP800  GLU811  SER814 

> <Gold.Protein.RotatedAtoms>
  151.9487  133.3659  159.3991 H   0  0  0  0  0  0  0  0  0  0  0  0  # atno 6907 bound_to 6896
  150.6985  134.4363  159.5281 H   0  0  0  0  0  0  0  0  0  0  0  0  # atno 6908 bound_to 6896
  152.2032  134.8568  160.0556 H   0  0  0  0  0  0  0  0  0  0  0  0  # atno 6909 bound_to 6896
  145.0178  140.7962  143.4399 H   0  0  0  0  0  0  0  0  0  0  0  0  # atno 7974 bound_to 7965
  156.1945  140.3066  155.9399 H   0  0  0  0  0  0  0  0  0  0  0  0  # atno 8008 bound_to 7997
  155.3097  140.0450  157.3051 H   0  0  0  0  0  0  0  0  0  0  0  0  # atno 8009 bound_to 7997
  154.5493  140.2286  155.8521 H   0  0  0  0  0  0  0  0  0  0  0  0  # atno 8010 bound_to 7997
  140.4065  143.2640  151.9074 H   0  0  0  0  0  0  0  0  0  0  0  0  # atno 10167 bound_to 10162
  157.6866  131.0066  150.2437 H   0  0  0  0  0  0  0  0  0  0  0  0  # atno 10718 bound_to 10713
  154.3472  135.6144  153.5625 H   0  0  0  0  0  0  0  0  0  0  0  0  # atno 10763 bound_to 10752
  152.9800  135.5784  154.4785 H   0  0  0  0  0  0  0  0  0  0  0  0  # atno 10764 bound_to 10752
  154.4499  135.2852  155.1765 H   0  0  0  0  0  0  0  0  0  0  0  0  # atno 10765 bound_to 10752
  141.1256  133.6617  156.5103 H   0  0  0  0  0  0  0  0  0  0  0  0  # atno 11005 bound_to 11000
  145.1936  139.2288  143.5230 LP  0  0  0  0  0  0  0  0  0  0  0  0  # atno 17320 bound_to 7965
  146.3480  140.1737  142.8589 LP  0  0  0  0  0  0  0  0  0  0  0  0  # atno 17321 bound_to 7965
  139.4783  144.5580  151.8283 LP  0  0  0  0  0  0  0  0  0  0  0  0  # atno 17342 bound_to 10162
  140.4684  144.1622  150.5914 LP  0  0  0  0  0  0  0  0  0  0  0  0  # atno 17343 bound_to 10162
  156.3047  130.3763  149.7717 LP  0  0  0  0  0  0  0  0  0  0  0  0  # atno 17370 bound_to 10713
  156.5336  130.8269  151.3245 LP  0  0  0  0  0  0  0  0  0  0  0  0  # atno 17371 bound_to 10713
  140.4374  134.7046  157.4974 LP  0  0  0  0  0  0  0  0  0  0  0  0  # atno 17394 bound_to 11000
  140.0252  134.6488  155.9183 LP  0  0  0  0  0  0  0  0  0  0  0  0  # atno 17395 bound_to 11000

$$$$
