#       Name:                AV-unprocessed.smi:1047
#       Creating user name   scv26
#       Creation time:       Fri Mar 27 03:06:38 2020


#       File generated by GOLD software.
#

@<TRIPOS>MOLECULE
AV-unprocessed.smi:1047
    62    64     1
SMALL
NO_CHARGES


@<TRIPOS>ATOM
      1 ****        -4.6854   3.2891   1.0809 C.3            1 S1                 0.0000
      2 ****        -4.3360   2.9396  -0.3726 C.3            1 S1                 0.0000
      3 ****        -3.0757   2.2197  -0.5483 N.3            1 S1                 0.0000
      4 ****        -2.7208   2.1289  -1.9605 C.3            1 S1                 0.0000
      5 ****        -1.3994   1.3720  -2.1738 C.3            1 S1                 0.0000
      6 ****        -1.4951   0.0795  -1.5844 O.3            1 S1                 0.0000
      7 ****        -1.7833   0.1257  -0.1893 C.3            1 S1                 0.0000
      8 ****        -1.8303  -1.3123   0.3441 C.3            1 S1                 0.0000
      9 ****        -0.5054  -1.9439   0.2122 N.4            1 S1                 1.0000
     10 ****        -0.3637  -3.2585   0.8674 C.3            1 S1                 0.0000
     11 ****         1.0894  -3.7690   0.7672 C.3            1 S1                 0.0000
     12 ****         1.0895  -5.1689   0.9482 O.3            1 S1                 0.0000
     13 ****         2.0811  -3.1628   1.7918 C.3            1 S1                 0.0000
     14 ****         1.9895  -1.7029   1.9415 N.pl3          1 S1                 0.0000
     15 ****         1.5043  -0.9611   2.9751 C.2            1 S1                 0.0000
     16 ****         1.6177   0.3506   2.6275 N.pl3          1 S1                 1.0000
     17 ****         2.1977   0.4490   1.3610 C.ar           1 S1                 0.0000
     18 ****         2.5044   1.5592   0.5841 C.ar           1 S1                 0.0000
     19 ****         3.0938   1.3199  -0.6775 C.ar           1 S1                 0.0000
     20 ****         3.4328   2.5117  -1.5566 C.3            1 S1                 0.0000
     21 ****         3.3658  -0.0015  -1.1180 C.ar           1 S1                 0.0000
     22 ****         4.0019  -0.2461  -2.4758 C.3            1 S1                 0.0000
     23 ****         3.0510  -1.1180  -0.3106 C.ar           1 S1                 0.0000
     24 ****         2.4576  -0.8645   0.9233 C.ar           1 S1                 0.0000
     25 ****        -3.1145   0.8739   0.0192 C.3            1 S1                 0.0000
     26 ****        -5.5770   3.9150   1.1185 H              1 S1                 0.0000
     27 ****        -3.8754   3.8403   1.5591 H              1 S1                 0.0000
     28 ****        -4.8903   2.4007   1.6776 H              1 S1                 0.0000
     29 ****        -5.1541   2.3710  -0.8171 H              1 S1                 0.0000
     30 ****        -4.2860   3.8762  -0.9296 H              1 S1                 0.0000
     31 ****        -3.5171   1.6246  -2.5104 H              1 S1                 0.0000
     32 ****        -2.6351   3.1293  -2.3862 H              1 S1                 0.0000
     33 ****        -1.1906   1.2642  -3.2381 H              1 S1                 0.0000
     34 ****        -0.5629   1.9194  -1.7363 H              1 S1                 0.0000
     35 ****        -0.9844   0.6671   0.3216 H              1 S1                 0.0000
     36 ****        -2.1155  -1.3013   1.3969 H              1 S1                 0.0000
     37 ****        -2.5759  -1.9025  -0.1901 H              1 S1                 0.0000
     38 ****        -0.2940  -2.0451  -0.7707 H              1 S1                 0.0000
     39 ****        -0.6780  -3.2033   1.9105 H              1 S1                 0.0000
     40 ****        -1.0429  -3.9486   0.3642 H              1 S1                 0.0000
     41 ****         1.4540  -3.5915  -0.2448 H              1 S1                 0.0000
     42 ****         0.7960  -5.3649   1.8251 H              1 S1                 0.0000
     43 ****         1.8953  -3.5866   2.7802 H              1 S1                 0.0000
     44 ****         3.1105  -3.4182   1.5359 H              1 S1                 0.0000
     45 ****         1.0924  -1.3431   3.8985 H              1 S1                 0.0000
     46 ****         2.2998   2.5630   0.9276 H              1 S1                 0.0000
     47 ****         2.8881   2.4589  -2.4995 H              1 S1                 0.0000
     48 ****         4.5008   2.5366  -1.7740 H              1 S1                 0.0000
     49 ****         3.1700   3.4529  -1.0726 H              1 S1                 0.0000
     50 ****         4.1426  -1.3104  -2.6662 H              1 S1                 0.0000
     51 ****         4.9789   0.2341  -2.5336 H              1 S1                 0.0000
     52 ****         3.3719   0.1536  -3.2706 H              1 S1                 0.0000
     53 ****         3.2605  -2.1234  -0.6452 H              1 S1                 0.0000
     54 ****        -3.3235   0.9229   1.0874 H              1 S1                 0.0000
     55 ****        -3.9284   0.3051  -0.4334 H              1 S1                 0.0000
     56 ****         0.1767  -1.3234   0.6239 H              1 S1                 0.0000
     57 ****         1.3272   1.1206   3.2173 H              1 S1                 0.0000
     58 ****        -2.3832   2.7465  -0.0554 LP             1 S1                 0.0000
     59 ****        -0.6250  -0.3959  -1.7149 LP             1 S1                 0.0000
     60 ****        -2.2241  -0.4276  -2.0442 LP             1 S1                 0.0000
     61 ****         2.0150  -5.5242   0.8169 LP             1 S1                 0.0000
     62 ****         0.4725  -5.5930   0.2852 LP             1 S1                 0.0000
@<TRIPOS>BOND
    1    1    2 1     
    2    1   26 1     
    3    1   27 1     
    4    1   28 1     
    5    2    3 1     
    6    2   29 1     
    7    2   30 1     
    8    3   25 1     
    9    3    4 1     
   10    4    5 1     
   11    4   31 1     
   12    4   32 1     
   13    5    6 1     
   14    5   33 1     
   15    5   34 1     
   16    6    7 1     
   17    7    8 1     
   18    7   25 1     
   19    7   35 1     
   20    8    9 1     
   21    8   36 1     
   22    8   37 1     
   23    9   10 1     
   24    9   38 1     
   25    9   56 1     
   26   10   11 1     
   27   10   39 1     
   28   10   40 1     
   29   11   12 1     
   30   11   13 1     
   31   11   41 1     
   32   12   42 1     
   33   13   14 1     
   34   13   43 1     
   35   13   44 1     
   36   14   24 1     
   37   14   15 1     
   38   15   16 2     
   39   15   45 1     
   40   16   17 1     
   41   16   57 1     
   42   17   24 ar    
   43   17   18 ar    
   44   18   19 ar    
   45   18   46 1     
   46   19   20 1     
   47   19   21 ar    
   48   20   47 1     
   49   20   48 1     
   50   20   49 1     
   51   21   22 1     
   52   21   23 ar    
   53   22   50 1     
   54   22   51 1     
   55   22   52 1     
   56   23   24 ar    
   57   23   53 1     
   58   25   54 1     
   59   25   55 1     
   60    3   58 1     
   61    6   59 1     
   62    6   60 1     
   63   12   61 1     
   64   12   62 1     
@<TRIPOS>SUBSTRUCTURE
      1 S1             1
@<TRIPOS>SET
LONE_PAIRS      STATIC     ATOMS    <user>   **** ""
5 58 59 60 61 62
DONOR_HYDROGENS      STATIC     ATOMS    <user>   **** ""
4 38 56 42 57
ATOM$BLUE        STATIC     ATOMS    COLORGROUP SYSTEM
5 58 59 60 61 62
ATOM$RED        STATIC     ATOMS    COLORGROUP SYSTEM
4 38 56 42 57
