#       Name:                AV-unprocessed.smi:1644
#       Creating user name   scv26
#       Creation time:       Fri Mar 27 07:28:17 2020


#       File generated by GOLD software.
#

@<TRIPOS>MOLECULE
AV-unprocessed.smi:1644
    56    58     1
SMALL
NO_CHARGES


@<TRIPOS>ATOM
      1 ****        -3.0656   6.2834   0.1724 C.3            1 S1                 0.0000
      2 ****        -3.7631   5.0108   0.6648 C.3            1 S1                 0.0000
      3 ****        -3.1855   3.7381   0.0252 C.3            1 S1                 0.0000
      4 ****        -3.9016   2.4515   0.4807 C.3            1 S1                 0.0000
      5 ****        -3.7169   2.1771   1.8920 N.am           1 S1                 0.0000
      6 ****        -3.1205   0.9990   2.1143 C.2            1 S1                 0.0000
      7 ****        -2.8457   0.5411   3.2223 O.2            1 S1                 0.0000
      8 ****        -2.8712   0.4193   0.9259 N.am           1 S1                 0.0000
      9 ****        -2.2038  -0.8759   0.7603 C.3            1 S1                 0.0000
     10 ****        -0.6677  -0.7389   0.7926 C.3            1 S1                 0.0000
     11 ****        -0.2210  -0.3655  -0.4966 O.3            1 S1                 0.0000
     12 ****         0.0126  -2.0650   1.1862 C.3            1 S1                 0.0000
     13 ****         1.4757  -1.9516   1.2707 N.pl3          1 S1                 0.0000
     14 ****         2.2536  -1.5356   2.3064 C.2            1 S1                 0.0000
     15 ****         3.5512  -1.6049   1.8998 N.pl3          1 S1                 1.0000
     16 ****         3.6027  -2.0695   0.5839 C.ar           1 S1                 0.0000
     17 ****         4.6847  -2.3015  -0.2568 C.ar           1 S1                 0.0000
     18 ****         4.4012  -2.7760  -1.5575 C.ar           1 S1                 0.0000
     19 ****         5.5612  -3.0355  -2.5037 C.3            1 S1                 0.0000
     20 ****         3.0646  -3.0045  -1.9758 C.ar           1 S1                 0.0000
     21 ****         2.7703  -3.5127  -3.3771 C.3            1 S1                 0.0000
     22 ****         1.9780  -2.7638  -1.1048 C.ar           1 S1                 0.0000
     23 ****         2.2744  -2.2953   0.1733 C.ar           1 S1                 0.0000
     24 ****        -3.2729   1.1941  -0.0899 C.2            1 S1                 0.0000
     25 ****        -3.1592   0.9642  -1.2938 O.2            1 S1                 0.0000
     26 ****        -3.5005   7.1689   0.6364 H              1 S1                 0.0000
     27 ****        -3.1624   6.3925  -0.9081 H              1 S1                 0.0000
     28 ****        -2.0027   6.2688   0.4148 H              1 S1                 0.0000
     29 ****        -3.6751   4.9552   1.7503 H              1 S1                 0.0000
     30 ****        -4.8290   5.0780   0.4444 H              1 S1                 0.0000
     31 ****        -3.2623   3.8237  -1.0598 H              1 S1                 0.0000
     32 ****        -2.1195   3.6710   0.2496 H              1 S1                 0.0000
     33 ****        -4.9648   2.4792   0.2386 H              1 S1                 0.0000
     34 ****        -4.0082   2.8157   2.6179 H              1 S1                 0.0000
     35 ****        -2.5293  -1.5269   1.5738 H              1 S1                 0.0000
     36 ****        -2.5318  -1.3777  -0.1523 H              1 S1                 0.0000
     37 ****        -0.3709   0.0327   1.5046 H              1 S1                 0.0000
     38 ****        -0.6581   0.4344  -0.7467 H              1 S1                 0.0000
     39 ****        -0.3362  -2.3806   2.1704 H              1 S1                 0.0000
     40 ****        -0.2509  -2.8687   0.4981 H              1 S1                 0.0000
     41 ****         1.9045  -1.2085   3.2754 H              1 S1                 0.0000
     42 ****         5.6993  -2.1239   0.0687 H              1 S1                 0.0000
     43 ****         5.5904  -4.0859  -2.7943 H              1 S1                 0.0000
     44 ****         6.5175  -2.7917  -2.0395 H              1 S1                 0.0000
     45 ****         5.4647  -2.4286  -3.4045 H              1 S1                 0.0000
     46 ****         1.7014  -3.6641  -3.5303 H              1 S1                 0.0000
     47 ****         3.2684  -4.4666  -3.5520 H              1 S1                 0.0000
     48 ****         3.1163  -2.7979  -4.1239 H              1 S1                 0.0000
     49 ****         0.9608  -2.9300  -1.4270 H              1 S1                 0.0000
     50 ****         4.3411  -1.3506   2.4790 H              1 S1                 0.0000
     51 ****        -3.0695   1.0600   4.0473 LP             1 S1                 0.0000
     52 ****        -2.3984  -0.3501   3.2982 LP             1 S1                 0.0000
     53 ****        -0.4403  -1.0885  -1.1517 LP             1 S1                 0.0000
     54 ****         0.7680  -0.2185  -0.4811 LP             1 S1                 0.0000
     55 ****        -3.4923   1.6282  -1.9632 LP             1 S1                 0.0000
     56 ****        -2.7337   0.1134  -1.6023 LP             1 S1                 0.0000
@<TRIPOS>BOND
    1    1    2 1     
    2    1   26 1     
    3    1   27 1     
    4    1   28 1     
    5    2    3 1     
    6    2   29 1     
    7    2   30 1     
    8    3    4 1     
    9    3   31 1     
   10    3   32 1     
   11    4   24 1     
   12    4    5 1     
   13    4   33 1     
   14    5    6 am    
   15    5   34 1     
   16    6    7 2     
   17    6    8 am    
   18    8    9 1     
   19    8   24 am    
   20    9   10 1     
   21    9   35 1     
   22    9   36 1     
   23   10   11 1     
   24   10   12 1     
   25   10   37 1     
   26   11   38 1     
   27   12   13 1     
   28   12   39 1     
   29   12   40 1     
   30   13   23 1     
   31   13   14 1     
   32   14   15 2     
   33   14   41 1     
   34   15   16 1     
   35   15   50 1     
   36   16   23 ar    
   37   16   17 ar    
   38   17   18 ar    
   39   17   42 1     
   40   18   19 1     
   41   18   20 ar    
   42   19   43 1     
   43   19   44 1     
   44   19   45 1     
   45   20   21 1     
   46   20   22 ar    
   47   21   46 1     
   48   21   47 1     
   49   21   48 1     
   50   22   23 ar    
   51   22   49 1     
   52   24   25 2     
   53    7   51 1     
   54    7   52 1     
   55   11   53 1     
   56   11   54 1     
   57   25   55 1     
   58   25   56 1     
@<TRIPOS>SUBSTRUCTURE
      1 S1             1
@<TRIPOS>SET
LONE_PAIRS      STATIC     ATOMS    <user>   **** ""
6 51 52 53 54 55 56
DONOR_HYDROGENS      STATIC     ATOMS    <user>   **** ""
3 34 38 50
ATOM$BLUE        STATIC     ATOMS    COLORGROUP SYSTEM
6 51 52 53 54 55 56
ATOM$RED        STATIC     ATOMS    COLORGROUP SYSTEM
3 34 38 50
