AV-unprocessed.smi:3354|AV-procd|sdf|12962|dock6
  -GOLD-   2272019403D 1   1.00000     0.00000
 Structure written by MMmdl.
 38 40  0  0  0  0  0  0  0  0  1 V2000
  150.8593  143.3555  158.0977 C   0  0  0  0  0  0  0  0  0  0  0  0
  151.1102  141.9022  157.7580 C   0  0  1  0  0  0  0  0  0  0  0  0
  150.1636  140.8336  158.2555 C   0  0  0  0  0  0  0  0  0  0  0  0
  150.2204  141.1693  156.7785 C   0  0  2  0  0  0  0  0  0  0  0  0
  150.8203  140.2582  155.8513 N   0  0  0  0  0  0  0  0  0  0  0  0
  149.9635  139.5458  154.9185 C   0  0  0  0  0  0  0  0  0  0  0  0
  150.9088  138.6586  154.0908 C   0  0  2  0  0  0  0  0  0  0  0  0
  150.3416  137.3267  153.8992 N   0  0  0  0  0  0  0  0  0  0  0  0
  150.3784  136.3421  154.8075 C   0  0  0  0  0  0  0  0  0  0  0  0
  150.8936  136.4646  155.9187 O   0  0  0  0  0  0  0  0  0  0  0  0
  149.7675  135.2358  154.3501 N   0  0  0  0  0  0  0  0  0  0  0  0
  149.6274  133.9741  154.9888 C   0  0  0  0  0  0  0  0  0  0  0  0
  149.9157  133.7361  156.3546 C   0  0  0  0  0  0  0  0  0  0  0  0
  149.7581  132.4334  156.8654 C   0  0  0  0  0  0  0  0  0  0  0  0
  149.3255  131.4162  155.9929 C   0  0  0  0  0  0  0  0  0  0  0  0
  149.0591  131.6257  154.6865 N   0  0  0  0  0  0  0  0  0  0  0  0
  149.2134  132.8771  154.2036 C   0  0  0  0  0  0  0  0  0  0  0  0
  152.2283  138.6314  154.8783 C   0  0  0  0  0  0  0  0  0  0  0  0
  152.0402  139.7089  155.9328 C   0  0  0  0  0  0  0  0  0  0  0  0
  152.9159  139.9899  156.7500 O   0  0  0  0  0  0  0  0  0  0  0  0
  149.7912  143.5759  158.0951 H   0  0  0  0  0  0  0  0  0  0  0  0
  151.3479  143.9988  157.3658 H   0  0  0  0  0  0  0  0  0  0  0  0
  151.2601  143.5840  159.0853 H   0  0  0  0  0  0  0  0  0  0  0  0
  152.1648  141.6321  157.7477 H   0  0  0  0  0  0  0  0  0  0  0  0
  150.6159  139.9078  158.6057 H   0  0  0  0  0  0  0  0  0  0  0  0
  149.2801  141.1525  158.8051 H   0  0  0  0  0  0  0  0  0  0  0  0
  149.3682  141.7260  156.3927 H   0  0  0  0  0  0  0  0  0  0  0  0
  149.2416  138.9547  155.4846 H   0  0  0  0  0  0  0  0  0  0  0  0
  149.4079  140.2397  154.2862 H   0  0  0  0  0  0  0  0  0  0  0  0
  151.0785  139.1317  153.1215 H   0  0  0  0  0  0  0  0  0  0  0  0
  149.8946  137.1433  153.0127 H   0  0  0  0  0  0  0  0  0  0  0  0
  149.3116  135.3186  153.4532 H   0  0  0  0  0  0  0  0  0  0  0  0
  150.2665  134.5153  157.0129 H   0  0  0  0  0  0  0  0  0  0  0  0
  149.9693  132.2182  157.9024 H   0  0  0  0  0  0  0  0  0  0  0  0
  149.1962  130.4061  156.3530 H   0  0  0  0  0  0  0  0  0  0  0  0
  148.9948  133.0067  153.1536 H   0  0  0  0  0  0  0  0  0  0  0  0
  152.3972  137.6739  155.3734 H   0  0  0  0  0  0  0  0  0  0  0  0
  153.0872  138.8486  154.2422 H   0  0  0  0  0  0  0  0  0  0  0  0
  1  2  1  0  0  0  0
  1 21  1  0  0  0  0
  1 22  1  0  0  0  0
  1 23  1  0  0  0  0
  2  4  1  0  0  0  0
  2  3  1  0  0  0  0
  2 24  1  0  0  0  0
  3  4  1  0  0  0  0
  3 25  1  0  0  0  0
  3 26  1  0  0  0  0
  4  5  1  0  0  0  0
  4 27  1  0  0  0  0
  5 19  1  0  0  0  0
  5  6  1  0  0  0  0
  6  7  1  0  0  0  0
  6 28  1  0  0  0  0
  6 29  1  0  0  0  0
  7  8  1  0  0  0  0
  7 18  1  0  0  0  0
  7 30  1  0  0  0  0
  8  9  1  0  0  0  0
  8 31  1  0  0  0  0
  9 10  2  0  0  0  0
  9 11  1  0  0  0  0
 11 12  1  0  0  0  0
 11 32  1  0  0  0  0
 12 17  1  0  0  0  0
 12 13  2  0  0  0  0
 13 14  1  0  0  0  0
 13 33  1  0  0  0  0
 14 15  2  0  0  0  0
 14 34  1  0  0  0  0
 15 16  1  0  0  0  0
 15 35  1  0  0  0  0
 16 17  2  0  0  0  0
 17 36  1  0  0  0  0
 18 19  1  0  0  0  0
 18 37  1  0  0  0  0
 18 38  1  0  0  0  0
 19 20  2  0  0  0  0
M  END
> <s_m_source_file>
AV-unprocessed.smi

> <i_m_source_file_index>
3354

> <i_lp_mmshare_version>
43012

> <i_f3d_flags>
0

> <s_epik_input>
W0NIM11bQ0BASF0xW0NIMl1bQ0BIXTFOMltDSDJdW0NASF0oW0NIMl1DMj1PKVtOSF1DKD1PKVtOSF1jM1tjSF1bY0hdW2NIXW5bY0hdMw==

> <s_epik_cmdline>
J2VwaWtfcHl0aG9uJywgJy1waCcsICc3LjAnLCAnLXRuJywgJzgnLCAnLW1hJywgJzIwMCcsICctbWV0YWxfYmluZGluZycsICctaW1hZScsICc8aW5maWxlLm1hZT4nLCAnLW9tYWUnLCAnPG91dGZpbGUubWFlPic=

> <r_epik_Ionization_Penalty>
0.00456191

> <r_epik_Ionization_Penalty_Charging>
0

> <r_epik_Ionization_Penalty_Neutral>
0.00456191

> <r_epik_State_Penalty>
0.00327094

> <r_epik_Charging_Adjusted_Penalty>
0.00327094

> <i_epik_Tot_Q>
0

> <i_epik_Tot_abs_Q>
0

> <r_epik_Metal_State_Penalty>
-0

> <b_epik_Metal_Only>
0

> <s_lp_Force_Field>
OPLS_2005

> <r_lp_Energy>
40.9267

> <b_lp_Chiralities_Consistent>
1

> <s_lp_Variant>
AV-unprocessed.smi:3354-8

> <Gold.Version>
5.8.1

> <Gold.Id.Protein>
6NUR|6NUR_protein|mol2

> <Gold.PLP.Fitness>
39.4725

> <Gold.PLP.PLP>
-31.2059

> <Gold.PLP.part.hbond>
-3.9570

> <Gold.PLP.part.metal>
0.0000

> <Gold.PLP.part.buried>
-2.0123

> <Gold.PLP.part.nonpolar>
-25.6882

> <Gold.PLP.part.repulsive>
0.1694

> <Gold.PLP.ligand.clash>
0.0242

> <Gold.PLP.ligand.torsion>
0.5443

> <Gold.PLP.Chemscore.Hbond>
3.0000

> <Gold.PLP.Chemscore.CHOScore>
0.0000

> <Gold.PLP.Chemscore.Metal>
0.0000

> <Gold.Chemscore.Hbonds>
donor molecule, donor type, donor heavy atom, donor atom, acceptor molecule, acceptor atom, score
      L1  H     8    31       P1  7948  0.95
      L1  H    11    32       P1  7948  0.95
      P1  H  7997  8010       L1    20  0.89

> <Gold.PLP.Chemscore.Internal.Correction>
0.3794

> <Gold.Rescore>
     Score         DG    S(hbond)    S(metal)    S(lipo)     H(rot)  DE(clash)    DE(int)     intcor
     14.06     -18.58       2.50        0.00      67.63       1.24       0.01       4.52       ----

> <Gold.Chemscore.Fitness>
14.0562

> <Gold.Chemscore.DG>
-18.5847

> <Gold.Chemscore.ZeroCoef>
-5.4800

> <Gold.Chemscore.Hbond>
2.5018

> <Gold.Chemscore.Metal>
0.0000

> <Gold.Chemscore.Lipo>
67.6332

> <Gold.Chemscore.Internal_Hbond>
0.0000

> <Gold.Chemscore.DEClash>
0.0050

> <Gold.Chemscore.DEInternal>
4.5234

> <Gold.Chemscore.Rot>
1.2361

> <Gold.Chemscore.Internal.Correction>
   9.000000E+99

> <Gold.Chemscore.Hbonds>
donor molecule, donor type, donor heavy atom, donor atom, acceptor molecule, acceptor atom, score
      L1  H     8    31       P1  7948  0.21
      L1  H    11    32       P1  7948  0.21
      P1  H  7997  8010       L1    20  0.83

> <Gold.Chemscore.Hbond.Weighted>
-8.3559

> <Gold.Chemscore.Metal.Weighted>
-0.0000

> <Gold.Chemscore.Lipo.Weighted>
-7.9131

> <Gold.Chemscore.Internal_Hbond.Weighted>
0.0000

> <Gold.Chemscore.DEClash.Weighted>
0.0050

> <Gold.Chemscore.DEInternal.Weighted>
4.5234

> <Gold.Chemscore.Rot.Weighted>
3.1643

> <Gold.Chemscore.Internal.Correction.Weighted>
   9.000000E+99

> <Gold.Protein.RotatedTorsions>
[ 6907 6896 6895 6894 ] final  142.96 input  -60.11 | X-H torsion
[ 7974 7965 7964 7962 ] final   99.67 input  175.53 | X-H torsion
[ 8008 7997 7996 7995 ] final   79.34 input   59.86 | X-H torsion
[ 10167 10162 10161 10158 ] final  137.15 input  -65.29 | X-H torsion
[ 10718 10713 10712 10709 ] final   23.94 input   66.30 | X-H torsion
[ 10763 10752 10751 10750 ] final  140.20 input  -60.55 | X-H torsion
[ 11005 11000 10999 10996 ] final   58.81 input  -57.11 | X-H torsion

> <Gold.Protein.ActiveResidues>
 VAL166  LYS551  ARG553  GLY616  TRP617  ASP618  TYR619  PRO620  LYS621  CYS622 
 ASP623  PHE694  ASN695  SER759  ASP760  ASP761  ALA762  ILE779  LEU786  VAL792 
 PHE793  MET794  SER795  GLU796  ALA797  LYS798  CYS799  TRP800  GLU811  SER814 

> <Gold.Protein.RotatedAtoms>
  152.2122  133.4920  159.5116 H   0  0  0  0  0  0  0  0  0  0  0  0  # atno 6907 bound_to 6896
  150.6993  134.1452  159.4129 H   0  0  0  0  0  0  0  0  0  0  0  0  # atno 6908 bound_to 6896
  151.9371  135.0230  160.0584 H   0  0  0  0  0  0  0  0  0  0  0  0  # atno 6909 bound_to 6896
  145.3958  139.2355  143.3327 H   0  0  0  0  0  0  0  0  0  0  0  0  # atno 7974 bound_to 7965
  155.8683  140.3450  155.5804 H   0  0  0  0  0  0  0  0  0  0  0  0  # atno 8008 bound_to 7997
  155.7856  140.0864  157.2056 H   0  0  0  0  0  0  0  0  0  0  0  0  # atno 8009 bound_to 7997
  154.4016  140.1493  156.3090 H   0  0  0  0  0  0  0  0  0  0  0  0  # atno 8010 bound_to 7997
  139.5154  144.6426  151.5528 H   0  0  0  0  0  0  0  0  0  0  0  0  # atno 10167 bound_to 10162
  157.1730  130.6768  149.6085 H   0  0  0  0  0  0  0  0  0  0  0  0  # atno 10718 bound_to 10713
  153.9188  135.3003  155.3448 H   0  0  0  0  0  0  0  0  0  0  0  0  # atno 10763 bound_to 10752
  154.7586  135.4945  153.9424 H   0  0  0  0  0  0  0  0  0  0  0  0  # atno 10764 bound_to 10752
  153.1153  135.6769  153.9532 H   0  0  0  0  0  0  0  0  0  0  0  0  # atno 10765 bound_to 10752
  140.0350  134.5957  155.9456 H   0  0  0  0  0  0  0  0  0  0  0  0  # atno 11005 bound_to 11000
  146.2776  140.4648  142.8789 LP  0  0  0  0  0  0  0  0  0  0  0  0  # atno 17320 bound_to 7965
  144.8408  140.6854  143.6230 LP  0  0  0  0  0  0  0  0  0  0  0  0  # atno 17321 bound_to 7965
  140.6198  143.9279  150.6517 LP  0  0  0  0  0  0  0  0  0  0  0  0  # atno 17342 bound_to 10162
  140.2549  143.3566  152.1373 LP  0  0  0  0  0  0  0  0  0  0  0  0  # atno 17343 bound_to 10162
  155.9735  130.4672  150.6318 LP  0  0  0  0  0  0  0  0  0  0  0  0  # atno 17370 bound_to 10713
  157.4025  131.0812  151.1295 LP  0  0  0  0  0  0  0  0  0  0  0  0  # atno 17371 bound_to 10713
  141.1852  133.6554  156.5188 LP  0  0  0  0  0  0  0  0  0  0  0  0  # atno 17394 bound_to 11000
  140.4163  134.7227  157.4864 LP  0  0  0  0  0  0  0  0  0  0  0  0  # atno 17395 bound_to 11000

$$$$
