AV-unprocessed.smi:609|AV-procd|sdf|3048|dock4
  -GOLD-   2262023563D 1   1.00000     0.00000
 Structure written by MMmdl.
 42 44  0  0  0  0  0  0  0  0  1 V2000
  152.3735  143.4718  160.6455 C   0  0  0  0  0  0  0  0  0  0  0  0
  151.8449  142.5722  159.5422 C   0  0  0  0  0  0  0  0  0  0  0  0
  152.6477  141.5041  159.0822 C   0  0  0  0  0  0  0  0  0  0  0  0
  152.1928  140.6449  158.0580 C   0  0  0  0  0  0  0  0  0  0  0  0
  152.8020  139.5524  157.4646 N   0  0  0  0  0  0  0  0  0  0  0  0
  151.8783  139.1753  156.5854 C   0  0  0  0  0  0  0  0  0  0  0  0
  150.7411  139.8950  156.5391 N   0  0  0  0  0  0  0  0  0  0  0  0
  149.6023  139.6698  155.6669 C   0  0  0  0  0  0  0  0  0  0  0  0
  149.1827  140.9427  154.9091 C   0  0  1  0  0  0  0  0  0  0  0  0
  149.6542  140.8798  153.5766 O   0  0  0  0  0  0  0  0  0  0  0  0
  147.6530  141.1244  154.8977 C   0  0  0  0  0  0  0  0  0  0  0  0
  147.1022  142.4585  153.7871 S   0  0  0  0  0  0  0  0  0  0  0  0
  145.7294  143.0849  154.7072 C   0  0  0  0  0  0  0  0  0  0  0  0
  145.3546  142.6519  155.9086 N   0  0  0  0  0  0  0  0  0  0  0  0
  144.2407  143.4168  156.2366 C   0  0  0  0  0  0  0  0  0  0  0  0
  143.9736  144.2920  155.2125 C   0  0  0  0  0  0  0  0  0  0  0  0
  144.9354  144.0649  154.2372 N   0  0  0  0  0  0  0  0  0  0  0  0
  145.0474  144.7602  152.9701 C   0  0  0  0  0  0  0  0  0  0  0  0
  150.9027  140.8860  157.5015 C   0  0  0  0  0  0  0  0  0  0  0  0
  150.0943  141.9449  157.9510 C   0  0  0  0  0  0  0  0  0  0  0  0
  150.5638  142.7935  158.9755 C   0  0  0  0  0  0  0  0  0  0  0  0
  149.6828  143.9334  159.4550 C   0  0  0  0  0  0  0  0  0  0  0  0
  153.3705  143.1673  160.9648 H   0  0  0  0  0  0  0  0  0  0  0  0
  151.7181  143.4355  161.5160 H   0  0  0  0  0  0  0  0  0  0  0  0
  152.4342  144.5041  160.3004 H   0  0  0  0  0  0  0  0  0  0  0  0
  153.6231  141.3348  159.5140 H   0  0  0  0  0  0  0  0  0  0  0  0
  152.0354  138.3255  155.9373 H   0  0  0  0  0  0  0  0  0  0  0  0
  149.8470  138.8685  154.9683 H   0  0  0  0  0  0  0  0  0  0  0  0
  148.7744  139.3073  156.2777 H   0  0  0  0  0  0  0  0  0  0  0  0
  149.6529  141.8019  155.3875 H   0  0  0  0  0  0  0  0  0  0  0  0
  149.3289  140.0856  153.1808 H   0  0  0  0  0  0  0  0  0  0  0  0
  147.1727  140.1982  154.5805 H   0  0  0  0  0  0  0  0  0  0  0  0
  147.2838  141.3285  155.9030 H   0  0  0  0  0  0  0  0  0  0  0  0
  143.7228  143.2790  157.1742 H   0  0  0  0  0  0  0  0  0  0  0  0
  143.1991  145.0362  155.0996 H   0  0  0  0  0  0  0  0  0  0  0  0
  144.2564  145.5050  152.8774 H   0  0  0  0  0  0  0  0  0  0  0  0
  144.9595  144.0480  152.1494 H   0  0  0  0  0  0  0  0  0  0  0  0
  146.0138  145.2616  152.9092 H   0  0  0  0  0  0  0  0  0  0  0  0
  149.1198  142.1004  157.5122 H   0  0  0  0  0  0  0  0  0  0  0  0
  148.7352  143.9580  158.9160 H   0  0  0  0  0  0  0  0  0  0  0  0
  150.1798  144.8916  159.3015 H   0  0  0  0  0  0  0  0  0  0  0  0
  149.4607  143.8237  160.5165 H   0  0  0  0  0  0  0  0  0  0  0  0
  1  2  1  0  0  0  0
  1 23  1  0  0  0  0
  1 24  1  0  0  0  0
  1 25  1  0  0  0  0
  2 21  1  0  0  0  0
  2  3  2  0  0  0  0
  3  4  1  0  0  0  0
  3 26  1  0  0  0  0
  4 19  2  0  0  0  0
  4  5  1  0  0  0  0
  5  6  2  0  0  0  0
  6  7  1  0  0  0  0
  6 27  1  0  0  0  0
  7  8  1  0  0  0  0
  7 19  1  0  0  0  0
  8  9  1  0  0  0  0
  8 28  1  0  0  0  0
  8 29  1  0  0  0  0
  9 10  1  0  0  0  0
  9 11  1  0  0  0  0
  9 30  1  0  0  0  0
 10 31  1  0  0  0  0
 11 12  1  0  0  0  0
 11 32  1  0  0  0  0
 11 33  1  0  0  0  0
 12 13  1  0  0  0  0
 13 17  1  0  0  0  0
 13 14  2  0  0  0  0
 14 15  1  0  0  0  0
 15 16  2  0  0  0  0
 15 34  1  0  0  0  0
 16 17  1  0  0  0  0
 16 35  1  0  0  0  0
 17 18  1  0  0  0  0
 18 36  1  0  0  0  0
 18 37  1  0  0  0  0
 18 38  1  0  0  0  0
 19 20  1  0  0  0  0
 20 21  2  0  0  0  0
 20 39  1  0  0  0  0
 21 22  1  0  0  0  0
 22 40  1  0  0  0  0
 22 41  1  0  0  0  0
 22 42  1  0  0  0  0
M  END
> <s_m_source_file>
AV-unprocessed.smi

> <i_m_source_file_index>
609

> <i_lp_mmshare_version>
43012

> <i_f3d_flags>
0

> <s_epik_input>
W0NIM11jKFtjSF0xKWMoW0NIM10pW2NIXWMoYzEyKW4oW2NIXW4yKVtDSDJdW0NASF0oW09IXSlbQ0gyXVNjM25bY0hdW2NIXW4zW0NIM10=

> <s_epik_cmdline>
J2VwaWtfcHl0aG9uJywgJy1waCcsICc3LjAnLCAnLXRuJywgJzgnLCAnLW1hJywgJzIwMCcsICctbWV0YWxfYmluZGluZycsICctaW1hZScsICc8aW5maWxlLm1hZT4nLCAnLW9tYWUnLCAnPG91dGZpbGUubWFlPic=

> <r_lp_tautomer_probability>
1

> <r_epik_Ionization_Penalty>
1.15618

> <r_epik_Ionization_Penalty_Charging>
1.04908

> <r_epik_Ionization_Penalty_Neutral>
0.107097

> <r_epik_State_Penalty>
1.19446

> <r_epik_Charging_Adjusted_Penalty>
2.24354

> <i_epik_Tot_Q>
0

> <i_epik_Tot_abs_Q>
0

> <r_epik_Metal_State_Penalty>
0.487262

> <b_epik_Metal_Only>
0

> <s_lp_Force_Field>
OPLS_2005

> <r_lp_Energy>
7.62781

> <b_lp_Chiralities_Consistent>
1

> <s_lp_Variant>
AV-unprocessed.smi:609-4

> <Gold.Version>
5.8.1

> <Gold.Id.Protein>
6NUR|6NUR_protein|mol2

> <Gold.PLP.Fitness>
51.1095

> <Gold.PLP.PLP>
-45.4083

> <Gold.PLP.part.hbond>
-3.7515

> <Gold.PLP.part.metal>
0.0000

> <Gold.PLP.part.buried>
-7.5486

> <Gold.PLP.part.nonpolar>
-35.2531

> <Gold.PLP.part.repulsive>
0.1444

> <Gold.PLP.ligand.clash>
0.0000

> <Gold.PLP.ligand.torsion>
0.9757

> <Gold.PLP.Chemscore.Hbond>
2.5280

> <Gold.PLP.Chemscore.CHOScore>
0.0000

> <Gold.PLP.Chemscore.Metal>
0.0000

> <Gold.Chemscore.Hbonds>
donor molecule, donor type, donor heavy atom, donor atom, acceptor molecule, acceptor atom, score
      L1  H    10    31       P1  7957  0.25
      P1  H  7989  7998       L1    10  0.34
      P1  H  7997  8009       L1     5  1.00
      P1  H  8011  8017       L1    10  1.00

> <Gold.PLP.Chemscore.Internal.Correction>
0.0686

> <Gold.Rescore>
     Score         DG    S(hbond)    S(metal)    S(lipo)     H(rot)  DE(clash)    DE(int)     intcor
     16.50     -18.96       2.23        0.00     104.19       2.41       1.58       0.88       ----

> <Gold.Chemscore.Fitness>
16.5018

> <Gold.Chemscore.DG>
-18.9650

> <Gold.Chemscore.ZeroCoef>
-5.4800

> <Gold.Chemscore.Hbond>
2.2330

> <Gold.Chemscore.Metal>
0.0000

> <Gold.Chemscore.Lipo>
104.1874

> <Gold.Chemscore.Internal_Hbond>
0.0000

> <Gold.Chemscore.DEClash>
1.5805

> <Gold.Chemscore.DEInternal>
0.8827

> <Gold.Chemscore.Rot>
2.4074

> <Gold.Chemscore.Internal.Correction>
   9.000000E+99

> <Gold.Chemscore.Hbonds>
donor molecule, donor type, donor heavy atom, donor atom, acceptor molecule, acceptor atom, score
      L1  H    10    31       P1  7957  0.24
      P1  H  7989  7998       L1    10  0.20
      P1  H  7997  8009       L1     5  0.51
      P1  H  8011  8017       L1    10  0.84

> <Gold.Chemscore.Hbond.Weighted>
-7.4581

> <Gold.Chemscore.Metal.Weighted>
-0.0000

> <Gold.Chemscore.Lipo.Weighted>
-12.1899

> <Gold.Chemscore.Internal_Hbond.Weighted>
0.0000

> <Gold.Chemscore.DEClash.Weighted>
1.5805

> <Gold.Chemscore.DEInternal.Weighted>
0.8827

> <Gold.Chemscore.Rot.Weighted>
6.1630

> <Gold.Chemscore.Internal.Correction.Weighted>
   9.000000E+99

> <Gold.Protein.RotatedTorsions>
[ 6907 6896 6895 6894 ] final -140.86 input  -60.11 | X-H torsion
[ 7974 7965 7964 7962 ] final  -53.15 input  175.53 | X-H torsion
[ 8008 7997 7996 7995 ] final -172.00 input   59.86 | X-H torsion
[ 10167 10162 10161 10158 ] final   -7.85 input  -65.29 | X-H torsion
[ 10718 10713 10712 10709 ] final -136.07 input   66.30 | X-H torsion
[ 10763 10752 10751 10750 ] final   82.04 input  -60.55 | X-H torsion
[ 11005 11000 10999 10996 ] final  173.99 input  -57.11 | X-H torsion

> <Gold.Protein.ActiveResidues>
 VAL166  LYS551  ARG553  GLY616  TRP617  ASP618  TYR619  PRO620  LYS621  CYS622 
 ASP623  PHE694  ASN695  SER759  ASP760  ASP761  ALA762  ILE779  LEU786  VAL792 
 PHE793  MET794  SER795  GLU796  ALA797  LYS798  CYS799  TRP800  GLU811  SER814 

> <Gold.Protein.RotatedAtoms>
  151.0662  133.5503  159.2630 H   0  0  0  0  0  0  0  0  0  0  0  0  # atno 6907 bound_to 6896
  151.2460  135.0605  159.9053 H   0  0  0  0  0  0  0  0  0  0  0  0  # atno 6908 bound_to 6896
  152.5405  134.0430  159.8129 H   0  0  0  0  0  0  0  0  0  0  0  0  # atno 6909 bound_to 6896
  145.9000  140.8001  142.9748 H   0  0  0  0  0  0  0  0  0  0  0  0  # atno 7974 bound_to 7965
  155.9390  140.1105  157.1071 H   0  0  0  0  0  0  0  0  0  0  0  0  # atno 8008 bound_to 7997
  154.4085  140.1223  156.4967 H   0  0  0  0  0  0  0  0  0  0  0  0  # atno 8009 bound_to 7997
  155.6986  140.3472  155.4926 H   0  0  0  0  0  0  0  0  0  0  0  0  # atno 8010 bound_to 7997
  140.7041  143.6035  150.8774 H   0  0  0  0  0  0  0  0  0  0  0  0  # atno 10167 bound_to 10162
  156.2730  130.7276  151.1250 H   0  0  0  0  0  0  0  0  0  0  0  0  # atno 10718 bound_to 10713
  153.1168  135.4743  154.9129 H   0  0  0  0  0  0  0  0  0  0  0  0  # atno 10763 bound_to 10752
  154.7536  135.3112  154.8514 H   0  0  0  0  0  0  0  0  0  0  0  0  # atno 10764 bound_to 10752
  153.9088  135.6867  153.4805 H   0  0  0  0  0  0  0  0  0  0  0  0  # atno 10765 bound_to 10752
  140.3465  134.7232  157.4238 H   0  0  0  0  0  0  0  0  0  0  0  0  # atno 11005 bound_to 11000
  144.6735  140.1663  143.7418 LP  0  0  0  0  0  0  0  0  0  0  0  0  # atno 17320 bound_to 7965
  145.8802  139.2319  143.1610 LP  0  0  0  0  0  0  0  0  0  0  0  0  # atno 17321 bound_to 7965
  139.9759  143.6005  152.2959 LP  0  0  0  0  0  0  0  0  0  0  0  0  # atno 17342 bound_to 10162
  139.6608  144.7662  151.1966 LP  0  0  0  0  0  0  0  0  0  0  0  0  # atno 17343 bound_to 10162
  157.7290  131.0627  150.5794 LP  0  0  0  0  0  0  0  0  0  0  0  0  # atno 17370 bound_to 10713
  156.5892  130.4325  149.5944 LP  0  0  0  0  0  0  0  0  0  0  0  0  # atno 17371 bound_to 10713
  140.0738  134.5825  155.8613 LP  0  0  0  0  0  0  0  0  0  0  0  0  # atno 17394 bound_to 11000
  141.2024  133.6625  156.6005 LP  0  0  0  0  0  0  0  0  0  0  0  0  # atno 17395 bound_to 11000

$$$$
