AV-unprocessed.smi:1641|AV-procd|sdf|6557|dock6
  -GOLD-   22720 7243D 1   1.00000     0.00000
 Structure written by MMmdl.
 41 42  0  0  0  0  0  0  0  0  1 V2000
  149.0849  132.0602  154.6342 C   0  0  0  0  0  0  0  0  0  0  0  0
  149.6209  133.1973  155.4349 C   0  0  0  0  0  0  0  0  0  0  0  0
  149.8795  133.1011  156.7446 N   0  0  0  0  0  0  0  0  0  0  0  0
  150.3702  134.2873  157.2722 N   0  0  0  0  0  0  0  0  0  0  0  0
  150.4676  135.2462  156.3410 C   0  0  0  0  0  0  0  0  0  0  0  0
  150.9394  136.5589  156.6057 N   0  0  0  0  0  0  0  0  0  0  0  0
  151.0230  137.1900  157.7898 C   0  0  0  0  0  0  0  0  0  0  0  0
  150.7235  136.6992  158.8784 O   0  0  0  0  0  0  0  0  0  0  0  0
  151.4786  138.4426  157.6403 N   0  0  0  0  0  0  0  0  0  0  0  0
  151.6330  139.4186  158.7152 C   0  0  0  0  0  0  0  0  0  0  0  0
  152.7858  140.3995  158.4249 C   0  0  0  0  0  0  0  0  0  0  0  0
  152.7016  141.6901  159.1085 N   0  0  0  0  0  0  0  0  0  0  0  0
  151.4329  142.3741  158.8690 C   0  0  0  0  0  0  0  0  0  0  0  0
  151.3514  143.7345  159.5895 C   0  0  2  0  0  0  0  0  0  0  0  0
  152.2242  144.8210  158.9370 C   0  0  0  0  0  0  0  0  0  0  0  0
  151.6491  143.5759  160.9780 O   0  0  0  0  0  0  0  0  0  0  0  0
  152.8752  142.9052  161.2645 C   0  0  1  0  0  0  0  0  0  0  0  0
  152.9934  142.7549  162.7848 C   0  0  0  0  0  0  0  0  0  0  0  0
  152.8954  141.5445  160.5444 C   0  0  0  0  0  0  0  0  0  0  0  0
  149.9558  134.7740  154.7299 S   0  0  0  0  0  0  0  0  0  0  0  0
  149.4154  131.1096  155.0537 H   0  0  0  0  0  0  0  0  0  0  0  0
  149.4362  132.1266  153.6044 H   0  0  0  0  0  0  0  0  0  0  0  0
  147.9952  132.0854  154.6358 H   0  0  0  0  0  0  0  0  0  0  0  0
  151.2356  137.0838  155.7963 H   0  0  0  0  0  0  0  0  0  0  0  0
  151.7050  138.7573  156.7084 H   0  0  0  0  0  0  0  0  0  0  0  0
  150.6989  139.9433  158.9186 H   0  0  0  0  0  0  0  0  0  0  0  0
  151.8625  138.8649  159.6258 H   0  0  0  0  0  0  0  0  0  0  0  0
  153.7346  139.9198  158.6693 H   0  0  0  0  0  0  0  0  0  0  0  0
  152.8096  140.5694  157.3475 H   0  0  0  0  0  0  0  0  0  0  0  0
  151.2724  142.5290  157.8031 H   0  0  0  0  0  0  0  0  0  0  0  0
  150.6119  141.7431  159.2125 H   0  0  0  0  0  0  0  0  0  0  0  0
  150.3190  144.0806  159.5350 H   0  0  0  0  0  0  0  0  0  0  0  0
  151.9024  145.0119  157.9130 H   0  0  0  0  0  0  0  0  0  0  0  0
  153.2752  144.5353  158.8967 H   0  0  0  0  0  0  0  0  0  0  0  0
  152.1526  145.7601  159.4858 H   0  0  0  0  0  0  0  0  0  0  0  0
  153.7094  143.5142  160.9150 H   0  0  0  0  0  0  0  0  0  0  0  0
  153.9277  142.2643  163.0591 H   0  0  0  0  0  0  0  0  0  0  0  0
  152.1721  142.1619  163.1881 H   0  0  0  0  0  0  0  0  0  0  0  0
  152.9738  143.7287  163.2746 H   0  0  0  0  0  0  0  0  0  0  0  0
  152.1194  140.8980  160.9580 H   0  0  0  0  0  0  0  0  0  0  0  0
  153.8485  141.0514  160.7398 H   0  0  0  0  0  0  0  0  0  0  0  0
  1  2  1  0  0  0  0
  1 21  1  0  0  0  0
  1 22  1  0  0  0  0
  1 23  1  0  0  0  0
  2 20  1  0  0  0  0
  2  3  2  0  0  0  0
  3  4  1  0  0  0  0
  4  5  2  0  0  0  0
  5  6  1  0  0  0  0
  5 20  1  0  0  0  0
  6  7  1  0  0  0  0
  6 24  1  0  0  0  0
  7  8  2  0  0  0  0
  7  9  1  0  0  0  0
  9 10  1  0  0  0  0
  9 25  1  0  0  0  0
 10 11  1  0  0  0  0
 10 26  1  0  0  0  0
 10 27  1  0  0  0  0
 11 12  1  0  0  0  0
 11 28  1  0  0  0  0
 11 29  1  0  0  0  0
 12 19  1  0  0  0  0
 12 13  1  0  0  0  0
 13 14  1  0  0  0  0
 13 30  1  0  0  0  0
 13 31  1  0  0  0  0
 14 15  1  0  0  0  0
 14 16  1  0  0  0  0
 14 32  1  0  0  0  0
 15 33  1  0  0  0  0
 15 34  1  0  0  0  0
 15 35  1  0  0  0  0
 16 17  1  0  0  0  0
 17 18  1  0  0  0  0
 17 19  1  0  0  0  0
 17 36  1  0  0  0  0
 18 37  1  0  0  0  0
 18 38  1  0  0  0  0
 18 39  1  0  0  0  0
 19 40  1  0  0  0  0
 19 41  1  0  0  0  0
M  END
> <s_m_source_file>
AV-unprocessed.smi

> <i_m_source_file_index>
1641

> <i_lp_mmshare_version>
43012

> <i_f3d_flags>
0

> <s_epik_input>
W0NIM11jMW5uYyhzMSlbTkhdQyg9TylbTkhdW0NIMl1bQ0gyXU4yW0NIMl1bQ0BASF0oW0NIM10pT1tDQEBIXShbQ0gzXSlbQ0gyXTI=

> <s_epik_cmdline>
J2VwaWtfcHl0aG9uJywgJy1waCcsICc3LjAnLCAnLXRuJywgJzgnLCAnLW1hJywgJzIwMCcsICctbWV0YWxfYmluZGluZycsICctaW1hZScsICc8aW5maWxlLm1hZT4nLCAnLW9tYWUnLCAnPG91dGZpbGUubWFlPic=

> <r_lp_tautomer_probability>
1

> <r_epik_Ionization_Penalty>
0.221104

> <r_epik_Ionization_Penalty_Charging>
0

> <r_epik_Ionization_Penalty_Neutral>
0.221104

> <r_epik_State_Penalty>
0.209349

> <r_epik_Charging_Adjusted_Penalty>
0.209349

> <i_epik_Tot_Q>
0

> <i_epik_Tot_abs_Q>
0

> <r_epik_Metal_State_Penalty>
0.560954

> <b_epik_Metal_Only>
0

> <s_lp_Force_Field>
OPLS_2005

> <r_lp_Energy>
24.8312

> <b_lp_Chiralities_Consistent>
1

> <s_lp_Variant>
AV-unprocessed.smi:1641-2

> <Gold.Version>
5.8.1

> <Gold.Id.Protein>
6NUR|6NUR_protein|mol2

> <Gold.PLP.Fitness>
40.8720

> <Gold.PLP.PLP>
-37.0566

> <Gold.PLP.part.hbond>
-2.1527

> <Gold.PLP.part.metal>
0.0000

> <Gold.PLP.part.buried>
-5.5333

> <Gold.PLP.part.nonpolar>
-29.5060

> <Gold.PLP.part.repulsive>
0.2712

> <Gold.PLP.ligand.clash>
0.0000

> <Gold.PLP.ligand.torsion>
0.4228

> <Gold.PLP.Chemscore.Hbond>
1.5520

> <Gold.PLP.Chemscore.CHOScore>
0.0000

> <Gold.PLP.Chemscore.Metal>
0.0000

> <Gold.Chemscore.Hbonds>
donor molecule, donor type, donor heavy atom, donor atom, acceptor molecule, acceptor atom, score
      P1  H  6896  6908       L1     4  0.47
      P1  H  6896  6909       L1     8  0.96

> <Gold.PLP.Chemscore.Internal.Correction>
0.0049

> <Gold.Rescore>
     Score         DG    S(hbond)    S(metal)    S(lipo)     H(rot)  DE(clash)    DE(int)     intcor
     15.96     -17.60       1.64        0.00      91.62       1.60       0.00       1.64       ----

> <Gold.Chemscore.Fitness>
15.9579

> <Gold.Chemscore.DG>
-17.6015

> <Gold.Chemscore.ZeroCoef>
-5.4800

> <Gold.Chemscore.Hbond>
1.6440

> <Gold.Chemscore.Metal>
0.0000

> <Gold.Chemscore.Lipo>
91.6234

> <Gold.Chemscore.Internal_Hbond>
0.0000

> <Gold.Chemscore.DEClash>
0.0038

> <Gold.Chemscore.DEInternal>
1.6397

> <Gold.Chemscore.Rot>
1.5975

> <Gold.Chemscore.Internal.Correction>
   9.000000E+99

> <Gold.Chemscore.Hbonds>
donor molecule, donor type, donor heavy atom, donor atom, acceptor molecule, acceptor atom, score
      P1  H  6896  6908       L1     4  0.14
      P1  H  6896  6909       L1     8  0.91

> <Gold.Chemscore.Hbond.Weighted>
-5.4911

> <Gold.Chemscore.Metal.Weighted>
-0.0000

> <Gold.Chemscore.Lipo.Weighted>
-10.7199

> <Gold.Chemscore.Internal_Hbond.Weighted>
0.0000

> <Gold.Chemscore.DEClash.Weighted>
0.0038

> <Gold.Chemscore.DEInternal.Weighted>
1.6397

> <Gold.Chemscore.Rot.Weighted>
4.0896

> <Gold.Chemscore.Internal.Correction.Weighted>
   9.000000E+99

> <Gold.Protein.RotatedTorsions>
[ 6907 6896 6895 6894 ] final  106.38 input  -60.11 | X-H torsion
[ 7974 7965 7964 7962 ] final  158.54 input  175.53 | X-H torsion
[ 8008 7997 7996 7995 ] final   15.87 input   59.86 | X-H torsion
[ 10167 10162 10161 10158 ] final   92.16 input  -65.29 | X-H torsion
[ 10718 10713 10712 10709 ] final  -13.02 input   66.30 | X-H torsion
[ 10763 10752 10751 10750 ] final  144.93 input  -60.55 | X-H torsion
[ 11005 11000 10999 10996 ] final -171.46 input  -57.11 | X-H torsion

> <Gold.Protein.ActiveResidues>
 VAL166  LYS551  ARG553  GLY616  TRP617  ASP618  TYR619  PRO620  LYS621  CYS622 
 ASP623  PHE694  ASN695  SER759  ASP760  ASP761  ALA762  ILE779  LEU786  VAL792 
 PHE793  MET794  SER795  GLU796  ALA797  LYS798  CYS799  TRP800  GLU811  SER814 

> <Gold.Protein.RotatedAtoms>
  152.5195  133.9389  159.7616 H   0  0  0  0  0  0  0  0  0  0  0  0  # atno 6907 bound_to 6896
  150.9723  133.6323  159.2743 H   0  0  0  0  0  0  0  0  0  0  0  0  # atno 6908 bound_to 6896
  151.3529  135.0894  159.9462 H   0  0  0  0  0  0  0  0  0  0  0  0  # atno 6909 bound_to 6896
  144.7840  139.7493  143.6248 H   0  0  0  0  0  0  0  0  0  0  0  0  # atno 7974 bound_to 7965
  154.8689  140.2955  155.5493 H   0  0  0  0  0  0  0  0  0  0  0  0  # atno 8008 bound_to 7997
  156.3021  140.2464  156.3607 H   0  0  0  0  0  0  0  0  0  0  0  0  # atno 8009 bound_to 7997
  154.8838  140.0397  157.1787 H   0  0  0  0  0  0  0  0  0  0  0  0  # atno 8010 bound_to 7997
  139.8304  144.6690  150.9407 H   0  0  0  0  0  0  0  0  0  0  0  0  # atno 10167 bound_to 10162
  156.6362  130.4915  149.6111 H   0  0  0  0  0  0  0  0  0  0  0  0  # atno 10718 bound_to 10713
  153.9970  135.2927  155.3406 H   0  0  0  0  0  0  0  0  0  0  0  0  # atno 10763 bound_to 10752
  154.7181  135.5121  153.8773 H   0  0  0  0  0  0  0  0  0  0  0  0  # atno 10764 bound_to 10752
  153.0783  135.6671  154.0216 H   0  0  0  0  0  0  0  0  0  0  0  0  # atno 10765 bound_to 10752
  140.5079  134.5830  157.5009 H   0  0  0  0  0  0  0  0  0  0  0  0  # atno 11005 bound_to 11000
  146.2062  139.5388  142.9711 LP  0  0  0  0  0  0  0  0  0  0  0  0  # atno 17320 bound_to 7965
  145.5973  141.0361  143.2037 LP  0  0  0  0  0  0  0  0  0  0  0  0  # atno 17321 bound_to 7965
  140.7807  143.4006  151.1155 LP  0  0  0  0  0  0  0  0  0  0  0  0  # atno 17342 bound_to 10162
  139.7660  143.8564  152.3111 LP  0  0  0  0  0  0  0  0  0  0  0  0  # atno 17343 bound_to 10162
  156.2195  130.6728  151.1354 LP  0  0  0  0  0  0  0  0  0  0  0  0  # atno 17370 bound_to 10713
  157.7185  131.0696  150.6232 LP  0  0  0  0  0  0  0  0  0  0  0  0  # atno 17371 bound_to 10713
  139.9675  134.7348  156.0108 LP  0  0  0  0  0  0  0  0  0  0  0  0  # atno 17394 bound_to 11000
  141.1401  133.6566  156.3705 LP  0  0  0  0  0  0  0  0  0  0  0  0  # atno 17395 bound_to 11000

$$$$
