AV-unprocessed.smi:2672|AV-procd|sdf|10354|dock3
  -GOLD-   2272014383D 1   1.00000     0.00000
 Structure written by MMmdl.
 36 36  0  0  0  0  0  0  0  0  2 V2000
  154.2033  140.5421  160.7659 C   0  0  0  0  0  0  0  0  0  0  0  0
  153.1565  141.4323  160.1131 C   0  0  0  0  0  0  0  0  0  0  0  0
  152.8791  142.6321  160.6585 C   0  0  0  0  0  0  0  0  0  0  0  0
  151.8784  143.5379  160.1071 C   0  0  0  0  0  0  0  0  0  0  0  0
  151.6530  144.6334  160.6248 O   0  0  0  0  0  0  0  0  0  0  0  0
  151.2010  143.0876  159.0072 N   0  0  0  0  0  0  0  0  0  0  0  0
  150.0727  143.9134  158.5108 C   0  0  0  0  0  0  0  0  0  0  0  0
  149.0223  144.2498  159.5814 C   0  0  0  0  0  0  0  0  0  0  0  0
  149.2264  144.0103  160.7722 O   0  0  0  0  0  0  0  0  0  0  0  0
  147.8945  144.8196  159.1300 N   0  0  0  0  0  0  0  0  0  0  0  0
  146.7635  145.2320  159.9562 C   0  0  0  0  0  0  0  0  0  0  0  0
  147.2319  146.2771  160.9771 C   0  0  0  0  0  0  0  0  0  0  0  0
  146.1262  144.0143  160.6447 C   0  0  0  0  0  0  0  0  0  0  0  0
  151.5205  141.8475  158.3750 C   0  0  0  0  0  0  0  0  0  0  0  0
  150.7771  141.5232  157.0723 C   0  0  0  0  0  0  0  0  0  0  0  0
  152.4591  141.0188  158.9014 C   0  0  0  0  0  0  0  0  0  0  0  0
  152.8138  139.6454  158.2440 C   0  0  0  0  0  0  0  0  0  0  0  0
  153.0858  138.7155  159.0343 O   0  0  0  0  0  0  0  0  0  0  0  0
  152.7939  139.6145  156.9941 O   0  5  0  0  0  0  0  0  0  0  0  0
  154.5976  140.9837  161.6815 H   0  0  0  0  0  0  0  0  0  0  0  0
  155.0397  140.3784  160.0860 H   0  0  0  0  0  0  0  0  0  0  0  0
  153.7731  139.5734  161.0225 H   0  0  0  0  0  0  0  0  0  0  0  0
  153.4039  142.9420  161.5503 H   0  0  0  0  0  0  0  0  0  0  0  0
  150.4224  144.8326  158.0420 H   0  0  0  0  0  0  0  0  0  0  0  0
  149.5594  143.4081  157.6906 H   0  0  0  0  0  0  0  0  0  0  0  0
  147.8143  144.9814  158.1367 H   0  0  0  0  0  0  0  0  0  0  0  0
  146.0133  145.7037  159.3188 H   0  0  0  0  0  0  0  0  0  0  0  0
  146.3997  146.6288  161.5876 H   0  0  0  0  0  0  0  0  0  0  0  0
  147.6641  147.1461  160.4800 H   0  0  0  0  0  0  0  0  0  0  0  0
  147.9867  145.8667  161.6488 H   0  0  0  0  0  0  0  0  0  0  0  0
  145.2765  144.3133  161.2588 H   0  0  0  0  0  0  0  0  0  0  0  0
  146.8413  143.5043  161.2911 H   0  0  0  0  0  0  0  0  0  0  0  0
  145.7625  143.2904  159.9145 H   0  0  0  0  0  0  0  0  0  0  0  0
  151.3653  140.8865  156.4130 H   0  0  0  0  0  0  0  0  0  0  0  0
  150.5557  142.4040  156.4726 H   0  0  0  0  0  0  0  0  0  0  0  0
  149.8446  141.0029  157.2909 H   0  0  0  0  0  0  0  0  0  0  0  0
  1  2  1  0  0  0  0
  1 20  1  0  0  0  0
  1 21  1  0  0  0  0
  1 22  1  0  0  0  0
  2 16  1  0  0  0  0
  2  3  2  0  0  0  0
  3  4  1  0  0  0  0
  3 23  1  0  0  0  0
  4  5  2  0  0  0  0
  4  6  1  0  0  0  0
  6  7  1  0  0  0  0
  6 14  1  0  0  0  0
  7  8  1  0  0  0  0
  7 24  1  0  0  0  0
  7 25  1  0  0  0  0
  8  9  2  0  0  0  0
  8 10  1  0  0  0  0
 10 11  1  0  0  0  0
 10 26  1  0  0  0  0
 11 12  1  0  0  0  0
 11 13  1  0  0  0  0
 11 27  1  0  0  0  0
 12 28  1  0  0  0  0
 12 29  1  0  0  0  0
 12 30  1  0  0  0  0
 13 31  1  0  0  0  0
 13 32  1  0  0  0  0
 13 33  1  0  0  0  0
 14 15  1  0  0  0  0
 14 16  2  0  0  0  0
 15 34  1  0  0  0  0
 15 35  1  0  0  0  0
 15 36  1  0  0  0  0
 16 17  1  0  0  0  0
 17 18  2  0  0  0  0
 17 19  1  0  0  0  0
M  CHG  1  19  -1
M  END
> <s_m_source_file>
AV-unprocessed.smi

> <i_m_source_file_index>
2672

> <i_lp_mmshare_version>
43012

> <i_f3d_flags>
0

> <s_epik_input>
W0NIM11jMVtjSF1jKD1PKW4oYyhbQ0gzXSljMUMoPU8pW09IXSlbQ0gyXUMoPU8pW05IXVtDSF0oW0NIM10pW0NIM10=

> <s_epik_cmdline>
J2VwaWtfcHl0aG9uJywgJy1waCcsICc3LjAnLCAnLXRuJywgJzgnLCAnLW1hJywgJzIwMCcsICctbWV0YWxfYmluZGluZycsICctaW1hZScsICc8aW5maWxlLm1hZT4nLCAnLW9tYWUnLCAnPG91dGZpbGUubWFlPic=

> <r_lp_tautomer_probability>
1

> <r_epik_Ionization_Penalty>
0.000277152

> <r_epik_Ionization_Penalty_Charging>
0.000277132

> <r_epik_Ionization_Penalty_Neutral>
2.06705e-08

> <r_epik_State_Penalty>
-0

> <r_epik_Charging_Adjusted_Penalty>
0.000277132

> <i_epik_Tot_Q>
-1

> <i_epik_Tot_abs_Q>
1

> <r_epik_Metal_State_Penalty>
-0

> <b_epik_Metal_Only>
0

> <s_lp_Force_Field>
OPLS_2005

> <r_lp_Energy>
18.8997

> <b_lp_Chiralities_Consistent>
1

> <s_lp_Variant>
AV-unprocessed.smi:2672-1

> <Gold.Version>
5.8.1

> <Gold.Id.Protein>
6NUR|6NUR_protein|mol2

> <Gold.PLP.Fitness>
43.9704

> <Gold.PLP.PLP>
-35.2567

> <Gold.PLP.part.hbond>
-2.7441

> <Gold.PLP.part.metal>
0.0000

> <Gold.PLP.part.buried>
-2.5320

> <Gold.PLP.part.nonpolar>
-29.7618

> <Gold.PLP.part.repulsive>
0.4617

> <Gold.PLP.ligand.clash>
0.0000

> <Gold.PLP.ligand.torsion>
0.6483

> <Gold.PLP.Chemscore.Hbond>
2.9920

> <Gold.PLP.Chemscore.CHOScore>
0.0000

> <Gold.PLP.Chemscore.Metal>
0.0000

> <Gold.Chemscore.Hbonds>
donor molecule, donor type, donor heavy atom, donor atom, acceptor molecule, acceptor atom, score
      L1  H    10    26       P1  8029  0.33
      P1  H  6933  6944       L1     9  0.51
      P1  H  7997  8010       L1    19  2.00

> <Gold.PLP.Chemscore.Internal.Correction>
1.0343

> <Gold.Rescore>
     Score         DG    S(hbond)    S(metal)    S(lipo)     H(rot)  DE(clash)    DE(int)     intcor
      9.21     -18.02       2.29        0.00      74.56       1.50       0.18       8.64       ----

> <Gold.Chemscore.Fitness>
9.2075

> <Gold.Chemscore.DG>
-18.0229

> <Gold.Chemscore.ZeroCoef>
-5.4800

> <Gold.Chemscore.Hbond>
2.2917

> <Gold.Chemscore.Metal>
0.0000

> <Gold.Chemscore.Lipo>
74.5596

> <Gold.Chemscore.Internal_Hbond>
0.0000

> <Gold.Chemscore.DEClash>
0.1759

> <Gold.Chemscore.DEInternal>
8.6394

> <Gold.Chemscore.Rot>
1.4980

> <Gold.Chemscore.Internal.Correction>
   9.000000E+99

> <Gold.Chemscore.Hbonds>
donor molecule, donor type, donor heavy atom, donor atom, acceptor molecule, acceptor atom, score
      L1  H    10    26       P1  8029  0.30
      P1  H  6933  6944       L1     9  0.47
      P1  H  7997  8010       L1    19  0.40

> <Gold.Chemscore.Hbond.Weighted>
-7.6544

> <Gold.Chemscore.Metal.Weighted>
-0.0000

> <Gold.Chemscore.Lipo.Weighted>
-8.7235

> <Gold.Chemscore.Internal_Hbond.Weighted>
0.0000

> <Gold.Chemscore.DEClash.Weighted>
0.1759

> <Gold.Chemscore.DEInternal.Weighted>
8.6394

> <Gold.Chemscore.Rot.Weighted>
3.8350

> <Gold.Chemscore.Internal.Correction.Weighted>
   9.000000E+99

> <Gold.Protein.RotatedTorsions>
[ 6907 6896 6895 6894 ] final  160.83 input  -60.11 | X-H torsion
[ 7974 7965 7964 7962 ] final -100.69 input  175.53 | X-H torsion
[ 8008 7997 7996 7995 ] final   64.53 input   59.86 | X-H torsion
[ 10167 10162 10161 10158 ] final -140.12 input  -65.29 | X-H torsion
[ 10718 10713 10712 10709 ] final  -34.54 input   66.30 | X-H torsion
[ 10763 10752 10751 10750 ] final -154.86 input  -60.55 | X-H torsion
[ 11005 11000 10999 10996 ] final  136.98 input  -57.11 | X-H torsion

> <Gold.Protein.ActiveResidues>
 VAL166  LYS551  ARG553  GLY616  TRP617  ASP618  TYR619  PRO620  LYS621  CYS622 
 ASP623  PHE694  ASN695  SER759  ASP760  ASP761  ALA762  ILE779  LEU786  VAL792 
 PHE793  MET794  SER795  GLU796  ALA797  LYS798  CYS799  TRP800  GLU811  SER814 

> <Gold.Protein.RotatedAtoms>
  151.9648  133.3706  159.4048 H   0  0  0  0  0  0  0  0  0  0  0  0  # atno 6907 bound_to 6896
  150.6958  134.4203  159.5211 H   0  0  0  0  0  0  0  0  0  0  0  0  # atno 6908 bound_to 6896
  152.1897  134.8682  160.0569 H   0  0  0  0  0  0  0  0  0  0  0  0  # atno 6909 bound_to 6896
  145.2913  140.9353  143.2876 H   0  0  0  0  0  0  0  0  0  0  0  0  # atno 7974 bound_to 7965
  155.6475  140.3497  155.4736 H   0  0  0  0  0  0  0  0  0  0  0  0  # atno 8008 bound_to 7997
  155.9875  140.1187  157.0693 H   0  0  0  0  0  0  0  0  0  0  0  0  # atno 8009 bound_to 7997
  154.4209  140.1126  156.5506 H   0  0  0  0  0  0  0  0  0  0  0  0  # atno 8010 bound_to 7997
  139.8312  143.7444  152.2666 H   0  0  0  0  0  0  0  0  0  0  0  0  # atno 10167 bound_to 10162
  156.3493  130.4306  149.7718 H   0  0  0  0  0  0  0  0  0  0  0  0  # atno 10718 bound_to 10713
  154.7829  135.3180  154.7951 H   0  0  0  0  0  0  0  0  0  0  0  0  # atno 10763 bound_to 10752
  153.8658  135.6849  153.4783 H   0  0  0  0  0  0  0  0  0  0  0  0  # atno 10764 bound_to 10752
  153.1471  135.4715  154.9520 H   0  0  0  0  0  0  0  0  0  0  0  0  # atno 10765 bound_to 10752
  140.0083  134.9450  157.0222 H   0  0  0  0  0  0  0  0  0  0  0  0  # atno 11005 bound_to 11000
  144.9170  139.4458  143.6559 LP  0  0  0  0  0  0  0  0  0  0  0  0  # atno 17320 bound_to 7965
  146.3184  139.8010  142.8965 LP  0  0  0  0  0  0  0  0  0  0  0  0  # atno 17321 bound_to 7965
  139.7652  144.7494  151.0305 LP  0  0  0  0  0  0  0  0  0  0  0  0  # atno 17342 bound_to 10162
  140.7806  143.4706  151.0152 LP  0  0  0  0  0  0  0  0  0  0  0  0  # atno 17343 bound_to 10162
  156.4924  130.8091  151.3100 LP  0  0  0  0  0  0  0  0  0  0  0  0  # atno 17370 bound_to 10713
  157.7459  130.9971  150.2803 LP  0  0  0  0  0  0  0  0  0  0  0  0  # atno 17371 bound_to 10713
  140.4601  134.1493  155.7190 LP  0  0  0  0  0  0  0  0  0  0  0  0  # atno 17394 bound_to 11000
  141.1693  133.8641  157.1621 LP  0  0  0  0  0  0  0  0  0  0  0  0  # atno 17395 bound_to 11000

$$$$
