AV-unprocessed.smi:1754|AV-procd|sdf|7065|dock9
  -GOLD-   22720 8283D 1   1.00000     0.00000
 Structure written by MMmdl.
 45 46  0  0  0  0  0  0  0  0  2 V2000
  152.7134  142.2516  159.9016 C   0  0  0  0  0  0  0  0  0  0  0  0
  153.0323  142.5734  158.4356 C   0  0  0  0  0  0  0  0  0  0  0  0
  151.8338  142.9178  157.6718 N   0  0  0  0  0  0  0  0  0  0  0  0
  151.2083  144.2205  157.8850 C   0  0  0  0  0  0  0  0  0  0  0  0
  151.9515  145.0544  158.9370 C   0  0  0  0  0  0  0  0  0  0  0  0
  151.3181  142.0241  156.7044 C   0  0  0  0  0  0  0  0  0  0  0  0
  152.0773  140.9745  156.1303 C   0  0  0  0  0  0  0  0  0  0  0  0
  151.4926  140.1211  155.1720 C   0  0  0  0  0  0  0  0  0  0  0  0
  150.1415  140.3147  154.7954 C   0  0  0  0  0  0  0  0  0  0  0  0
  149.4640  139.5257  153.8275 N   0  0  0  0  0  0  0  0  0  0  0  0
  148.1607  139.1846  153.7851 C   0  0  0  0  0  0  0  0  0  0  0  0
  147.3122  139.5714  154.5856 O   0  0  0  0  0  0  0  0  0  0  0  0
  147.8287  138.3926  152.7497 N   0  0  0  0  0  0  0  0  0  0  0  0
  146.5142  137.8447  152.4107 C   0  0  1  0  0  0  0  0  0  0  0  0
  146.6319  136.7699  151.3139 C   0  0  0  0  0  0  0  0  0  0  0  0
  145.3148  135.9861  151.2466 C   0  0  0  0  0  0  0  0  0  0  0  0
  144.6186  136.0116  152.9425 S   0  0  0  0  0  0  0  0  0  0  0  0
  143.2924  136.6462  152.9021 O   0  0  0  0  0  0  0  0  0  0  0  0
  144.8126  134.6997  153.5783 O   0  0  0  0  0  0  0  0  0  0  0  0
  145.8352  137.1971  153.6282 C   0  0  0  0  0  0  0  0  0  0  0  0
  149.4340  141.3821  155.3825 C   0  0  0  0  0  0  0  0  0  0  0  0
  150.0341  142.1750  156.2959 N   0  3  0  0  0  0  0  0  0  0  0  0
  153.6200  141.9801  160.4429 H   0  0  0  0  0  0  0  0  0  0  0  0
  152.0180  141.4159  159.9822 H   0  0  0  0  0  0  0  0  0  0  0  0
  152.2685  143.1078  160.4094 H   0  0  0  0  0  0  0  0  0  0  0  0
  153.7744  143.3696  158.3725 H   0  0  0  0  0  0  0  0  0  0  0  0
  153.4986  141.7028  157.9732 H   0  0  0  0  0  0  0  0  0  0  0  0
  151.2088  144.7634  156.9393 H   0  0  0  0  0  0  0  0  0  0  0  0
  150.1576  144.1081  158.1520 H   0  0  0  0  0  0  0  0  0  0  0  0
  151.4723  146.0247  159.0684 H   0  0  0  0  0  0  0  0  0  0  0  0
  152.9857  145.2333  158.6418 H   0  0  0  0  0  0  0  0  0  0  0  0
  151.9623  144.5568  159.9069 H   0  0  0  0  0  0  0  0  0  0  0  0
  153.1104  140.8125  156.3975 H   0  0  0  0  0  0  0  0  0  0  0  0
  152.1001  139.3444  154.7344 H   0  0  0  0  0  0  0  0  0  0  0  0
  150.0264  139.2177  153.0476 H   0  0  0  0  0  0  0  0  0  0  0  0
  148.5704  138.1769  152.0990 H   0  0  0  0  0  0  0  0  0  0  0  0
  145.8667  138.6336  152.0229 H   0  0  0  0  0  0  0  0  0  0  0  0
  146.8883  137.2029  150.3464 H   0  0  0  0  0  0  0  0  0  0  0  0
  147.4344  136.0778  151.5743 H   0  0  0  0  0  0  0  0  0  0  0  0
  144.6035  136.4800  150.5841 H   0  0  0  0  0  0  0  0  0  0  0  0
  145.4488  134.9584  150.9088 H   0  0  0  0  0  0  0  0  0  0  0  0
  146.5515  136.6299  154.2242 H   0  0  0  0  0  0  0  0  0  0  0  0
  145.3329  137.9144  154.2775 H   0  0  0  0  0  0  0  0  0  0  0  0
  148.4057  141.6240  155.1558 H   0  0  0  0  0  0  0  0  0  0  0  0
  149.4871  142.9329  156.7048 H   0  0  0  0  0  0  0  0  0  0  0  0
  1  2  1  0  0  0  0
  1 23  1  0  0  0  0
  1 24  1  0  0  0  0
  1 25  1  0  0  0  0
  2  3  1  0  0  0  0
  2 26  1  0  0  0  0
  2 27  1  0  0  0  0
  3  4  1  0  0  0  0
  3  6  1  0  0  0  0
  4  5  1  0  0  0  0
  4 28  1  0  0  0  0
  4 29  1  0  0  0  0
  5 30  1  0  0  0  0
  5 31  1  0  0  0  0
  5 32  1  0  0  0  0
  6 22  1  0  0  0  0
  6  7  2  0  0  0  0
  7  8  1  0  0  0  0
  7 33  1  0  0  0  0
  8  9  2  0  0  0  0
  8 34  1  0  0  0  0
  9 10  1  0  0  0  0
  9 21  1  0  0  0  0
 10 11  1  0  0  0  0
 10 35  1  0  0  0  0
 11 12  2  0  0  0  0
 11 13  1  0  0  0  0
 13 14  1  0  0  0  0
 13 36  1  0  0  0  0
 14 20  1  0  0  0  0
 14 15  1  0  0  0  0
 14 37  1  0  0  0  0
 15 16  1  0  0  0  0
 15 38  1  0  0  0  0
 15 39  1  0  0  0  0
 16 17  1  0  0  0  0
 16 40  1  0  0  0  0
 16 41  1  0  0  0  0
 17 18  2  0  0  0  0
 17 19  2  0  0  0  0
 17 20  1  0  0  0  0
 20 42  1  0  0  0  0
 20 43  1  0  0  0  0
 21 22  2  0  0  0  0
 21 44  1  0  0  0  0
 22 45  1  0  0  0  0
M  CHG  1  22   1
M  END
> <s_m_source_file>
AV-unprocessed.smi

> <i_m_source_file_index>
1754

> <i_lp_mmshare_version>
43012

> <i_f3d_flags>
0

> <s_epik_input>
W0NIM11bQ0gyXU4oW0NIMl1bQ0gzXSljMVtjSF1bY0hdYyhbY0hdbjEpW05IXUMoPU8pW05IXVtDQEBIXShbQ0gyXTIpW0NIMl1bQ0gyXVMyKD1PKT1P

> <s_epik_cmdline>
J2VwaWtfcHl0aG9uJywgJy1waCcsICc3LjAnLCAnLXRuJywgJzgnLCAnLW1hJywgJzIwMCcsICctbWV0YWxfYmluZGluZycsICctaW1hZScsICc8aW5maWxlLm1hZT4nLCAnLW9tYWUnLCAnPG91dGZpbGUubWFlPic=

> <r_lp_tautomer_probability>
0.999994

> <r_epik_Ionization_Penalty>
0.271106

> <r_epik_Ionization_Penalty_Charging>
0.271085

> <r_epik_Ionization_Penalty_Neutral>
2.10634e-05

> <r_epik_State_Penalty>
0.017795

> <r_epik_Charging_Adjusted_Penalty>
0.28888

> <i_epik_Tot_Q>
1

> <i_epik_Tot_abs_Q>
1

> <r_epik_Metal_State_Penalty>
0.0544868

> <b_epik_Metal_Only>
0

> <s_lp_Force_Field>
OPLS_2005

> <r_lp_Energy>
29.9971

> <b_lp_Chiralities_Consistent>
1

> <s_lp_Variant>
AV-unprocessed.smi:1754-2

> <Gold.Version>
5.8.1

> <Gold.Id.Protein>
6NUR|6NUR_protein|mol2

> <Gold.PLP.Fitness>
44.2206

> <Gold.PLP.PLP>
-37.6510

> <Gold.PLP.part.hbond>
-3.6587

> <Gold.PLP.part.metal>
0.0000

> <Gold.PLP.part.buried>
-0.8411

> <Gold.PLP.part.nonpolar>
-34.2339

> <Gold.PLP.part.repulsive>
1.1547

> <Gold.PLP.ligand.clash>
0.0000

> <Gold.PLP.ligand.torsion>
0.6674

> <Gold.PLP.Chemscore.Hbond>
2.6240

> <Gold.PLP.Chemscore.CHOScore>
0.0000

> <Gold.PLP.Chemscore.Metal>
0.0000

> <Gold.Chemscore.Hbonds>
donor molecule, donor type, donor heavy atom, donor atom, acceptor molecule, acceptor atom, score
      L1  H    10    35       P1  7957  0.31
      L1  H    13    36       P1  7948  0.34
      L1  H    22    45       P1  8028  0.72

> <Gold.PLP.Chemscore.Internal.Correction>
0.0324

> <Gold.Rescore>
     Score         DG    S(hbond)    S(metal)    S(lipo)     H(rot)  DE(clash)    DE(int)     intcor
     15.50     -18.19       1.80        0.00      88.11       1.41       1.03       1.66       ----

> <Gold.Chemscore.Fitness>
15.5047

> <Gold.Chemscore.DG>
-18.1920

> <Gold.Chemscore.ZeroCoef>
-5.4800

> <Gold.Chemscore.Hbond>
1.7979

> <Gold.Chemscore.Metal>
0.0000

> <Gold.Chemscore.Lipo>
88.1101

> <Gold.Chemscore.Internal_Hbond>
0.0000

> <Gold.Chemscore.DEClash>
1.0304

> <Gold.Chemscore.DEInternal>
1.6569

> <Gold.Chemscore.Rot>
1.4070

> <Gold.Chemscore.Internal.Correction>
   9.000000E+99

> <Gold.Chemscore.Hbonds>
donor molecule, donor type, donor heavy atom, donor atom, acceptor molecule, acceptor atom, score
      L1  H    10    35       P1  7957  0.30
      L1  H    13    36       P1  7948  0.33
      L1  H    22    45       P1  8028  0.34

> <Gold.Chemscore.Hbond.Weighted>
-6.0051

> <Gold.Chemscore.Metal.Weighted>
-0.0000

> <Gold.Chemscore.Lipo.Weighted>
-10.3089

> <Gold.Chemscore.Internal_Hbond.Weighted>
0.0000

> <Gold.Chemscore.DEClash.Weighted>
1.0304

> <Gold.Chemscore.DEInternal.Weighted>
1.6569

> <Gold.Chemscore.Rot.Weighted>
3.6020

> <Gold.Chemscore.Internal.Correction.Weighted>
   9.000000E+99

> <Gold.Protein.RotatedTorsions>
[ 6907 6896 6895 6894 ] final -124.32 input  -60.11 | X-H torsion
[ 7974 7965 7964 7962 ] final -129.37 input  175.53 | X-H torsion
[ 8008 7997 7996 7995 ] final   83.25 input   59.86 | X-H torsion
[ 10167 10162 10161 10158 ] final   -6.92 input  -65.29 | X-H torsion
[ 10718 10713 10712 10709 ] final   73.34 input   66.30 | X-H torsion
[ 10763 10752 10751 10750 ] final -100.23 input  -60.55 | X-H torsion
[ 11005 11000 10999 10996 ] final   53.77 input  -57.11 | X-H torsion

> <Gold.Protein.ActiveResidues>
 VAL166  LYS551  ARG553  GLY616  TRP617  ASP618  TYR619  PRO620  LYS621  CYS622 
 ASP623  PHE694  ASN695  SER759  ASP760  ASP761  ALA762  ILE779  LEU786  VAL792 
 PHE793  MET794  SER795  GLU796  ALA797  LYS798  CYS799  TRP800  GLU811  SER814 

> <Gold.Protein.RotatedAtoms>
  150.8757  133.7443  159.2947 H   0  0  0  0  0  0  0  0  0  0  0  0  # atno 6907 bound_to 6896
  151.5040  135.1061  159.9846 H   0  0  0  0  0  0  0  0  0  0  0  0  # atno 6908 bound_to 6896
  152.4726  133.8018  159.7012 H   0  0  0  0  0  0  0  0  0  0  0  0  # atno 6909 bound_to 6896
  144.9579  140.7415  143.4747 H   0  0  0  0  0  0  0  0  0  0  0  0  # atno 7974 bound_to 7965
  155.9214  140.3421  155.6176 H   0  0  0  0  0  0  0  0  0  0  0  0  # atno 8008 bound_to 7997
  155.7268  140.0790  157.2325 H   0  0  0  0  0  0  0  0  0  0  0  0  # atno 8009 bound_to 7997
  154.4070  140.1595  156.2451 H   0  0  0  0  0  0  0  0  0  0  0  0  # atno 8010 bound_to 7997
  140.7012  143.6139  150.8677 H   0  0  0  0  0  0  0  0  0  0  0  0  # atno 10167 bound_to 10162
  157.6543  130.9624  150.1056 H   0  0  0  0  0  0  0  0  0  0  0  0  # atno 10718 bound_to 10713
  154.7562  135.4943  153.9379 H   0  0  0  0  0  0  0  0  0  0  0  0  # atno 10763 bound_to 10752
  153.1198  135.6729  153.9362 H   0  0  0  0  0  0  0  0  0  0  0  0  # atno 10764 bound_to 10752
  153.9097  135.3100  155.3427 H   0  0  0  0  0  0  0  0  0  0  0  0  # atno 10765 bound_to 10752
  140.0740  134.5430  155.9016 H   0  0  0  0  0  0  0  0  0  0  0  0  # atno 11005 bound_to 11000
  145.2745  139.1942  143.4824 LP  0  0  0  0  0  0  0  0  0  0  0  0  # atno 17320 bound_to 7965
  146.3343  140.2697  142.8605 LP  0  0  0  0  0  0  0  0  0  0  0  0  # atno 17321 bound_to 7965
  139.9861  143.5897  152.2926 LP  0  0  0  0  0  0  0  0  0  0  0  0  # atno 17342 bound_to 10162
  139.6536  144.7661  151.2100 LP  0  0  0  0  0  0  0  0  0  0  0  0  # atno 17343 bound_to 10162
  156.1966  130.3657  149.8841 LP  0  0  0  0  0  0  0  0  0  0  0  0  # atno 17370 bound_to 10713
  156.6755  130.8837  151.3568 LP  0  0  0  0  0  0  0  0  0  0  0  0  # atno 17371 bound_to 10713
  141.2023  133.6624  156.5996 LP  0  0  0  0  0  0  0  0  0  0  0  0  # atno 17394 bound_to 11000
  140.3584  134.7708  157.4517 LP  0  0  0  0  0  0  0  0  0  0  0  0  # atno 17395 bound_to 11000

$$$$
