AV-unprocessed.smi:3165|AV-procd|sdf|12088|dock1
  -GOLD-   2272017523D 1   1.00000     0.00000
 Structure written by MMmdl.
 38 39  0  0  0  0  0  0  0  0  2 V2000
  149.8738  143.5411  158.6411 C   0  0  0  0  0  0  0  0  0  0  0  0
  151.1986  143.1483  157.9738 C   0  0  1  0  0  0  0  0  0  0  0  0
  151.8920  142.0144  158.7581 C   0  0  0  0  0  0  0  0  0  0  0  0
  152.2242  142.3926  160.1198 N   0  0  0  0  0  0  0  0  0  0  0  0
  152.9456  141.6821  161.0560 C   0  0  0  0  0  0  0  0  0  0  0  0
  152.9792  142.4324  162.1963 C   0  0  0  0  0  0  0  0  0  0  0  0
  152.2447  143.6022  161.8542 C   0  0  0  0  0  0  0  0  0  0  0  0
  151.7951  143.5759  160.6100 N   0  0  0  0  0  0  0  0  0  0  0  0
  150.9452  142.7467  156.5713 N   0  3  0  0  0  0  0  0  0  0  0  0
  150.0735  141.5640  156.4102 C   0  0  0  0  0  0  0  0  0  0  0  0
  150.6607  140.5822  155.3876 C   0  0  1  0  0  0  0  0  0  0  0  0
  151.9161  139.8730  155.9314 C   0  0  0  0  0  0  0  0  0  0  0  0
  152.4167  138.8206  154.9356 C   0  0  0  0  0  0  0  0  0  0  0  0
  151.2710  137.8717  154.5692 C   0  0  0  0  0  0  0  0  0  0  0  0
  150.0466  138.6716  154.0982 C   0  0  0  0  0  0  0  0  0  0  0  0
  149.6619  139.6042  155.1036 O   0  0  0  0  0  0  0  0  0  0  0  0
  150.0332  143.8671  159.6694 H   0  0  0  0  0  0  0  0  0  0  0  0
  149.1748  142.7040  158.6625 H   0  0  0  0  0  0  0  0  0  0  0  0
  149.3939  144.3626  158.1083 H   0  0  0  0  0  0  0  0  0  0  0  0
  151.8410  144.0307  157.9851 H   0  0  0  0  0  0  0  0  0  0  0  0
  151.2408  141.1405  158.8051 H   0  0  0  0  0  0  0  0  0  0  0  0
  152.8012  141.6941  158.2461 H   0  0  0  0  0  0  0  0  0  0  0  0
  153.3661  140.7115  160.8370 H   0  0  0  0  0  0  0  0  0  0  0  0
  153.4567  142.1841  163.1326 H   0  0  0  0  0  0  0  0  0  0  0  0
  152.0256  144.4631  162.4684 H   0  0  0  0  0  0  0  0  0  0  0  0
  150.5198  143.5287  156.0930 H   0  0  0  0  0  0  0  0  0  0  0  0
  149.9688  141.0797  157.3817 H   0  0  0  0  0  0  0  0  0  0  0  0
  149.0744  141.8673  156.0960 H   0  0  0  0  0  0  0  0  0  0  0  0
  150.9145  141.1222  154.4733 H   0  0  0  0  0  0  0  0  0  0  0  0
  152.7046  140.5987  156.1330 H   0  0  0  0  0  0  0  0  0  0  0  0
  151.6842  139.3911  156.8822 H   0  0  0  0  0  0  0  0  0  0  0  0
  152.7895  139.3119  154.0359 H   0  0  0  0  0  0  0  0  0  0  0  0
  153.2524  138.2627  155.3587 H   0  0  0  0  0  0  0  0  0  0  0  0
  151.5903  137.1759  153.7930 H   0  0  0  0  0  0  0  0  0  0  0  0
  151.0005  137.2701  155.4380 H   0  0  0  0  0  0  0  0  0  0  0  0
  150.2585  139.1942  153.1641 H   0  0  0  0  0  0  0  0  0  0  0  0
  149.2113  137.9987  153.9039 H   0  0  0  0  0  0  0  0  0  0  0  0
  151.8301  142.5435  156.1290 H   0  0  0  0  0  0  0  0  0  0  0  0
  1  2  1  0  0  0  0
  1 17  1  0  0  0  0
  1 18  1  0  0  0  0
  1 19  1  0  0  0  0
  2  3  1  0  0  0  0
  2  9  1  0  0  0  0
  2 20  1  0  0  0  0
  3  4  1  0  0  0  0
  3 21  1  0  0  0  0
  3 22  1  0  0  0  0
  4  8  1  0  0  0  0
  4  5  1  0  0  0  0
  5  6  2  0  0  0  0
  5 23  1  0  0  0  0
  6  7  1  0  0  0  0
  6 24  1  0  0  0  0
  7  8  2  0  0  0  0
  7 25  1  0  0  0  0
  9 10  1  0  0  0  0
  9 26  1  0  0  0  0
  9 38  1  0  0  0  0
 10 11  1  0  0  0  0
 10 27  1  0  0  0  0
 10 28  1  0  0  0  0
 11 16  1  0  0  0  0
 11 12  1  0  0  0  0
 11 29  1  0  0  0  0
 12 13  1  0  0  0  0
 12 30  1  0  0  0  0
 12 31  1  0  0  0  0
 13 14  1  0  0  0  0
 13 32  1  0  0  0  0
 13 33  1  0  0  0  0
 14 15  1  0  0  0  0
 14 34  1  0  0  0  0
 14 35  1  0  0  0  0
 15 16  1  0  0  0  0
 15 36  1  0  0  0  0
 15 37  1  0  0  0  0
M  CHG  1   9   1
M  END
> <s_m_source_file>
AV-unprocessed.smi

> <i_m_source_file_index>
3165

> <i_lp_mmshare_version>
43012

> <i_f3d_flags>
0

> <s_epik_input>
bjFbY0hdW2NIXVtjSF1uMVtDSDJdW0NAQEhdKFtDSDNdKVtOSF1bQ0gyXVtDQEBIXTJbQ0gyXVtDSDJdW0NIMl1bQ0gyXU8y

> <s_epik_cmdline>
J2VwaWtfcHl0aG9uJywgJy1waCcsICc3LjAnLCAnLXRuJywgJzgnLCAnLW1hJywgJzIwMCcsICctbWV0YWxfYmluZGluZycsICctaW1hZScsICc8aW5maWxlLm1hZT4nLCAnLW9tYWUnLCAnPG91dGZpbGUubWFlPic=

> <r_lp_tautomer_probability>
1

> <r_epik_Ionization_Penalty>
0.00849196

> <r_epik_Ionization_Penalty_Charging>
0.00848754

> <r_epik_Ionization_Penalty_Neutral>
4.42049e-06

> <r_epik_State_Penalty>
0.00639836

> <r_epik_Charging_Adjusted_Penalty>
0.0148859

> <i_epik_Tot_Q>
1

> <i_epik_Tot_abs_Q>
1

> <r_epik_Metal_State_Penalty>
0.00639878

> <b_epik_Metal_Only>
0

> <s_lp_Force_Field>
OPLS_2005

> <r_lp_Energy>
13.0452

> <b_lp_Chiralities_Consistent>
1

> <s_lp_Variant>
AV-unprocessed.smi:3165-4

> <Gold.Version>
5.8.1

> <Gold.Id.Protein>
6NUR|6NUR_protein|mol2

> <Gold.PLP.Fitness>
46.2754

> <Gold.PLP.PLP>
-41.0374

> <Gold.PLP.part.hbond>
-1.0000

> <Gold.PLP.part.metal>
0.0000

> <Gold.PLP.part.buried>
-3.3442

> <Gold.PLP.part.nonpolar>
-35.7160

> <Gold.PLP.part.repulsive>
0.2159

> <Gold.PLP.ligand.clash>
0.0000

> <Gold.PLP.ligand.torsion>
0.4298

> <Gold.PLP.Chemscore.Hbond>
2.0000

> <Gold.PLP.Chemscore.CHOScore>
0.0000

> <Gold.PLP.Chemscore.Metal>
0.0000

> <Gold.Chemscore.Hbonds>
donor molecule, donor type, donor heavy atom, donor atom, acceptor molecule, acceptor atom, score
      L1  H     9    26       P1  8028  1.85

> <Gold.PLP.Chemscore.Internal.Correction>
0.0976

> <Gold.Rescore>
     Score         DG    S(hbond)    S(metal)    S(lipo)     H(rot)  DE(clash)    DE(int)     intcor
     14.74     -16.69       1.00        0.00     103.27       1.64       0.08       1.87       ----

> <Gold.Chemscore.Fitness>
14.7443

> <Gold.Chemscore.DG>
-16.6930

> <Gold.Chemscore.ZeroCoef>
-5.4800

> <Gold.Chemscore.Hbond>
0.9999

> <Gold.Chemscore.Metal>
0.0000

> <Gold.Chemscore.Lipo>
103.2732

> <Gold.Chemscore.Internal_Hbond>
0.0000

> <Gold.Chemscore.DEClash>
0.0817

> <Gold.Chemscore.DEInternal>
1.8671

> <Gold.Chemscore.Rot>
1.6444

> <Gold.Chemscore.Internal.Correction>
   9.000000E+99

> <Gold.Chemscore.Hbonds>
donor molecule, donor type, donor heavy atom, donor atom, acceptor molecule, acceptor atom, score
      L1  H     9    26       P1  8028  0.85

> <Gold.Chemscore.Hbond.Weighted>
-3.3397

> <Gold.Chemscore.Metal.Weighted>
-0.0000

> <Gold.Chemscore.Lipo.Weighted>
-12.0830

> <Gold.Chemscore.Internal_Hbond.Weighted>
0.0000

> <Gold.Chemscore.DEClash.Weighted>
0.0817

> <Gold.Chemscore.DEInternal.Weighted>
1.8671

> <Gold.Chemscore.Rot.Weighted>
4.2097

> <Gold.Chemscore.Internal.Correction.Weighted>
   9.000000E+99

> <Gold.Protein.RotatedTorsions>
[ 6907 6896 6895 6894 ] final -118.92 input  -60.11 | X-H torsion
[ 7974 7965 7964 7962 ] final  107.11 input  175.53 | X-H torsion
[ 8008 7997 7996 7995 ] final  177.89 input   59.86 | X-H torsion
[ 10167 10162 10161 10158 ] final  -39.84 input  -65.29 | X-H torsion
[ 10718 10713 10712 10709 ] final  -45.48 input   66.30 | X-H torsion
[ 10763 10752 10751 10750 ] final  -58.71 input  -60.55 | X-H torsion
[ 11005 11000 10999 10996 ] final  159.73 input  -57.11 | X-H torsion

> <Gold.Protein.ActiveResidues>
 VAL166  LYS551  ARG553  GLY616  TRP617  ASP618  TYR619  PRO620  LYS621  CYS622 
 ASP623  PHE694  ASN695  SER759  ASP760  ASP761  ALA762  ILE779  LEU786  VAL792 
 PHE793  MET794  SER795  GLU796  ALA797  LYS798  CYS799  TRP800  GLU811  SER814 

> <Gold.Protein.RotatedAtoms>
  150.8261  133.8170  159.3118 H   0  0  0  0  0  0  0  0  0  0  0  0  # atno 6907 bound_to 6896
  151.5914  135.1051  160.0049 H   0  0  0  0  0  0  0  0  0  0  0  0  # atno 6908 bound_to 6896
  152.4346  133.7296  159.6636 H   0  0  0  0  0  0  0  0  0  0  0  0  # atno 6909 bound_to 6896
  145.2979  139.2579  143.3830 H   0  0  0  0  0  0  0  0  0  0  0  0  # atno 7974 bound_to 7965
  156.0607  140.1347  156.9944 H   0  0  0  0  0  0  0  0  0  0  0  0  # atno 8008 bound_to 7997
  154.4480  140.0992  156.6584 H   0  0  0  0  0  0  0  0  0  0  0  0  # atno 8009 bound_to 7997
  155.5381  140.3460  155.4443 H   0  0  0  0  0  0  0  0  0  0  0  0  # atno 8010 bound_to 7997
  140.7052  143.3189  151.2840 H   0  0  0  0  0  0  0  0  0  0  0  0  # atno 10167 bound_to 10162
  156.2279  130.4170  149.8911 H   0  0  0  0  0  0  0  0  0  0  0  0  # atno 10718 bound_to 10713
  154.2424  135.6341  153.5212 H   0  0  0  0  0  0  0  0  0  0  0  0  # atno 10763 bound_to 10752
  152.9927  135.5545  154.5896 H   0  0  0  0  0  0  0  0  0  0  0  0  # atno 10764 bound_to 10752
  154.5404  135.2894  155.1075 H   0  0  0  0  0  0  0  0  0  0  0  0  # atno 10765 bound_to 10752
  140.1990  134.8352  157.2997 H   0  0  0  0  0  0  0  0  0  0  0  0  # atno 11005 bound_to 11000
  146.3162  140.3486  142.8654 LP  0  0  0  0  0  0  0  0  0  0  0  0  # atno 17320 bound_to 7965
  144.9118  140.7766  143.5803 LP  0  0  0  0  0  0  0  0  0  0  0  0  # atno 17321 bound_to 7965
  139.6637  144.0143  152.2709 LP  0  0  0  0  0  0  0  0  0  0  0  0  # atno 17342 bound_to 10162
  139.9719  144.6488  150.7981 LP  0  0  0  0  0  0  0  0  0  0  0  0  # atno 17343 bound_to 10162
  156.6535  130.8753  151.3535 LP  0  0  0  0  0  0  0  0  0  0  0  0  # atno 17370 bound_to 10713
  157.7119  130.9451  150.1119 LP  0  0  0  0  0  0  0  0  0  0  0  0  # atno 17371 bound_to 10713
  140.2075  134.4179  155.7630 LP  0  0  0  0  0  0  0  0  0  0  0  0  # atno 17394 bound_to 11000
  141.2227  133.7102  156.8285 LP  0  0  0  0  0  0  0  0  0  0  0  0  # atno 17395 bound_to 11000

$$$$
