AV-unprocessed.smi:346|AV-procd|sdf|2392|dock2
  -GOLD-   2262022323D 1   1.00000     0.00000
 Structure written by MMmdl.
 33 34  0  0  0  0  0  0  0  0  1 V2000
  147.4989  141.3569  154.1249 C   0  0  0  0  0  0  0  0  0  0  0  0
  148.8338  141.7520  154.3876 O   0  0  0  0  0  0  0  0  0  0  0  0
  149.3054  141.2763  155.6365 C   0  0  0  0  0  0  0  0  0  0  0  0
  150.4471  142.1837  156.1101 C   0  0  0  0  0  0  0  0  0  0  0  0
  151.2993  141.5133  157.0793 N   0  0  0  0  0  0  0  0  0  0  0  0
  151.8684  140.2858  156.9808 C   0  0  0  0  0  0  0  0  0  0  0  0
  151.6250  139.2740  155.5485 S   0  0  0  0  0  0  0  0  0  0  0  0
  150.5785  137.9601  156.2467 C   0  0  0  0  0  0  0  0  0  0  0  0
  150.1204  136.9543  155.1932 C   0  0  0  0  0  0  0  0  0  0  0  0
  149.0300  137.2645  154.4866 N   0  0  0  0  0  0  0  0  0  0  0  0
  150.7472  135.9131  155.0109 O   0  0  0  0  0  0  0  0  0  0  0  0
  152.6108  139.9162  158.0265 N   0  0  0  0  0  0  0  0  0  0  0  0
  152.5170  141.0019  158.8740 C   0  0  0  0  0  0  0  0  0  0  0  0
  153.0854  141.2241  160.1486 C   0  0  0  0  0  0  0  0  0  0  0  0
  152.8479  142.4331  160.8352 C   0  0  0  0  0  0  0  0  0  0  0  0
  153.5484  142.6870  162.3911 Cl  0  0  0  0  0  0  0  0  0  0  0  0
  152.0411  143.4348  160.2567 C   0  0  0  0  0  0  0  0  0  0  0  0
  151.4651  143.2328  158.9875 C   0  0  0  0  0  0  0  0  0  0  0  0
  151.7040  142.0230  158.3086 C   0  0  0  0  0  0  0  0  0  0  0  0
  147.1848  141.7495  153.1577 H   0  0  0  0  0  0  0  0  0  0  0  0
  146.8160  141.7433  154.8825 H   0  0  0  0  0  0  0  0  0  0  0  0
  147.4081  140.2705  154.0931 H   0  0  0  0  0  0  0  0  0  0  0  0
  148.4948  141.2761  156.3667 H   0  0  0  0  0  0  0  0  0  0  0  0
  149.6595  140.2490  155.5358 H   0  0  0  0  0  0  0  0  0  0  0  0
  151.0582  142.4890  155.2603 H   0  0  0  0  0  0  0  0  0  0  0  0
  150.0537  143.1016  156.5478 H   0  0  0  0  0  0  0  0  0  0  0  0
  151.1300  137.4300  157.0242 H   0  0  0  0  0  0  0  0  0  0  0  0
  149.7033  138.4098  156.7178 H   0  0  0  0  0  0  0  0  0  0  0  0
  148.6940  136.6330  153.7741 H   0  0  0  0  0  0  0  0  0  0  0  0
  148.5494  138.1346  154.6636 H   0  0  0  0  0  0  0  0  0  0  0  0
  153.7051  140.4623  160.5982 H   0  0  0  0  0  0  0  0  0  0  0  0
  151.8631  144.3591  160.7870 H   0  0  0  0  0  0  0  0  0  0  0  0
  150.8479  143.9988  158.5425 H   0  0  0  0  0  0  0  0  0  0  0  0
  1  2  1  0  0  0  0
  1 20  1  0  0  0  0
  1 21  1  0  0  0  0
  1 22  1  0  0  0  0
  2  3  1  0  0  0  0
  3  4  1  0  0  0  0
  3 23  1  0  0  0  0
  3 24  1  0  0  0  0
  4  5  1  0  0  0  0
  4 25  1  0  0  0  0
  4 26  1  0  0  0  0
  5 19  1  0  0  0  0
  5  6  1  0  0  0  0
  6  7  1  0  0  0  0
  6 12  2  0  0  0  0
  7  8  1  0  0  0  0
  8  9  1  0  0  0  0
  8 27  1  0  0  0  0
  8 28  1  0  0  0  0
  9 10  1  0  0  0  0
  9 11  2  0  0  0  0
 10 29  1  0  0  0  0
 10 30  1  0  0  0  0
 12 13  1  0  0  0  0
 13 19  2  0  0  0  0
 13 14  1  0  0  0  0
 14 15  2  0  0  0  0
 14 31  1  0  0  0  0
 15 16  1  0  0  0  0
 15 17  1  0  0  0  0
 17 18  2  0  0  0  0
 17 32  1  0  0  0  0
 18 19  1  0  0  0  0
 18 33  1  0  0  0  0
M  END
> <s_m_source_file>
AV-unprocessed.smi

> <i_m_source_file_index>
346

> <i_lp_mmshare_version>
43012

> <i_f3d_flags>
0

> <s_epik_input>
W2NIXTFjKENsKVtjSF1bY0hdYyhjMTIpbihbQ0gyXVtDSDJdT1tDSDNdKWMobjIpU1tDSDJdQyg9TylbTkgyXQ==

> <s_epik_cmdline>
J2VwaWtfcHl0aG9uJywgJy1waCcsICc3LjAnLCAnLXRuJywgJzgnLCAnLW1hJywgJzIwMCcsICctbWV0YWxfYmluZGluZycsICctaW1hZScsICc8aW5maWxlLm1hZT4nLCAnLW9tYWUnLCAnPG91dGZpbGUubWFlPic=

> <r_epik_Ionization_Penalty>
0.00801462

> <r_epik_Ionization_Penalty_Charging>
0

> <r_epik_Ionization_Penalty_Neutral>
0.00801462

> <r_epik_State_Penalty>
0.00601782

> <r_epik_Charging_Adjusted_Penalty>
0.00601782

> <i_epik_Tot_Q>
0

> <i_epik_Tot_abs_Q>
0

> <r_epik_Metal_State_Penalty>
0.00593415

> <b_epik_Metal_Only>
0

> <s_lp_Force_Field>
OPLS_2005

> <r_lp_Energy>
4.29965

> <b_lp_Chiralities_Consistent>
1

> <s_lp_Variant>
AV-unprocessed.smi:346-1

> <Gold.Version>
5.8.1

> <Gold.Id.Protein>
6NUR|6NUR_protein|mol2

> <Gold.PLP.Fitness>
48.6474

> <Gold.PLP.PLP>
-40.3988

> <Gold.PLP.part.hbond>
-4.2714

> <Gold.PLP.part.metal>
0.0000

> <Gold.PLP.part.buried>
-5.1456

> <Gold.PLP.part.nonpolar>
-31.4951

> <Gold.PLP.part.repulsive>
0.3687

> <Gold.PLP.ligand.clash>
0.0000

> <Gold.PLP.ligand.torsion>
0.7794

> <Gold.PLP.Chemscore.Hbond>
3.2608

> <Gold.PLP.Chemscore.CHOScore>
0.0000

> <Gold.PLP.Chemscore.Metal>
0.0000

> <Gold.Chemscore.Hbonds>
donor molecule, donor type, donor heavy atom, donor atom, acceptor molecule, acceptor atom, score
      L1  H    10    29       P1  7948  0.80
      P1  H  7997  8008       L1    12  0.44
      P1  H  8011  8017       L1     2  0.09
      P1  H 10752 10765       L1    11  0.46

> <Gold.PLP.Chemscore.Internal.Correction>
0.0250

> <Gold.Rescore>
     Score         DG    S(hbond)    S(metal)    S(lipo)     H(rot)  DE(clash)    DE(int)     intcor
     16.98     -18.01       2.16        0.00     104.05       2.68       0.39       0.64       ----

> <Gold.Chemscore.Fitness>
16.9827

> <Gold.Chemscore.DG>
-18.0098

> <Gold.Chemscore.ZeroCoef>
-5.4800

> <Gold.Chemscore.Hbond>
2.1619

> <Gold.Chemscore.Metal>
0.0000

> <Gold.Chemscore.Lipo>
104.0460

> <Gold.Chemscore.Internal_Hbond>
0.0000

> <Gold.Chemscore.DEClash>
0.3866

> <Gold.Chemscore.DEInternal>
0.6406

> <Gold.Chemscore.Rot>
2.6814

> <Gold.Chemscore.Internal.Correction>
   9.000000E+99

> <Gold.Chemscore.Hbonds>
donor molecule, donor type, donor heavy atom, donor atom, acceptor molecule, acceptor atom, score
      L1  H    10    29       P1  7948  0.78
      P1  H  7997  8008       L1    12  0.04
      P1  H  8011  8017       L1     2  0.06
      P1  H 10752 10765       L1    11  0.46

> <Gold.Chemscore.Hbond.Weighted>
-7.2208

> <Gold.Chemscore.Metal.Weighted>
-0.0000

> <Gold.Chemscore.Lipo.Weighted>
-12.1734

> <Gold.Chemscore.Internal_Hbond.Weighted>
0.0000

> <Gold.Chemscore.DEClash.Weighted>
0.3866

> <Gold.Chemscore.DEInternal.Weighted>
0.6406

> <Gold.Chemscore.Rot.Weighted>
6.8644

> <Gold.Chemscore.Internal.Correction.Weighted>
   9.000000E+99

> <Gold.Protein.RotatedTorsions>
[ 6907 6896 6895 6894 ] final  172.21 input  -60.11 | X-H torsion
[ 7974 7965 7964 7962 ] final  116.04 input  175.53 | X-H torsion
[ 8008 7997 7996 7995 ] final  -86.28 input   59.86 | X-H torsion
[ 10167 10162 10161 10158 ] final  -89.09 input  -65.29 | X-H torsion
[ 10718 10713 10712 10709 ] final  -73.38 input   66.30 | X-H torsion
[ 10763 10752 10751 10750 ] final  174.67 input  -60.55 | X-H torsion
[ 11005 11000 10999 10996 ] final  171.09 input  -57.11 | X-H torsion

> <Gold.Protein.ActiveResidues>
 VAL166  LYS551  ARG553  GLY616  TRP617  ASP618  TYR619  PRO620  LYS621  CYS622 
 ASP623  PHE694  ASN695  SER759  ASP760  ASP761  ALA762  ILE779  LEU786  VAL792 
 PHE793  MET794  SER795  GLU796  ALA797  LYS798  CYS799  TRP800  GLU811  SER814 

> <Gold.Protein.RotatedAtoms>
  151.7880  133.3356  159.3490 H   0  0  0  0  0  0  0  0  0  0  0  0  # atno 6907 bound_to 6896
  150.7402  134.5869  159.5977 H   0  0  0  0  0  0  0  0  0  0  0  0  # atno 6908 bound_to 6896
  152.3230  134.7358  160.0360 H   0  0  0  0  0  0  0  0  0  0  0  0  # atno 6909 bound_to 6896
  145.1845  139.3032  143.4400 H   0  0  0  0  0  0  0  0  0  0  0  0  # atno 7974 bound_to 7965
  154.6501  140.0580  156.9946 H   0  0  0  0  0  0  0  0  0  0  0  0  # atno 8008 bound_to 7997
  155.1384  140.3263  155.4439 H   0  0  0  0  0  0  0  0  0  0  0  0  # atno 8009 bound_to 7997
  156.2572  140.1968  156.6501 H   0  0  0  0  0  0  0  0  0  0  0  0  # atno 8010 bound_to 7997
  140.3682  143.2807  151.9532 H   0  0  0  0  0  0  0  0  0  0  0  0  # atno 10167 bound_to 10162
  156.0282  130.4393  150.2734 H   0  0  0  0  0  0  0  0  0  0  0  0  # atno 10718 bound_to 10713
  154.4572  135.2766  155.1739 H   0  0  0  0  0  0  0  0  0  0  0  0  # atno 10763 bound_to 10752
  154.3542  135.6143  153.5661 H   0  0  0  0  0  0  0  0  0  0  0  0  # atno 10764 bound_to 10752
  152.9851  135.5819  154.4927 H   0  0  0  0  0  0  0  0  0  0  0  0  # atno 10765 bound_to 10752
  140.3153  134.7483  157.4022 H   0  0  0  0  0  0  0  0  0  0  0  0  # atno 11005 bound_to 11000
  146.3447  140.2036  142.8589 LP  0  0  0  0  0  0  0  0  0  0  0  0  # atno 17320 bound_to 7965
  145.0102  140.8708  143.5228 LP  0  0  0  0  0  0  0  0  0  0  0  0  # atno 17321 bound_to 7965
  139.4806  144.5931  151.7738 LP  0  0  0  0  0  0  0  0  0  0  0  0  # atno 17342 bound_to 10162
  140.5059  144.1098  150.5982 LP  0  0  0  0  0  0  0  0  0  0  0  0  # atno 17343 bound_to 10162
  157.0837  131.0150  151.3147 LP  0  0  0  0  0  0  0  0  0  0  0  0  # atno 17370 bound_to 10713
  157.4908  130.7821  149.7505 LP  0  0  0  0  0  0  0  0  0  0  0  0  # atno 17371 bound_to 10713
  140.0989  134.5499  155.8372 LP  0  0  0  0  0  0  0  0  0  0  0  0  # atno 17394 bound_to 11000
  141.2099  133.6689  156.6471 LP  0  0  0  0  0  0  0  0  0  0  0  0  # atno 17395 bound_to 11000

$$$$
