AV-unprocessed.smi:2455|AV-procd|sdf|9699|dock9
  -GOLD-   2272013343D 1   1.00000     0.00000
 Structure written by MMmdl.
 36 36  0  0  0  0  0  0  0  0  2 V2000
  148.1422  139.2479  156.5993 C   0  0  0  0  0  0  0  0  0  0  0  0
  149.6002  139.5437  156.9993 C   0  0  0  0  0  0  0  0  0  0  0  0
  150.4828  138.3083  157.3650 C   0  0  0  0  0  0  0  0  0  0  0  0
  150.4292  137.3194  156.1596 C   0  0  0  0  0  0  0  0  0  0  0  0
  151.0637  137.7994  154.8395 C   0  0  0  0  0  0  0  0  0  0  0  0
  151.9527  138.7452  157.6680 C   0  0  0  0  0  0  0  0  0  0  0  0
  152.0430  139.8344  158.6392 N   0  0  0  0  0  0  0  0  0  0  0  0
  153.1558  140.2451  159.2661 C   0  0  0  0  0  0  0  0  0  0  0  0
  154.2635  139.7360  159.0987 O   0  0  0  0  0  0  0  0  0  0  0  0
  152.9927  141.4140  160.2383 C   0  0  0  0  0  0  0  0  0  0  0  0
  152.4019  142.5651  159.5784 N   0  0  0  0  0  0  0  0  0  0  0  0
  152.9428  143.8215  159.3956 C   0  0  0  0  0  0  0  0  0  0  0  0
  152.0181  144.5695  158.7247 C   0  0  0  0  0  0  0  0  0  0  0  0
  150.9274  143.6740  158.5427 C   0  0  0  0  0  0  0  0  0  0  0  0
  151.1588  142.4769  159.0569 N   0  0  0  0  0  0  0  0  0  0  0  0
  149.8605  137.6104  158.6062 C   0  0  0  0  0  0  0  0  0  0  0  0
  150.3762  136.5481  159.0214 O   0  0  0  0  0  0  0  0  0  0  0  0
  148.8596  138.1535  159.1255 O   0  5  0  0  0  0  0  0  0  0  0  0
  147.6254  140.1715  156.3387 H   0  0  0  0  0  0  0  0  0  0  0  0
  147.5858  138.7869  157.4147 H   0  0  0  0  0  0  0  0  0  0  0  0
  148.0817  138.5881  155.7338 H   0  0  0  0  0  0  0  0  0  0  0  0
  150.0656  140.0971  156.1823 H   0  0  0  0  0  0  0  0  0  0  0  0
  149.5898  140.2463  157.8331 H   0  0  0  0  0  0  0  0  0  0  0  0
  150.9134  136.3818  156.4376 H   0  0  0  0  0  0  0  0  0  0  0  0
  149.3927  137.0474  155.9600 H   0  0  0  0  0  0  0  0  0  0  0  0
  150.9580  137.0356  154.0692 H   0  0  0  0  0  0  0  0  0  0  0  0
  152.1294  138.0003  154.9476 H   0  0  0  0  0  0  0  0  0  0  0  0
  150.5889  138.7035  154.4620 H   0  0  0  0  0  0  0  0  0  0  0  0
  152.5149  137.9130  158.0931 H   0  0  0  0  0  0  0  0  0  0  0  0
  152.4847  139.0017  156.7510 H   0  0  0  0  0  0  0  0  0  0  0  0
  151.1826  140.3203  158.8453 H   0  0  0  0  0  0  0  0  0  0  0  0
  152.3637  141.1062  161.0752 H   0  0  0  0  0  0  0  0  0  0  0  0
  153.9577  141.7071  160.6547 H   0  0  0  0  0  0  0  0  0  0  0  0
  153.9309  144.0740  159.7510 H   0  0  0  0  0  0  0  0  0  0  0  0
  152.1069  145.5992  158.4116 H   0  0  0  0  0  0  0  0  0  0  0  0
  149.9805  143.8575  158.0566 H   0  0  0  0  0  0  0  0  0  0  0  0
  1  2  1  0  0  0  0
  1 19  1  0  0  0  0
  1 20  1  0  0  0  0
  1 21  1  0  0  0  0
  2  3  1  0  0  0  0
  2 22  1  0  0  0  0
  2 23  1  0  0  0  0
  3  4  1  0  0  0  0
  3  6  1  0  0  0  0
  3 16  1  0  0  0  0
  4  5  1  0  0  0  0
  4 24  1  0  0  0  0
  4 25  1  0  0  0  0
  5 26  1  0  0  0  0
  5 27  1  0  0  0  0
  5 28  1  0  0  0  0
  6  7  1  0  0  0  0
  6 29  1  0  0  0  0
  6 30  1  0  0  0  0
  7  8  1  0  0  0  0
  7 31  1  0  0  0  0
  8  9  2  0  0  0  0
  8 10  1  0  0  0  0
 10 11  1  0  0  0  0
 10 32  1  0  0  0  0
 10 33  1  0  0  0  0
 11 15  1  0  0  0  0
 11 12  1  0  0  0  0
 12 13  2  0  0  0  0
 12 34  1  0  0  0  0
 13 14  1  0  0  0  0
 13 35  1  0  0  0  0
 14 15  2  0  0  0  0
 14 36  1  0  0  0  0
 16 17  2  0  0  0  0
 16 18  1  0  0  0  0
M  CHG  1  18  -1
M  END
> <s_m_source_file>
AV-unprocessed.smi

> <i_m_source_file_index>
2455

> <i_lp_mmshare_version>
43012

> <i_f3d_flags>
0

> <s_epik_input>
W0NIM11bQ0gyXUMoW0NIMl1bQ0gzXSkoQyg9TylbT0hdKVtDSDJdW05IXUMoPU8pW0NIMl1uMVtjSF1bY0hdW2NIXW4x

> <s_epik_cmdline>
J2VwaWtfcHl0aG9uJywgJy1waCcsICc3LjAnLCAnLXRuJywgJzgnLCAnLW1hJywgJzIwMCcsICctbWV0YWxfYmluZGluZycsICctaW1hZScsICc8aW5maWxlLm1hZT4nLCAnLW9tYWUnLCAnPG91dGZpbGUubWFlPic=

> <r_lp_tautomer_probability>
1

> <r_epik_Ionization_Penalty>
0.00236672

> <r_epik_Ionization_Penalty_Charging>
0.00235221

> <r_epik_Ionization_Penalty_Neutral>
1.45156e-05

> <r_epik_State_Penalty>
0.00162453

> <r_epik_Charging_Adjusted_Penalty>
0.00397673

> <i_epik_Tot_Q>
-1

> <i_epik_Tot_abs_Q>
1

> <r_epik_Metal_State_Penalty>
-0

> <b_epik_Metal_Only>
0

> <s_lp_Force_Field>
OPLS_2005

> <r_lp_Energy>
9.36787

> <b_lp_Chiralities_Consistent>
1

> <s_lp_Variant>
AV-unprocessed.smi:2455-1

> <Gold.Version>
5.8.1

> <Gold.Id.Protein>
6NUR|6NUR_protein|mol2

> <Gold.PLP.Fitness>
42.3667

> <Gold.PLP.PLP>
-30.6959

> <Gold.PLP.part.hbond>
-3.1422

> <Gold.PLP.part.metal>
0.0000

> <Gold.PLP.part.buried>
-4.7902

> <Gold.PLP.part.nonpolar>
-23.6887

> <Gold.PLP.part.repulsive>
0.1273

> <Gold.PLP.ligand.clash>
0.0000

> <Gold.PLP.ligand.torsion>
0.2015

> <Gold.PLP.Chemscore.Hbond>
3.0000

> <Gold.PLP.Chemscore.CHOScore>
1.0000

> <Gold.PLP.Chemscore.Metal>
0.0000

> <Gold.Chemscore.Hbonds>
donor molecule, donor type, donor heavy atom, donor atom, acceptor molecule, acceptor atom, score
      P1  H  6896  6909       L1    17  2.00
      P1  H  7997  8009       L1     9  0.99
      L1  C    14    36       P1  8028  0.46

> <Gold.PLP.Chemscore.Internal.Correction>
0.0737

> <Gold.Rescore>
     Score         DG    S(hbond)    S(metal)    S(lipo)     H(rot)  DE(clash)    DE(int)     intcor
     12.38     -13.97       1.91        0.00      75.49       2.63       0.12       1.46       ----

> <Gold.Chemscore.Fitness>
12.3825

> <Gold.Chemscore.DG>
-13.9700

> <Gold.Chemscore.ZeroCoef>
-5.4800

> <Gold.Chemscore.Hbond>
1.9144

> <Gold.Chemscore.Metal>
0.0000

> <Gold.Chemscore.Lipo>
75.4935

> <Gold.Chemscore.Internal_Hbond>
0.0000

> <Gold.Chemscore.DEClash>
0.1227

> <Gold.Chemscore.DEInternal>
1.4648

> <Gold.Chemscore.Rot>
2.6316

> <Gold.Chemscore.Internal.Correction>
   9.000000E+99

> <Gold.Chemscore.Hbonds>
donor molecule, donor type, donor heavy atom, donor atom, acceptor molecule, acceptor atom, score
      P1  H  6896  6909       L1    17  0.96
      P1  H  7997  8009       L1     9  0.86

> <Gold.Chemscore.Hbond.Weighted>
-6.3943

> <Gold.Chemscore.Metal.Weighted>
-0.0000

> <Gold.Chemscore.Lipo.Weighted>
-8.8327

> <Gold.Chemscore.Internal_Hbond.Weighted>
0.0000

> <Gold.Chemscore.DEClash.Weighted>
0.1227

> <Gold.Chemscore.DEInternal.Weighted>
1.4648

> <Gold.Chemscore.Rot.Weighted>
6.7370

> <Gold.Chemscore.Internal.Correction.Weighted>
   9.000000E+99

> <Gold.Protein.RotatedTorsions>
[ 6907 6896 6895 6894 ] final   69.01 input  -60.11 | X-H torsion
[ 7974 7965 7964 7962 ] final  -56.97 input  175.53 | X-H torsion
[ 8008 7997 7996 7995 ] final  111.70 input   59.86 | X-H torsion
[ 10167 10162 10161 10158 ] final   14.58 input  -65.29 | X-H torsion
[ 10718 10713 10712 10709 ] final   80.04 input   66.30 | X-H torsion
[ 10763 10752 10751 10750 ] final -177.22 input  -60.55 | X-H torsion
[ 11005 11000 10999 10996 ] final   -6.22 input  -57.11 | X-H torsion

> <Gold.Protein.ActiveResidues>
 VAL166  LYS551  ARG553  GLY616  TRP617  ASP618  TYR619  PRO620  LYS621  CYS622 
 ASP623  PHE694  ASN695  SER759  ASP760  ASP761  ALA762  ILE779  LEU786  VAL792 
 PHE793  MET794  SER795  GLU796  ALA797  LYS798  CYS799  TRP800  GLU811  SER814 

> <Gold.Protein.RotatedAtoms>
  152.4658  134.5078  159.9744 H   0  0  0  0  0  0  0  0  0  0  0  0  # atno 6907 bound_to 6896
  151.5116  133.3478  159.2894 H   0  0  0  0  0  0  0  0  0  0  0  0  # atno 6908 bound_to 6896
  150.8642  134.8030  159.7168 H   0  0  0  0  0  0  0  0  0  0  0  0  # atno 6909 bound_to 6896
  145.8565  140.8316  142.9959 H   0  0  0  0  0  0  0  0  0  0  0  0  # atno 7974 bound_to 7965
  156.2142  140.3014  155.9801 H   0  0  0  0  0  0  0  0  0  0  0  0  # atno 8008 bound_to 7997
  155.2647  140.0431  157.3018 H   0  0  0  0  0  0  0  0  0  0  0  0  # atno 8009 bound_to 7997
  154.5743  140.2357  155.8153 H   0  0  0  0  0  0  0  0  0  0  0  0  # atno 8010 bound_to 7997
  140.5926  143.8765  150.6888 H   0  0  0  0  0  0  0  0  0  0  0  0  # atno 10167 bound_to 10162
  157.6794  130.9941  150.2021 H   0  0  0  0  0  0  0  0  0  0  0  0  # atno 10718 bound_to 10713
  154.5628  135.2821  155.0903 H   0  0  0  0  0  0  0  0  0  0  0  0  # atno 10763 bound_to 10752
  154.2305  135.6375  153.5177 H   0  0  0  0  0  0  0  0  0  0  0  0  # atno 10764 bound_to 10752
  153.0034  135.5536  154.6227 H   0  0  0  0  0  0  0  0  0  0  0  0  # atno 10765 bound_to 10752
  140.6996  133.9001  155.8674 H   0  0  0  0  0  0  0  0  0  0  0  0  # atno 11005 bound_to 11000
  144.6727  140.1031  143.7459 LP  0  0  0  0  0  0  0  0  0  0  0  0  # atno 17320 bound_to 7965
  145.9298  139.2599  143.1332 LP  0  0  0  0  0  0  0  0  0  0  0  0  # atno 17321 bound_to 7965
  140.2292  143.3749  152.1580 LP  0  0  0  0  0  0  0  0  0  0  0  0  # atno 17342 bound_to 10162
  139.5237  144.7075  151.5309 LP  0  0  0  0  0  0  0  0  0  0  0  0  # atno 17343 bound_to 10162
  156.2709  130.3722  149.8032 LP  0  0  0  0  0  0  0  0  0  0  0  0  # atno 17370 bound_to 10713
  156.5749  130.8441  151.3367 LP  0  0  0  0  0  0  0  0  0  0  0  0  # atno 17371 bound_to 10713
  141.0175  134.0936  157.4157 LP  0  0  0  0  0  0  0  0  0  0  0  0  # atno 17394 bound_to 11000
  139.8900  135.0109  156.6713 LP  0  0  0  0  0  0  0  0  0  0  0  0  # atno 17395 bound_to 11000

$$$$
