#       Name:                AV-unprocessed.smi:16
#       Creating user name   scv26
#       Creation time:       Thu Mar 26 15:22:30 2020


#       File generated by GOLD software.
#

@<TRIPOS>MOLECULE
AV-unprocessed.smi:16
    70    74     1
SMALL
NO_CHARGES


@<TRIPOS>ATOM
      1 ****        -2.2762  -1.6226  -2.9948 C.3            1 S1                 0.0000
      2 ****        -2.3232  -0.5187  -1.9300 C.3            1 S1                 0.0000
      3 ****        -3.3775   0.4927  -2.2059 N.4            1 S1                 1.0000
      4 ****        -4.7700   0.0305  -1.9622 C.3            1 S1                 0.0000
      5 ****        -5.1147   0.0030  -0.4646 C.3            1 S1                 0.0000
      6 ****        -4.8812   1.3863   0.1745 C.3            1 S1                 0.0000
      7 ****        -5.1985   1.4067   1.5664 O.3            1 S1                 0.0000
      8 ****        -4.2839   0.6922   2.3924 C.3            1 S1                 0.0000
      9 ****        -2.8662   1.2455   2.2006 C.3            1 S1                 0.0000
     10 ****        -2.4864   1.2171   0.7924 N.3            1 S1                 0.0000
     11 ****        -1.1755   1.5294   0.6585 C.ar           1 S1                 0.0000
     12 ****        -0.7916   2.8153   0.4422 N.ar           1 S1                 0.0000
     13 ****         0.5055   3.1135   0.3213 C.ar           1 S1                 0.0000
     14 ****         1.5592   2.2964   0.3859 N.ar           1 S1                 0.0000
     15 ****         1.1766   1.0069   0.6149 C.ar           1 S1                 0.0000
     16 ****        -0.1599   0.5431   0.7644 C.ar           1 S1                 0.0000
     17 ****        -0.1704  -0.8288   0.9771 N.2            1 S1                 0.0000
     18 ****         1.0922  -1.1596   0.9557 C.2            1 S1                 0.0000
     19 ****         1.9714  -0.1190   0.7492 N.pl3          1 S1                 0.0000
     20 ****         3.4021  -0.2055   0.6703 C.3            1 S1                 0.0000
     21 ****         4.0765  -1.0796  -0.3873 C.3            1 S1                 0.0000
     22 ****         5.2321  -1.3661   0.5982 C.3            1 S1                 0.0000
     23 ****         5.7306  -2.8205   0.6161 C.3            1 S1                 0.0000
     24 ****         6.2947  -3.1832  -0.6279 O.3            1 S1                 0.0000
     25 ****         6.4429  -0.4179   0.4811 C.3            1 S1                 0.0000
     26 ****         7.2529  -0.4680   1.6383 O.3            1 S1                 0.0000
     27 ****         4.2106  -0.9981   1.6995 C.3            1 S1                 0.0000
     28 ****        -3.4465   1.9069  -0.0793 C.3            1 S1                 0.0000
     29 ****        -3.1147   1.8262  -1.5977 C.3            1 S1                 0.0000
     30 ****        -5.5754   2.0811  -0.3001 H              1 S1                 0.0000
     31 ****        -3.4279   2.9593   0.2087 H              1 S1                 0.0000
     32 ****        -1.4323  -2.2890  -2.8154 H              1 S1                 0.0000
     33 ****        -2.1575  -1.2025  -3.9940 H              1 S1                 0.0000
     34 ****        -3.1771  -2.2353  -2.9904 H              1 S1                 0.0000
     35 ****        -2.4486  -0.9553  -0.9396 H              1 S1                 0.0000
     36 ****        -1.3506  -0.0254  -1.9273 H              1 S1                 0.0000
     37 ****        -5.4486   0.7143  -2.4738 H              1 S1                 0.0000
     38 ****        -4.9399  -0.9483  -2.4092 H              1 S1                 0.0000
     39 ****        -6.1566  -0.2897  -0.3331 H              1 S1                 0.0000
     40 ****        -4.5201  -0.7665   0.0252 H              1 S1                 0.0000
     41 ****        -4.5896   0.8106   3.4319 H              1 S1                 0.0000
     42 ****        -4.3177  -0.3767   2.1838 H              1 S1                 0.0000
     43 ****        -2.8179   2.2726   2.5661 H              1 S1                 0.0000
     44 ****        -2.1641   0.6610   2.7971 H              1 S1                 0.0000
     45 ****         0.7318   4.1555   0.1489 H              1 S1                 0.0000
     46 ****         1.4178  -2.1811   1.0893 H              1 S1                 0.0000
     47 ****         3.7787   0.8169   0.6108 H              1 S1                 0.0000
     48 ****         3.4945  -1.9708  -0.6297 H              1 S1                 0.0000
     49 ****         4.3686  -0.5474  -1.2931 H              1 S1                 0.0000
     50 ****         6.4674  -2.9846   1.4026 H              1 S1                 0.0000
     51 ****         4.9094  -3.5081   0.8198 H              1 S1                 0.0000
     52 ****         6.5779  -4.0833  -0.5776 H              1 S1                 0.0000
     53 ****         7.0569  -0.6592  -0.3869 H              1 S1                 0.0000
     54 ****         6.1225   0.6150   0.3448 H              1 S1                 0.0000
     55 ****         7.9723   0.1347   1.5272 H              1 S1                 0.0000
     56 ****         4.6086  -0.3949   2.5161 H              1 S1                 0.0000
     57 ****         3.6739  -1.8654   2.0872 H              1 S1                 0.0000
     58 ****        -2.0975   2.1481  -1.8198 H              1 S1                 0.0000
     59 ****        -3.7534   2.5402  -2.1192 H              1 S1                 0.0000
     60 ****        -3.3142   0.6491  -3.2018 H              1 S1                 0.0000
     61 ****        -6.1064   1.0047   1.6856 LP             1 S1                 0.0000
     62 ****        -5.2137   2.3597   1.8692 LP             1 S1                 0.0000
     63 ****        -2.5564   0.2844   0.4387 LP             1 S1                 0.0000
     64 ****        -1.4795   3.5379   0.3736 LP             1 S1                 0.0000
     65 ****         2.5086   2.5920   0.2799 LP             1 S1                 0.0000
     66 ****        -0.9614  -1.4250   1.1148 LP             1 S1                 0.0000
     67 ****         7.0774  -2.5939  -0.8279 LP             1 S1                 0.0000
     68 ****         5.6101  -3.0848  -1.3502 LP             1 S1                 0.0000
     69 ****         7.6059  -1.3953   1.7631 LP             1 S1                 0.0000
     70 ****         6.7139  -0.2060   2.4389 LP             1 S1                 0.0000
@<TRIPOS>BOND
    1    1    2 1     
    2    1   32 1     
    3    1   33 1     
    4    1   34 1     
    5    2    3 1     
    6    2   35 1     
    7    2   36 1     
    8    3   29 1     
    9    3    4 1     
   10    3   60 1     
   11    4    5 1     
   12    4   37 1     
   13    4   38 1     
   14    5    6 1     
   15    5   39 1     
   16    5   40 1     
   17    6   30 1     
   18    6   28 1     
   19    6    7 1     
   20    7    8 1     
   21    8    9 1     
   22    8   41 1     
   23    8   42 1     
   24    9   10 1     
   25    9   43 1     
   26    9   44 1     
   27   10   11 1     
   28   10   28 1     
   29   11   16 ar    
   30   11   12 ar    
   31   12   13 ar    
   32   13   14 ar    
   33   13   45 1     
   34   14   15 ar    
   35   15   19 1     
   36   15   16 ar    
   37   16   17 1     
   38   17   18 2     
   39   18   19 1     
   40   18   46 1     
   41   19   20 1     
   42   20   27 1     
   43   20   21 1     
   44   20   47 1     
   45   21   22 1     
   46   21   48 1     
   47   21   49 1     
   48   22   23 1     
   49   22   25 1     
   50   22   27 1     
   51   23   24 1     
   52   23   50 1     
   53   23   51 1     
   54   24   52 1     
   55   25   26 1     
   56   25   53 1     
   57   25   54 1     
   58   26   55 1     
   59   27   56 1     
   60   27   57 1     
   61   28   31 1     
   62   28   29 1     
   63   29   58 1     
   64   29   59 1     
   65    7   61 1     
   66    7   62 1     
   67   10   63 1     
   68   12   64 1     
   69   14   65 1     
   70   17   66 1     
   71   24   67 1     
   72   24   68 1     
   73   26   69 1     
   74   26   70 1     
@<TRIPOS>SUBSTRUCTURE
      1 S1             1
@<TRIPOS>SET
LONE_PAIRS      STATIC     ATOMS    <user>   **** ""
10 61 62 63 64 65 66 67 68 69 70
DONOR_HYDROGENS      STATIC     ATOMS    <user>   **** ""
3 60 52 55
ATOM$BLUE        STATIC     ATOMS    COLORGROUP SYSTEM
10 61 62 63 64 65 66 67 68 69 70
ATOM$RED        STATIC     ATOMS    COLORGROUP SYSTEM
3 60 52 55
