AV-unprocessed.smi:2455|AV-procd|sdf|9699|dock8
  -GOLD-   2272013343D 1   1.00000     0.00000
 Structure written by MMmdl.
 36 36  0  0  0  0  0  0  0  0  2 V2000
  147.4962  136.8883  156.7825 C   0  0  0  0  0  0  0  0  0  0  0  0
  148.7321  136.8597  157.7017 C   0  0  0  0  0  0  0  0  0  0  0  0
  150.1231  136.9286  156.9952 C   0  0  0  0  0  0  0  0  0  0  0  0
  149.8882  137.4559  155.5458 C   0  0  0  0  0  0  0  0  0  0  0  0
  151.1331  137.5949  154.6478 C   0  0  0  0  0  0  0  0  0  0  0  0
  151.1003  137.8619  157.7809 C   0  0  0  0  0  0  0  0  0  0  0  0
  150.6069  139.2315  157.9167 N   0  0  0  0  0  0  0  0  0  0  0  0
  151.2030  140.3375  157.4459 C   0  0  0  0  0  0  0  0  0  0  0  0
  152.2693  140.3320  156.8319 O   0  0  0  0  0  0  0  0  0  0  0  0
  150.4834  141.6599  157.7128 C   0  0  0  0  0  0  0  0  0  0  0  0
  151.4019  142.6613  158.2260 N   0  0  0  0  0  0  0  0  0  0  0  0
  151.5400  143.9787  157.8390 C   0  0  0  0  0  0  0  0  0  0  0  0
  152.5318  144.5256  158.6018 C   0  0  0  0  0  0  0  0  0  0  0  0
  152.9492  143.4499  159.4345 C   0  0  0  0  0  0  0  0  0  0  0  0
  152.2736  142.3354  159.2054 N   0  0  0  0  0  0  0  0  0  0  0  0
  150.7026  135.4891  156.9106 C   0  0  0  0  0  0  0  0  0  0  0  0
  151.8624  135.3320  156.4665 O   0  0  0  0  0  0  0  0  0  0  0  0
  149.9646  134.5525  157.2907 O   0  5  0  0  0  0  0  0  0  0  0  0
  146.5817  136.8633  157.3752 H   0  0  0  0  0  0  0  0  0  0  0  0
  147.4703  136.0279  156.1146 H   0  0  0  0  0  0  0  0  0  0  0  0
  147.4615  137.7906  156.1721 H   0  0  0  0  0  0  0  0  0  0  0  0
  148.6406  137.6837  158.4110 H   0  0  0  0  0  0  0  0  0  0  0  0
  148.6784  135.9620  158.3185 H   0  0  0  0  0  0  0  0  0  0  0  0
  149.1811  136.8027  155.0322 H   0  0  0  0  0  0  0  0  0  0  0  0
  149.3898  138.4243  155.5891 H   0  0  0  0  0  0  0  0  0  0  0  0
  150.8517  137.9802  153.6679 H   0  0  0  0  0  0  0  0  0  0  0  0
  151.6290  136.6380  154.4856 H   0  0  0  0  0  0  0  0  0  0  0  0
  151.8644  138.2847  155.0657 H   0  0  0  0  0  0  0  0  0  0  0  0
  151.2448  137.4900  158.7958 H   0  0  0  0  0  0  0  0  0  0  0  0
  152.0963  137.8536  157.3362 H   0  0  0  0  0  0  0  0  0  0  0  0
  149.7315  139.3434  158.4067 H   0  0  0  0  0  0  0  0  0  0  0  0
  150.0263  142.0184  156.7890 H   0  0  0  0  0  0  0  0  0  0  0  0
  149.6777  141.5218  158.4354 H   0  0  0  0  0  0  0  0  0  0  0  0
  150.9252  144.4127  157.0644 H   0  0  0  0  0  0  0  0  0  0  0  0
  152.9029  145.5392  158.5700 H   0  0  0  0  0  0  0  0  0  0  0  0
  153.7186  143.4456  160.1925 H   0  0  0  0  0  0  0  0  0  0  0  0
  1  2  1  0  0  0  0
  1 19  1  0  0  0  0
  1 20  1  0  0  0  0
  1 21  1  0  0  0  0
  2  3  1  0  0  0  0
  2 22  1  0  0  0  0
  2 23  1  0  0  0  0
  3  4  1  0  0  0  0
  3  6  1  0  0  0  0
  3 16  1  0  0  0  0
  4  5  1  0  0  0  0
  4 24  1  0  0  0  0
  4 25  1  0  0  0  0
  5 26  1  0  0  0  0
  5 27  1  0  0  0  0
  5 28  1  0  0  0  0
  6  7  1  0  0  0  0
  6 29  1  0  0  0  0
  6 30  1  0  0  0  0
  7  8  1  0  0  0  0
  7 31  1  0  0  0  0
  8  9  2  0  0  0  0
  8 10  1  0  0  0  0
 10 11  1  0  0  0  0
 10 32  1  0  0  0  0
 10 33  1  0  0  0  0
 11 15  1  0  0  0  0
 11 12  1  0  0  0  0
 12 13  2  0  0  0  0
 12 34  1  0  0  0  0
 13 14  1  0  0  0  0
 13 35  1  0  0  0  0
 14 15  2  0  0  0  0
 14 36  1  0  0  0  0
 16 17  2  0  0  0  0
 16 18  1  0  0  0  0
M  CHG  1  18  -1
M  END
> <s_m_source_file>
AV-unprocessed.smi

> <i_m_source_file_index>
2455

> <i_lp_mmshare_version>
43012

> <i_f3d_flags>
0

> <s_epik_input>
W0NIM11bQ0gyXUMoW0NIMl1bQ0gzXSkoQyg9TylbT0hdKVtDSDJdW05IXUMoPU8pW0NIMl1uMVtjSF1bY0hdW2NIXW4x

> <s_epik_cmdline>
J2VwaWtfcHl0aG9uJywgJy1waCcsICc3LjAnLCAnLXRuJywgJzgnLCAnLW1hJywgJzIwMCcsICctbWV0YWxfYmluZGluZycsICctaW1hZScsICc8aW5maWxlLm1hZT4nLCAnLW9tYWUnLCAnPG91dGZpbGUubWFlPic=

> <r_lp_tautomer_probability>
1

> <r_epik_Ionization_Penalty>
0.00236672

> <r_epik_Ionization_Penalty_Charging>
0.00235221

> <r_epik_Ionization_Penalty_Neutral>
1.45156e-05

> <r_epik_State_Penalty>
0.00162453

> <r_epik_Charging_Adjusted_Penalty>
0.00397673

> <i_epik_Tot_Q>
-1

> <i_epik_Tot_abs_Q>
1

> <r_epik_Metal_State_Penalty>
-0

> <b_epik_Metal_Only>
0

> <s_lp_Force_Field>
OPLS_2005

> <r_lp_Energy>
9.36787

> <b_lp_Chiralities_Consistent>
1

> <s_lp_Variant>
AV-unprocessed.smi:2455-1

> <Gold.Version>
5.8.1

> <Gold.Id.Protein>
6NUR|6NUR_protein|mol2

> <Gold.PLP.Fitness>
41.5196

> <Gold.PLP.PLP>
-27.0708

> <Gold.PLP.part.hbond>
-3.0000

> <Gold.PLP.part.metal>
0.0000

> <Gold.PLP.part.buried>
-2.9315

> <Gold.PLP.part.nonpolar>
-22.4154

> <Gold.PLP.part.repulsive>
0.0724

> <Gold.PLP.ligand.clash>
0.0000

> <Gold.PLP.ligand.torsion>
1.3338

> <Gold.PLP.Chemscore.Hbond>
4.6640

> <Gold.PLP.Chemscore.CHOScore>
1.0000

> <Gold.PLP.Chemscore.Metal>
0.0000

> <Gold.Chemscore.Hbonds>
donor molecule, donor type, donor heavy atom, donor atom, acceptor molecule, acceptor atom, score
      P1  H  6896  6909       L1    18  0.89
      P1  H  7997  8010       L1     9  0.81
      P1  H 10752 10763       L1    17  2.00
      L1  C    12    34       P1  8028  1.00

> <Gold.PLP.Chemscore.Internal.Correction>
0.1245

> <Gold.Rescore>
     Score         DG    S(hbond)    S(metal)    S(lipo)     H(rot)  DE(clash)    DE(int)     intcor
     12.52     -15.27       2.51        0.00      69.63       2.63       1.22       1.53       ----

> <Gold.Chemscore.Fitness>
12.5224

> <Gold.Chemscore.DG>
-15.2736

> <Gold.Chemscore.ZeroCoef>
-5.4800

> <Gold.Chemscore.Hbond>
2.5101

> <Gold.Chemscore.Metal>
0.0000

> <Gold.Chemscore.Lipo>
69.6328

> <Gold.Chemscore.Internal_Hbond>
0.0000

> <Gold.Chemscore.DEClash>
1.2191

> <Gold.Chemscore.DEInternal>
1.5321

> <Gold.Chemscore.Rot>
2.6316

> <Gold.Chemscore.Internal.Correction>
   9.000000E+99

> <Gold.Chemscore.Hbonds>
donor molecule, donor type, donor heavy atom, donor atom, acceptor molecule, acceptor atom, score
      P1  H  6896  6909       L1    18  0.22
      P1  H  7997  8010       L1     9  0.75
      P1  H 10752 10763       L1    17  1.00

> <Gold.Chemscore.Hbond.Weighted>
-8.3836

> <Gold.Chemscore.Metal.Weighted>
-0.0000

> <Gold.Chemscore.Lipo.Weighted>
-8.1470

> <Gold.Chemscore.Internal_Hbond.Weighted>
0.0000

> <Gold.Chemscore.DEClash.Weighted>
1.2191

> <Gold.Chemscore.DEInternal.Weighted>
1.5321

> <Gold.Chemscore.Rot.Weighted>
6.7370

> <Gold.Chemscore.Internal.Correction.Weighted>
   9.000000E+99

> <Gold.Protein.RotatedTorsions>
[ 6907 6896 6895 6894 ] final   11.37 input  -60.11 | X-H torsion
[ 7974 7965 7964 7962 ] final  178.50 input  175.53 | X-H torsion
[ 8008 7997 7996 7995 ] final   68.43 input   59.86 | X-H torsion
[ 10167 10162 10161 10158 ] final  -79.14 input  -65.29 | X-H torsion
[ 10718 10713 10712 10709 ] final   45.51 input   66.30 | X-H torsion
[ 10763 10752 10751 10750 ] final   95.81 input  -60.55 | X-H torsion
[ 11005 11000 10999 10996 ] final -101.63 input  -57.11 | X-H torsion

> <Gold.Protein.ActiveResidues>
 VAL166  LYS551  ARG553  GLY616  TRP617  ASP618  TYR619  PRO620  LYS621  CYS622 
 ASP623  PHE694  ASN695  SER759  ASP760  ASP761  ALA762  ILE779  LEU786  VAL792 
 PHE793  MET794  SER795  GLU796  ALA797  LYS798  CYS799  TRP800  GLU811  SER814 

> <Gold.Protein.RotatedAtoms>
  151.7532  135.0828  160.0333 H   0  0  0  0  0  0  0  0  0  0  0  0  # atno 6907 bound_to 6896
  152.3403  133.6054  159.5880 H   0  0  0  0  0  0  0  0  0  0  0  0  # atno 6908 bound_to 6896
  150.7475  133.9649  159.3569 H   0  0  0  0  0  0  0  0  0  0  0  0  # atno 6909 bound_to 6896
  144.7155  140.0407  143.6437 H   0  0  0  0  0  0  0  0  0  0  0  0  # atno 7974 bound_to 7965
  155.7082  140.3494  155.4962 H   0  0  0  0  0  0  0  0  0  0  0  0  # atno 8008 bound_to 7997
  155.9379  140.1096  157.1101 H   0  0  0  0  0  0  0  0  0  0  0  0  # atno 8009 bound_to 7997
  154.4097  140.1218  156.4875 H   0  0  0  0  0  0  0  0  0  0  0  0  # atno 8010 bound_to 7997
  140.4620  143.2451  151.8335 H   0  0  0  0  0  0  0  0  0  0  0  0  # atno 10167 bound_to 10162
  157.4383  130.8066  149.7669 H   0  0  0  0  0  0  0  0  0  0  0  0  # atno 10718 bound_to 10713
  153.2576  135.4240  155.0861 H   0  0  0  0  0  0  0  0  0  0  0  0  # atno 10763 bound_to 10752
  154.8407  135.3441  154.6424 H   0  0  0  0  0  0  0  0  0  0  0  0  # atno 10764 bound_to 10752
  153.6844  135.7037  153.5165 H   0  0  0  0  0  0  0  0  0  0  0  0  # atno 10765 bound_to 10752
  141.1223  133.8493  157.1256 H   0  0  0  0  0  0  0  0  0  0  0  0  # atno 11005 bound_to 11000
  146.0026  139.3103  143.0918 LP  0  0  0  0  0  0  0  0  0  0  0  0  # atno 17320 bound_to 7965
  145.8776  140.9382  143.0618 LP  0  0  0  0  0  0  0  0  0  0  0  0  # atno 17321 bound_to 7965
  139.4807  144.4997  151.9077 LP  0  0  0  0  0  0  0  0  0  0  0  0  # atno 17342 bound_to 10162
  140.4082  144.2404  150.5890 LP  0  0  0  0  0  0  0  0  0  0  0  0  # atno 17343 bound_to 10162
  155.9939  130.3921  150.2882 LP  0  0  0  0  0  0  0  0  0  0  0  0  # atno 17370 bound_to 10713
  157.1045  131.0204  151.3072 LP  0  0  0  0  0  0  0  0  0  0  0  0  # atno 17371 bound_to 10713
  140.0190  134.9954  157.0554 LP  0  0  0  0  0  0  0  0  0  0  0  0  # atno 17394 bound_to 11000
  140.4471  134.1621  155.7178 LP  0  0  0  0  0  0  0  0  0  0  0  0  # atno 17395 bound_to 11000

$$$$
