AV-unprocessed.smi:3085|AV-procd|sdf|11763|dock1
  -GOLD-   2272017143D 1   1.00000     0.00000
 Structure written by MMmdl.
 26 27  0  0  0  0  0  0  0  0  2 V2000
  153.3057  142.4804  159.9322 C   0  0  0  0  0  0  0  0  0  0  0  0
  152.8322  141.0280  159.8175 C   0  0  0  0  0  0  0  0  0  0  0  0
  152.2404  140.7293  158.4577 C   0  0  0  0  0  0  0  0  0  0  0  0
  151.2793  141.4247  157.8585 N   0  0  0  0  0  0  0  0  0  0  0  0
  151.1035  140.8478  156.6603 C   0  0  0  0  0  0  0  0  0  0  0  0
  150.0774  141.2802  155.6316 C   0  0  1  0  0  0  0  0  0  0  0  0
  150.1248  140.3752  154.3836 C   0  0  0  0  0  0  0  0  0  0  0  0
  149.1266  140.7979  153.4011 N   0  0  0  0  0  0  0  0  0  0  0  0
  147.7910  140.8459  153.9917 C   0  0  0  0  0  0  0  0  0  0  0  0
  147.7945  141.7384  155.2443 C   0  0  0  0  0  0  0  0  0  0  0  0
  148.7574  141.2507  156.1713 O   0  0  0  0  0  0  0  0  0  0  0  0
  151.9297  139.8005  156.5134 N   0  0  0  0  0  0  0  0  0  0  0  0
  152.6330  139.7484  157.6261 N   0  5  0  0  0  0  0  0  0  0  0  0
  153.7289  142.6754  160.9173 H   0  0  0  0  0  0  0  0  0  0  0  0
  152.4791  143.1747  159.7787 H   0  0  0  0  0  0  0  0  0  0  0  0
  154.0720  142.7021  159.1888 H   0  0  0  0  0  0  0  0  0  0  0  0
  153.6658  140.3484  159.9958 H   0  0  0  0  0  0  0  0  0  0  0  0
  152.0843  140.8172  160.5824 H   0  0  0  0  0  0  0  0  0  0  0  0
  150.3177  142.3072  155.3497 H   0  0  0  0  0  0  0  0  0  0  0  0
  151.1193  140.4041  153.9378 H   0  0  0  0  0  0  0  0  0  0  0  0
  149.9433  139.3396  154.6743 H   0  0  0  0  0  0  0  0  0  0  0  0
  149.1292  140.1530  152.6178 H   0  0  0  0  0  0  0  0  0  0  0  0
  147.0725  141.2232  153.2640 H   0  0  0  0  0  0  0  0  0  0  0  0
  147.4681  139.8394  154.2607 H   0  0  0  0  0  0  0  0  0  0  0  0
  148.0091  142.7768  154.9869 H   0  0  0  0  0  0  0  0  0  0  0  0
  146.8125  141.7242  155.7173 H   0  0  0  0  0  0  0  0  0  0  0  0
  1  2  1  0  0  0  0
  1 14  1  0  0  0  0
  1 15  1  0  0  0  0
  1 16  1  0  0  0  0
  2  3  1  0  0  0  0
  2 17  1  0  0  0  0
  2 18  1  0  0  0  0
  3 13  1  0  0  0  0
  3  4  2  0  0  0  0
  4  5  1  0  0  0  0
  5  6  1  0  0  0  0
  5 12  2  0  0  0  0
  6 11  1  0  0  0  0
  6  7  1  0  0  0  0
  6 19  1  0  0  0  0
  7  8  1  0  0  0  0
  7 20  1  0  0  0  0
  7 21  1  0  0  0  0
  8  9  1  0  0  0  0
  8 22  1  0  0  0  0
  9 10  1  0  0  0  0
  9 23  1  0  0  0  0
  9 24  1  0  0  0  0
 10 11  1  0  0  0  0
 10 25  1  0  0  0  0
 10 26  1  0  0  0  0
 12 13  1  0  0  0  0
M  CHG  1  13  -1
M  END
> <s_m_source_file>
AV-unprocessed.smi

> <i_m_source_file_index>
3085

> <i_lp_mmshare_version>
43012

> <i_f3d_flags>
0

> <s_epik_input>
W0NIM11bQ0gyXWMxbmMobltuSF0xKVtDQEBIXTJbQ0gyXVtOSF1bQ0gyXVtDSDJdTzI=

> <s_epik_cmdline>
J2VwaWtfcHl0aG9uJywgJy1waCcsICc3LjAnLCAnLXRuJywgJzgnLCAnLW1hJywgJzIwMCcsICctbWV0YWxfYmluZGluZycsICctaW1hZScsICc8aW5maWxlLm1hZT4nLCAnLW9tYWUnLCAnPG91dGZpbGUubWFlPic=

> <r_lp_tautomer_probability>
0.948284

> <r_epik_Ionization_Penalty>
17.858

> <r_epik_Ionization_Penalty_Charging>
16.2847

> <r_epik_Ionization_Penalty_Neutral>
1.5733

> <r_epik_State_Penalty>
7.01418

> <r_epik_Charging_Adjusted_Penalty>
23.2989

> <i_epik_Tot_Q>
-1

> <i_epik_Tot_abs_Q>
1

> <r_epik_Metal_State_Penalty>
3.17281

> <b_epik_Metal_Only>
1

> <s_lp_Force_Field>
OPLS_2005

> <r_lp_Energy>
10.7333

> <b_lp_Chiralities_Consistent>
1

> <s_lp_Variant>
AV-unprocessed.smi:3085-14

> <Gold.Version>
5.8.1

> <Gold.Id.Protein>
6NUR|6NUR_protein|mol2

> <Gold.PLP.Fitness>
33.3059

> <Gold.PLP.PLP>
-22.5910

> <Gold.PLP.part.hbond>
-3.5241

> <Gold.PLP.part.metal>
0.0000

> <Gold.PLP.part.buried>
-0.1317

> <Gold.PLP.part.nonpolar>
-19.7508

> <Gold.PLP.part.repulsive>
0.0999

> <Gold.PLP.ligand.clash>
0.0000

> <Gold.PLP.ligand.torsion>
0.0461

> <Gold.PLP.Chemscore.Hbond>
3.5980

> <Gold.PLP.Chemscore.CHOScore>
0.0000

> <Gold.PLP.Chemscore.Metal>
0.0000

> <Gold.Chemscore.Hbonds>
donor molecule, donor type, donor heavy atom, donor atom, acceptor molecule, acceptor atom, score
      L1  H     8    22       P1  7957  0.82
      P1  H  7997  8008       L1    13  1.70
      P1  H  8011  8017       L1     8  0.72

> <Gold.PLP.Chemscore.Internal.Correction>
0.0132

> <Gold.Rescore>
     Score         DG    S(hbond)    S(metal)    S(lipo)     H(rot)  DE(clash)    DE(int)     intcor
     12.20     -12.38       1.48        0.00      44.27       1.26       0.16       0.03       ----

> <Gold.Chemscore.Fitness>
12.1979

> <Gold.Chemscore.DG>
-12.3832

> <Gold.Chemscore.ZeroCoef>
-5.4800

> <Gold.Chemscore.Hbond>
1.4841

> <Gold.Chemscore.Metal>
0.0000

> <Gold.Chemscore.Lipo>
44.2697

> <Gold.Chemscore.Internal_Hbond>
0.0000

> <Gold.Chemscore.DEClash>
0.1596

> <Gold.Chemscore.DEInternal>
0.0257

> <Gold.Chemscore.Rot>
1.2630

> <Gold.Chemscore.Internal.Correction>
   9.000000E+99

> <Gold.Chemscore.Hbonds>
donor molecule, donor type, donor heavy atom, donor atom, acceptor molecule, acceptor atom, score
      L1  H     8    22       P1  7957  0.76
      P1  H  7997  8008       L1    13  0.12
      P1  H  8011  8017       L1     8  0.06

> <Gold.Chemscore.Hbond.Weighted>
-4.9569

> <Gold.Chemscore.Metal.Weighted>
-0.0000

> <Gold.Chemscore.Lipo.Weighted>
-5.1796

> <Gold.Chemscore.Internal_Hbond.Weighted>
0.0000

> <Gold.Chemscore.DEClash.Weighted>
0.1596

> <Gold.Chemscore.DEInternal.Weighted>
0.0257

> <Gold.Chemscore.Rot.Weighted>
3.2333

> <Gold.Chemscore.Internal.Correction.Weighted>
   9.000000E+99

> <Gold.Protein.RotatedTorsions>
[ 6907 6896 6895 6894 ] final   62.58 input  -60.11 | X-H torsion
[ 7974 7965 7964 7962 ] final   49.84 input  175.53 | X-H torsion
[ 8008 7997 7996 7995 ] final  -70.15 input   59.86 | X-H torsion
[ 10167 10162 10161 10158 ] final -130.82 input  -65.29 | X-H torsion
[ 10718 10713 10712 10709 ] final -173.35 input   66.30 | X-H torsion
[ 10763 10752 10751 10750 ] final -144.51 input  -60.55 | X-H torsion
[ 11005 11000 10999 10996 ] final   47.99 input  -57.11 | X-H torsion

> <Gold.Protein.ActiveResidues>
 VAL166  LYS551  ARG553  GLY616  TRP617  ASP618  TYR619  PRO620  LYS621  CYS622 
 ASP623  PHE694  ASN695  SER759  ASP760  ASP761  ALA762  ILE779  LEU786  VAL792 
 PHE793  MET794  SER795  GLU796  ALA797  LYS798  CYS799  TRP800  GLU811  SER814 

> <Gold.Protein.RotatedAtoms>
  152.4183  134.6001  159.9997 H   0  0  0  0  0  0  0  0  0  0  0  0  # atno 6907 bound_to 6896
  151.6158  133.3337  159.3085 H   0  0  0  0  0  0  0  0  0  0  0  0  # atno 6908 bound_to 6896
  150.8071  134.7242  159.6720 H   0  0  0  0  0  0  0  0  0  0  0  0  # atno 6909 bound_to 6896
  146.0070  139.4501  142.9980 H   0  0  0  0  0  0  0  0  0  0  0  0  # atno 7974 bound_to 7965
  154.4990  140.0840  156.7758 H   0  0  0  0  0  0  0  0  0  0  0  0  # atno 8008 bound_to 7997
  155.4047  140.3438  155.4241 H   0  0  0  0  0  0  0  0  0  0  0  0  # atno 8009 bound_to 7997
  156.1432  140.1536  156.8875 H   0  0  0  0  0  0  0  0  0  0  0  0  # atno 8010 bound_to 7997
  139.9254  143.6334  152.2543 H   0  0  0  0  0  0  0  0  0  0  0  0  # atno 10167 bound_to 10162
  156.7690  130.9441  151.3119 H   0  0  0  0  0  0  0  0  0  0  0  0  # atno 10718 bound_to 10713
  154.8425  135.3438  154.6357 H   0  0  0  0  0  0  0  0  0  0  0  0  # atno 10763 bound_to 10752
  153.6967  135.6972  153.5079 H   0  0  0  0  0  0  0  0  0  0  0  0  # atno 10764 bound_to 10752
  153.2554  135.4340  155.0794 H   0  0  0  0  0  0  0  0  0  0  0  0  # atno 10765 bound_to 10752
  140.1230  134.4805  155.8582 H   0  0  0  0  0  0  0  0  0  0  0  0  # atno 11005 bound_to 11000
  145.7400  141.0011  143.1306 LP  0  0  0  0  0  0  0  0  0  0  0  0  # atno 17320 bound_to 7965
  144.6939  139.9088  143.7462 LP  0  0  0  0  0  0  0  0  0  0  0  0  # atno 17321 bound_to 7965
  139.6827  144.7654  151.1580 LP  0  0  0  0  0  0  0  0  0  0  0  0  # atno 17342 bound_to 10162
  140.7651  143.5702  150.9004 LP  0  0  0  0  0  0  0  0  0  0  0  0  # atno 17343 bound_to 10162
  157.6700  130.9042  150.0018 LP  0  0  0  0  0  0  0  0  0  0  0  0  # atno 17370 bound_to 10713
  156.1290  130.3644  149.9762 LP  0  0  0  0  0  0  0  0  0  0  0  0  # atno 17371 bound_to 10713
  141.2155  133.6767  156.6925 LP  0  0  0  0  0  0  0  0  0  0  0  0  # atno 17394 bound_to 11000
  140.2940  134.8217  157.4041 LP  0  0  0  0  0  0  0  0  0  0  0  0  # atno 17395 bound_to 11000

$$$$
