#       Name:                AV-unprocessed.smi:2730
#       Creating user name   scv26
#       Creation time:       Fri Mar 27 14:57:12 2020


#       File generated by GOLD software.
#

@<TRIPOS>MOLECULE
AV-unprocessed.smi:2730
    48    49     1
SMALL
NO_CHARGES


@<TRIPOS>ATOM
      1 ****        -4.7816  -2.2028   2.1264 C.3            1 S1                 0.0000
      2 ****        -5.1148  -2.3331   0.6328 C.3            1 S1                 0.0000
      3 ****        -4.6236  -1.1456  -0.2199 C.3            1 S1                 0.0000
      4 ****        -5.0347  -1.2765  -1.6981 C.3            1 S1                 0.0000
      5 ****        -6.4889  -1.3684  -1.9019 C.1            1 S1                 0.0000
      6 ****        -7.6325  -1.4411  -2.0618 N.1            1 S1                 0.0000
      7 ****        -3.1713  -1.0221  -0.1185 N.am           1 S1                 0.0000
      8 ****        -2.4723   0.0995  -0.3445 C.2            1 S1                 0.0000
      9 ****        -2.9898   1.1654  -0.6794 O.2            1 S1                 0.0000
     10 ****        -1.1565  -0.1026  -0.1576 N.am           1 S1                 0.0000
     11 ****        -0.0968   0.8303  -0.2992 C.2            1 S1                 0.0000
     12 ****        -0.2632   2.1373  -0.6685 N.2            1 S1                 0.0000
     13 ****         1.0044   2.5270  -0.6417 C.2            1 S1                 0.0000
     14 ****         1.8628   1.5638  -0.2940 N.pl3          1 S1                 0.0000
     15 ****         3.3104   1.6032  -0.1544 C.3            1 S1                 0.0000
     16 ****         4.0019   0.6420  -1.1437 C.3            1 S1                 0.0000
     17 ****         5.5314   0.6968  -0.9977 C.3            1 S1                 0.0000
     18 ****         5.9641   0.4066   0.4486 C.3            1 S1                 0.0000
     19 ****         5.2780   1.3624   1.4379 C.3            1 S1                 0.0000
     20 ****         3.7480   1.3076   1.2955 C.3            1 S1                 0.0000
     21 ****         1.1513   0.4321  -0.0631 N.2            1 S1                 0.0000
     22 ****        -5.1924  -3.0421   2.6879 H              1 S1                 0.0000
     23 ****        -5.2019  -1.2875   2.5437 H              1 S1                 0.0000
     24 ****        -3.7055  -2.1878   2.2998 H              1 S1                 0.0000
     25 ****        -4.6913  -3.2616   0.2480 H              1 S1                 0.0000
     26 ****        -6.1959  -2.4304   0.5323 H              1 S1                 0.0000
     27 ****        -5.0790  -0.2379   0.1813 H              1 S1                 0.0000
     28 ****        -4.6828  -0.4186  -2.2718 H              1 S1                 0.0000
     29 ****        -4.5830  -2.1644  -2.1415 H              1 S1                 0.0000
     30 ****        -2.6639  -1.8516   0.1528 H              1 S1                 0.0000
     31 ****        -0.8787  -1.0325   0.1191 H              1 S1                 0.0000
     32 ****         1.3128   3.5342  -0.8805 H              1 S1                 0.0000
     33 ****         3.6247   2.6194  -0.3989 H              1 S1                 0.0000
     34 ****         3.6629  -0.3807  -0.9727 H              1 S1                 0.0000
     35 ****         3.7214   0.8934  -2.1673 H              1 S1                 0.0000
     36 ****         5.9949  -0.0208  -1.6752 H              1 S1                 0.0000
     37 ****         5.8921   1.6819  -1.2963 H              1 S1                 0.0000
     38 ****         5.7149  -0.6240   0.7046 H              1 S1                 0.0000
     39 ****         7.0473   0.4941   0.5375 H              1 S1                 0.0000
     40 ****         5.5656   1.1095   2.4587 H              1 S1                 0.0000
     41 ****         5.6252   2.3815   1.2623 H              1 S1                 0.0000
     42 ****         3.2897   2.0245   1.9778 H              1 S1                 0.0000
     43 ****         3.3951   0.3213   1.6007 H              1 S1                 0.0000
     44 ****        -8.6209  -1.5040  -2.2000 LP             1 S1                 0.0000
     45 ****        -3.9812   1.2250  -0.7960 LP             1 S1                 0.0000
     46 ****        -2.4187   1.9714  -0.8348 LP             1 S1                 0.0000
     47 ****        -1.0938   2.6472  -0.8922 LP             1 S1                 0.0000
     48 ****         1.4804  -0.4707   0.2138 LP             1 S1                 0.0000
@<TRIPOS>BOND
    1    1    2 1     
    2    1   22 1     
    3    1   23 1     
    4    1   24 1     
    5    2    3 1     
    6    2   25 1     
    7    2   26 1     
    8    3    4 1     
    9    3    7 1     
   10    3   27 1     
   11    4    5 1     
   12    4   28 1     
   13    4   29 1     
   14    5    6 3     
   15    7    8 am    
   16    7   30 1     
   17    8    9 2     
   18    8   10 am    
   19   10   11 1     
   20   10   31 1     
   21   11   21 2     
   22   11   12 1     
   23   12   13 2     
   24   13   14 1     
   25   13   32 1     
   26   14   15 1     
   27   14   21 1     
   28   15   20 1     
   29   15   16 1     
   30   15   33 1     
   31   16   17 1     
   32   16   34 1     
   33   16   35 1     
   34   17   18 1     
   35   17   36 1     
   36   17   37 1     
   37   18   19 1     
   38   18   38 1     
   39   18   39 1     
   40   19   20 1     
   41   19   40 1     
   42   19   41 1     
   43   20   42 1     
   44   20   43 1     
   45    6   44 1     
   46    9   45 1     
   47    9   46 1     
   48   12   47 1     
   49   21   48 1     
@<TRIPOS>SUBSTRUCTURE
      1 S1             1
@<TRIPOS>SET
LONE_PAIRS      STATIC     ATOMS    <user>   **** ""
5 44 45 46 47 48
DONOR_HYDROGENS      STATIC     ATOMS    <user>   **** ""
2 30 31
ATOM$BLUE        STATIC     ATOMS    COLORGROUP SYSTEM
5 44 45 46 47 48
ATOM$RED        STATIC     ATOMS    COLORGROUP SYSTEM
2 30 31
