AV-unprocessed.smi:830|AV-procd|sdf|3873|dock5
  -GOLD-   22720 1323D 1   1.00000     0.00000
 Structure written by MMmdl.
 53 55  0  0  0  0  0  0  0  0  2 V2000
  152.6332  138.0841  154.7903 C   0  0  0  0  0  0  0  0  0  0  0  0
  151.1744  138.5240  154.5845 C   0  0  1  0  0  0  0  0  0  0  0  0
  150.3761  137.3312  154.3034 N   0  0  0  0  0  0  0  0  0  0  0  0
  150.4750  136.1630  154.9545 C   0  0  0  0  0  0  0  0  0  0  0  0
  151.2318  135.9749  155.9071 O   0  0  0  0  0  0  0  0  0  0  0  0
  149.6668  135.2356  154.4160 N   0  0  0  0  0  0  0  0  0  0  0  0
  149.5855  133.8553  154.7520 C   0  0  0  0  0  0  0  0  0  0  0  0
  150.5710  133.2230  155.5521 C   0  0  0  0  0  0  0  0  0  0  0  0
  150.4291  131.8640  155.8922 C   0  0  0  0  0  0  0  0  0  0  0  0
  149.2994  131.1613  155.4368 C   0  0  0  0  0  0  0  0  0  0  0  0
  148.3723  131.7964  154.6897 N   0  3  0  0  0  0  0  0  0  0  0  0
  148.4556  133.1016  154.3312 C   0  0  0  0  0  0  0  0  0  0  0  0
  147.4385  133.6549  153.5240 N   0  0  0  0  0  0  0  0  0  0  0  0
  147.4185  133.1523  152.1522 C   0  0  0  0  0  0  0  0  0  0  0  0
  145.9467  133.0657  151.7432 C   0  0  0  0  0  0  0  0  0  0  0  0
  145.2276  132.8768  153.0732 C   0  0  0  0  0  0  0  0  0  0  0  0
  146.0667  133.7270  154.0250 C   0  0  0  0  0  0  0  0  0  0  0  0
  150.6935  139.2137  155.8720 C   0  0  0  0  0  0  0  0  0  0  0  0
  149.6464  138.8632  156.4195 O   0  0  0  0  0  0  0  0  0  0  0  0
  151.4829  140.1872  156.3506 N   0  0  0  0  0  0  0  0  0  0  0  0
  151.2141  140.9740  157.5511 C   0  0  0  0  0  0  0  0  0  0  0  0
  151.3724  142.4797  157.2658 C   0  0  0  0  0  0  0  0  0  0  0  0
  152.2149  143.0404  158.4125 C   0  0  0  0  0  0  0  0  0  0  0  0
  153.1062  141.8749  158.8287 C   0  0  0  0  0  0  0  0  0  0  0  0
  152.2085  140.6458  158.6836 C   0  0  0  0  0  0  0  0  0  0  0  0
  153.2799  138.9382  154.9958 H   0  0  0  0  0  0  0  0  0  0  0  0
  153.0212  137.5925  153.8977 H   0  0  0  0  0  0  0  0  0  0  0  0
  152.7331  137.3845  155.6218 H   0  0  0  0  0  0  0  0  0  0  0  0
  151.1152  139.2162  153.7420 H   0  0  0  0  0  0  0  0  0  0  0  0
  149.7309  137.3935  153.5297 H   0  0  0  0  0  0  0  0  0  0  0  0
  149.1632  135.5135  153.5861 H   0  0  0  0  0  0  0  0  0  0  0  0
  151.4273  133.7653  155.9236 H   0  0  0  0  0  0  0  0  0  0  0  0
  151.1746  131.3707  156.4987 H   0  0  0  0  0  0  0  0  0  0  0  0
  149.1078  130.1193  155.6481 H   0  0  0  0  0  0  0  0  0  0  0  0
  147.9750  133.8077  151.4817 H   0  0  0  0  0  0  0  0  0  0  0  0
  147.8762  132.1625  152.1085 H   0  0  0  0  0  0  0  0  0  0  0  0
  145.6331  134.0052  151.2858 H   0  0  0  0  0  0  0  0  0  0  0  0
  145.7505  132.2623  151.0326 H   0  0  0  0  0  0  0  0  0  0  0  0
  144.1809  133.1812  153.0412 H   0  0  0  0  0  0  0  0  0  0  0  0
  145.2689  131.8287  153.3731 H   0  0  0  0  0  0  0  0  0  0  0  0
  145.9405  133.4156  155.0616 H   0  0  0  0  0  0  0  0  0  0  0  0
  145.7490  134.7687  153.9685 H   0  0  0  0  0  0  0  0  0  0  0  0
  152.3265  140.4065  155.8409 H   0  0  0  0  0  0  0  0  0  0  0  0
  150.1965  140.7771  157.8936 H   0  0  0  0  0  0  0  0  0  0  0  0
  151.9047  142.6395  156.3266 H   0  0  0  0  0  0  0  0  0  0  0  0
  150.4106  142.9864  157.1802 H   0  0  0  0  0  0  0  0  0  0  0  0
  152.7852  143.9234  158.1225 H   0  0  0  0  0  0  0  0  0  0  0  0
  151.5660  143.3205  159.2433 H   0  0  0  0  0  0  0  0  0  0  0  0
  153.9515  141.7962  158.1439 H   0  0  0  0  0  0  0  0  0  0  0  0
  153.5033  141.9881  159.8379 H   0  0  0  0  0  0  0  0  0  0  0  0
  151.6554  140.4933  159.6112 H   0  0  0  0  0  0  0  0  0  0  0  0
  152.7882  139.7387  158.5065 H   0  0  0  0  0  0  0  0  0  0  0  0
  147.5641  131.2608  154.3722 H   0  0  0  0  0  0  0  0  0  0  0  0
  1  2  1  0  0  0  0
  1 26  1  0  0  0  0
  1 27  1  0  0  0  0
  1 28  1  0  0  0  0
  2  3  1  0  0  0  0
  2 18  1  0  0  0  0
  2 29  1  0  0  0  0
  3  4  1  0  0  0  0
  3 30  1  0  0  0  0
  4  5  2  0  0  0  0
  4  6  1  0  0  0  0
  6  7  1  0  0  0  0
  6 31  1  0  0  0  0
  7 12  1  0  0  0  0
  7  8  2  0  0  0  0
  8  9  1  0  0  0  0
  8 32  1  0  0  0  0
  9 10  2  0  0  0  0
  9 33  1  0  0  0  0
 10 11  1  0  0  0  0
 10 34  1  0  0  0  0
 11 12  2  0  0  0  0
 11 53  1  0  0  0  0
 12 13  1  0  0  0  0
 13 17  1  0  0  0  0
 13 14  1  0  0  0  0
 14 15  1  0  0  0  0
 14 35  1  0  0  0  0
 14 36  1  0  0  0  0
 15 16  1  0  0  0  0
 15 37  1  0  0  0  0
 15 38  1  0  0  0  0
 16 17  1  0  0  0  0
 16 39  1  0  0  0  0
 16 40  1  0  0  0  0
 17 41  1  0  0  0  0
 17 42  1  0  0  0  0
 18 19  2  0  0  0  0
 18 20  1  0  0  0  0
 20 21  1  0  0  0  0
 20 43  1  0  0  0  0
 21 25  1  0  0  0  0
 21 22  1  0  0  0  0
 21 44  1  0  0  0  0
 22 23  1  0  0  0  0
 22 45  1  0  0  0  0
 22 46  1  0  0  0  0
 23 24  1  0  0  0  0
 23 47  1  0  0  0  0
 23 48  1  0  0  0  0
 24 25  1  0  0  0  0
 24 49  1  0  0  0  0
 24 50  1  0  0  0  0
 25 51  1  0  0  0  0
 25 52  1  0  0  0  0
M  CHG  1  11   1
M  END
> <s_m_source_file>
AV-unprocessed.smi

> <i_m_source_file_index>
830

> <i_lp_mmshare_version>
43012

> <i_f3d_flags>
0

> <s_epik_input>
W0NIMl0xW0NIMl1bQ0gyXVtDSDJdW0NIXTFbTkhdQyg9TylbQ0BIXShbQ0gzXSlbTkhdQyg9TylbTkhdYzJbY0hdW2NIXVtjSF1uYzJOM1tDSDJdW0NIMl1bQ0gyXVtDSDJdMw==

> <s_epik_cmdline>
J2VwaWtfcHl0aG9uJywgJy1waCcsICc3LjAnLCAnLXRuJywgJzgnLCAnLW1hJywgJzIwMCcsICctbWV0YWxfYmluZGluZycsICctaW1hZScsICc8aW5maWxlLm1hZT4nLCAnLW9tYWUnLCAnPG91dGZpbGUubWFlPic=

> <r_lp_tautomer_probability>
0.999994

> <r_epik_Ionization_Penalty>
1.21091

> <r_epik_Ionization_Penalty_Charging>
1.21089

> <r_epik_Ionization_Penalty_Neutral>
1.88713e-05

> <r_epik_State_Penalty>
1.27732

> <r_epik_Charging_Adjusted_Penalty>
2.48821

> <i_epik_Tot_Q>
1

> <i_epik_Tot_abs_Q>
1

> <r_epik_Metal_State_Penalty>
1.3505

> <b_epik_Metal_Only>
0

> <s_lp_Force_Field>
OPLS_2005

> <r_lp_Energy>
52.3557

> <b_lp_Chiralities_Consistent>
1

> <s_lp_Variant>
AV-unprocessed.smi:830-4

> <Gold.Version>
5.8.1

> <Gold.Id.Protein>
6NUR|6NUR_protein|mol2

> <Gold.PLP.Fitness>
46.4897

> <Gold.PLP.PLP>
-39.8249

> <Gold.PLP.part.hbond>
-3.9139

> <Gold.PLP.part.metal>
0.0000

> <Gold.PLP.part.buried>
-4.8662

> <Gold.PLP.part.nonpolar>
-32.0333

> <Gold.PLP.part.repulsive>
0.4398

> <Gold.PLP.ligand.clash>
0.0000

> <Gold.PLP.ligand.torsion>
0.6124

> <Gold.PLP.Chemscore.Hbond>
2.5640

> <Gold.PLP.Chemscore.CHOScore>
0.0000

> <Gold.PLP.Chemscore.Metal>
0.0000

> <Gold.Chemscore.Hbonds>
donor molecule, donor type, donor heavy atom, donor atom, acceptor molecule, acceptor atom, score
      L1  H     3    30       P1  7948  0.60
      L1  H     6    31       P1  7948  1.00
      P1  H 10752 10764       L1     5  0.80

> <Gold.PLP.Chemscore.Internal.Correction>
0.1975

> <Gold.Rescore>
     Score         DG    S(hbond)    S(metal)    S(lipo)     H(rot)  DE(clash)    DE(int)     intcor
     14.43     -18.14       1.68        0.00      96.74       1.67       0.40       3.31       ----

> <Gold.Chemscore.Fitness>
14.4275

> <Gold.Chemscore.DG>
-18.1391

> <Gold.Chemscore.ZeroCoef>
-5.4800

> <Gold.Chemscore.Hbond>
1.6797

> <Gold.Chemscore.Metal>
0.0000

> <Gold.Chemscore.Lipo>
96.7351

> <Gold.Chemscore.Internal_Hbond>
0.0000

> <Gold.Chemscore.DEClash>
0.4015

> <Gold.Chemscore.DEInternal>
3.3101

> <Gold.Chemscore.Rot>
1.6676

> <Gold.Chemscore.Internal.Correction>
   9.000000E+99

> <Gold.Chemscore.Hbonds>
donor molecule, donor type, donor heavy atom, donor atom, acceptor molecule, acceptor atom, score
      L1  H     3    30       P1  7948  0.44
      L1  H     6    31       P1  7948  0.54
      P1  H 10752 10764       L1     5  0.24

> <Gold.Chemscore.Hbond.Weighted>
-5.6102

> <Gold.Chemscore.Metal.Weighted>
-0.0000

> <Gold.Chemscore.Lipo.Weighted>
-11.3180

> <Gold.Chemscore.Internal_Hbond.Weighted>
0.0000

> <Gold.Chemscore.DEClash.Weighted>
0.4015

> <Gold.Chemscore.DEInternal.Weighted>
3.3101

> <Gold.Chemscore.Rot.Weighted>
4.2691

> <Gold.Chemscore.Internal.Correction.Weighted>
   9.000000E+99

> <Gold.Protein.RotatedTorsions>
[ 6907 6896 6895 6894 ] final  -49.84 input  -60.11 | X-H torsion
[ 7974 7965 7964 7962 ] final   31.17 input  175.53 | X-H torsion
[ 8008 7997 7996 7995 ] final -170.76 input   59.86 | X-H torsion
[ 10167 10162 10161 10158 ] final   21.10 input  -65.29 | X-H torsion
[ 10718 10713 10712 10709 ] final -175.44 input   66.30 | X-H torsion
[ 10763 10752 10751 10750 ] final  -40.95 input  -60.55 | X-H torsion
[ 11005 11000 10999 10996 ] final  -16.94 input  -57.11 | X-H torsion

> <Gold.Protein.ActiveResidues>
 VAL166  LYS551  ARG553  GLY616  TRP617  ASP618  TYR619  PRO620  LYS621  CYS622 
 ASP623  PHE694  ASN695  SER759  ASP760  ASP761  ALA762  ILE779  LEU786  VAL792 
 PHE793  MET794  SER795  GLU796  ALA797  LYS798  CYS799  TRP800  GLU811  SER814 

> <Gold.Protein.RotatedAtoms>
  150.8766  134.8149  159.7193 H   0  0  0  0  0  0  0  0  0  0  0  0  # atno 6907 bound_to 6896
  152.4750  134.4863  159.9691 H   0  0  0  0  0  0  0  0  0  0  0  0  # atno 6908 bound_to 6896
  151.4944  133.3479  159.2894 H   0  0  0  0  0  0  0  0  0  0  0  0  # atno 6909 bound_to 6896
  146.1567  139.6692  142.9062 H   0  0  0  0  0  0  0  0  0  0  0  0  # atno 7974 bound_to 7965
  155.9226  140.1077  157.1195 H   0  0  0  0  0  0  0  0  0  0  0  0  # atno 8008 bound_to 7997
  154.4057  140.1253  156.4764 H   0  0  0  0  0  0  0  0  0  0  0  0  # atno 8009 bound_to 7997
  155.7177  140.3470  155.5004 H   0  0  0  0  0  0  0  0  0  0  0  0  # atno 8010 bound_to 7997
  140.5453  143.9605  150.6544 H   0  0  0  0  0  0  0  0  0  0  0  0  # atno 10167 bound_to 10162
  156.7999  130.9548  151.3119 H   0  0  0  0  0  0  0  0  0  0  0  0  # atno 10718 bound_to 10713
  153.9545  135.6747  153.4744 H   0  0  0  0  0  0  0  0  0  0  0  0  # atno 10763 bound_to 10752
  153.0868  135.4895  154.8610 H   0  0  0  0  0  0  0  0  0  0  0  0  # atno 10764 bound_to 10752
  154.7307  135.3137  154.8855 H   0  0  0  0  0  0  0  0  0  0  0  0  # atno 10765 bound_to 10752
  140.8118  133.8134  155.9571 H   0  0  0  0  0  0  0  0  0  0  0  0  # atno 11005 bound_to 11000
  145.4691  141.0435  143.2708 LP  0  0  0  0  0  0  0  0  0  0  0  0  # atno 17320 bound_to 7965
  144.7972  139.6211  143.7087 LP  0  0  0  0  0  0  0  0  0  0  0  0  # atno 17321 bound_to 7965
  140.3017  143.3256  152.0965 LP  0  0  0  0  0  0  0  0  0  0  0  0  # atno 17342 bound_to 10162
  139.5005  144.6692  151.6282 LP  0  0  0  0  0  0  0  0  0  0  0  0  # atno 17343 bound_to 10162
  157.6559  130.8924  149.9727 LP  0  0  0  0  0  0  0  0  0  0  0  0  # atno 17370 bound_to 10713
  156.1107  130.3650  150.0054 LP  0  0  0  0  0  0  0  0  0  0  0  0  # atno 17371 bound_to 10713
  140.9189  134.2166  157.4939 LP  0  0  0  0  0  0  0  0  0  0  0  0  # atno 17394 bound_to 11000
  139.8713  134.9783  156.4994 LP  0  0  0  0  0  0  0  0  0  0  0  0  # atno 17395 bound_to 11000

$$$$
