AV-unprocessed.smi:166|AV-procd|sdf|1389|dock7
  -GOLD-   2262019123D 1   1.00000     0.00000
 Structure written by MMmdl.
 54 58  0  0  0  0  0  0  0  0  1 V2000
  143.8721  134.1509  149.3302 O   0  0  0  0  0  0  0  0  0  0  0  0
  144.6158  134.0184  150.5297 C   0  0  2  0  0  0  0  0  0  0  0  0
  145.6349  132.8655  150.3703 C   0  0  0  0  0  0  0  0  0  0  0  0
  146.4754  132.6589  151.5406 N   0  0  0  0  0  0  0  0  0  0  0  0
  147.2792  133.5954  152.1512 C   0  0  0  0  0  0  0  0  0  0  0  0
  147.9499  133.1655  153.1845 N   0  0  0  0  0  0  0  0  0  0  0  0
  147.5890  131.8277  153.2915 C   0  0  0  0  0  0  0  0  0  0  0  0
  147.9516  130.7715  154.1744 C   0  0  0  0  0  0  0  0  0  0  0  0
  148.8185  130.9431  155.2042 N   0  0  0  0  0  0  0  0  0  0  0  0
  150.2317  130.9162  154.8293 C   0  0  0  0  0  0  0  0  0  0  0  0
  151.1197  130.6895  156.0632 C   0  0  0  0  0  0  0  0  0  0  0  0
  150.8114  131.7213  157.1586 C   0  0  0  0  0  0  0  0  0  0  0  0
  149.3147  131.7020  157.5101 C   0  0  1  0  0  0  0  0  0  0  0  0
  149.0862  132.7329  158.4611 O   0  0  0  0  0  0  0  0  0  0  0  0
  147.7218  132.9174  158.8157 C   0  0  0  0  0  0  0  0  0  0  0  0
  147.5928  133.5664  160.1817 C   0  0  0  0  0  0  0  0  0  0  0  0
  147.6497  132.7370  161.4482 C   0  0  0  0  0  0  0  0  0  0  0  0
  146.3506  133.3684  161.0260 C   0  0  0  0  0  0  0  0  0  0  0  0
  148.4644  131.9155  156.2399 C   0  0  0  0  0  0  0  0  0  0  0  0
  147.3956  129.5506  153.9500 N   0  0  0  0  0  0  0  0  0  0  0  0
  146.5412  129.3735  152.9379 C   0  0  0  0  0  0  0  0  0  0  0  0
  146.1137  130.2643  152.0412 N   0  0  0  0  0  0  0  0  0  0  0  0
  146.6689  131.4908  152.2583 C   0  0  0  0  0  0  0  0  0  0  0  0
  143.6361  133.7841  151.6736 C   0  0  0  0  0  0  0  0  0  0  0  0
  143.2968  135.1987  152.1230 C   0  0  0  0  0  0  0  0  0  0  0  0
  144.5448  135.8636  152.0317 O   0  0  0  0  0  0  0  0  0  0  0  0
  145.2329  135.3896  150.8781 C   0  0  0  0  0  0  0  0  0  0  0  0
  142.9683  133.9470  149.5155 H   0  0  0  0  0  0  0  0  0  0  0  0
  145.1139  131.9321  150.1532 H   0  0  0  0  0  0  0  0  0  0  0  0
  146.2851  133.0558  149.5155 H   0  0  0  0  0  0  0  0  0  0  0  0
  147.3532  134.6157  151.8035 H   0  0  0  0  0  0  0  0  0  0  0  0
  150.4350  130.1407  154.0916 H   0  0  0  0  0  0  0  0  0  0  0  0
  150.4855  131.8674  154.3594 H   0  0  0  0  0  0  0  0  0  0  0  0
  150.9548  129.6835  156.4510 H   0  0  0  0  0  0  0  0  0  0  0  0
  152.1713  130.7452  155.7814 H   0  0  0  0  0  0  0  0  0  0  0  0
  151.4088  131.5140  158.0471 H   0  0  0  0  0  0  0  0  0  0  0  0
  151.0976  132.7163  156.8149 H   0  0  0  0  0  0  0  0  0  0  0  0
  149.0793  130.7320  157.9524 H   0  0  0  0  0  0  0  0  0  0  0  0
  147.2142  133.5481  158.0861 H   0  0  0  0  0  0  0  0  0  0  0  0
  147.2058  131.9567  158.8395 H   0  0  0  0  0  0  0  0  0  0  0  0
  148.0508  134.5521  160.2386 H   0  0  0  0  0  0  0  0  0  0  0  0
  147.7375  131.6566  161.3515 H   0  0  0  0  0  0  0  0  0  0  0  0
  148.1616  133.1683  162.3061 H   0  0  0  0  0  0  0  0  0  0  0  0
  145.9964  134.2206  161.6025 H   0  0  0  0  0  0  0  0  0  0  0  0
  145.5720  132.7095  160.6468 H   0  0  0  0  0  0  0  0  0  0  0  0
  148.6189  132.9238  155.8534 H   0  0  0  0  0  0  0  0  0  0  0  0
  147.4053  131.8191  156.4803 H   0  0  0  0  0  0  0  0  0  0  0  0
  146.1439  128.3749  152.8312 H   0  0  0  0  0  0  0  0  0  0  0  0
  142.7587  133.2016  151.3899 H   0  0  0  0  0  0  0  0  0  0  0  0
  144.1297  133.2613  152.4942 H   0  0  0  0  0  0  0  0  0  0  0  0
  142.5803  135.6657  151.4454 H   0  0  0  0  0  0  0  0  0  0  0  0
  142.8926  135.2365  153.1347 H   0  0  0  0  0  0  0  0  0  0  0  0
  146.2918  135.3203  151.1224 H   0  0  0  0  0  0  0  0  0  0  0  0
  145.1325  136.1073  150.0626 H   0  0  0  0  0  0  0  0  0  0  0  0
  1  2  1  0  0  0  0
  1 28  1  0  0  0  0
  2 27  1  0  0  0  0
  2  3  1  0  0  0  0
  2 24  1  0  0  0  0
  3  4  1  0  0  0  0
  3 29  1  0  0  0  0
  3 30  1  0  0  0  0
  4 23  1  0  0  0  0
  4  5  1  0  0  0  0
  5  6  2  0  0  0  0
  5 31  1  0  0  0  0
  6  7  1  0  0  0  0
  7 23  2  0  0  0  0
  7  8  1  0  0  0  0
  8  9  1  0  0  0  0
  8 20  2  0  0  0  0
  9 19  1  0  0  0  0
  9 10  1  0  0  0  0
 10 11  1  0  0  0  0
 10 32  1  0  0  0  0
 10 33  1  0  0  0  0
 11 12  1  0  0  0  0
 11 34  1  0  0  0  0
 11 35  1  0  0  0  0
 12 13  1  0  0  0  0
 12 36  1  0  0  0  0
 12 37  1  0  0  0  0
 13 14  1  0  0  0  0
 13 19  1  0  0  0  0
 13 38  1  0  0  0  0
 14 15  1  0  0  0  0
 15 16  1  0  0  0  0
 15 39  1  0  0  0  0
 15 40  1  0  0  0  0
 16 18  1  0  0  0  0
 16 17  1  0  0  0  0
 16 41  1  0  0  0  0
 17 18  1  0  0  0  0
 17 42  1  0  0  0  0
 17 43  1  0  0  0  0
 18 44  1  0  0  0  0
 18 45  1  0  0  0  0
 19 46  1  0  0  0  0
 19 47  1  0  0  0  0
 20 21  1  0  0  0  0
 21 22  2  0  0  0  0
 21 48  1  0  0  0  0
 22 23  1  0  0  0  0
 24 25  1  0  0  0  0
 24 49  1  0  0  0  0
 24 50  1  0  0  0  0
 25 26  1  0  0  0  0
 25 51  1  0  0  0  0
 25 52  1  0  0  0  0
 26 27  1  0  0  0  0
 27 53  1  0  0  0  0
 27 54  1  0  0  0  0
M  END
> <s_m_source_file>
AV-unprocessed.smi

> <i_m_source_file_index>
166

> <i_lp_mmshare_version>
43012

> <i_f3d_flags>
0

> <s_epik_input>
W0NIMl0xT1tDSDJdW0NIMl1bQ0BAXTEoW09IXSlbQ0gyXW4oW2NIXW4yKWMoYzIzKW5bY0hdbmMzTjRbQ0gyXVtDSDJdW0NIMl1bQ0BIXShbQ0gyXTQpT1tDSDJdW0NIXTVbQ0gyXVtDSDJdNQ==

> <s_epik_cmdline>
J2VwaWtfcHl0aG9uJywgJy1waCcsICc3LjAnLCAnLXRuJywgJzgnLCAnLW1hJywgJzIwMCcsICctbWV0YWxfYmluZGluZycsICctaW1hZScsICc8aW5maWxlLm1hZT4nLCAnLW9tYWUnLCAnPG91dGZpbGUubWFlPic=

> <r_lp_tautomer_probability>
1

> <r_epik_Ionization_Penalty>
0.00342552

> <r_epik_Ionization_Penalty_Charging>
0

> <r_epik_Ionization_Penalty_Neutral>
0.00342552

> <r_epik_State_Penalty>
0.0022204

> <r_epik_Charging_Adjusted_Penalty>
0.0022204

> <i_epik_Tot_Q>
0

> <i_epik_Tot_abs_Q>
0

> <r_epik_Metal_State_Penalty>
-0

> <b_epik_Metal_Only>
0

> <s_lp_Force_Field>
OPLS_2005

> <r_lp_Energy>
44.6649

> <b_lp_Chiralities_Consistent>
1

> <s_lp_Variant>
AV-unprocessed.smi:166-2

> <Gold.Version>
5.8.1

> <Gold.Id.Protein>
6NUR|6NUR_protein|mol2

> <Gold.PLP.Fitness>
47.5018

> <Gold.PLP.PLP>
-38.9930

> <Gold.PLP.part.hbond>
-3.0000

> <Gold.PLP.part.metal>
0.0000

> <Gold.PLP.part.buried>
-4.5752

> <Gold.PLP.part.nonpolar>
-30.7056

> <Gold.PLP.part.repulsive>
0.5854

> <Gold.PLP.ligand.clash>
0.0000

> <Gold.PLP.ligand.torsion>
0.7313

> <Gold.PLP.Chemscore.Hbond>
2.0000

> <Gold.PLP.Chemscore.CHOScore>
1.0000

> <Gold.PLP.Chemscore.Metal>
0.0000

> <Gold.Chemscore.Hbonds>
donor molecule, donor type, donor heavy atom, donor atom, acceptor molecule, acceptor atom, score
      L1  H     1    28       P1 10186  1.00
      P1  H  6896  6908       L1    14  0.52
      L1  C     5    31       P1  7948  1.00

> <Gold.PLP.Chemscore.Internal.Correction>
0.9715

> <Gold.Rescore>
     Score         DG    S(hbond)    S(metal)    S(lipo)     H(rot)  DE(clash)    DE(int)     intcor
     12.12     -13.33       1.80        0.00      74.28       2.68       0.45       0.76       ----

> <Gold.Chemscore.Fitness>
12.1220

> <Gold.Chemscore.DG>
-13.3288

> <Gold.Chemscore.ZeroCoef>
-5.4800

> <Gold.Chemscore.Hbond>
1.8035

> <Gold.Chemscore.Metal>
0.0000

> <Gold.Chemscore.Lipo>
74.2765

> <Gold.Chemscore.Internal_Hbond>
0.0000

> <Gold.Chemscore.DEClash>
0.4500

> <Gold.Chemscore.DEInternal>
0.7567

> <Gold.Chemscore.Rot>
2.6817

> <Gold.Chemscore.Internal.Correction>
   9.000000E+99

> <Gold.Chemscore.Hbonds>
donor molecule, donor type, donor heavy atom, donor atom, acceptor molecule, acceptor atom, score
      L1  H     1    28       P1 10186  0.90
      P1  H  6896  6908       L1    14  0.40

> <Gold.Chemscore.Hbond.Weighted>
-6.0235

> <Gold.Chemscore.Metal.Weighted>
-0.0000

> <Gold.Chemscore.Lipo.Weighted>
-8.6903

> <Gold.Chemscore.Internal_Hbond.Weighted>
0.0000

> <Gold.Chemscore.DEClash.Weighted>
0.4500

> <Gold.Chemscore.DEInternal.Weighted>
0.7567

> <Gold.Chemscore.Rot.Weighted>
6.8651

> <Gold.Chemscore.Internal.Correction.Weighted>
   9.000000E+99

> <Gold.Protein.RotatedTorsions>
[ 6907 6896 6895 6894 ] final   99.51 input  -60.11 | X-H torsion
[ 7974 7965 7964 7962 ] final -126.90 input  175.53 | X-H torsion
[ 8008 7997 7996 7995 ] final  123.22 input   59.86 | X-H torsion
[ 10167 10162 10161 10158 ] final  -26.66 input  -65.29 | X-H torsion
[ 10718 10713 10712 10709 ] final  167.73 input   66.30 | X-H torsion
[ 10763 10752 10751 10750 ] final  -15.96 input  -60.55 | X-H torsion
[ 11005 11000 10999 10996 ] final  124.61 input  -57.11 | X-H torsion

> <Gold.Protein.ActiveResidues>
 VAL166  LYS551  ARG553  GLY616  TRP617  ASP618  TYR619  PRO620  LYS621  CYS622 
 ASP623  PHE694  ASN695  SER759  ASP760  ASP761  ALA762  ILE779  LEU786  VAL792 
 PHE793  MET794  SER795  GLU796  ALA797  LYS798  CYS799  TRP800  GLU811  SER814 

> <Gold.Protein.RotatedAtoms>
  152.5390  134.0417  159.8070 H   0  0  0  0  0  0  0  0  0  0  0  0  # atno 6907 bound_to 6896
  151.0572  133.5566  159.2644 H   0  0  0  0  0  0  0  0  0  0  0  0  # atno 6908 bound_to 6896
  151.2478  135.0619  159.9104 H   0  0  0  0  0  0  0  0  0  0  0  0  # atno 6909 bound_to 6896
  144.9825  140.7654  143.4603 H   0  0  0  0  0  0  0  0  0  0  0  0  # atno 7974 bound_to 7965
  156.2757  140.2768  156.1592 H   0  0  0  0  0  0  0  0  0  0  0  0  # atno 8008 bound_to 7997
  155.0771  140.0387  157.2645 H   0  0  0  0  0  0  0  0  0  0  0  0  # atno 8009 bound_to 7997
  154.6993  140.2646  155.6740 H   0  0  0  0  0  0  0  0  0  0  0  0  # atno 8010 bound_to 7997
  140.7281  143.4159  151.1030 H   0  0  0  0  0  0  0  0  0  0  0  0  # atno 10167 bound_to 10162
  157.0473  131.0303  151.2693 H   0  0  0  0  0  0  0  0  0  0  0  0  # atno 10718 bound_to 10713
  153.5513  135.7011  153.5590 H   0  0  0  0  0  0  0  0  0  0  0  0  # atno 10763 bound_to 10752
  153.3512  135.3994  155.1647 H   0  0  0  0  0  0  0  0  0  0  0  0  # atno 10764 bound_to 10752
  154.8661  135.3766  154.5025 H   0  0  0  0  0  0  0  0  0  0  0  0  # atno 10765 bound_to 10752
  139.9367  134.9639  156.8435 H   0  0  0  0  0  0  0  0  0  0  0  0  # atno 11005 bound_to 11000
  145.2400  139.2076  143.4997 LP  0  0  0  0  0  0  0  0  0  0  0  0  # atno 17320 bound_to 7965
  146.3411  140.2294  142.8593 LP  0  0  0  0  0  0  0  0  0  0  0  0  # atno 17321 bound_to 7965
  139.7798  143.8372  152.3135 LP  0  0  0  0  0  0  0  0  0  0  0  0  # atno 17342 bound_to 10162
  139.8319  144.7250  150.9440 LP  0  0  0  0  0  0  0  0  0  0  0  0  # atno 17343 bound_to 10162
  157.5058  130.7908  149.7652 LP  0  0  0  0  0  0  0  0  0  0  0  0  # atno 17370 bound_to 10713
  156.0019  130.3876  150.2575 LP  0  0  0  0  0  0  0  0  0  0  0  0  # atno 17371 bound_to 10713
  140.6058  134.0129  155.7556 LP  0  0  0  0  0  0  0  0  0  0  0  0  # atno 17394 bound_to 11000
  141.0983  133.9808  157.3122 LP  0  0  0  0  0  0  0  0  0  0  0  0  # atno 17395 bound_to 11000

$$$$
