AV-unprocessed.smi:1006|AV-procd|sdf|4391|dock3
  -GOLD-   22720 2323D 1   1.00000     0.00000
 Structure written by MMmdl.
 45 47  0  0  0  0  0  0  0  0  1 V2000
  155.4099  143.9781  166.1497 C   0  0  0  0  0  0  0  0  0  0  0  0
  155.5552  142.6448  166.8524 C   0  0  0  0  0  0  0  0  0  0  0  0
  155.6527  142.5592  168.2577 C   0  0  0  0  0  0  0  0  0  0  0  0
  155.7822  141.2612  168.7954 C   0  0  0  0  0  0  0  0  0  0  0  0
  155.8859  141.0665  170.1703 N   0  0  0  0  0  0  0  0  0  0  0  0
  155.8111  140.1635  168.0089 N   0  0  0  0  0  0  0  0  0  0  0  0
  155.7094  140.3685  166.6935 C   0  0  0  0  0  0  0  0  0  0  0  0
  155.7587  138.8935  165.6856 S   0  0  0  0  0  0  0  0  0  0  0  0
  156.8810  139.3798  164.3387 C   0  0  0  0  0  0  0  0  0  0  0  0
  156.1404  139.9872  163.1331 C   0  0  1  0  0  0  0  0  0  0  0  0
  157.0837  140.4864  162.2068 O   0  0  0  0  0  0  0  0  0  0  0  0
  155.2405  138.9772  162.3920 C   0  0  0  0  0  0  0  0  0  0  0  0
  154.6345  139.5348  161.1959 N   0  0  0  0  0  0  0  0  0  0  0  0
  154.6022  138.9785  159.9700 C   0  0  0  0  0  0  0  0  0  0  0  0
  154.0022  139.6683  159.0041 N   0  0  0  0  0  0  0  0  0  0  0  0
  153.5983  140.8056  159.6822 C   0  0  0  0  0  0  0  0  0  0  0  0
  152.9088  141.9500  159.2250 C   0  0  0  0  0  0  0  0  0  0  0  0
  152.6023  143.0121  160.1055 C   0  0  0  0  0  0  0  0  0  0  0  0
  151.8612  144.2247  159.5703 C   0  0  0  0  0  0  0  0  0  0  0  0
  152.9870  142.9386  161.4683 C   0  0  0  0  0  0  0  0  0  0  0  0
  152.6737  144.0690  162.4323 C   0  0  0  0  0  0  0  0  0  0  0  0
  153.6724  141.8010  161.9425 C   0  0  0  0  0  0  0  0  0  0  0  0
  153.9739  140.7515  161.0562 C   0  0  0  0  0  0  0  0  0  0  0  0
  155.5815  141.5441  166.0702 N   0  0  0  0  0  0  0  0  0  0  0  0
  154.3606  144.2706  166.1112 H   0  0  0  0  0  0  0  0  0  0  0  0
  155.7902  143.9266  165.1287 H   0  0  0  0  0  0  0  0  0  0  0  0
  155.9641  144.7543  166.6777 H   0  0  0  0  0  0  0  0  0  0  0  0
  155.6291  143.4388  168.8845 H   0  0  0  0  0  0  0  0  0  0  0  0
  155.8717  141.8412  170.8176 H   0  0  0  0  0  0  0  0  0  0  0  0
  155.9801  140.1410  170.5630 H   0  0  0  0  0  0  0  0  0  0  0  0
  157.6175  140.0871  164.7221 H   0  0  0  0  0  0  0  0  0  0  0  0
  157.4194  138.4847  164.0280 H   0  0  0  0  0  0  0  0  0  0  0  0
  155.5303  140.8242  163.4749 H   0  0  0  0  0  0  0  0  0  0  0  0
  157.7451  140.9649  162.6835 H   0  0  0  0  0  0  0  0  0  0  0  0
  155.8166  138.0959  162.1065 H   0  0  0  0  0  0  0  0  0  0  0  0
  154.4429  138.6267  163.0482 H   0  0  0  0  0  0  0  0  0  0  0  0
  155.0490  138.0144  159.7753 H   0  0  0  0  0  0  0  0  0  0  0  0
  152.6186  142.0068  158.1862 H   0  0  0  0  0  0  0  0  0  0  0  0
  150.9359  144.3836  160.1248 H   0  0  0  0  0  0  0  0  0  0  0  0
  151.6022  144.1011  158.5182 H   0  0  0  0  0  0  0  0  0  0  0  0
  152.4783  145.1188  159.6613 H   0  0  0  0  0  0  0  0  0  0  0  0
  153.0993  143.8798  163.4181 H   0  0  0  0  0  0  0  0  0  0  0  0
  151.5956  144.1830  162.5473 H   0  0  0  0  0  0  0  0  0  0  0  0
  153.0851  145.0103  162.0674 H   0  0  0  0  0  0  0  0  0  0  0  0
  153.9737  141.7335  162.9773 H   0  0  0  0  0  0  0  0  0  0  0  0
  1  2  1  0  0  0  0
  1 25  1  0  0  0  0
  1 26  1  0  0  0  0
  1 27  1  0  0  0  0
  2 24  1  0  0  0  0
  2  3  2  0  0  0  0
  3  4  1  0  0  0  0
  3 28  1  0  0  0  0
  4  5  1  0  0  0  0
  4  6  2  0  0  0  0
  5 29  1  0  0  0  0
  5 30  1  0  0  0  0
  6  7  1  0  0  0  0
  7  8  1  0  0  0  0
  7 24  2  0  0  0  0
  8  9  1  0  0  0  0
  9 10  1  0  0  0  0
  9 31  1  0  0  0  0
  9 32  1  0  0  0  0
 10 11  1  0  0  0  0
 10 12  1  0  0  0  0
 10 33  1  0  0  0  0
 11 34  1  0  0  0  0
 12 13  1  0  0  0  0
 12 35  1  0  0  0  0
 12 36  1  0  0  0  0
 13 23  1  0  0  0  0
 13 14  1  0  0  0  0
 14 15  2  0  0  0  0
 14 37  1  0  0  0  0
 15 16  1  0  0  0  0
 16 23  2  0  0  0  0
 16 17  1  0  0  0  0
 17 18  2  0  0  0  0
 17 38  1  0  0  0  0
 18 19  1  0  0  0  0
 18 20  1  0  0  0  0
 19 39  1  0  0  0  0
 19 40  1  0  0  0  0
 19 41  1  0  0  0  0
 20 21  1  0  0  0  0
 20 22  2  0  0  0  0
 21 42  1  0  0  0  0
 21 43  1  0  0  0  0
 21 44  1  0  0  0  0
 22 23  1  0  0  0  0
 22 45  1  0  0  0  0
M  END
> <s_m_source_file>
AV-unprocessed.smi

> <i_m_source_file_index>
1006

> <i_lp_mmshare_version>
43012

> <i_f3d_flags>
0

> <s_epik_input>
W0NIM11jMVtjSF1jKFtOSDJdKW5jKG4xKVNbQ0gyXVtDQEhdKFtPSF0pW0NIMl1uKFtjSF1uMiljKGMyMylbY0hdYyhbQ0gzXSljKFtjSF0zKVtDSDNd

> <s_epik_cmdline>
J2VwaWtfcHl0aG9uJywgJy1waCcsICc3LjAnLCAnLXRuJywgJzgnLCAnLW1hJywgJzIwMCcsICctbWV0YWxfYmluZGluZycsICctaW1hZScsICc8aW5maWxlLm1hZT4nLCAnLW9tYWUnLCAnPG91dGZpbGUubWFlPic=

> <r_lp_tautomer_probability>
1

> <r_epik_Ionization_Penalty>
0.490208

> <r_epik_Ionization_Penalty_Charging>
0

> <r_epik_Ionization_Penalty_Neutral>
0.490208

> <r_epik_State_Penalty>
0.473203

> <r_epik_Charging_Adjusted_Penalty>
0.473203

> <i_epik_Tot_Q>
0

> <i_epik_Tot_abs_Q>
0

> <r_epik_Metal_State_Penalty>
0.354099

> <b_epik_Metal_Only>
0

> <s_lp_Force_Field>
OPLS_2005

> <r_lp_Energy>
2.6746

> <b_lp_Chiralities_Consistent>
1

> <s_lp_Variant>
AV-unprocessed.smi:1006-2

> <Gold.Version>
5.8.1

> <Gold.Id.Protein>
6NUR|6NUR_protein|mol2

> <Gold.PLP.Fitness>
52.6733

> <Gold.PLP.PLP>
-50.7106

> <Gold.PLP.part.hbond>
-2.7379

> <Gold.PLP.part.metal>
0.0000

> <Gold.PLP.part.buried>
-7.0423

> <Gold.PLP.part.nonpolar>
-41.4388

> <Gold.PLP.part.repulsive>
0.1999

> <Gold.PLP.ligand.clash>
0.0000

> <Gold.PLP.ligand.torsion>
0.5652

> <Gold.PLP.Chemscore.Hbond>
1.0000

> <Gold.PLP.Chemscore.CHOScore>
0.0000

> <Gold.PLP.Chemscore.Metal>
0.0000

> <Gold.Chemscore.Hbonds>
donor molecule, donor type, donor heavy atom, donor atom, acceptor molecule, acceptor atom, score
      P1  H  7997  8010       L1    15  1.00

> <Gold.PLP.Chemscore.Internal.Correction>
0.0931

> <Gold.Rescore>
     Score         DG    S(hbond)    S(metal)    S(lipo)     H(rot)  DE(clash)    DE(int)     intcor
     14.18     -17.02       0.95        0.00     133.19       2.82       2.28       0.56       ----

> <Gold.Chemscore.Fitness>
14.1784

> <Gold.Chemscore.DG>
-17.0239

> <Gold.Chemscore.ZeroCoef>
-5.4800

> <Gold.Chemscore.Hbond>
0.9526

> <Gold.Chemscore.Metal>
0.0000

> <Gold.Chemscore.Lipo>
133.1946

> <Gold.Chemscore.Internal_Hbond>
0.0000

> <Gold.Chemscore.DEClash>
2.2817

> <Gold.Chemscore.DEInternal>
0.5638

> <Gold.Chemscore.Rot>
2.8209

> <Gold.Chemscore.Internal.Correction>
   9.000000E+99

> <Gold.Chemscore.Hbonds>
donor molecule, donor type, donor heavy atom, donor atom, acceptor molecule, acceptor atom, score
      P1  H  7997  8010       L1    15  0.82

> <Gold.Chemscore.Hbond.Weighted>
-3.1816

> <Gold.Chemscore.Metal.Weighted>
-0.0000

> <Gold.Chemscore.Lipo.Weighted>
-15.5838

> <Gold.Chemscore.Internal_Hbond.Weighted>
0.0000

> <Gold.Chemscore.DEClash.Weighted>
2.2817

> <Gold.Chemscore.DEInternal.Weighted>
0.5638

> <Gold.Chemscore.Rot.Weighted>
7.2215

> <Gold.Chemscore.Internal.Correction.Weighted>
   9.000000E+99

> <Gold.Protein.RotatedTorsions>
[ 6907 6896 6895 6894 ] final -146.54 input  -60.11 | X-H torsion
[ 7974 7965 7964 7962 ] final  -77.82 input  175.53 | X-H torsion
[ 8008 7997 7996 7995 ] final    4.10 input   59.86 | X-H torsion
[ 10167 10162 10161 10158 ] final -113.90 input  -65.29 | X-H torsion
[ 10718 10713 10712 10709 ] final  -59.02 input   66.30 | X-H torsion
[ 10763 10752 10751 10750 ] final  -66.32 input  -60.55 | X-H torsion
[ 11005 11000 10999 10996 ] final   62.24 input  -57.11 | X-H torsion

> <Gold.Protein.ActiveResidues>
 VAL166  LYS551  ARG553  GLY616  TRP617  ASP618  TYR619  PRO620  LYS621  CYS622 
 ASP623  PHE694  ASN695  SER759  ASP760  ASP761  ALA762  ILE779  LEU786  VAL792 
 PHE793  MET794  SER795  GLU796  ALA797  LYS798  CYS799  TRP800  GLU811  SER814 

> <Gold.Protein.RotatedAtoms>
  151.1430  133.4958  159.2596 H   0  0  0  0  0  0  0  0  0  0  0  0  # atno 6907 bound_to 6896
  151.1634  135.0284  159.8730 H   0  0  0  0  0  0  0  0  0  0  0  0  # atno 6908 bound_to 6896
  152.5462  134.1302  159.8489 H   0  0  0  0  0  0  0  0  0  0  0  0  # atno 6909 bound_to 6896
  145.5947  140.9422  143.1273 H   0  0  0  0  0  0  0  0  0  0  0  0  # atno 7974 bound_to 7965
  154.7117  140.2694  155.6623 H   0  0  0  0  0  0  0  0  0  0  0  0  # atno 8008 bound_to 7997
  156.2797  140.2752  156.1685 H   0  0  0  0  0  0  0  0  0  0  0  0  # atno 8009 bound_to 7997
  155.0625  140.0371  157.2571 H   0  0  0  0  0  0  0  0  0  0  0  0  # atno 8010 bound_to 7997
  140.1068  143.4563  152.1777 H   0  0  0  0  0  0  0  0  0  0  0  0  # atno 10167 bound_to 10162
  156.1092  130.4177  150.0658 H   0  0  0  0  0  0  0  0  0  0  0  0  # atno 10718 bound_to 10713
  154.3581  135.6122  153.5676 H   0  0  0  0  0  0  0  0  0  0  0  0  # atno 10763 bound_to 10752
  152.9795  135.5808  154.4665 H   0  0  0  0  0  0  0  0  0  0  0  0  # atno 10764 bound_to 10752
  154.4398  135.2850  155.1833 H   0  0  0  0  0  0  0  0  0  0  0  0  # atno 10765 bound_to 10752
  140.0106  134.6302  155.9787 H   0  0  0  0  0  0  0  0  0  0  0  0  # atno 11005 bound_to 11000
  144.7336  139.7652  143.7338 LP  0  0  0  0  0  0  0  0  0  0  0  0  # atno 17320 bound_to 7965
  146.1621  139.4739  142.9982 LP  0  0  0  0  0  0  0  0  0  0  0  0  # atno 17321 bound_to 7965
  139.5641  144.7424  151.4073 LP  0  0  0  0  0  0  0  0  0  0  0  0  # atno 17342 bound_to 10162
  140.6947  143.7777  150.7309 LP  0  0  0  0  0  0  0  0  0  0  0  0  # atno 17343 bound_to 10162
  156.8625  130.9496  151.3616 LP  0  0  0  0  0  0  0  0  0  0  0  0  # atno 17370 bound_to 10713
  157.6272  130.8700  149.9209 LP  0  0  0  0  0  0  0  0  0  0  0  0  # atno 17371 bound_to 10713
  141.1708  133.6537  156.4645 LP  0  0  0  0  0  0  0  0  0  0  0  0  # atno 17394 bound_to 11000
  140.4562  134.6884  157.5063 LP  0  0  0  0  0  0  0  0  0  0  0  0  # atno 17395 bound_to 11000

$$$$
