AV-unprocessed.smi:652|AV-procd|sdf|3203|dock4
  -GOLD-   22720 0133D 1   1.00000     0.00000
 Structure written by MMmdl.
 48 49  0  0  0  0  0  0  0  0  2 V2000
  152.5119  143.6307  161.3231 C   0  0  0  0  0  0  0  0  0  0  0  0
  152.6125  144.0787  159.8566 C   0  0  0  0  0  0  0  0  0  0  0  0
  151.9427  145.4412  159.6333 C   0  0  0  0  0  0  0  0  0  0  0  0
  152.0008  143.0868  158.9767 N   0  0  0  0  0  0  0  0  0  0  0  0
  150.6852  142.9564  158.7439 C   0  0  0  0  0  0  0  0  0  0  0  0
  149.8322  143.6789  159.2602 O   0  0  0  0  0  0  0  0  0  0  0  0
  150.2773  141.8338  157.7853 C   0  0  0  0  0  0  0  0  0  0  0  0
  150.9419  141.9629  156.4000 C   0  0  0  0  0  0  0  0  0  0  0  0
  150.5103  140.9718  155.4147 N   0  0  0  0  0  0  0  0  0  0  0  0
  149.1086  141.1657  155.0602 C   0  0  0  0  0  0  0  0  0  0  0  0
  148.6324  140.1429  154.0149 C   0  0  0  0  0  0  0  0  0  0  0  0
  148.8452  138.8229  154.5048 O   0  0  0  0  0  0  0  0  0  0  0  0
  150.2066  138.5677  154.8416 C   0  0  2  0  0  0  0  0  0  0  0  0
  150.3409  137.1096  155.3085 C   0  0  0  0  0  0  0  0  0  0  0  0
  149.7389  136.1714  154.3719 N   0  0  0  0  0  0  0  0  0  0  0  0
  149.7115  134.8003  154.6570 C   0  0  0  0  0  0  0  0  0  0  0  0
  150.2462  134.2244  155.8325 C   0  0  0  0  0  0  0  0  0  0  0  0
  150.1546  132.8312  155.9928 C   0  0  0  0  0  0  0  0  0  0  0  0
  149.5334  132.0968  154.9672 C   0  0  0  0  0  0  0  0  0  0  0  0
  149.0277  132.6665  153.8506 N   0  0  0  0  0  0  0  0  0  0  0  0
  149.1307  134.0018  153.7268 N   0  3  0  0  0  0  0  0  0  0  0  0
  150.6962  139.5998  155.8804 C   0  0  0  0  0  0  0  0  0  0  0  0
  152.9732  144.3617  161.9876 H   0  0  0  0  0  0  0  0  0  0  0  0
  153.0188  142.6786  161.4828 H   0  0  0  0  0  0  0  0  0  0  0  0
  151.4727  143.5107  161.6315 H   0  0  0  0  0  0  0  0  0  0  0  0
  153.6677  144.1824  159.5968 H   0  0  0  0  0  0  0  0  0  0  0  0
  152.4026  146.2097  160.2554 H   0  0  0  0  0  0  0  0  0  0  0  0
  150.8803  145.4077  159.8773 H   0  0  0  0  0  0  0  0  0  0  0  0
  152.0366  145.7599  158.5947 H   0  0  0  0  0  0  0  0  0  0  0  0
  152.6279  142.4488  158.5083 H   0  0  0  0  0  0  0  0  0  0  0  0
  150.5425  140.8717  158.2264 H   0  0  0  0  0  0  0  0  0  0  0  0
  149.1912  141.8535  157.6975 H   0  0  0  0  0  0  0  0  0  0  0  0
  150.7762  142.9664  156.0044 H   0  0  0  0  0  0  0  0  0  0  0  0
  152.0204  141.8702  156.5376 H   0  0  0  0  0  0  0  0  0  0  0  0
  148.4860  141.0852  155.9528 H   0  0  0  0  0  0  0  0  0  0  0  0
  148.9619  142.1729  154.6684 H   0  0  0  0  0  0  0  0  0  0  0  0
  147.5710  140.2784  153.8072 H   0  0  0  0  0  0  0  0  0  0  0  0
  149.1639  140.2788  153.0720 H   0  0  0  0  0  0  0  0  0  0  0  0
  150.8034  138.6797  153.9346 H   0  0  0  0  0  0  0  0  0  0  0  0
  151.3961  136.8633  155.4337 H   0  0  0  0  0  0  0  0  0  0  0  0
  149.8655  136.9950  156.2835 H   0  0  0  0  0  0  0  0  0  0  0  0
  149.5189  136.4948  153.4405 H   0  0  0  0  0  0  0  0  0  0  0  0
  150.7159  134.8219  156.5995 H   0  0  0  0  0  0  0  0  0  0  0  0
  150.5472  132.3412  156.8715 H   0  0  0  0  0  0  0  0  0  0  0  0
  149.4392  131.0235  155.0429 H   0  0  0  0  0  0  0  0  0  0  0  0
  151.7493  139.4119  156.0869 H   0  0  0  0  0  0  0  0  0  0  0  0
  150.1630  139.4609  156.8219 H   0  0  0  0  0  0  0  0  0  0  0  0
  148.7524  134.4391  152.8863 H   0  0  0  0  0  0  0  0  0  0  0  0
  1  2  1  0  0  0  0
  1 23  1  0  0  0  0
  1 24  1  0  0  0  0
  1 25  1  0  0  0  0
  2  3  1  0  0  0  0
  2  4  1  0  0  0  0
  2 26  1  0  0  0  0
  3 27  1  0  0  0  0
  3 28  1  0  0  0  0
  3 29  1  0  0  0  0
  4  5  1  0  0  0  0
  4 30  1  0  0  0  0
  5  6  2  0  0  0  0
  5  7  1  0  0  0  0
  7  8  1  0  0  0  0
  7 31  1  0  0  0  0
  7 32  1  0  0  0  0
  8  9  1  0  0  0  0
  8 33  1  0  0  0  0
  8 34  1  0  0  0  0
  9 22  1  0  0  0  0
  9 10  1  0  0  0  0
 10 11  1  0  0  0  0
 10 35  1  0  0  0  0
 10 36  1  0  0  0  0
 11 12  1  0  0  0  0
 11 37  1  0  0  0  0
 11 38  1  0  0  0  0
 12 13  1  0  0  0  0
 13 14  1  0  0  0  0
 13 22  1  0  0  0  0
 13 39  1  0  0  0  0
 14 15  1  0  0  0  0
 14 40  1  0  0  0  0
 14 41  1  0  0  0  0
 15 16  1  0  0  0  0
 15 42  1  0  0  0  0
 16 21  1  0  0  0  0
 16 17  2  0  0  0  0
 17 18  1  0  0  0  0
 17 43  1  0  0  0  0
 18 19  2  0  0  0  0
 18 44  1  0  0  0  0
 19 20  1  0  0  0  0
 19 45  1  0  0  0  0
 20 21  2  0  0  0  0
 21 48  1  0  0  0  0
 22 46  1  0  0  0  0
 22 47  1  0  0  0  0
M  CHG  1  21   1
M  END
> <s_m_source_file>
AV-unprocessed.smi

> <i_m_source_file_index>
652

> <i_lp_mmshare_version>
43012

> <i_f3d_flags>
0

> <s_epik_input>
W0NIM11bQ0hdKFtDSDNdKVtOSF1DKD1PKVtDSDJdW0NIMl1OMVtDSDJdW0NIMl1PW0NASF0oW0NIMl0xKVtDSDJdW05IXWMyW2NIXVtjSF1bY0hdbm4y

> <s_epik_cmdline>
J2VwaWtfcHl0aG9uJywgJy1waCcsICc3LjAnLCAnLXRuJywgJzgnLCAnLW1hJywgJzIwMCcsICctbWV0YWxfYmluZGluZycsICctaW1hZScsICc8aW5maWxlLm1hZT4nLCAnLW9tYWUnLCAnPG91dGZpbGUubWFlPic=

> <r_epik_Ionization_Penalty>
2.70989

> <r_epik_Ionization_Penalty_Charging>
2.3023

> <r_epik_Ionization_Penalty_Neutral>
0.407592

> <r_epik_State_Penalty>
2.65305

> <r_epik_Charging_Adjusted_Penalty>
4.95534

> <i_epik_Tot_Q>
1

> <i_epik_Tot_abs_Q>
1

> <r_epik_Metal_State_Penalty>
2.66064

> <b_epik_Metal_Only>
0

> <s_lp_Force_Field>
OPLS_2005

> <r_lp_Energy>
34.9838

> <b_lp_Chiralities_Consistent>
1

> <s_lp_Variant>
AV-unprocessed.smi:652-12

> <Gold.Version>
5.8.1

> <Gold.Id.Protein>
6NUR|6NUR_protein|mol2

> <Gold.PLP.Fitness>
49.1791

> <Gold.PLP.PLP>
-39.1080

> <Gold.PLP.part.hbond>
-3.2079

> <Gold.PLP.part.metal>
0.0000

> <Gold.PLP.part.buried>
-4.3334

> <Gold.PLP.part.nonpolar>
-32.0335

> <Gold.PLP.part.repulsive>
0.5625

> <Gold.PLP.ligand.clash>
0.0000

> <Gold.PLP.ligand.torsion>
0.3207

> <Gold.PLP.Chemscore.Hbond>
3.5452

> <Gold.PLP.Chemscore.CHOScore>
0.0000

> <Gold.PLP.Chemscore.Metal>
0.0000

> <Gold.Chemscore.Hbonds>
donor molecule, donor type, donor heavy atom, donor atom, acceptor molecule, acceptor atom, score
      L1  H    15    42       P1  7948  2.00
      L1  H    21    48       P1  7948  1.00
      P1  H  7989  7998       L1     9  0.41

> <Gold.PLP.Chemscore.Internal.Correction>
0.0770

> <Gold.Rescore>
     Score         DG    S(hbond)    S(metal)    S(lipo)     H(rot)  DE(clash)    DE(int)     intcor
     13.25     -14.83       1.27        0.00      93.56       2.28       0.07       1.50       ----

> <Gold.Chemscore.Fitness>
13.2545

> <Gold.Chemscore.DG>
-14.8264

> <Gold.Chemscore.ZeroCoef>
-5.4800

> <Gold.Chemscore.Hbond>
1.2661

> <Gold.Chemscore.Metal>
0.0000

> <Gold.Chemscore.Lipo>
93.5575

> <Gold.Chemscore.Internal_Hbond>
0.0000

> <Gold.Chemscore.DEClash>
0.0704

> <Gold.Chemscore.DEInternal>
1.5016

> <Gold.Chemscore.Rot>
2.2768

> <Gold.Chemscore.Internal.Correction>
   9.000000E+99

> <Gold.Chemscore.Hbonds>
donor molecule, donor type, donor heavy atom, donor atom, acceptor molecule, acceptor atom, score
      L1  H    15    42       P1  7948  0.63
      L1  H    21    48       P1  7948  0.04
      P1  H  7989  7998       L1     9  0.06

> <Gold.Chemscore.Hbond.Weighted>
-4.2289

> <Gold.Chemscore.Metal.Weighted>
-0.0000

> <Gold.Chemscore.Lipo.Weighted>
-10.9462

> <Gold.Chemscore.Internal_Hbond.Weighted>
0.0000

> <Gold.Chemscore.DEClash.Weighted>
0.0704

> <Gold.Chemscore.DEInternal.Weighted>
1.5016

> <Gold.Chemscore.Rot.Weighted>
5.8286

> <Gold.Chemscore.Internal.Correction.Weighted>
   9.000000E+99

> <Gold.Protein.RotatedTorsions>
[ 6907 6896 6895 6894 ] final  130.49 input  -60.11 | X-H torsion
[ 7974 7965 7964 7962 ] final  -63.37 input  175.53 | X-H torsion
[ 8008 7997 7996 7995 ] final   16.40 input   59.86 | X-H torsion
[ 10167 10162 10161 10158 ] final   19.14 input  -65.29 | X-H torsion
[ 10718 10713 10712 10709 ] final -160.29 input   66.30 | X-H torsion
[ 10763 10752 10751 10750 ] final  151.55 input  -60.55 | X-H torsion
[ 11005 11000 10999 10996 ] final   84.76 input  -57.11 | X-H torsion

> <Gold.Protein.ActiveResidues>
 VAL166  LYS551  ARG553  GLY616  TRP617  ASP618  TYR619  PRO620  LYS621  CYS622 
 ASP623  PHE694  ASN695  SER759  ASP760  ASP761  ALA762  ILE779  LEU786  VAL792 
 PHE793  MET794  SER795  GLU796  ALA797  LYS798  CYS799  TRP800  GLU811  SER814 

> <Gold.Protein.RotatedAtoms>
  152.3521  133.6192  159.5952 H   0  0  0  0  0  0  0  0  0  0  0  0  # atno 6907 bound_to 6896
  150.7544  133.9558  159.3509 H   0  0  0  0  0  0  0  0  0  0  0  0  # atno 6908 bound_to 6896
  151.7408  135.0855  160.0366 H   0  0  0  0  0  0  0  0  0  0  0  0  # atno 6909 bound_to 6896
  145.7799  140.8768  143.0336 H   0  0  0  0  0  0  0  0  0  0  0  0  # atno 7974 bound_to 7965
  154.8764  140.2966  155.5450 H   0  0  0  0  0  0  0  0  0  0  0  0  # atno 8008 bound_to 7997
  156.3022  140.2450  156.3694 H   0  0  0  0  0  0  0  0  0  0  0  0  # atno 8009 bound_to 7997
  154.8762  140.0399  157.1744 H   0  0  0  0  0  0  0  0  0  0  0  0  # atno 8010 bound_to 7997
  140.5601  143.9352  150.6637 H   0  0  0  0  0  0  0  0  0  0  0  0  # atno 10167 bound_to 10162
  156.5800  130.8725  151.2862 H   0  0  0  0  0  0  0  0  0  0  0  0  # atno 10718 bound_to 10713
  154.1055  135.2842  155.3242 H   0  0  0  0  0  0  0  0  0  0  0  0  # atno 10763 bound_to 10752
  154.6525  135.5363  153.7923 H   0  0  0  0  0  0  0  0  0  0  0  0  # atno 10764 bound_to 10752
  153.0363  135.6514  154.1217 H   0  0  0  0  0  0  0  0  0  0  0  0  # atno 10765 bound_to 10752
  139.8991  134.8239  156.2489 H   0  0  0  0  0  0  0  0  0  0  0  0  # atno 11005 bound_to 11000
  144.6798  139.9974  143.7484 LP  0  0  0  0  0  0  0  0  0  0  0  0  # atno 17320 bound_to 7965
  146.0085  139.3150  143.0885 LP  0  0  0  0  0  0  0  0  0  0  0  0  # atno 17321 bound_to 7965
  140.2801  143.3396  152.1159 LP  0  0  0  0  0  0  0  0  0  0  0  0  # atno 17342 bound_to 10162
  139.5066  144.6817  151.5991 LP  0  0  0  0  0  0  0  0  0  0  0  0  # atno 17343 bound_to 10162
  157.7328  130.9721  150.1949 LP  0  0  0  0  0  0  0  0  0  0  0  0  # atno 17370 bound_to 10713
  156.2639  130.3714  149.8101 LP  0  0  0  0  0  0  0  0  0  0  0  0  # atno 17371 bound_to 10713
  141.0236  133.7027  156.1310 LP  0  0  0  0  0  0  0  0  0  0  0  0  # atno 17394 bound_to 11000
  140.7198  134.4371  157.5576 LP  0  0  0  0  0  0  0  0  0  0  0  0  # atno 17395 bound_to 11000

$$$$
