AV-unprocessed.smi:2061|AV-procd|sdf|8389|dock10
  -GOLD-   2272011 73D 1   1.00000     0.00000
 Structure written by MMmdl.
 45 46  0  0  0  0  0  0  0  0  3 V2000
  150.5643  145.4710  160.5671 C   0  0  0  0  0  0  0  0  0  0  0  0
  151.0211  144.2282  159.8839 C   0  0  0  0  0  0  0  0  0  0  0  0
  150.4906  143.4713  158.8774 C   0  0  0  0  0  0  0  0  0  0  0  0
  151.4414  142.4272  158.7250 C   0  0  0  0  0  0  0  0  0  0  0  0
  151.2464  141.4058  157.7579 N   0  0  0  0  0  0  0  0  0  0  0  0
  152.1114  140.4618  157.3444 C   0  0  0  0  0  0  0  0  0  0  0  0
  153.2567  140.4158  157.8097 O   0  0  0  0  0  0  0  0  0  0  0  0
  151.5627  139.6300  156.4163 N   0  5  0  0  0  0  0  0  0  0  0  0
  150.2552  139.8261  155.7873 C   0  0  0  0  0  0  0  0  0  0  0  0
  150.3973  140.0176  154.2510 C   0  0  1  0  0  0  0  0  0  0  0  0
  151.2589  138.9334  153.5555 C   0  0  0  0  0  0  0  0  0  0  0  0
  149.0545  140.1905  153.6139 N   0  3  1  0  0  0  0  0  0  0  0  0
  148.3566  138.9088  153.3446 C   0  0  0  0  0  0  0  0  0  0  0  0
  147.0793  139.1565  152.5191 C   0  0  1  0  0  0  0  0  0  0  0  0
  146.2787  137.8692  152.2926 C   0  0  0  0  0  0  0  0  0  0  0  0
  146.2437  140.0811  153.2078 O   0  0  0  0  0  0  0  0  0  0  0  0
  146.8679  141.3455  153.4039 C   0  0  1  0  0  0  0  0  0  0  0  0
  145.8510  142.2835  154.0637 C   0  0  0  0  0  0  0  0  0  0  0  0
  148.1242  141.1501  154.2709 C   0  0  0  0  0  0  0  0  0  0  0  0
  152.4626  142.5403  159.5617 N   0  0  0  0  0  0  0  0  0  0  0  0
  152.1988  143.6951  160.3077 O   0  0  0  0  0  0  0  0  0  0  0  0
  149.5537  145.7372  160.2569 H   0  0  0  0  0  0  0  0  0  0  0  0
  151.2230  146.3061  160.3286 H   0  0  0  0  0  0  0  0  0  0  0  0
  150.5614  145.3388  161.6491 H   0  0  0  0  0  0  0  0  0  0  0  0
  149.5686  143.6371  158.3400 H   0  0  0  0  0  0  0  0  0  0  0  0
  150.3302  141.3745  157.3357 H   0  0  0  0  0  0  0  0  0  0  0  0
  149.5937  138.9811  155.9792 H   0  0  0  0  0  0  0  0  0  0  0  0
  149.7362  140.6904  156.2048 H   0  0  0  0  0  0  0  0  0  0  0  0
  150.9216  140.9650  154.1159 H   0  0  0  0  0  0  0  0  0  0  0  0
  152.2869  138.9365  153.9221 H   0  0  0  0  0  0  0  0  0  0  0  0
  151.3148  139.1100  152.4813 H   0  0  0  0  0  0  0  0  0  0  0  0
  150.8667  137.9253  153.7007 H   0  0  0  0  0  0  0  0  0  0  0  0
  149.0143  138.2346  152.7941 H   0  0  0  0  0  0  0  0  0  0  0  0
  148.1115  138.4196  154.2885 H   0  0  0  0  0  0  0  0  0  0  0  0
  147.3474  139.5731  151.5464 H   0  0  0  0  0  0  0  0  0  0  0  0
  146.8719  137.1264  151.7588 H   0  0  0  0  0  0  0  0  0  0  0  0
  145.3838  138.0666  151.7018 H   0  0  0  0  0  0  0  0  0  0  0  0
  145.9625  137.4286  153.2385 H   0  0  0  0  0  0  0  0  0  0  0  0
  147.1491  141.7639  152.4357 H   0  0  0  0  0  0  0  0  0  0  0  0
  146.2786  143.2728  154.2287 H   0  0  0  0  0  0  0  0  0  0  0  0
  145.5237  141.8955  155.0289 H   0  0  0  0  0  0  0  0  0  0  0  0
  144.9678  142.4040  153.4361 H   0  0  0  0  0  0  0  0  0  0  0  0
  147.8318  140.7760  155.2530 H   0  0  0  0  0  0  0  0  0  0  0  0
  148.6129  142.1124  154.4261 H   0  0  0  0  0  0  0  0  0  0  0  0
  149.2568  140.5763  152.7023 H   0  0  0  0  0  0  0  0  0  0  0  0
  1  2  1  0  0  0  0
  1 22  1  0  0  0  0
  1 23  1  0  0  0  0
  1 24  1  0  0  0  0
  2 21  1  0  0  0  0
  2  3  2  0  0  0  0
  3  4  1  0  0  0  0
  3 25  1  0  0  0  0
  4  5  1  0  0  0  0
  4 20  2  0  0  0  0
  5  6  1  0  0  0  0
  5 26  1  0  0  0  0
  6  7  2  0  0  0  0
  6  8  1  0  0  0  0
  8  9  1  0  0  0  0
  9 10  1  0  0  0  0
  9 27  1  0  0  0  0
  9 28  1  0  0  0  0
 10 11  1  0  0  0  0
 10 12  1  0  0  0  0
 10 29  1  0  0  0  0
 11 30  1  0  0  0  0
 11 31  1  0  0  0  0
 11 32  1  0  0  0  0
 12 19  1  0  0  0  0
 12 13  1  0  0  0  0
 12 45  1  0  0  0  0
 13 14  1  0  0  0  0
 13 33  1  0  0  0  0
 13 34  1  0  0  0  0
 14 15  1  0  0  0  0
 14 16  1  0  0  0  0
 14 35  1  0  0  0  0
 15 36  1  0  0  0  0
 15 37  1  0  0  0  0
 15 38  1  0  0  0  0
 16 17  1  0  0  0  0
 17 18  1  0  0  0  0
 17 19  1  0  0  0  0
 17 39  1  0  0  0  0
 18 40  1  0  0  0  0
 18 41  1  0  0  0  0
 18 42  1  0  0  0  0
 19 43  1  0  0  0  0
 19 44  1  0  0  0  0
 20 21  1  0  0  0  0
M  CHG  1   8  -1
M  CHG  1  12   1
M  END
> <s_m_source_file>
AV-unprocessed.smi

> <i_m_source_file_index>
2061

> <i_lp_mmshare_version>
43012

> <i_f3d_flags>
0

> <s_epik_input>
W0NIM11jMVtjSF1jKG5vMSlbTkhdQyg9TylbTkhdW0NIMl1bQ0BIXShbQ0gzXSlOMltDSDJdW0NAQEhdKFtDSDNdKU9bQ0BASF0oW0NIM10pW0NIMl0y

> <s_epik_cmdline>
J2VwaWtfcHl0aG9uJywgJy1waCcsICc3LjAnLCAnLXRuJywgJzgnLCAnLW1hJywgJzIwMCcsICctbWV0YWxfYmluZGluZycsICctaW1hZScsICc8aW5maWxlLm1hZT4nLCAnLW9tYWUnLCAnPG91dGZpbGUubWFlPic=

> <r_epik_Ionization_Penalty>
6.8073

> <r_epik_Ionization_Penalty_Charging>
6.80729

> <r_epik_Ionization_Penalty_Neutral>
5.65391e-06

> <r_epik_State_Penalty>
7.47323

> <r_epik_Charging_Adjusted_Penalty>
14.2805

> <i_epik_Tot_Q>
0

> <i_epik_Tot_abs_Q>
2

> <r_epik_Metal_State_Penalty>
3.40035

> <b_epik_Metal_Only>
1

> <s_lp_Force_Field>
OPLS_2005

> <r_lp_Energy>
16.6672

> <b_lp_Chiralities_Consistent>
1

> <s_lp_Variant>
AV-unprocessed.smi:2061-30

> <Gold.Version>
5.8.1

> <Gold.Id.Protein>
6NUR|6NUR_protein|mol2

> <Gold.PLP.Fitness>
43.1117

> <Gold.PLP.PLP>
-38.8281

> <Gold.PLP.part.hbond>
-2.0000

> <Gold.PLP.part.metal>
0.0000

> <Gold.PLP.part.buried>
-5.8273

> <Gold.PLP.part.nonpolar>
-31.8857

> <Gold.PLP.part.repulsive>
1.1663

> <Gold.PLP.ligand.clash>
1.3309

> <Gold.PLP.ligand.torsion>
0.2715

> <Gold.PLP.Chemscore.Hbond>
2.0000

> <Gold.PLP.Chemscore.CHOScore>
0.0000

> <Gold.PLP.Chemscore.Metal>
0.0000

> <Gold.Chemscore.Hbonds>
donor molecule, donor type, donor heavy atom, donor atom, acceptor molecule, acceptor atom, score
      L1  H    12    45       P1  7957  0.78
      P1  H  7997  8009       L1     7  0.80

> <Gold.PLP.Chemscore.Internal.Correction>
0.1574

> <Gold.Rescore>
     Score         DG    S(hbond)    S(metal)    S(lipo)     H(rot)  DE(clash)    DE(int)     intcor
     16.98     -19.24       1.96        0.00      95.64       1.56       0.35       1.91       ----

> <Gold.Chemscore.Fitness>
16.9776

> <Gold.Chemscore.DG>
-19.2365

> <Gold.Chemscore.ZeroCoef>
-5.4800

> <Gold.Chemscore.Hbond>
1.9602

> <Gold.Chemscore.Metal>
0.0000

> <Gold.Chemscore.Lipo>
95.6441

> <Gold.Chemscore.Internal_Hbond>
0.0000

> <Gold.Chemscore.DEClash>
0.3473

> <Gold.Chemscore.DEInternal>
1.9115

> <Gold.Chemscore.Rot>
1.5550

> <Gold.Chemscore.Internal.Correction>
   9.000000E+99

> <Gold.Chemscore.Hbonds>
donor molecule, donor type, donor heavy atom, donor atom, acceptor molecule, acceptor atom, score
      L1  H    12    45       P1  7957  0.79
      P1  H  7997  8009       L1     7  0.75

> <Gold.Chemscore.Hbond.Weighted>
-6.5470

> <Gold.Chemscore.Metal.Weighted>
-0.0000

> <Gold.Chemscore.Lipo.Weighted>
-11.1904

> <Gold.Chemscore.Internal_Hbond.Weighted>
0.0000

> <Gold.Chemscore.DEClash.Weighted>
0.3473

> <Gold.Chemscore.DEInternal.Weighted>
1.9115

> <Gold.Chemscore.Rot.Weighted>
3.9809

> <Gold.Chemscore.Internal.Correction.Weighted>
   9.000000E+99

> <Gold.Protein.RotatedTorsions>
[ 6907 6896 6895 6894 ] final  -18.29 input  -60.11 | X-H torsion
[ 7974 7965 7964 7962 ] final  118.73 input  175.53 | X-H torsion
[ 8008 7997 7996 7995 ] final  166.52 input   59.86 | X-H torsion
[ 10167 10162 10161 10158 ] final  168.52 input  -65.29 | X-H torsion
[ 10718 10713 10712 10709 ] final -112.32 input   66.30 | X-H torsion
[ 10763 10752 10751 10750 ] final  -65.26 input  -60.55 | X-H torsion
[ 11005 11000 10999 10996 ] final  134.61 input  -57.11 | X-H torsion

> <Gold.Protein.ActiveResidues>
 VAL166  LYS551  ARG553  GLY616  TRP617  ASP618  TYR619  PRO620  LYS621  CYS622 
 ASP623  PHE694  ASN695  SER759  ASP760  ASP761  ALA762  ILE779  LEU786  VAL792 
 PHE793  MET794  SER795  GLU796  ALA797  LYS798  CYS799  TRP800  GLU811  SER814 

> <Gold.Protein.RotatedAtoms>
  151.2803  135.0712  159.9166 H   0  0  0  0  0  0  0  0  0  0  0  0  # atno 6907 bound_to 6896
  152.5335  134.0037  159.7917 H   0  0  0  0  0  0  0  0  0  0  0  0  # atno 6908 bound_to 6896
  151.0290  133.5757  159.2693 H   0  0  0  0  0  0  0  0  0  0  0  0  # atno 6909 bound_to 6896
  145.1517  139.3207  143.4563 H   0  0  0  0  0  0  0  0  0  0  0  0  # atno 7974 bound_to 7965
  156.1711  140.1641  156.8445 H   0  0  0  0  0  0  0  0  0  0  0  0  # atno 8008 bound_to 7997
  154.5258  140.0768  156.8290 H   0  0  0  0  0  0  0  0  0  0  0  0  # atno 8009 bound_to 7997
  155.3510  140.3390  155.4241 H   0  0  0  0  0  0  0  0  0  0  0  0  # atno 8010 bound_to 7997
  139.4970  144.3805  151.9627 H   0  0  0  0  0  0  0  0  0  0  0  0  # atno 10167 bound_to 10162
  156.0699  130.5914  150.8493 H   0  0  0  0  0  0  0  0  0  0  0  0  # atno 10718 bound_to 10713
  154.3423  135.6154  153.5602 H   0  0  0  0  0  0  0  0  0  0  0  0  # atno 10763 bound_to 10752
  152.9803  135.5772  154.4838 H   0  0  0  0  0  0  0  0  0  0  0  0  # atno 10764 bound_to 10752
  154.4545  135.2854  155.1735 H   0  0  0  0  0  0  0  0  0  0  0  0  # atno 10765 bound_to 10752
  139.9926  134.9509  156.9890 H   0  0  0  0  0  0  0  0  0  0  0  0  # atno 11005 bound_to 11000
  146.3494  140.1593  142.8591 LP  0  0  0  0  0  0  0  0  0  0  0  0  # atno 17320 bound_to 7965
  145.0424  140.8955  143.5044 LP  0  0  0  0  0  0  0  0  0  0  0  0  # atno 17321 bound_to 7965
  140.3242  144.3393  150.6002 LP  0  0  0  0  0  0  0  0  0  0  0  0  # atno 17342 bound_to 10162
  140.5698  143.2182  151.7619 LP  0  0  0  0  0  0  0  0  0  0  0  0  # atno 17343 bound_to 10162
  157.5763  131.0946  150.9340 LP  0  0  0  0  0  0  0  0  0  0  0  0  # atno 17370 bound_to 10713
  156.9545  130.5432  149.5283 LP  0  0  0  0  0  0  0  0  0  0  0  0  # atno 17371 bound_to 10713
  140.4880  134.1222  155.7228 LP  0  0  0  0  0  0  0  0  0  0  0  0  # atno 17394 bound_to 11000
  141.1578  133.8850  157.1930 LP  0  0  0  0  0  0  0  0  0  0  0  0  # atno 17395 bound_to 11000

$$$$
