AV-unprocessed.smi:2848|AV-procd|sdf|10955|dock9
  -GOLD-   2272015413D 1   1.00000     0.00000
 Structure written by MMmdl.
 27 28  0  0  0  0  0  0  0  0  2 V2000
  146.0660  136.5822  152.4747 Cl  0  0  0  0  0  0  0  0  0  0  0  0
  145.3624  135.1441  151.8215 C   0  0  0  0  0  0  0  0  0  0  0  0
  144.0396  135.1850  151.3345 C   0  0  0  0  0  0  0  0  0  0  0  0
  143.4736  134.0719  150.8220 N   0  3  0  0  0  0  0  0  0  0  0  0
  144.1240  132.8916  150.7481 C   0  0  0  0  0  0  0  0  0  0  0  0
  145.4490  132.7878  151.2179 C   0  0  0  0  0  0  0  0  0  0  0  0
  146.0876  133.9279  151.7671 C   0  0  0  0  0  0  0  0  0  0  0  0
  147.4019  133.8897  152.2573 N   0  0  0  0  0  0  0  0  0  0  0  0
  148.0289  132.6356  152.6483 C   0  0  0  0  0  0  0  0  0  0  0  0
  149.2665  132.8382  153.4993 C   0  0  0  0  0  0  0  0  0  0  0  0
  149.7547  134.0443  153.8557 C   0  0  0  0  0  0  0  0  0  0  0  0
  150.8310  134.2086  154.6902 O   0  0  0  0  0  0  0  0  0  0  0  0
  151.2151  133.0308  155.3913 C   0  0  0  0  0  0  0  0  0  0  0  0
  151.1640  131.8083  154.4601 C   0  0  0  0  0  0  0  0  0  0  0  0
  149.8698  131.6631  153.8825 O   0  0  0  0  0  0  0  0  0  0  0  0
  143.4210  136.0706  151.3403 H   0  0  0  0  0  0  0  0  0  0  0  0
  143.5690  132.0701  150.3186 H   0  0  0  0  0  0  0  0  0  0  0  0
  145.9519  131.8347  151.1506 H   0  0  0  0  0  0  0  0  0  0  0  0
  147.9920  134.7027  152.1462 H   0  0  0  0  0  0  0  0  0  0  0  0
  147.3226  132.0367  153.2237 H   0  0  0  0  0  0  0  0  0  0  0  0
  148.2931  132.0680  151.7550 H   0  0  0  0  0  0  0  0  0  0  0  0
  149.3164  134.9887  153.5677 H   0  0  0  0  0  0  0  0  0  0  0  0
  152.2202  133.1641  155.7916 H   0  0  0  0  0  0  0  0  0  0  0  0
  150.5476  132.8872  156.2421 H   0  0  0  0  0  0  0  0  0  0  0  0
  151.8994  131.9105  153.6610 H   0  0  0  0  0  0  0  0  0  0  0  0
  151.4129  130.9001  155.0092 H   0  0  0  0  0  0  0  0  0  0  0  0
  142.5149  134.1252  150.4766 H   0  0  0  0  0  0  0  0  0  0  0  0
  1  2  1  0  0  0  0
  2  7  1  0  0  0  0
  2  3  2  0  0  0  0
  3  4  1  0  0  0  0
  3 16  1  0  0  0  0
  4  5  2  0  0  0  0
  4 27  1  0  0  0  0
  5  6  1  0  0  0  0
  5 17  1  0  0  0  0
  6  7  2  0  0  0  0
  6 18  1  0  0  0  0
  7  8  1  0  0  0  0
  8  9  1  0  0  0  0
  8 19  1  0  0  0  0
  9 10  1  0  0  0  0
  9 20  1  0  0  0  0
  9 21  1  0  0  0  0
 10 15  1  0  0  0  0
 10 11  2  0  0  0  0
 11 12  1  0  0  0  0
 11 22  1  0  0  0  0
 12 13  1  0  0  0  0
 13 14  1  0  0  0  0
 13 23  1  0  0  0  0
 13 24  1  0  0  0  0
 14 15  1  0  0  0  0
 14 25  1  0  0  0  0
 14 26  1  0  0  0  0
M  CHG  1   4   1
M  END
> <s_m_source_file>
AV-unprocessed.smi

> <i_m_source_file_index>
2848

> <i_lp_mmshare_version>
43012

> <i_f3d_flags>
0

> <s_epik_input>
Q2xjMVtjSF1uW2NIXVtjSF1jMVtOSF1bQ0gyXUMyPVtDSF1PW0NIMl1bQ0gyXU8y

> <s_epik_cmdline>
J2VwaWtfcHl0aG9uJywgJy1waCcsICc3LjAnLCAnLXRuJywgJzgnLCAnLW1hJywgJzIwMCcsICctbWV0YWxfYmluZGluZycsICctaW1hZScsICc8aW5maWxlLm1hZT4nLCAnLW9tYWUnLCAnPG91dGZpbGUubWFlPic=

> <r_lp_tautomer_probability>
1

> <r_epik_Ionization_Penalty>
0.0834524

> <r_epik_Ionization_Penalty_Charging>
0.0831652

> <r_epik_Ionization_Penalty_Neutral>
0.000287151

> <r_epik_State_Penalty>
0.0738416

> <r_epik_Charging_Adjusted_Penalty>
0.157007

> <i_epik_Tot_Q>
1

> <i_epik_Tot_abs_Q>
1

> <r_epik_Metal_State_Penalty>
2.9007

> <b_epik_Metal_Only>
0

> <s_lp_Force_Field>
OPLS_2005

> <r_lp_Energy>
8.04075

> <b_lp_Chiralities_Consistent>
1

> <s_lp_Variant>
AV-unprocessed.smi:2848-1

> <Gold.Version>
5.8.1

> <Gold.Id.Protein>
6NUR|6NUR_protein|mol2

> <Gold.PLP.Fitness>
40.1589

> <Gold.PLP.PLP>
-28.5623

> <Gold.PLP.part.hbond>
-2.0000

> <Gold.PLP.part.metal>
0.0000

> <Gold.PLP.part.buried>
-3.8148

> <Gold.PLP.part.nonpolar>
-22.4989

> <Gold.PLP.part.repulsive>
0.1499

> <Gold.PLP.ligand.clash>
0.0000

> <Gold.PLP.ligand.torsion>
0.2019

> <Gold.PLP.Chemscore.Hbond>
3.0000

> <Gold.PLP.Chemscore.CHOScore>
1.0000

> <Gold.PLP.Chemscore.Metal>
0.0000

> <Gold.Chemscore.Hbonds>
donor molecule, donor type, donor heavy atom, donor atom, acceptor molecule, acceptor atom, score
      L1  H     4    27       P1 10186  2.00
      L1  H     8    19       P1  7948  1.00
      L1  C    11    22       P1  7948  0.79

> <Gold.PLP.Chemscore.Internal.Correction>
0.0003

> <Gold.Rescore>
     Score         DG    S(hbond)    S(metal)    S(lipo)     H(rot)  DE(clash)    DE(int)     intcor
     15.49     -15.86       1.86        0.00      62.37       1.22       0.02       0.36       ----

> <Gold.Chemscore.Fitness>
15.4870

> <Gold.Chemscore.DG>
-15.8632

> <Gold.Chemscore.ZeroCoef>
-5.4800

> <Gold.Chemscore.Hbond>
1.8596

> <Gold.Chemscore.Metal>
0.0000

> <Gold.Chemscore.Lipo>
62.3657

> <Gold.Chemscore.Internal_Hbond>
0.0000

> <Gold.Chemscore.DEClash>
0.0174

> <Gold.Chemscore.DEInternal>
0.3589

> <Gold.Chemscore.Rot>
1.2206

> <Gold.Chemscore.Internal.Correction>
   9.000000E+99

> <Gold.Chemscore.Hbonds>
donor molecule, donor type, donor heavy atom, donor atom, acceptor molecule, acceptor atom, score
      L1  H     4    27       P1 10186  0.78
      L1  H     8    19       P1  7948  0.40

> <Gold.Chemscore.Hbond.Weighted>
-6.2112

> <Gold.Chemscore.Metal.Weighted>
-0.0000

> <Gold.Chemscore.Lipo.Weighted>
-7.2968

> <Gold.Chemscore.Internal_Hbond.Weighted>
0.0000

> <Gold.Chemscore.DEClash.Weighted>
0.0174

> <Gold.Chemscore.DEInternal.Weighted>
0.3589

> <Gold.Chemscore.Rot.Weighted>
3.1247

> <Gold.Chemscore.Internal.Correction.Weighted>
   9.000000E+99

> <Gold.Protein.RotatedTorsions>
[ 6907 6896 6895 6894 ] final   -7.57 input  -60.11 | X-H torsion
[ 7974 7965 7964 7962 ] final -172.63 input  175.53 | X-H torsion
[ 8008 7997 7996 7995 ] final  -29.85 input   59.86 | X-H torsion
[ 10167 10162 10161 10158 ] final  -74.18 input  -65.29 | X-H torsion
[ 10718 10713 10712 10709 ] final -113.38 input   66.30 | X-H torsion
[ 10763 10752 10751 10750 ] final   75.93 input  -60.55 | X-H torsion
[ 11005 11000 10999 10996 ] final  -94.37 input  -57.11 | X-H torsion

> <Gold.Protein.ActiveResidues>
 VAL166  LYS551  ARG553  GLY616  TRP617  ASP618  TYR619  PRO620  LYS621  CYS622 
 ASP623  PHE694  ASN695  SER759  ASP760  ASP761  ALA762  ILE779  LEU786  VAL792 
 PHE793  MET794  SER795  GLU796  ALA797  LYS798  CYS799  TRP800  GLU811  SER814 

> <Gold.Protein.RotatedAtoms>
  151.4474  135.1026  159.9687 H   0  0  0  0  0  0  0  0  0  0  0  0  # atno 6907 bound_to 6896
  152.4900  133.8472  159.7193 H   0  0  0  0  0  0  0  0  0  0  0  0  # atno 6908 bound_to 6896
  150.9046  133.7016  159.2897 H   0  0  0  0  0  0  0  0  0  0  0  0  # atno 6909 bound_to 6896
  144.7144  140.1743  143.6364 H   0  0  0  0  0  0  0  0  0  0  0  0  # atno 7974 bound_to 7965
  154.4273  140.1807  156.1313 H   0  0  0  0  0  0  0  0  0  0  0  0  # atno 8008 bound_to 7997
  156.0065  140.3355  155.6873 H   0  0  0  0  0  0  0  0  0  0  0  0  # atno 8009 bound_to 7997
  155.6170  140.0656  157.2680 H   0  0  0  0  0  0  0  0  0  0  0  0  # atno 8010 bound_to 7997
  140.5048  143.2354  151.7691 H   0  0  0  0  0  0  0  0  0  0  0  0  # atno 10167 bound_to 10162
  156.0763  130.5970  150.8634 H   0  0  0  0  0  0  0  0  0  0  0  0  # atno 10718 bound_to 10713
  153.0689  135.4970  154.8261 H   0  0  0  0  0  0  0  0  0  0  0  0  # atno 10763 bound_to 10752
  154.6994  135.2999  154.9366 H   0  0  0  0  0  0  0  0  0  0  0  0  # atno 10764 bound_to 10752
  154.0095  135.6756  153.4817 H   0  0  0  0  0  0  0  0  0  0  0  0  # atno 10765 bound_to 10752
  141.1472  133.7952  157.0289 H   0  0  0  0  0  0  0  0  0  0  0  0  # atno 11005 bound_to 11000
  145.8915  139.2378  143.1547 LP  0  0  0  0  0  0  0  0  0  0  0  0  # atno 17320 bound_to 7965
  145.9899  140.8612  143.0072 LP  0  0  0  0  0  0  0  0  0  0  0  0  # atno 17321 bound_to 7965
  139.4881  144.4472  151.9696 LP  0  0  0  0  0  0  0  0  0  0  0  0  # atno 17342 bound_to 10162
  140.3562  144.3029  150.5941 LP  0  0  0  0  0  0  0  0  0  0  0  0  # atno 17343 bound_to 10162
  157.5860  131.0945  150.9196 LP  0  0  0  0  0  0  0  0  0  0  0  0  # atno 17370 bound_to 10713
  156.9382  130.5374  149.5280 LP  0  0  0  0  0  0  0  0  0  0  0  0  # atno 17371 bound_to 10713
  140.0767  134.9671  157.1557 LP  0  0  0  0  0  0  0  0  0  0  0  0  # atno 17394 bound_to 11000
  140.3634  134.2469  155.7185 LP  0  0  0  0  0  0  0  0  0  0  0  0  # atno 17395 bound_to 11000

$$$$
