#       Name:                AV-unprocessed.smi:42
#       Creating user name   scv26
#       Creation time:       Thu Mar 26 16:24:39 2020


#       File generated by GOLD software.
#

@<TRIPOS>MOLECULE
AV-unprocessed.smi:42
    33    34     1
SMALL
NO_CHARGES


@<TRIPOS>ATOM
      1 ****        -4.0914   0.9975  -1.3262 C.3            1 S1                 0.0000
      2 ****        -3.5891  -0.4483  -1.4011 C.3            1 S1                 0.0000
      3 ****        -2.1029  -0.5430  -1.3120 C.2            1 S1                 0.0000
      4 ****        -1.2312  -0.5821  -2.3222 N.2            1 S1                 0.0000
      5 ****         0.0156  -0.6015  -1.7406 N.2            1 S1                 0.0000
      6 ****        -0.1948  -0.5769  -0.4196 C.2            1 S1                 0.0000
      7 ****         0.8198  -0.5091   0.6813 C.3            1 S1                 0.0000
      8 ****         1.3126   0.9014   1.0177 C.3            1 S1                 0.0000
      9 ****         2.8200   0.7434   1.2750 C.3            1 S1                 0.0000
     10 ****         3.1450   1.0450   2.6161 O.3            1 S1                 0.0000
     11 ****         3.1495  -0.7238   0.9515 C.3            1 S1                 0.0000
     12 ****         2.0014  -1.2336   0.1863 N.4            1 S1                 1.0000
     13 ****        -1.5108  -0.5099  -0.0898 O.3            1 S1                 0.0000
     14 ****         0.4450  -1.0101   1.5752 H              1 S1                 0.0000
     15 ****         3.3797   1.4107   0.6181 H              1 S1                 0.0000
     16 ****        -5.1787   1.0350  -1.3963 H              1 S1                 0.0000
     17 ****        -3.6840   1.5984  -2.1398 H              1 S1                 0.0000
     18 ****        -3.8019   1.4664  -0.3854 H              1 S1                 0.0000
     19 ****        -4.0270  -1.0379  -0.5951 H              1 S1                 0.0000
     20 ****        -3.9141  -0.9059  -2.3361 H              1 S1                 0.0000
     21 ****         1.1752   1.5618   0.1599 H              1 S1                 0.0000
     22 ****         0.7623   1.3396   1.8514 H              1 S1                 0.0000
     23 ****         2.9596   1.9584   2.7752 H              1 S1                 0.0000
     24 ****         4.0814  -0.8344   0.3966 H              1 S1                 0.0000
     25 ****         3.2313  -1.3156   1.8649 H              1 S1                 0.0000
     26 ****         1.8964  -2.2336   0.2816 H              1 S1                 0.0000
     27 ****         2.1307  -0.9926  -0.7864 H              1 S1                 0.0000
     28 ****        -1.4410  -0.5947  -3.2999 LP             1 S1                 0.0000
     29 ****         0.8985  -0.6284  -2.2094 LP             1 S1                 0.0000
     30 ****         4.1159   0.8661   2.7754 LP             1 S1                 0.0000
     31 ****         2.5964   0.4783   3.2308 LP             1 S1                 0.0000
     32 ****        -1.7865  -1.2912   0.4701 LP             1 S1                 0.0000
     33 ****        -1.7224   0.3388   0.3949 LP             1 S1                 0.0000
@<TRIPOS>BOND
    1    1    2 1     
    2    1   16 1     
    3    1   17 1     
    4    1   18 1     
    5    2    3 1     
    6    2   19 1     
    7    2   20 1     
    8    3   13 1     
    9    3    4 2     
   10    4    5 1     
   11    5    6 2     
   12    6    7 1     
   13    6   13 1     
   14    7   14 1     
   15    7   12 1     
   16    7    8 1     
   17    8    9 1     
   18    8   21 1     
   19    8   22 1     
   20    9   15 1     
   21    9   10 1     
   22    9   11 1     
   23   10   23 1     
   24   11   12 1     
   25   11   24 1     
   26   11   25 1     
   27   12   26 1     
   28   12   27 1     
   29    4   28 1     
   30    5   29 1     
   31   10   30 1     
   32   10   31 1     
   33   13   32 1     
   34   13   33 1     
@<TRIPOS>SUBSTRUCTURE
      1 S1             1
@<TRIPOS>SET
LONE_PAIRS      STATIC     ATOMS    <user>   **** ""
6 28 29 30 31 32 33
DONOR_HYDROGENS      STATIC     ATOMS    <user>   **** ""
3 23 26 27
ATOM$BLUE        STATIC     ATOMS    COLORGROUP SYSTEM
6 28 29 30 31 32 33
ATOM$RED        STATIC     ATOMS    COLORGROUP SYSTEM
3 23 26 27
