AV-unprocessed.smi:90|AV-procd|sdf|830|dock4
  -GOLD-   2262017253D 1   1.00000     0.00000
 Structure written by MMmdl.
 64 67  0  0  0  0  0  0  0  0  2 V2000
  147.1638  131.1263  153.9423 C   0  0  0  0  0  0  0  0  0  0  0  0
  148.2070  132.1480  153.9169 N   0  0  0  0  0  0  0  0  0  0  0  0
  148.1902  133.0914  152.8005 C   0  0  0  0  0  0  0  0  0  0  0  0
  146.7657  133.5545  152.4377 C   0  0  0  0  0  0  0  0  0  0  0  0
  146.4832  133.5665  150.9123 C   0  0  1  0  0  0  0  0  0  0  0  0
  146.2227  132.1616  150.3214 C   0  0  0  0  0  0  0  0  0  0  0  0
  144.8626  131.5960  150.7594 C   0  0  0  0  0  0  0  0  0  0  0  0
  143.7420  132.5829  150.4050 C   0  0  0  0  0  0  0  0  0  0  0  0
  144.0279  133.9843  150.9705 C   0  0  0  0  0  0  0  0  0  0  0  0
  145.3593  134.4720  150.5274 N   0  3  1  0  0  0  0  0  0  0  0  0
  145.5835  135.9032  150.8354 C   0  0  0  0  0  0  0  0  0  0  0  0
  148.6765  132.6078  155.1086 C   0  0  0  0  0  0  0  0  0  0  0  0
  149.8927  133.2160  155.1526 N   0  0  0  0  0  0  0  0  0  0  0  0
  150.3920  133.6540  156.3112 C   0  0  0  0  0  0  0  0  0  0  0  0
  149.8497  133.5931  157.5274 N   0  0  0  0  0  0  0  0  0  0  0  0
  148.6223  133.0014  157.4943 C   0  0  0  0  0  0  0  0  0  0  0  0
  147.9690  132.4799  156.3403 C   0  0  0  0  0  0  0  0  0  0  0  0
  146.7338  131.9542  156.7021 N   0  0  0  0  0  0  0  0  0  0  0  0
  146.6664  132.1438  157.9908 C   0  0  0  0  0  0  0  0  0  0  0  0
  147.7508  132.7826  158.5482 N   0  0  0  0  0  0  0  0  0  0  0  0
  147.9348  133.1190  159.9539 C   0  0  0  0  0  0  0  0  0  0  0  0
  147.1521  134.3768  160.4383 C   0  0  0  0  0  0  0  0  0  0  0  0
  145.6412  134.0503  160.6112 C   0  0  0  0  0  0  0  0  0  0  0  0
  145.3877  133.2902  161.7755 O   0  0  0  0  0  0  0  0  0  0  0  0
  147.7306  134.8743  161.7881 C   0  0  0  0  0  0  0  0  0  0  0  0
  147.2453  136.2847  162.1733 C   0  0  0  0  0  0  0  0  0  0  0  0
  147.5353  137.2067  161.1313 O   0  0  0  0  0  0  0  0  0  0  0  0
  146.8808  136.8825  159.9120 C   0  0  0  0  0  0  0  0  0  0  0  0
  147.3699  135.5138  159.4078 C   0  0  0  0  0  0  0  0  0  0  0  0
  147.4392  130.3068  154.6075 H   0  0  0  0  0  0  0  0  0  0  0  0
  147.0138  130.7082  152.9466 H   0  0  0  0  0  0  0  0  0  0  0  0
  146.2149  131.5444  154.2803 H   0  0  0  0  0  0  0  0  0  0  0  0
  148.8222  133.9526  153.0068 H   0  0  0  0  0  0  0  0  0  0  0  0
  148.6473  132.5948  151.9453 H   0  0  0  0  0  0  0  0  0  0  0  0
  146.0402  132.9318  152.9599 H   0  0  0  0  0  0  0  0  0  0  0  0
  146.6357  134.5600  152.8354 H   0  0  0  0  0  0  0  0  0  0  0  0
  147.3770  133.9571  150.4236 H   0  0  0  0  0  0  0  0  0  0  0  0
  146.2397  132.2282  149.2327 H   0  0  0  0  0  0  0  0  0  0  0  0
  147.0206  131.4674  150.5821 H   0  0  0  0  0  0  0  0  0  0  0  0
  144.6825  130.6370  150.2728 H   0  0  0  0  0  0  0  0  0  0  0  0
  144.8627  131.4007  151.8320 H   0  0  0  0  0  0  0  0  0  0  0  0
  143.6434  132.6439  149.3204 H   0  0  0  0  0  0  0  0  0  0  0  0
  142.7869  132.2150  150.7809 H   0  0  0  0  0  0  0  0  0  0  0  0
  143.2566  134.6729  150.6236 H   0  0  0  0  0  0  0  0  0  0  0  0
  143.9701  133.9784  152.0594 H   0  0  0  0  0  0  0  0  0  0  0  0
  145.5005  136.1058  151.9033 H   0  0  0  0  0  0  0  0  0  0  0  0
  144.8423  136.5175  150.3237 H   0  0  0  0  0  0  0  0  0  0  0  0
  146.5686  136.2247  150.4961 H   0  0  0  0  0  0  0  0  0  0  0  0
  151.3654  134.1187  156.2564 H   0  0  0  0  0  0  0  0  0  0  0  0
  145.8132  131.8275  158.5732 H   0  0  0  0  0  0  0  0  0  0  0  0
  147.6378  132.2470  160.5383 H   0  0  0  0  0  0  0  0  0  0  0  0
  149.0028  133.2412  160.1381 H   0  0  0  0  0  0  0  0  0  0  0  0
  145.0492  134.9645  160.6582 H   0  0  0  0  0  0  0  0  0  0  0  0
  145.2507  133.4866  159.7657 H   0  0  0  0  0  0  0  0  0  0  0  0
  145.3000  133.8812  162.5075 H   0  0  0  0  0  0  0  0  0  0  0  0
  147.4846  134.1800  162.5920 H   0  0  0  0  0  0  0  0  0  0  0  0
  148.8196  134.8972  161.7278 H   0  0  0  0  0  0  0  0  0  0  0  0
  146.1788  136.2964  162.3996 H   0  0  0  0  0  0  0  0  0  0  0  0
  147.7556  136.6150  163.0782 H   0  0  0  0  0  0  0  0  0  0  0  0
  145.7985  136.8998  160.0445 H   0  0  0  0  0  0  0  0  0  0  0  0
  147.1164  137.6526  159.1774 H   0  0  0  0  0  0  0  0  0  0  0  0
  148.4342  135.6016  159.1852 H   0  0  0  0  0  0  0  0  0  0  0  0
  146.8902  135.2753  158.4582 H   0  0  0  0  0  0  0  0  0  0  0  0
  145.3314  134.4284  149.5186 H   0  0  0  0  0  0  0  0  0  0  0  0
  1  2  1  0  0  0  0
  1 30  1  0  0  0  0
  1 31  1  0  0  0  0
  1 32  1  0  0  0  0
  2  3  1  0  0  0  0
  2 12  1  0  0  0  0
  3  4  1  0  0  0  0
  3 33  1  0  0  0  0
  3 34  1  0  0  0  0
  4  5  1  0  0  0  0
  4 35  1  0  0  0  0
  4 36  1  0  0  0  0
  5 10  1  0  0  0  0
  5  6  1  0  0  0  0
  5 37  1  0  0  0  0
  6  7  1  0  0  0  0
  6 38  1  0  0  0  0
  6 39  1  0  0  0  0
  7  8  1  0  0  0  0
  7 40  1  0  0  0  0
  7 41  1  0  0  0  0
  8  9  1  0  0  0  0
  8 42  1  0  0  0  0
  8 43  1  0  0  0  0
  9 10  1  0  0  0  0
  9 44  1  0  0  0  0
  9 45  1  0  0  0  0
 10 11  1  0  0  0  0
 10 64  1  0  0  0  0
 11 46  1  0  0  0  0
 11 47  1  0  0  0  0
 11 48  1  0  0  0  0
 12 17  1  0  0  0  0
 12 13  2  0  0  0  0
 13 14  1  0  0  0  0
 14 15  2  0  0  0  0
 14 49  1  0  0  0  0
 15 16  1  0  0  0  0
 16 20  1  0  0  0  0
 16 17  2  0  0  0  0
 17 18  1  0  0  0  0
 18 19  2  0  0  0  0
 19 20  1  0  0  0  0
 19 50  1  0  0  0  0
 20 21  1  0  0  0  0
 21 22  1  0  0  0  0
 21 51  1  0  0  0  0
 21 52  1  0  0  0  0
 22 29  1  0  0  0  0
 22 23  1  0  0  0  0
 22 25  1  0  0  0  0
 23 24  1  0  0  0  0
 23 53  1  0  0  0  0
 23 54  1  0  0  0  0
 24 55  1  0  0  0  0
 25 26  1  0  0  0  0
 25 56  1  0  0  0  0
 25 57  1  0  0  0  0
 26 27  1  0  0  0  0
 26 58  1  0  0  0  0
 26 59  1  0  0  0  0
 27 28  1  0  0  0  0
 28 29  1  0  0  0  0
 28 60  1  0  0  0  0
 28 61  1  0  0  0  0
 29 62  1  0  0  0  0
 29 63  1  0  0  0  0
M  CHG  1  10   1
M  END
> <s_m_source_file>
AV-unprocessed.smi

> <i_m_source_file_index>
90

> <i_lp_mmshare_version>
43012

> <i_f3d_flags>
0

> <s_epik_input>
W0NIM11OMVtDSDJdW0NIMl1bQ0gyXVtDSDJdW0NASF0xW0NIMl1bQ0gyXU4oW0NIM10pYyhuW2NIXW4yKWMoYzIzKW5bY0hdbjNbQ0gyXUM0KFtDSDJdW09IXSlbQ0gyXVtDSDJdT1tDSDJdW0NIMl00

> <s_epik_cmdline>
J2VwaWtfcHl0aG9uJywgJy1waCcsICc3LjAnLCAnLXRuJywgJzgnLCAnLW1hJywgJzIwMCcsICctbWV0YWxfYmluZGluZycsICctaW1hZScsICc8aW5maWxlLm1hZT4nLCAnLW9tYWUnLCAnPG91dGZpbGUubWFlPic=

> <r_lp_tautomer_probability>
1

> <r_epik_Ionization_Penalty>
0.00234895

> <r_epik_Ionization_Penalty_Charging>
0.00106647

> <r_epik_Ionization_Penalty_Neutral>
0.00128248

> <r_epik_State_Penalty>
-0

> <r_epik_Charging_Adjusted_Penalty>
0.00106647

> <i_epik_Tot_Q>
1

> <i_epik_Tot_abs_Q>
1

> <r_epik_Metal_State_Penalty>
-0

> <b_epik_Metal_Only>
0

> <s_lp_Force_Field>
OPLS_2005

> <r_lp_Energy>
42.9862

> <b_lp_Chiralities_Consistent>
1

> <s_lp_Variant>
AV-unprocessed.smi:90-2

> <Gold.Version>
5.8.1

> <Gold.Id.Protein>
6NUR|6NUR_protein|mol2

> <Gold.PLP.Fitness>
51.9413

> <Gold.PLP.PLP>
-43.9367

> <Gold.PLP.part.hbond>
-4.0000

> <Gold.PLP.part.metal>
0.0000

> <Gold.PLP.part.buried>
-5.0769

> <Gold.PLP.part.nonpolar>
-34.7614

> <Gold.PLP.part.repulsive>
0.1398

> <Gold.PLP.ligand.clash>
0.0000

> <Gold.PLP.ligand.torsion>
1.8166

> <Gold.PLP.Chemscore.Hbond>
3.5667

> <Gold.PLP.Chemscore.CHOScore>
0.0000

> <Gold.PLP.Chemscore.Metal>
0.0000

> <Gold.Chemscore.Hbonds>
donor molecule, donor type, donor heavy atom, donor atom, acceptor molecule, acceptor atom, score
      L1  H    10    64       P1  7921  0.86
      P1  H  6896  6908       L1    15  1.00
      P1  H  6931  6943       L1    27  0.88
      P1  H  6934  6947       L1    27  0.61

> <Gold.PLP.Chemscore.Internal.Correction>
0.9377

> <Gold.Rescore>
     Score         DG    S(hbond)    S(metal)    S(lipo)     H(rot)  DE(clash)    DE(int)     intcor
     17.54     -20.48       2.91        0.00     105.10       2.73       0.03       2.92       ----

> <Gold.Chemscore.Fitness>
17.5372

> <Gold.Chemscore.DG>
-20.4835

> <Gold.Chemscore.ZeroCoef>
-5.4800

> <Gold.Chemscore.Hbond>
2.9065

> <Gold.Chemscore.Metal>
0.0000

> <Gold.Chemscore.Lipo>
105.0990

> <Gold.Chemscore.Internal_Hbond>
0.0000

> <Gold.Chemscore.DEClash>
0.0282

> <Gold.Chemscore.DEInternal>
2.9180

> <Gold.Chemscore.Rot>
2.7347

> <Gold.Chemscore.Internal.Correction>
   9.000000E+99

> <Gold.Chemscore.Hbonds>
donor molecule, donor type, donor heavy atom, donor atom, acceptor molecule, acceptor atom, score
      L1  H    10    64       P1  7921  0.79
      P1  H  6896  6908       L1    15  0.94
      P1  H  6931  6943       L1    27  0.29
      P1  H  6934  6947       L1    27  0.05

> <Gold.Chemscore.Hbond.Weighted>
-9.7078

> <Gold.Chemscore.Metal.Weighted>
-0.0000

> <Gold.Chemscore.Lipo.Weighted>
-12.2966

> <Gold.Chemscore.Internal_Hbond.Weighted>
0.0000

> <Gold.Chemscore.DEClash.Weighted>
0.0282

> <Gold.Chemscore.DEInternal.Weighted>
2.9180

> <Gold.Chemscore.Rot.Weighted>
7.0009

> <Gold.Chemscore.Internal.Correction.Weighted>
   9.000000E+99

> <Gold.Protein.RotatedTorsions>
[ 6907 6896 6895 6894 ] final  112.18 input  -60.11 | X-H torsion
[ 7974 7965 7964 7962 ] final -130.38 input  175.53 | X-H torsion
[ 8008 7997 7996 7995 ] final  -32.18 input   59.86 | X-H torsion
[ 10167 10162 10161 10158 ] final   -7.88 input  -65.29 | X-H torsion
[ 10718 10713 10712 10709 ] final -108.48 input   66.30 | X-H torsion
[ 10763 10752 10751 10750 ] final  166.32 input  -60.55 | X-H torsion
[ 11005 11000 10999 10996 ] final  -69.62 input  -57.11 | X-H torsion

> <Gold.Protein.ActiveResidues>
 VAL166  LYS551  ARG553  GLY616  TRP617  ASP618  TYR619  PRO620  LYS621  CYS622 
 ASP623  PHE694  ASN695  SER759  ASP760  ASP761  ALA762  ILE779  LEU786  VAL792 
 PHE793  MET794  SER795  GLU796  ALA797  LYS798  CYS799  TRP800  GLU811  SER814 

> <Gold.Protein.RotatedAtoms>
  152.4930  133.8553  159.7222 H   0  0  0  0  0  0  0  0  0  0  0  0  # atno 6907 bound_to 6896
  150.9079  133.7025  159.2869 H   0  0  0  0  0  0  0  0  0  0  0  0  # atno 6908 bound_to 6896
  151.4445  135.1028  159.9732 H   0  0  0  0  0  0  0  0  0  0  0  0  # atno 6909 bound_to 6896
  144.9481  140.7314  143.4805 H   0  0  0  0  0  0  0  0  0  0  0  0  # atno 7974 bound_to 7965
  154.4188  140.1744  156.1686 H   0  0  0  0  0  0  0  0  0  0  0  0  # atno 8008 bound_to 7997
  155.9779  140.3380  155.6611 H   0  0  0  0  0  0  0  0  0  0  0  0  # atno 8009 bound_to 7997
  155.6539  140.0693  157.2568 H   0  0  0  0  0  0  0  0  0  0  0  0  # atno 8010 bound_to 7997
  140.7042  143.6031  150.8777 H   0  0  0  0  0  0  0  0  0  0  0  0  # atno 10167 bound_to 10162
  156.0488  130.5715  150.7967 H   0  0  0  0  0  0  0  0  0  0  0  0  # atno 10718 bound_to 10713
  154.3373  135.2754  155.2441 H   0  0  0  0  0  0  0  0  0  0  0  0  # atno 10763 bound_to 10752
  154.4727  135.5879  153.6336 H   0  0  0  0  0  0  0  0  0  0  0  0  # atno 10764 bound_to 10752
  152.9861  135.6092  154.3571 H   0  0  0  0  0  0  0  0  0  0  0  0  # atno 10765 bound_to 10752
  141.1557  133.6769  156.6627 H   0  0  0  0  0  0  0  0  0  0  0  0  # atno 11005 bound_to 11000
  145.2887  139.1891  143.4752 LP  0  0  0  0  0  0  0  0  0  0  0  0  # atno 17320 bound_to 7965
  146.3311  140.2860  142.8613 LP  0  0  0  0  0  0  0  0  0  0  0  0  # atno 17321 bound_to 7965
  139.9756  143.6008  152.2960 LP  0  0  0  0  0  0  0  0  0  0  0  0  # atno 17342 bound_to 10162
  139.6611  144.7662  151.1961 LP  0  0  0  0  0  0  0  0  0  0  0  0  # atno 17343 bound_to 10162
  157.5392  131.0940  150.9851 LP  0  0  0  0  0  0  0  0  0  0  0  0  # atno 17370 bound_to 10713
  157.0138  130.5647  149.5323 LP  0  0  0  0  0  0  0  0  0  0  0  0  # atno 17371 bound_to 10713
  140.3235  134.7988  157.4271 LP  0  0  0  0  0  0  0  0  0  0  0  0  # atno 17394 bound_to 11000
  140.1076  134.5388  155.8295 LP  0  0  0  0  0  0  0  0  0  0  0  0  # atno 17395 bound_to 11000

$$$$
