#       Name:                AV-unprocessed.smi:845
#       Creating user name   scv26
#       Creation time:       Fri Mar 27 01:38:55 2020


#       File generated by GOLD software.
#

@<TRIPOS>MOLECULE
AV-unprocessed.smi:845
    48    49     1
SMALL
NO_CHARGES


@<TRIPOS>ATOM
      1 ****        -2.0374  -0.0020  -2.0296 C.3            1 S1                 0.0000
      2 ****        -1.5377   0.6328  -0.7202 C.3            1 S1                 0.0000
      3 ****        -2.0321   2.0843  -0.5934 C.3            1 S1                 0.0000
      4 ****        -0.0041   0.4464  -0.5351 C.3            1 S1                 0.0000
      5 ****         0.5223   0.7849   0.8875 C.3            1 S1                 0.0000
      6 ****        -0.1627   0.0403   1.9397 N.am           1 S1                 0.0000
      7 ****         0.0452  -1.2543   2.2199 C.2            1 S1                 0.0000
      8 ****         0.8524  -1.9562   1.6096 O.2            1 S1                 0.0000
      9 ****        -0.7365  -1.6670   3.2327 N.am           1 S1                 0.0000
     10 ****        -0.8248  -2.9658   3.7990 C.2            1 S1                 0.0000
     11 ****        -0.1109  -4.0193   3.3854 N.2            1 S1                 0.0000
     12 ****        -0.4006  -5.1708   4.1220 C.2            1 S1                 0.0000
     13 ****        -1.3447  -4.9743   5.0990 C.2            1 S1                 0.0000
     14 ****        -1.9122  -3.3261   5.1319 S.3            1 S1                 0.0000
     15 ****         0.7668   1.1095  -1.6335 N.4            1 S1                 1.0000
     16 ****         1.2895   2.4724  -1.3512 C.3            1 S1                 0.0000
     17 ****         1.9020   3.0752  -2.6255 C.3            1 S1                 0.0000
     18 ****         2.9430   2.2261  -3.0929 O.3            1 S1                 0.0000
     19 ****         2.4635   0.9312  -3.4346 C.3            1 S1                 0.0000
     20 ****         1.8429   0.2580  -2.1977 C.3            1 S1                 0.0000
     21 ****        -1.6360   0.5097  -2.9047 H              1 S1                 0.0000
     22 ****        -3.1250   0.0410  -2.0943 H              1 S1                 0.0000
     23 ****        -1.7491  -1.0516  -2.0955 H              1 S1                 0.0000
     24 ****        -2.0276   0.0740   0.0778 H              1 S1                 0.0000
     25 ****        -1.6935   2.6995  -1.4266 H              1 S1                 0.0000
     26 ****        -1.6957   2.5488   0.3330 H              1 S1                 0.0000
     27 ****        -3.1221   2.1201  -0.5922 H              1 S1                 0.0000
     28 ****         0.1531  -0.6265  -0.6560 H              1 S1                 0.0000
     29 ****         1.5934   0.5856   0.9518 H              1 S1                 0.0000
     30 ****         0.3942   1.8432   1.1126 H              1 S1                 0.0000
     31 ****        -0.8413   0.5459   2.4908 H              1 S1                 0.0000
     32 ****        -1.3453  -0.9742   3.6429 H              1 S1                 0.0000
     33 ****         0.1138  -6.0900   3.8831 H              1 S1                 0.0000
     34 ****        -1.7391  -5.6966   5.7982 H              1 S1                 0.0000
     35 ****         0.4996   3.1242  -0.9821 H              1 S1                 0.0000
     36 ****         2.0568   2.4302  -0.5770 H              1 S1                 0.0000
     37 ****         1.1443   3.2084  -3.3995 H              1 S1                 0.0000
     38 ****         2.3186   4.0599  -2.4128 H              1 S1                 0.0000
     39 ****         1.7341   1.0044  -4.2430 H              1 S1                 0.0000
     40 ****         3.2947   0.3343  -3.8104 H              1 S1                 0.0000
     41 ****         2.6067   0.0805  -1.4391 H              1 S1                 0.0000
     42 ****         1.4416  -0.7146  -2.4853 H              1 S1                 0.0000
     43 ****         0.1013   1.2174  -2.3856 H              1 S1                 0.0000
     44 ****         1.3917  -1.5649   0.8640 LP             1 S1                 0.0000
     45 ****         0.9684  -2.9174   1.8597 LP             1 S1                 0.0000
     46 ****         0.5518  -3.9864   2.6373 LP             1 S1                 0.0000
     47 ****         3.6325   2.1355  -2.3743 LP             1 S1                 0.0000
     48 ****         3.3581   2.6405  -3.9028 LP             1 S1                 0.0000
@<TRIPOS>BOND
    1    1    2 1     
    2    1   21 1     
    3    1   22 1     
    4    1   23 1     
    5    2    3 1     
    6    2    4 1     
    7    2   24 1     
    8    3   25 1     
    9    3   26 1     
   10    3   27 1     
   11    4    5 1     
   12    4   15 1     
   13    4   28 1     
   14    5    6 1     
   15    5   29 1     
   16    5   30 1     
   17    6    7 am    
   18    6   31 1     
   19    7    8 2     
   20    7    9 am    
   21    9   10 1     
   22    9   32 1     
   23   10   14 1     
   24   10   11 2     
   25   11   12 1     
   26   12   13 2     
   27   12   33 1     
   28   13   14 1     
   29   13   34 1     
   30   15   20 1     
   31   15   16 1     
   32   15   43 1     
   33   16   17 1     
   34   16   35 1     
   35   16   36 1     
   36   17   18 1     
   37   17   37 1     
   38   17   38 1     
   39   18   19 1     
   40   19   20 1     
   41   19   39 1     
   42   19   40 1     
   43   20   41 1     
   44   20   42 1     
   45    8   44 1     
   46    8   45 1     
   47   11   46 1     
   48   18   47 1     
   49   18   48 1     
@<TRIPOS>SUBSTRUCTURE
      1 S1             1
@<TRIPOS>SET
LONE_PAIRS      STATIC     ATOMS    <user>   **** ""
5 44 45 46 47 48
DONOR_HYDROGENS      STATIC     ATOMS    <user>   **** ""
3 31 32 43
ATOM$BLUE        STATIC     ATOMS    COLORGROUP SYSTEM
5 44 45 46 47 48
ATOM$RED        STATIC     ATOMS    COLORGROUP SYSTEM
3 31 32 43
