#       Name:                AV-unprocessed.smi:1835
#       Creating user name   scv26
#       Creation time:       Fri Mar 27 09:17:02 2020


#       File generated by GOLD software.
#

@<TRIPOS>MOLECULE
AV-unprocessed.smi:1835
    48    49     1
SMALL
NO_CHARGES


@<TRIPOS>ATOM
      1 ****        -2.3599   1.4068   0.4376 C.3            1 S1                 0.0000
      2 ****        -1.4882   0.2553   0.9999 C.3            1 S1                 0.0000
      3 ****        -0.0911   0.8262   1.3820 C.3            1 S1                 0.0000
      4 ****         0.5859   1.4985   0.2762 N.am           1 S1                 0.0000
      5 ****         1.1960   0.8782  -0.7449 C.2            1 S1                 0.0000
      6 ****         1.2343  -0.3476  -0.8617 O.2            1 S1                 0.0000
      7 ****         1.8405   1.7919  -1.7972 C.3            1 S1                 0.0000
      8 ****         2.8382   1.1050  -2.6345 N.am           1 S1                 0.0000
      9 ****         2.4058   0.6340  -3.8903 C.2            1 S1                 0.0000
     10 ****         3.2321  -0.0091  -4.7303 C.2            1 S1                 0.0000
     11 ****         4.6004  -0.2142  -4.3181 C.2            1 S1                 0.0000
     12 ****         5.0235   0.2291  -3.1175 C.2            1 S1                 0.0000
     13 ****         4.1227   0.9296  -2.1946 C.2            1 S1                 0.0000
     14 ****         4.4997   1.3336  -1.0940 O.2            1 S1                 0.0000
     15 ****        -2.1465  -0.4740   2.1092 N.3            1 S1                 0.0000
     16 ****        -3.4638  -1.0005   1.7327 C.3            1 S1                 0.0000
     17 ****        -4.1419  -1.7843   2.8696 C.3            1 S1                 0.0000
     18 ****        -3.2973  -2.8480   3.2861 O.3            1 S1                 0.0000
     19 ****        -2.0332  -2.3794   3.7341 C.3            1 S1                 0.0000
     20 ****        -1.3394  -1.5946   2.6070 C.3            1 S1                 0.0000
     21 ****        -1.8510   1.9707  -0.3432 H              1 S1                 0.0000
     22 ****        -2.6370   2.1112   1.2227 H              1 S1                 0.0000
     23 ****        -3.2745   1.0429  -0.0281 H              1 S1                 0.0000
     24 ****        -1.3342  -0.4522   0.1838 H              1 S1                 0.0000
     25 ****        -0.1936   1.5394   2.2004 H              1 S1                 0.0000
     26 ****         0.5871   0.0514   1.7360 H              1 S1                 0.0000
     27 ****         0.5953   2.5081   0.2933 H              1 S1                 0.0000
     28 ****         1.0453   2.2097  -2.4162 H              1 S1                 0.0000
     29 ****         2.2957   2.6511  -1.3005 H              1 S1                 0.0000
     30 ****         1.3669   0.8213  -4.1196 H              1 S1                 0.0000
     31 ****         2.8817  -0.3668  -5.6873 H              1 S1                 0.0000
     32 ****         5.2876  -0.7265  -4.9751 H              1 S1                 0.0000
     33 ****         6.0508   0.0659  -2.8258 H              1 S1                 0.0000
     34 ****        -4.1376  -0.1906   1.4593 H              1 S1                 0.0000
     35 ****        -3.3684  -1.6441   0.8569 H              1 S1                 0.0000
     36 ****        -4.3604  -1.1292   3.7144 H              1 S1                 0.0000
     37 ****        -5.0920  -2.1968   2.5304 H              1 S1                 0.0000
     38 ****        -2.1603  -1.7539   4.6193 H              1 S1                 0.0000
     39 ****        -1.4233  -3.2327   4.0309 H              1 S1                 0.0000
     40 ****        -1.1028  -2.2734   1.7860 H              1 S1                 0.0000
     41 ****        -0.3926  -1.2414   3.0094 H              1 S1                 0.0000
     42 ****         0.7971  -0.9292  -0.1756 LP             1 S1                 0.0000
     43 ****         1.7025  -0.7611  -1.6426 LP             1 S1                 0.0000
     44 ****         3.8596   1.8073  -0.4891 LP             1 S1                 0.0000
     45 ****         5.4459   1.1879  -0.8051 LP             1 S1                 0.0000
     46 ****        -2.2513   0.2093   2.8318 LP             1 S1                 0.0000
     47 ****        -3.1567  -3.4694   2.5154 LP             1 S1                 0.0000
     48 ****        -3.7428  -3.3401   4.0340 LP             1 S1                 0.0000
@<TRIPOS>BOND
    1    1    2 1     
    2    1   21 1     
    3    1   22 1     
    4    1   23 1     
    5    2    3 1     
    6    2   15 1     
    7    2   24 1     
    8    3    4 1     
    9    3   25 1     
   10    3   26 1     
   11    4    5 am    
   12    4   27 1     
   13    5    6 2     
   14    5    7 1     
   15    7    8 1     
   16    7   28 1     
   17    7   29 1     
   18    8   13 am    
   19    8    9 1     
   20    9   10 2     
   21    9   30 1     
   22   10   11 1     
   23   10   31 1     
   24   11   12 2     
   25   11   32 1     
   26   12   13 1     
   27   12   33 1     
   28   13   14 2     
   29   15   20 1     
   30   15   16 1     
   31   16   17 1     
   32   16   34 1     
   33   16   35 1     
   34   17   18 1     
   35   17   36 1     
   36   17   37 1     
   37   18   19 1     
   38   19   20 1     
   39   19   38 1     
   40   19   39 1     
   41   20   40 1     
   42   20   41 1     
   43    6   42 1     
   44    6   43 1     
   45   14   44 1     
   46   14   45 1     
   47   15   46 1     
   48   18   47 1     
   49   18   48 1     
@<TRIPOS>SUBSTRUCTURE
      1 S1             1
@<TRIPOS>SET
LONE_PAIRS      STATIC     ATOMS    <user>   **** ""
7 42 43 44 45 46 47 48
DONOR_HYDROGENS      STATIC     ATOMS    <user>   **** ""
1 27
ATOM$BLUE        STATIC     ATOMS    COLORGROUP SYSTEM
7 42 43 44 45 46 47 48
ATOM$RED        STATIC     ATOMS    COLORGROUP SYSTEM
1 27
