#       Name:                AV-unprocessed.smi:110
#       Creating user name   scv26
#       Creation time:       Thu Mar 26 18:15:45 2020


#       File generated by GOLD software.
#

@<TRIPOS>MOLECULE
AV-unprocessed.smi:110
    57    61     1
SMALL
NO_CHARGES


@<TRIPOS>ATOM
      1 ****        -5.7705  -1.1187  -2.9244 O.3            1 S1                 0.0000
      2 ****        -4.8254  -1.7743  -2.1045 C.3            1 S1                 0.0000
      3 ****        -3.4469  -1.0906  -2.1455 C.3            1 S1                 0.0000
      4 ****        -3.4677   0.1367  -1.4335 O.3            1 S1                 0.0000
      5 ****        -2.3463   0.8835  -1.7933 C.3            1 S1                 0.0000
      6 ****        -1.2454   0.5992  -0.8161 N.pl3          1 S1                 0.0000
      7 ****        -1.2283  -0.2522   0.2683 C.2            1 S1                 0.0000
      8 ****        -0.1105  -0.2725   0.9425 N.2            1 S1                 0.0000
      9 ****         0.6957   0.6611   0.3020 C.ar           1 S1                 0.0000
     10 ****         2.0204   1.1462   0.4995 C.ar           1 S1                 0.0000
     11 ****         2.8557   0.7312   1.4804 N.pl3          1 S1                 0.0000
     12 ****         4.2231   0.3180   1.1339 C.3            1 S1                 0.0000
     13 ****         4.7652  -0.5237   2.3044 C.3            1 S1                 0.0000
     14 ****         3.6505  -0.3905   3.2911 C.ar           1 S1                 0.0000
     15 ****         3.6113  -0.8911   4.6039 C.ar           1 S1                 0.0000
     16 ****         2.4638  -0.6278   5.3819 C.ar           1 S1                 0.0000
     17 ****         1.3952   0.1281   4.8463 C.ar           1 S1                 0.0000
     18 ****         1.4574   0.6226   3.5248 C.ar           1 S1                 0.0000
     19 ****         2.5975   0.3371   2.7453 C.ar           1 S1                 0.0000
     20 ****         2.4961   2.0538  -0.3912 N.ar           1 S1                 0.0000
     21 ****         1.7186   2.4929  -1.3845 C.ar           1 S1                 0.0000
     22 ****         0.4632   2.1480  -1.6758 N.ar           1 S1                 0.0000
     23 ****        -0.0104   1.2106  -0.8048 C.ar           1 S1                 0.0000
     24 ****        -1.9320   0.4340  -3.2120 C.3            1 S1                 0.0000
     25 ****        -2.0929   1.4790  -4.1495 O.3            1 S1                 0.0000
     26 ****        -2.8867  -0.7201  -3.5236 C.3            1 S1                 0.0000
     27 ****        -2.1840  -1.8183  -4.0707 O.3            1 S1                 0.0000
     28 ****        -2.7338  -1.7382  -1.6319 H              1 S1                 0.0000
     29 ****        -2.5282   1.9539  -1.6865 H              1 S1                 0.0000
     30 ****        -0.8907   0.1071  -3.2149 H              1 S1                 0.0000
     31 ****        -3.6742  -0.3965  -4.2051 H              1 S1                 0.0000
     32 ****        -6.5946  -1.5768  -2.8599 H              1 S1                 0.0000
     33 ****        -5.1990  -1.8202  -1.0812 H              1 S1                 0.0000
     34 ****        -4.7348  -2.8021  -2.4569 H              1 S1                 0.0000
     35 ****        -2.0695  -0.8684   0.5498 H              1 S1                 0.0000
     36 ****         4.2348  -0.2517   0.2036 H              1 S1                 0.0000
     37 ****         4.8374   1.2074   0.9885 H              1 S1                 0.0000
     38 ****         4.9031  -1.5689   2.0263 H              1 S1                 0.0000
     39 ****         5.6990  -0.1271   2.7032 H              1 S1                 0.0000
     40 ****         4.4383  -1.4562   5.0079 H              1 S1                 0.0000
     41 ****         2.4052  -0.9981   6.3947 H              1 S1                 0.0000
     42 ****         0.5266   0.3335   5.4543 H              1 S1                 0.0000
     43 ****         0.6446   1.2131   3.1293 H              1 S1                 0.0000
     44 ****         2.1681   3.2228  -2.0414 H              1 S1                 0.0000
     45 ****        -1.4949   2.1753  -3.9242 H              1 S1                 0.0000
     46 ****        -2.8025  -2.5099  -4.2495 H              1 S1                 0.0000
     47 ****        -5.4551  -1.1247  -3.8733 LP             1 S1                 0.0000
     48 ****        -5.8852  -0.1740  -2.6173 LP             1 S1                 0.0000
     49 ****        -3.4495  -0.0447  -0.4503 LP             1 S1                 0.0000
     50 ****        -4.2979   0.6447  -1.6634 LP             1 S1                 0.0000
     51 ****         0.1147  -0.8330   1.7394 LP             1 S1                 0.0000
     52 ****         3.4320   2.3948  -0.3032 LP             1 S1                 0.0000
     53 ****        -0.0638   2.5282  -2.4359 LP             1 S1                 0.0000
     54 ****        -3.0332   1.8181  -4.1196 LP             1 S1                 0.0000
     55 ****        -1.8890   1.1426  -5.0689 LP             1 S1                 0.0000
     56 ****        -1.4982  -2.1394  -3.4177 LP             1 S1                 0.0000
     57 ****        -1.7327  -1.5415  -4.9190 LP             1 S1                 0.0000
@<TRIPOS>BOND
    1    1    2 1     
    2    1   32 1     
    3    2    3 1     
    4    2   33 1     
    5    2   34 1     
    6    3   28 1     
    7    3   26 1     
    8    3    4 1     
    9    4    5 1     
   10    5   29 1     
   11    5    6 1     
   12    5   24 1     
   13    6   23 1     
   14    6    7 1     
   15    7    8 2     
   16    7   35 1     
   17    8    9 1     
   18    9   23 ar    
   19    9   10 ar    
   20   10   11 1     
   21   10   20 ar    
   22   11   19 1     
   23   11   12 1     
   24   12   13 1     
   25   12   36 1     
   26   12   37 1     
   27   13   14 1     
   28   13   38 1     
   29   13   39 1     
   30   14   19 ar    
   31   14   15 ar    
   32   15   16 ar    
   33   15   40 1     
   34   16   17 ar    
   35   16   41 1     
   36   17   18 ar    
   37   17   42 1     
   38   18   19 ar    
   39   18   43 1     
   40   20   21 ar    
   41   21   22 ar    
   42   21   44 1     
   43   22   23 ar    
   44   24   30 1     
   45   24   25 1     
   46   24   26 1     
   47   25   45 1     
   48   26   31 1     
   49   26   27 1     
   50   27   46 1     
   51    1   47 1     
   52    1   48 1     
   53    4   49 1     
   54    4   50 1     
   55    8   51 1     
   56   20   52 1     
   57   22   53 1     
   58   25   54 1     
   59   25   55 1     
   60   27   56 1     
   61   27   57 1     
@<TRIPOS>SUBSTRUCTURE
      1 S1             1
@<TRIPOS>SET
LONE_PAIRS      STATIC     ATOMS    <user>   **** ""
11 47 48 49 50 51 52 53 54 55 56 57
DONOR_HYDROGENS      STATIC     ATOMS    <user>   **** ""
3 32 45 46
ATOM$BLUE        STATIC     ATOMS    COLORGROUP SYSTEM
11 47 48 49 50 51 52 53 54 55 56 57
ATOM$RED        STATIC     ATOMS    COLORGROUP SYSTEM
3 32 45 46
