AV-unprocessed.smi:3348|AV-procd|sdf|12924|dock2
  -GOLD-   2272019343D 1   1.00000     0.00000
 Structure written by MMmdl.
 46 47  0  0  0  0  0  0  0  0  1 V2000
  152.4716  139.5331  155.6790 C   0  0  0  0  0  0  0  0  0  0  0  0
  151.0687  140.1506  155.5464 C   0  0  1  0  0  0  0  0  0  0  0  0
  150.0389  139.1541  154.9581 C   0  0  0  0  0  0  0  0  0  0  0  0
  148.8458  139.7990  154.4387 N   0  0  0  0  0  0  0  0  0  0  0  0
  148.4877  141.1287  154.5140 C   0  0  0  0  0  0  0  0  0  0  0  0
  147.2906  141.2641  153.8714 C   0  0  0  0  0  0  0  0  0  0  0  0
  146.9952  139.9455  153.4262 C   0  0  0  0  0  0  0  0  0  0  0  0
  147.9298  139.0715  153.7633 N   0  0  0  0  0  0  0  0  0  0  0  0
  150.6469  140.6583  156.8559 N   0  0  0  0  0  0  0  0  0  0  0  0
  150.6629  142.1129  157.0053 C   0  0  0  0  0  0  0  0  0  0  0  0
  151.7807  142.5563  157.9636 C   0  0  0  0  0  0  0  0  0  0  0  0
  152.1016  141.5520  158.9190 O   0  0  0  0  0  0  0  0  0  0  0  0
  153.0807  141.9180  159.8856 C   0  0  2  0  0  0  0  0  0  0  0  0
  153.8358  140.6364  160.2851 C   0  0  0  0  0  0  0  0  0  0  0  0
  154.8424  140.9060  161.4126 C   0  0  0  0  0  0  0  0  0  0  0  0
  154.1463  141.5303  162.6304 C   0  0  0  0  0  0  0  0  0  0  0  0
  153.3881  142.8091  162.2406 C   0  0  0  0  0  0  0  0  0  0  0  0
  152.3758  142.5543  161.1051 C   0  0  1  0  0  0  0  0  0  0  0  0
  151.6444  143.8536  160.7315 C   0  0  0  0  0  0  0  0  0  0  0  0
  152.8797  139.2461  154.7096 H   0  0  0  0  0  0  0  0  0  0  0  0
  152.4561  138.6448  156.3111 H   0  0  0  0  0  0  0  0  0  0  0  0
  153.1708  140.2438  156.1206 H   0  0  0  0  0  0  0  0  0  0  0  0
  151.1525  140.9938  154.8594 H   0  0  0  0  0  0  0  0  0  0  0  0
  150.4940  138.5799  154.1495 H   0  0  0  0  0  0  0  0  0  0  0  0
  149.7174  138.4334  155.7103 H   0  0  0  0  0  0  0  0  0  0  0  0
  149.1066  141.8592  155.0137 H   0  0  0  0  0  0  0  0  0  0  0  0
  146.7144  142.1676  153.7383 H   0  0  0  0  0  0  0  0  0  0  0  0
  146.1362  139.6003  152.8699 H   0  0  0  0  0  0  0  0  0  0  0  0
  149.7237  140.3029  157.0831 H   0  0  0  0  0  0  0  0  0  0  0  0
  150.7638  142.5976  156.0343 H   0  0  0  0  0  0  0  0  0  0  0  0
  149.7160  142.4528  157.4224 H   0  0  0  0  0  0  0  0  0  0  0  0
  152.6763  142.8272  157.4028 H   0  0  0  0  0  0  0  0  0  0  0  0
  151.4742  143.4560  158.4982 H   0  0  0  0  0  0  0  0  0  0  0  0
  153.7966  142.6370  159.4821 H   0  0  0  0  0  0  0  0  0  0  0  0
  153.1226  139.8780  160.6105 H   0  0  0  0  0  0  0  0  0  0  0  0
  154.3530  140.2202  159.4202 H   0  0  0  0  0  0  0  0  0  0  0  0
  155.3355  139.9773  161.7012 H   0  0  0  0  0  0  0  0  0  0  0  0
  155.6252  141.5749  161.0532 H   0  0  0  0  0  0  0  0  0  0  0  0
  153.4507  140.8106  163.0637 H   0  0  0  0  0  0  0  0  0  0  0  0
  154.8812  141.7546  163.4039 H   0  0  0  0  0  0  0  0  0  0  0  0
  152.8740  143.2070  163.1163 H   0  0  0  0  0  0  0  0  0  0  0  0
  154.1034  143.5725  161.9313 H   0  0  0  0  0  0  0  0  0  0  0  0
  151.6302  141.8479  161.4733 H   0  0  0  0  0  0  0  0  0  0  0  0
  152.3359  144.5974  160.3344 H   0  0  0  0  0  0  0  0  0  0  0  0
  151.1494  144.2886  161.6000 H   0  0  0  0  0  0  0  0  0  0  0  0
  150.8784  143.6750  159.9767 H   0  0  0  0  0  0  0  0  0  0  0  0
  1  2  1  0  0  0  0
  1 20  1  0  0  0  0
  1 21  1  0  0  0  0
  1 22  1  0  0  0  0
  2  3  1  0  0  0  0
  2  9  1  0  0  0  0
  2 23  1  0  0  0  0
  3  4  1  0  0  0  0
  3 24  1  0  0  0  0
  3 25  1  0  0  0  0
  4  8  1  0  0  0  0
  4  5  1  0  0  0  0
  5  6  2  0  0  0  0
  5 26  1  0  0  0  0
  6  7  1  0  0  0  0
  6 27  1  0  0  0  0
  7  8  2  0  0  0  0
  7 28  1  0  0  0  0
  9 10  1  0  0  0  0
  9 29  1  0  0  0  0
 10 11  1  0  0  0  0
 10 30  1  0  0  0  0
 10 31  1  0  0  0  0
 11 12  1  0  0  0  0
 11 32  1  0  0  0  0
 11 33  1  0  0  0  0
 12 13  1  0  0  0  0
 13 18  1  0  0  0  0
 13 14  1  0  0  0  0
 13 34  1  0  0  0  0
 14 15  1  0  0  0  0
 14 35  1  0  0  0  0
 14 36  1  0  0  0  0
 15 16  1  0  0  0  0
 15 37  1  0  0  0  0
 15 38  1  0  0  0  0
 16 17  1  0  0  0  0
 16 39  1  0  0  0  0
 16 40  1  0  0  0  0
 17 18  1  0  0  0  0
 17 41  1  0  0  0  0
 17 42  1  0  0  0  0
 18 19  1  0  0  0  0
 18 43  1  0  0  0  0
 19 44  1  0  0  0  0
 19 45  1  0  0  0  0
 19 46  1  0  0  0  0
M  END
> <s_m_source_file>
AV-unprocessed.smi

> <i_m_source_file_index>
3348

> <i_lp_mmshare_version>
43012

> <i_f3d_flags>
0

> <s_epik_input>
bjFbY0hdW2NIXVtjSF1uMVtDSDJdW0NAQEhdKFtDSDNdKVtOSF1bQ0gyXVtDSDJdT1tDQEBIXTJbQ0gyXVtDSDJdW0NIMl1bQ0gyXVtDQEhdMltDSDNd

> <s_epik_cmdline>
J2VwaWtfcHl0aG9uJywgJy1waCcsICc3LjAnLCAnLXRuJywgJzgnLCAnLW1hJywgJzIwMCcsICctbWV0YWxfYmluZGluZycsICctaW1hZScsICc8aW5maWxlLm1hZT4nLCAnLW9tYWUnLCAnPG91dGZpbGUubWFlPic=

> <r_lp_tautomer_probability>
1

> <r_epik_Ionization_Penalty>
2.46945

> <r_epik_Ionization_Penalty_Charging>
0

> <r_epik_Ionization_Penalty_Neutral>
2.46945

> <r_epik_State_Penalty>
2.6322

> <r_epik_Charging_Adjusted_Penalty>
2.6322

> <i_epik_Tot_Q>
0

> <i_epik_Tot_abs_Q>
0

> <r_epik_Metal_State_Penalty>
2.63217

> <b_epik_Metal_Only>
0

> <s_lp_Force_Field>
OPLS_2005

> <r_lp_Energy>
18.9542

> <b_lp_Chiralities_Consistent>
1

> <s_lp_Variant>
AV-unprocessed.smi:3348-10

> <Gold.Version>
5.8.1

> <Gold.Id.Protein>
6NUR|6NUR_protein|mol2

> <Gold.PLP.Fitness>
45.8913

> <Gold.PLP.PLP>
-43.5741

> <Gold.PLP.part.hbond>
0.0000

> <Gold.PLP.part.metal>
0.0000

> <Gold.PLP.part.buried>
-2.0383

> <Gold.PLP.part.nonpolar>
-40.3252

> <Gold.PLP.part.repulsive>
0.2498

> <Gold.PLP.ligand.clash>
0.0000

> <Gold.PLP.ligand.torsion>
1.8035

> <Gold.PLP.Chemscore.Hbond>
0.0000

> <Gold.PLP.Chemscore.CHOScore>
1.9512

> <Gold.PLP.Chemscore.Metal>
0.0000

> <Gold.Chemscore.Hbonds>
donor molecule, donor type, donor heavy atom, donor atom, acceptor molecule, acceptor atom, score
      L1  C     7    28       P1 10175  0.75

> <Gold.PLP.Chemscore.Internal.Correction>
0.0708

> <Gold.Rescore>
     Score         DG    S(hbond)    S(metal)    S(lipo)     H(rot)  DE(clash)    DE(int)     intcor
     13.92     -16.72       0.00        0.00     133.76       1.72       0.83       1.97       ----

> <Gold.Chemscore.Fitness>
13.9175

> <Gold.Chemscore.DG>
-16.7174

> <Gold.Chemscore.ZeroCoef>
-5.4800

> <Gold.Chemscore.Hbond>
0.0000

> <Gold.Chemscore.Metal>
0.0000

> <Gold.Chemscore.Lipo>
133.7609

> <Gold.Chemscore.Internal_Hbond>
0.0000

> <Gold.Chemscore.DEClash>
0.8254

> <Gold.Chemscore.DEInternal>
1.9745

> <Gold.Chemscore.Rot>
1.7237

> <Gold.Chemscore.Internal.Correction>
   9.000000E+99

> <Gold.Chemscore.Hbond.Weighted>
-0.0000

> <Gold.Chemscore.Metal.Weighted>
-0.0000

> <Gold.Chemscore.Lipo.Weighted>
-15.6500

> <Gold.Chemscore.Internal_Hbond.Weighted>
0.0000

> <Gold.Chemscore.DEClash.Weighted>
0.8254

> <Gold.Chemscore.DEInternal.Weighted>
1.9745

> <Gold.Chemscore.Rot.Weighted>
4.4126

> <Gold.Chemscore.Internal.Correction.Weighted>
   9.000000E+99

> <Gold.Protein.RotatedTorsions>
[ 6907 6896 6895 6894 ] final   40.69 input  -60.11 | X-H torsion
[ 7974 7965 7964 7962 ] final  175.47 input  175.53 | X-H torsion
[ 8008 7997 7996 7995 ] final -144.89 input   59.86 | X-H torsion
[ 10167 10162 10161 10158 ] final  -40.31 input  -65.29 | X-H torsion
[ 10718 10713 10712 10709 ] final  -92.56 input   66.30 | X-H torsion
[ 10763 10752 10751 10750 ] final  -46.48 input  -60.55 | X-H torsion
[ 11005 11000 10999 10996 ] final  -88.85 input  -57.11 | X-H torsion

> <Gold.Protein.ActiveResidues>
 VAL166  LYS551  ARG553  GLY616  TRP617  ASP618  TYR619  PRO620  LYS621  CYS622 
 ASP623  PHE694  ASN695  SER759  ASP760  ASP761  ALA762  ILE779  LEU786  VAL792 
 PHE793  MET794  SER795  GLU796  ALA797  LYS798  CYS799  TRP800  GLU811  SER814 

> <Gold.Protein.RotatedAtoms>
  152.1858  134.8715  160.0521 H   0  0  0  0  0  0  0  0  0  0  0  0  # atno 6907 bound_to 6896
  151.9622  133.3694  159.4048 H   0  0  0  0  0  0  0  0  0  0  0  0  # atno 6908 bound_to 6896
  150.6926  134.4152  159.5223 H   0  0  0  0  0  0  0  0  0  0  0  0  # atno 6909 bound_to 6896
  144.7201  139.9952  143.6440 H   0  0  0  0  0  0  0  0  0  0  0  0  # atno 7974 bound_to 7965
  155.5343  140.0602  157.2883 H   0  0  0  0  0  0  0  0  0  0  0  0  # atno 8008 bound_to 7997
  154.4473  140.1930  156.0571 H   0  0  0  0  0  0  0  0  0  0  0  0  # atno 8009 bound_to 7997
  156.0630  140.3270  155.7488 H   0  0  0  0  0  0  0  0  0  0  0  0  # atno 8010 bound_to 7997
  140.7038  143.3161  151.2906 H   0  0  0  0  0  0  0  0  0  0  0  0  # atno 10167 bound_to 10162
  156.0003  130.4992  150.5644 H   0  0  0  0  0  0  0  0  0  0  0  0  # atno 10718 bound_to 10713
  154.0456  135.6638  153.4794 H   0  0  0  0  0  0  0  0  0  0  0  0  # atno 10763 bound_to 10752
  153.0484  135.5100  154.7800 H   0  0  0  0  0  0  0  0  0  0  0  0  # atno 10764 bound_to 10752
  154.6790  135.3042  154.9605 H   0  0  0  0  0  0  0  0  0  0  0  0  # atno 10765 bound_to 10752
  141.1595  133.7595  156.9511 H   0  0  0  0  0  0  0  0  0  0  0  0  # atno 11005 bound_to 11000
  146.0379  139.3395  143.0715 LP  0  0  0  0  0  0  0  0  0  0  0  0  # atno 17320 bound_to 7965
  145.8371  140.9600  143.0819 LP  0  0  0  0  0  0  0  0  0  0  0  0  # atno 17321 bound_to 7965
  139.6600  144.0206  152.2686 LP  0  0  0  0  0  0  0  0  0  0  0  0  # atno 17342 bound_to 10162
  139.9770  144.6454  150.7935 LP  0  0  0  0  0  0  0  0  0  0  0  0  # atno 17343 bound_to 10162
  157.3548  131.0740  151.1684 LP  0  0  0  0  0  0  0  0  0  0  0  0  # atno 17370 bound_to 10713
  157.2488  130.6604  149.5922 LP  0  0  0  0  0  0  0  0  0  0  0  0  # atno 17371 bound_to 10713
  140.1256  134.9389  157.2266 LP  0  0  0  0  0  0  0  0  0  0  0  0  # atno 17394 bound_to 11000
  140.3017  134.3125  155.7288 LP  0  0  0  0  0  0  0  0  0  0  0  0  # atno 17395 bound_to 11000

$$$$
