AV-unprocessed.smi:2993|AV-procd|sdf|11403|dock3
  -GOLD-   2272016323D 1   1.00000     0.00000
 Structure written by MMmdl.
 34 35  0  0  0  0  0  0  0  0  1 V2000
  152.7328  137.4843  160.0839 C   0  0  0  0  0  0  0  0  0  0  0  0
  152.5505  137.4179  158.5946 C   0  0  0  0  0  0  0  0  0  0  0  0
  153.1069  136.4250  157.9216 N   0  0  0  0  0  0  0  0  0  0  0  0
  152.7771  136.6379  156.5799 O   0  0  0  0  0  0  0  0  0  0  0  0
  152.0279  137.7665  156.4964 C   0  0  0  0  0  0  0  0  0  0  0  0
  151.5779  138.1746  155.1346 C   0  0  0  0  0  0  0  0  0  0  0  0
  151.8428  138.3105  157.7375 C   0  0  0  0  0  0  0  0  0  0  0  0
  151.0821  139.5585  158.1058 C   0  0  0  0  0  0  0  0  0  0  0  0
  152.0547  140.6093  158.6394 C   0  0  0  0  0  0  0  0  0  0  0  0
  153.2676  140.4456  158.5109 O   0  0  0  0  0  0  0  0  0  0  0  0
  151.5072  141.6744  159.2454 N   0  0  0  0  0  0  0  0  0  0  0  0
  152.2445  142.7631  159.8762 C   0  0  1  0  0  0  0  0  0  0  0  0
  153.4110  142.1664  160.6753 C   0  0  0  0  0  0  0  0  0  0  0  0
  152.7435  143.8016  158.8857 C   0  0  0  0  0  0  0  0  0  0  0  0
  152.2688  145.2336  158.9558 C   0  0  0  0  0  0  0  0  0  0  0  0
  151.8470  144.3527  157.8021 C   0  0  0  0  0  0  0  0  0  0  0  0
  153.7479  137.7901  160.3380 H   0  0  0  0  0  0  0  0  0  0  0  0
  152.5495  136.5149  160.5480 H   0  0  0  0  0  0  0  0  0  0  0  0
  152.0491  138.1999  160.5392 H   0  0  0  0  0  0  0  0  0  0  0  0
  151.7034  139.2483  154.9930 H   0  0  0  0  0  0  0  0  0  0  0  0
  150.5245  137.9349  154.9896 H   0  0  0  0  0  0  0  0  0  0  0  0
  152.1522  137.6639  154.3613 H   0  0  0  0  0  0  0  0  0  0  0  0
  150.5552  139.9700  157.2439 H   0  0  0  0  0  0  0  0  0  0  0  0
  150.3163  139.3577  158.8556 H   0  0  0  0  0  0  0  0  0  0  0  0
  150.5001  141.7193  159.2981 H   0  0  0  0  0  0  0  0  0  0  0  0
  151.5852  143.2630  160.5885 H   0  0  0  0  0  0  0  0  0  0  0  0
  153.9586  142.9434  161.2097 H   0  0  0  0  0  0  0  0  0  0  0  0
  154.1174  141.6525  160.0227 H   0  0  0  0  0  0  0  0  0  0  0  0
  153.0557  141.4483  161.4154 H   0  0  0  0  0  0  0  0  0  0  0  0
  153.7890  143.6703  158.6115 H   0  0  0  0  0  0  0  0  0  0  0  0
  151.5134  145.4823  159.6988 H   0  0  0  0  0  0  0  0  0  0  0  0
  152.9990  146.0146  158.7532 H   0  0  0  0  0  0  0  0  0  0  0  0
  152.2971  144.5438  156.8300 H   0  0  0  0  0  0  0  0  0  0  0  0
  150.8109  144.0210  157.7790 H   0  0  0  0  0  0  0  0  0  0  0  0
  1  2  1  0  0  0  0
  1 17  1  0  0  0  0
  1 18  1  0  0  0  0
  1 19  1  0  0  0  0
  2  7  1  0  0  0  0
  2  3  2  0  0  0  0
  3  4  1  0  0  0  0
  4  5  1  0  0  0  0
  5  6  1  0  0  0  0
  5  7  2  0  0  0  0
  6 20  1  0  0  0  0
  6 21  1  0  0  0  0
  6 22  1  0  0  0  0
  7  8  1  0  0  0  0
  8  9  1  0  0  0  0
  8 23  1  0  0  0  0
  8 24  1  0  0  0  0
  9 10  2  0  0  0  0
  9 11  1  0  0  0  0
 11 12  1  0  0  0  0
 11 25  1  0  0  0  0
 12 13  1  0  0  0  0
 12 14  1  0  0  0  0
 12 26  1  0  0  0  0
 13 27  1  0  0  0  0
 13 28  1  0  0  0  0
 13 29  1  0  0  0  0
 14 16  1  0  0  0  0
 14 15  1  0  0  0  0
 14 30  1  0  0  0  0
 15 16  1  0  0  0  0
 15 31  1  0  0  0  0
 15 32  1  0  0  0  0
 16 33  1  0  0  0  0
 16 34  1  0  0  0  0
M  END
> <s_m_source_file>
AV-unprocessed.smi

> <i_m_source_file_index>
2993

> <i_lp_mmshare_version>
43012

> <i_f3d_flags>
0

> <s_epik_input>
W0NIM11jMW5vYyhbQ0gzXSljMVtDSDJdQyg9TylbTkhdW0NASF0oW0NIM10pW0NIXTJbQ0gyXVtDSDJdMg==

> <s_epik_cmdline>
J2VwaWtfcHl0aG9uJywgJy1waCcsICc3LjAnLCAnLXRuJywgJzgnLCAnLW1hJywgJzIwMCcsICctbWV0YWxfYmluZGluZycsICctaW1hZScsICc8aW5maWxlLm1hZT4nLCAnLW9tYWUnLCAnPG91dGZpbGUubWFlPic=

> <r_lp_tautomer_probability>
1

> <r_epik_Ionization_Penalty>
1.92533e-08

> <r_epik_Ionization_Penalty_Charging>
0

> <r_epik_Ionization_Penalty_Neutral>
1.92533e-08

> <r_epik_State_Penalty>
-0

> <r_epik_Charging_Adjusted_Penalty>
0

> <i_epik_Tot_Q>
0

> <i_epik_Tot_abs_Q>
0

> <r_epik_Metal_State_Penalty>
-0

> <b_epik_Metal_Only>
0

> <s_lp_Force_Field>
OPLS_2005

> <r_lp_Energy>
6.29181

> <b_lp_Chiralities_Consistent>
1

> <s_lp_Variant>
AV-unprocessed.smi:2993-2

> <Gold.Version>
5.8.1

> <Gold.Id.Protein>
6NUR|6NUR_protein|mol2

> <Gold.PLP.Fitness>
38.3353

> <Gold.PLP.PLP>
-34.3133

> <Gold.PLP.part.hbond>
-2.0000

> <Gold.PLP.part.metal>
0.0000

> <Gold.PLP.part.buried>
-3.2747

> <Gold.PLP.part.nonpolar>
-28.8960

> <Gold.PLP.part.repulsive>
0.1493

> <Gold.PLP.ligand.clash>
0.0000

> <Gold.PLP.ligand.torsion>
1.2677

> <Gold.PLP.Chemscore.Hbond>
1.8320

> <Gold.PLP.Chemscore.CHOScore>
0.0000

> <Gold.PLP.Chemscore.Metal>
0.0000

> <Gold.Chemscore.Hbonds>
donor molecule, donor type, donor heavy atom, donor atom, acceptor molecule, acceptor atom, score
      P1  H  7997  8010       L1    10  0.82
      P1  H 10752 10765       L1     4  0.85

> <Gold.PLP.Chemscore.Internal.Correction>
1.0614

> <Gold.Rescore>
     Score         DG    S(hbond)    S(metal)    S(lipo)     H(rot)  DE(clash)    DE(int)     intcor
     16.06     -18.77       1.71        0.00      96.57       1.46       0.02       2.69       ----

> <Gold.Chemscore.Fitness>
16.0593

> <Gold.Chemscore.DG>
-18.7725

> <Gold.Chemscore.ZeroCoef>
-5.4800

> <Gold.Chemscore.Hbond>
1.7148

> <Gold.Chemscore.Metal>
0.0000

> <Gold.Chemscore.Lipo>
96.5669

> <Gold.Chemscore.Internal_Hbond>
0.0000

> <Gold.Chemscore.DEClash>
0.0215

> <Gold.Chemscore.DEInternal>
2.6916

> <Gold.Chemscore.Rot>
1.4584

> <Gold.Chemscore.Internal.Correction>
   9.000000E+99

> <Gold.Chemscore.Hbonds>
donor molecule, donor type, donor heavy atom, donor atom, acceptor molecule, acceptor atom, score
      P1  H  7997  8010       L1    10  0.77
      P1  H 10752 10765       L1     4  0.71

> <Gold.Chemscore.Hbond.Weighted>
-5.7275

> <Gold.Chemscore.Metal.Weighted>
-0.0000

> <Gold.Chemscore.Lipo.Weighted>
-11.2983

> <Gold.Chemscore.Internal_Hbond.Weighted>
0.0000

> <Gold.Chemscore.DEClash.Weighted>
0.0215

> <Gold.Chemscore.DEInternal.Weighted>
2.6916

> <Gold.Chemscore.Rot.Weighted>
3.7334

> <Gold.Chemscore.Internal.Correction.Weighted>
   9.000000E+99

> <Gold.Protein.RotatedTorsions>
[ 6907 6896 6895 6894 ] final -111.40 input  -60.11 | X-H torsion
[ 7974 7965 7964 7962 ] final  -43.17 input  175.53 | X-H torsion
[ 8008 7997 7996 7995 ] final   28.80 input   59.86 | X-H torsion
[ 10167 10162 10161 10158 ] final   85.37 input  -65.29 | X-H torsion
[ 10718 10713 10712 10709 ] final -137.51 input   66.30 | X-H torsion
[ 10763 10752 10751 10750 ] final -113.14 input  -60.55 | X-H torsion
[ 11005 11000 10999 10996 ] final -111.23 input  -57.11 | X-H torsion

> <Gold.Protein.ActiveResidues>
 VAL166  LYS551  ARG553  GLY616  TRP617  ASP618  TYR619  PRO620  LYS621  CYS622 
 ASP623  PHE694  ASN695  SER759  ASP760  ASP761  ALA762  ILE779  LEU786  VAL792 
 PHE793  MET794  SER795  GLU796  ALA797  LYS798  CYS799  TRP800  GLU811  SER814 

> <Gold.Protein.RotatedAtoms>
  150.7688  133.9241  159.3406 H   0  0  0  0  0  0  0  0  0  0  0  0  # atno 6907 bound_to 6896
  151.7132  135.0906  160.0281 H   0  0  0  0  0  0  0  0  0  0  0  0  # atno 6908 bound_to 6896
  152.3696  133.6363  159.6112 H   0  0  0  0  0  0  0  0  0  0  0  0  # atno 6909 bound_to 6896
  146.0045  140.7036  142.9254 H   0  0  0  0  0  0  0  0  0  0  0  0  # atno 7974 bound_to 7965
  155.0644  140.3193  155.4650 H   0  0  0  0  0  0  0  0  0  0  0  0  # atno 8008 bound_to 7997
  156.2805  140.2123  156.5716 H   0  0  0  0  0  0  0  0  0  0  0  0  # atno 8009 bound_to 7997
  154.7106  140.0498  157.0534 H   0  0  0  0  0  0  0  0  0  0  0  0  # atno 8010 bound_to 7997
  139.8984  144.6344  150.8663 H   0  0  0  0  0  0  0  0  0  0  0  0  # atno 10167 bound_to 10162
  156.2889  130.7364  151.1383 H   0  0  0  0  0  0  0  0  0  0  0  0  # atno 10718 bound_to 10713
  154.8382  135.4465  154.1303 H   0  0  0  0  0  0  0  0  0  0  0  0  # atno 10763 bound_to 10752
  153.2515  135.6927  153.7680 H   0  0  0  0  0  0  0  0  0  0  0  0  # atno 10764 bound_to 10752
  153.6991  135.3375  155.3196 H   0  0  0  0  0  0  0  0  0  0  0  0  # atno 10765 bound_to 10752
  141.0746  133.9322  157.2415 H   0  0  0  0  0  0  0  0  0  0  0  0  # atno 11005 bound_to 11000
  144.6931  140.3291  143.7219 LP  0  0  0  0  0  0  0  0  0  0  0  0  # atno 17320 bound_to 7965
  145.7436  139.1772  143.2361 LP  0  0  0  0  0  0  0  0  0  0  0  0  # atno 17321 bound_to 7965
  140.7712  143.3455  151.2119 LP  0  0  0  0  0  0  0  0  0  0  0  0  # atno 17342 bound_to 10162
  139.7047  143.9475  152.2921 LP  0  0  0  0  0  0  0  0  0  0  0  0  # atno 17343 bound_to 10162
  157.7337  131.0589  150.5565 LP  0  0  0  0  0  0  0  0  0  0  0  0  # atno 17370 bound_to 10713
  156.5679  130.4272  149.6033 LP  0  0  0  0  0  0  0  0  0  0  0  0  # atno 17371 bound_to 10713
  139.9559  135.0165  156.9125 LP  0  0  0  0  0  0  0  0  0  0  0  0  # atno 17394 bound_to 11000
  140.5600  134.0544  155.7396 LP  0  0  0  0  0  0  0  0  0  0  0  0  # atno 17395 bound_to 11000

$$$$
