#       Name:                AV-unprocessed.smi:1644
#       Creating user name   scv26
#       Creation time:       Fri Mar 27 07:30:23 2020


#       File generated by GOLD software.
#

@<TRIPOS>MOLECULE
AV-unprocessed.smi:1644
    56    58     1
SMALL
NO_CHARGES


@<TRIPOS>ATOM
      1 ****        -0.8441   4.6398   1.9414 C.3            1 S1                 0.0000
      2 ****        -1.5138   3.3757   1.3920 C.3            1 S1                 0.0000
      3 ****        -3.0357   3.5524   1.2016 C.3            1 S1                 0.0000
      4 ****        -3.7970   2.3373   0.6174 C.3            1 S1                 0.0000
      5 ****        -3.3601   2.0237  -0.7272 N.pl3          1 S1                -1.0000
      6 ****        -2.9458   0.7352  -0.7518 C.2            1 S1                 0.0000
      7 ****        -2.4924   0.1265  -1.7210 O.2            1 S1                 0.0000
      8 ****        -3.0686   0.1617   0.4617 N.am           1 S1                 0.0000
      9 ****        -2.6654  -1.2092   0.7885 C.3            1 S1                 0.0000
     10 ****        -1.1411  -1.3107   1.0052 C.3            1 S1                 0.0000
     11 ****        -0.8511  -1.1149   2.3755 O.3            1 S1                 0.0000
     12 ****        -0.5883  -2.6869   0.5864 C.3            1 S1                 0.0000
     13 ****         0.8770  -2.7441   0.6521 N.pl3          1 S1                 0.0000
     14 ****         1.6973  -3.3076   1.5792 C.2            1 S1                 0.0000
     15 ****         2.9807  -3.0771   1.1840 N.pl3          1 S1                 1.0000
     16 ****         2.9778  -2.3518  -0.0103 C.ar           1 S1                 0.0000
     17 ****         4.0236  -1.8755  -0.7922 C.ar           1 S1                 0.0000
     18 ****         3.6806  -1.1579  -1.9608 C.ar           1 S1                 0.0000
     19 ****         4.7995  -0.6154  -2.8333 C.3            1 S1                 0.0000
     20 ****         2.3229  -0.9446  -2.3152 C.ar           1 S1                 0.0000
     21 ****         1.9638  -0.1717  -3.5728 C.3            1 S1                 0.0000
     22 ****         1.2742  -1.4403  -1.5091 C.ar           1 S1                 0.0000
     23 ****         1.6305  -2.1389  -0.3584 C.ar           1 S1                 0.0000
     24 ****        -3.5496   1.0347   1.3511 C.2            1 S1                 0.0000
     25 ****        -3.7551   0.8557   2.5520 O.2            1 S1                 0.0000
     26 ****         0.2295   4.4911   2.0568 H              1 S1                 0.0000
     27 ****        -1.2507   4.9074   2.9168 H              1 S1                 0.0000
     28 ****        -0.9928   5.4869   1.2713 H              1 S1                 0.0000
     29 ****        -1.0479   3.1142   0.4415 H              1 S1                 0.0000
     30 ****        -1.3105   2.5486   2.0727 H              1 S1                 0.0000
     31 ****        -3.4803   3.8094   2.1641 H              1 S1                 0.0000
     32 ****        -3.2139   4.4159   0.5593 H              1 S1                 0.0000
     33 ****        -4.8675   2.5439   0.6497 H              1 S1                 0.0000
     34 ****        -3.2145  -1.5953   1.6494 H              1 S1                 0.0000
     35 ****        -2.9646  -1.8470  -0.0450 H              1 S1                 0.0000
     36 ****        -0.6295  -0.5345   0.4353 H              1 S1                 0.0000
     37 ****        -1.3543  -1.7352   2.8802 H              1 S1                 0.0000
     38 ****        -0.9869  -3.4764   1.2252 H              1 S1                 0.0000
     39 ****        -0.8858  -2.9328  -0.4339 H              1 S1                 0.0000
     40 ****         1.3871  -3.8363   2.4688 H              1 S1                 0.0000
     41 ****         5.0548  -2.0417  -0.5167 H              1 S1                 0.0000
     42 ****         4.7120   0.4662  -2.9407 H              1 S1                 0.0000
     43 ****         4.7628  -1.0667  -3.8250 H              1 S1                 0.0000
     44 ****         5.7795  -0.8286  -2.4050 H              1 S1                 0.0000
     45 ****         0.8842  -0.1348  -3.7232 H              1 S1                 0.0000
     46 ****         2.4058  -0.6411  -4.4520 H              1 S1                 0.0000
     47 ****         2.3264   0.8544  -3.5067 H              1 S1                 0.0000
     48 ****         0.2398  -1.2738  -1.7746 H              1 S1                 0.0000
     49 ****         3.7960  -3.3890   1.6961 H              1 S1                 0.0000
     50 ****        -3.3638   2.6520  -1.5051 LP             1 S1                 0.0000
     51 ****        -2.4010   0.5882  -2.6033 LP             1 S1                 0.0000
     52 ****        -2.2154  -0.8297  -1.6260 LP             1 S1                 0.0000
     53 ****        -1.0979  -0.1835   2.6427 LP             1 S1                 0.0000
     54 ****         0.1248  -1.2607   2.5379 LP             1 S1                 0.0000
     55 ****        -4.1108   1.6016   3.1150 LP             1 S1                 0.0000
     56 ****        -3.5662  -0.0356   2.9642 LP             1 S1                 0.0000
@<TRIPOS>BOND
    1    1    2 1     
    2    1   26 1     
    3    1   27 1     
    4    1   28 1     
    5    2    3 1     
    6    2   29 1     
    7    2   30 1     
    8    3    4 1     
    9    3   31 1     
   10    3   32 1     
   11    4   24 1     
   12    4    5 1     
   13    4   33 1     
   14    5    6 1     
   15    6    7 2     
   16    6    8 am    
   17    8    9 1     
   18    8   24 am    
   19    9   10 1     
   20    9   34 1     
   21    9   35 1     
   22   10   11 1     
   23   10   12 1     
   24   10   36 1     
   25   11   37 1     
   26   12   13 1     
   27   12   38 1     
   28   12   39 1     
   29   13   23 1     
   30   13   14 1     
   31   14   15 2     
   32   14   40 1     
   33   15   16 1     
   34   15   49 1     
   35   16   23 ar    
   36   16   17 ar    
   37   17   18 ar    
   38   17   41 1     
   39   18   19 1     
   40   18   20 ar    
   41   19   42 1     
   42   19   43 1     
   43   19   44 1     
   44   20   21 1     
   45   20   22 ar    
   46   21   45 1     
   47   21   46 1     
   48   21   47 1     
   49   22   23 ar    
   50   22   48 1     
   51   24   25 2     
   52    5   50 1     
   53    7   51 1     
   54    7   52 1     
   55   11   53 1     
   56   11   54 1     
   57   25   55 1     
   58   25   56 1     
@<TRIPOS>SUBSTRUCTURE
      1 S1             1
@<TRIPOS>SET
LONE_PAIRS      STATIC     ATOMS    <user>   **** ""
7 50 51 52 53 54 55 56
DONOR_HYDROGENS      STATIC     ATOMS    <user>   **** ""
2 37 49
ATOM$BLUE        STATIC     ATOMS    COLORGROUP SYSTEM
7 50 51 52 53 54 55 56
ATOM$RED        STATIC     ATOMS    COLORGROUP SYSTEM
2 37 49
