AV-unprocessed.smi:224|AV-procd|sdf|1717|dock10
  -GOLD-   2262020193D 1   1.00000     0.00000
 Structure written by MMmdl.
 56 59  0  0  0  0  0  0  0  0  2 V2000
  145.4539  132.0307  150.4112 C   0  0  0  0  0  0  0  0  0  0  0  0
  144.0279  131.9477  150.9709 C   0  0  2  0  0  0  0  0  0  0  0  0
  143.1968  131.4164  149.9581 O   0  0  0  0  0  0  0  0  0  0  0  0
  143.4953  133.3316  151.3933 C   0  0  0  0  0  0  0  0  0  0  0  0
  143.8944  133.6908  152.7839 N   0  3  1  0  0  0  0  0  0  0  0  0
  145.3757  133.6426  152.9429 C   0  0  0  0  0  0  0  0  0  0  0  0
  145.8107  133.9427  154.3831 C   0  0  0  0  0  0  0  0  0  0  0  0
  145.2806  135.2307  154.8069 N   0  0  0  0  0  0  0  0  0  0  0  0
  146.0364  136.3222  154.5120 C   0  0  0  0  0  0  0  0  0  0  0  0
  145.5115  137.3253  153.7586 N   0  0  0  0  0  0  0  0  0  0  0  0
  146.2479  138.3954  153.4464 C   0  0  0  0  0  0  0  0  0  0  0  0
  147.5102  138.6643  153.7816 N   0  0  0  0  0  0  0  0  0  0  0  0
  148.0399  137.6729  154.5531 C   0  0  0  0  0  0  0  0  0  0  0  0
  147.3806  136.4774  154.9580 C   0  0  0  0  0  0  0  0  0  0  0  0
  148.2376  135.7087  155.7370 N   0  0  0  0  0  0  0  0  0  0  0  0
  149.3415  136.4030  155.7802 C   0  0  0  0  0  0  0  0  0  0  0  0
  149.3072  137.6028  155.1065 N   0  0  0  0  0  0  0  0  0  0  0  0
  150.3889  138.5699  154.9900 C   0  0  0  0  0  0  0  0  0  0  0  0
  150.7326  139.3055  156.3110 C   0  0  1  0  0  0  0  0  0  0  0  0
  149.6201  140.0790  156.7208 O   0  0  0  0  0  0  0  0  0  0  0  0
  151.1457  138.3789  157.4572 C   0  0  0  0  0  0  0  0  0  0  0  0
  152.6650  138.4627  157.4372 C   0  0  0  0  0  0  0  0  0  0  0  0
  152.8876  139.8316  157.1521 O   0  0  0  0  0  0  0  0  0  0  0  0
  151.9628  140.2214  156.1442 C   0  0  0  0  0  0  0  0  0  0  0  0
  143.8270  135.3167  154.7047 C   0  0  0  0  0  0  0  0  0  0  0  0
  143.3008  134.9709  153.2886 C   0  0  2  0  0  0  0  0  0  0  0  0
  141.7599  134.9277  153.3546 C   0  0  0  0  0  0  0  0  0  0  0  0
  146.1474  132.4132  151.1608 H   0  0  0  0  0  0  0  0  0  0  0  0
  145.5045  132.6904  149.5439 H   0  0  0  0  0  0  0  0  0  0  0  0
  145.8135  131.0483  150.1031 H   0  0  0  0  0  0  0  0  0  0  0  0
  144.0298  131.2553  151.8122 H   0  0  0  0  0  0  0  0  0  0  0  0
  142.3079  131.3800  150.2753 H   0  0  0  0  0  0  0  0  0  0  0  0
  143.8569  134.1011  150.7092 H   0  0  0  0  0  0  0  0  0  0  0  0
  142.4161  133.3258  151.2626 H   0  0  0  0  0  0  0  0  0  0  0  0
  145.7566  132.6629  152.6571 H   0  0  0  0  0  0  0  0  0  0  0  0
  145.8362  134.3656  152.2673 H   0  0  0  0  0  0  0  0  0  0  0  0
  145.4323  133.1721  155.0557 H   0  0  0  0  0  0  0  0  0  0  0  0
  146.8968  133.9032  154.4536 H   0  0  0  0  0  0  0  0  0  0  0  0
  145.7559  139.1433  152.8423 H   0  0  0  0  0  0  0  0  0  0  0  0
  150.2157  136.0583  156.3134 H   0  0  0  0  0  0  0  0  0  0  0  0
  151.2692  138.0478  154.6126 H   0  0  0  0  0  0  0  0  0  0  0  0
  150.1129  139.2933  154.2214 H   0  0  0  0  0  0  0  0  0  0  0  0
  148.8429  139.7223  156.3187 H   0  0  0  0  0  0  0  0  0  0  0  0
  150.7894  138.7652  158.4138 H   0  0  0  0  0  0  0  0  0  0  0  0
  150.7829  137.3565  157.3677 H   0  0  0  0  0  0  0  0  0  0  0  0
  153.1178  138.1686  158.3843 H   0  0  0  0  0  0  0  0  0  0  0  0
  153.0843  137.8435  156.6425 H   0  0  0  0  0  0  0  0  0  0  0  0
  152.4347  140.0767  155.1713 H   0  0  0  0  0  0  0  0  0  0  0  0
  151.7275  141.2825  156.2360 H   0  0  0  0  0  0  0  0  0  0  0  0
  143.4098  134.6148  155.4282 H   0  0  0  0  0  0  0  0  0  0  0  0
  143.4794  136.3029  155.0167 H   0  0  0  0  0  0  0  0  0  0  0  0
  143.5952  135.7655  152.6019 H   0  0  0  0  0  0  0  0  0  0  0  0
  141.3717  135.8107  153.8635 H   0  0  0  0  0  0  0  0  0  0  0  0
  141.4113  134.0538  153.9061 H   0  0  0  0  0  0  0  0  0  0  0  0
  141.2889  134.9170  152.3734 H   0  0  0  0  0  0  0  0  0  0  0  0
  143.5179  132.9697  153.3820 H   0  0  0  0  0  0  0  0  0  0  0  0
  1  2  1  0  0  0  0
  1 28  1  0  0  0  0
  1 29  1  0  0  0  0
  1 30  1  0  0  0  0
  2  3  1  0  0  0  0
  2  4  1  0  0  0  0
  2 31  1  0  0  0  0
  3 32  1  0  0  0  0
  4  5  1  0  0  0  0
  4 33  1  0  0  0  0
  4 34  1  0  0  0  0
  5 26  1  0  0  0  0
  5  6  1  0  0  0  0
  5 56  1  0  0  0  0
  6  7  1  0  0  0  0
  6 35  1  0  0  0  0
  6 36  1  0  0  0  0
  7  8  1  0  0  0  0
  7 37  1  0  0  0  0
  7 38  1  0  0  0  0
  8  9  1  0  0  0  0
  8 25  1  0  0  0  0
  9 14  1  0  0  0  0
  9 10  2  0  0  0  0
 10 11  1  0  0  0  0
 11 12  2  0  0  0  0
 11 39  1  0  0  0  0
 12 13  1  0  0  0  0
 13 17  1  0  0  0  0
 13 14  2  0  0  0  0
 14 15  1  0  0  0  0
 15 16  2  0  0  0  0
 16 17  1  0  0  0  0
 16 40  1  0  0  0  0
 17 18  1  0  0  0  0
 18 19  1  0  0  0  0
 18 41  1  0  0  0  0
 18 42  1  0  0  0  0
 19 24  1  0  0  0  0
 19 20  1  0  0  0  0
 19 21  1  0  0  0  0
 20 43  1  0  0  0  0
 21 22  1  0  0  0  0
 21 44  1  0  0  0  0
 21 45  1  0  0  0  0
 22 23  1  0  0  0  0
 22 46  1  0  0  0  0
 22 47  1  0  0  0  0
 23 24  1  0  0  0  0
 24 48  1  0  0  0  0
 24 49  1  0  0  0  0
 25 26  1  0  0  0  0
 25 50  1  0  0  0  0
 25 51  1  0  0  0  0
 26 27  1  0  0  0  0
 26 52  1  0  0  0  0
 27 53  1  0  0  0  0
 27 54  1  0  0  0  0
 27 55  1  0  0  0  0
M  CHG  1   5   1
M  END
> <s_m_source_file>
AV-unprocessed.smi

> <i_m_source_file_index>
224

> <i_lp_mmshare_version>
43012

> <i_f3d_flags>
0

> <s_epik_input>
W0NIM11bQ0BIXShbT0hdKVtDSDJdTjFbQ0gyXVtDSDJdTihbQ0gyXVtDQEhdMVtDSDNdKWMobltjSF1uMiljKGMyMyluW2NIXW4zW0NIMl1bQ0BAXTQoW09IXSlbQ0gyXVtDSDJdT1tDSDJdNA==

> <s_epik_cmdline>
J2VwaWtfcHl0aG9uJywgJy1waCcsICc3LjAnLCAnLXRuJywgJzgnLCAnLW1hJywgJzIwMCcsICctbWV0YWxfYmluZGluZycsICctaW1hZScsICc8aW5maWxlLm1hZT4nLCAnLW9tYWUnLCAnPG91dGZpbGUubWFlPic=

> <r_lp_tautomer_probability>
1

> <r_epik_Ionization_Penalty>
0.00516958

> <r_epik_Ionization_Penalty_Charging>
0.00509693

> <r_epik_Ionization_Penalty_Neutral>
7.26542e-05

> <r_epik_State_Penalty>
-0

> <r_epik_Charging_Adjusted_Penalty>
0.00509693

> <i_epik_Tot_Q>
1

> <i_epik_Tot_abs_Q>
1

> <r_epik_Metal_State_Penalty>
-0

> <b_epik_Metal_Only>
0

> <s_lp_Force_Field>
OPLS_2005

> <r_lp_Energy>
50.0315

> <b_lp_Chiralities_Consistent>
1

> <s_lp_Variant>
AV-unprocessed.smi:224-11

> <Gold.Version>
5.8.1

> <Gold.Id.Protein>
6NUR|6NUR_protein|mol2

> <Gold.PLP.Fitness>
45.5196

> <Gold.PLP.PLP>
-29.5396

> <Gold.PLP.part.hbond>
-3.9723

> <Gold.PLP.part.metal>
0.0000

> <Gold.PLP.part.buried>
-6.1023

> <Gold.PLP.part.nonpolar>
-20.5887

> <Gold.PLP.part.repulsive>
0.4003

> <Gold.PLP.ligand.clash>
0.0000

> <Gold.PLP.ligand.torsion>
0.6627

> <Gold.PLP.Chemscore.Hbond>
4.5905

> <Gold.PLP.Chemscore.CHOScore>
1.0000

> <Gold.PLP.Chemscore.Metal>
0.0000

> <Gold.Chemscore.Hbonds>
donor molecule, donor type, donor heavy atom, donor atom, acceptor molecule, acceptor atom, score
      L1  H     3    32       P1 10952  0.58
      L1  H     5    56       P1 10957  2.00
      P1  H  7997  8010       L1    23  1.00
      P1  H 10785 10796       L1     3  1.00
      L1  C    11    39       P1 10175  1.00

> <Gold.PLP.Chemscore.Internal.Correction>
0.5338

> <Gold.Rescore>
     Score         DG    S(hbond)    S(metal)    S(lipo)     H(rot)  DE(clash)    DE(int)     intcor
     12.26     -13.73       2.58        0.00      70.30       3.36       0.02       1.45       ----

> <Gold.Chemscore.Fitness>
12.2613

> <Gold.Chemscore.DG>
-13.7334

> <Gold.Chemscore.ZeroCoef>
-5.4800

> <Gold.Chemscore.Hbond>
2.5847

> <Gold.Chemscore.Metal>
0.0000

> <Gold.Chemscore.Lipo>
70.3005

> <Gold.Chemscore.Internal_Hbond>
0.0000

> <Gold.Chemscore.DEClash>
0.0204

> <Gold.Chemscore.DEInternal>
1.4518

> <Gold.Chemscore.Rot>
3.3611

> <Gold.Chemscore.Internal.Correction>
   9.000000E+99

> <Gold.Chemscore.Hbonds>
donor molecule, donor type, donor heavy atom, donor atom, acceptor molecule, acceptor atom, score
      L1  H     3    32       P1 10952  0.38
      L1  H     5    56       P1 10957  0.73
      P1  H  7997  8010       L1    23  0.42
      P1  H 10785 10796       L1     3  0.34

> <Gold.Chemscore.Hbond.Weighted>
-8.6328

> <Gold.Chemscore.Metal.Weighted>
-0.0000

> <Gold.Chemscore.Lipo.Weighted>
-8.2252

> <Gold.Chemscore.Internal_Hbond.Weighted>
0.0000

> <Gold.Chemscore.DEClash.Weighted>
0.0204

> <Gold.Chemscore.DEInternal.Weighted>
1.4518

> <Gold.Chemscore.Rot.Weighted>
8.6045

> <Gold.Chemscore.Internal.Correction.Weighted>
   9.000000E+99

> <Gold.Protein.RotatedTorsions>
[ 6907 6896 6895 6894 ] final  145.69 input  -60.11 | X-H torsion
[ 7974 7965 7964 7962 ] final -162.70 input  175.53 | X-H torsion
[ 8008 7997 7996 7995 ] final   69.24 input   59.86 | X-H torsion
[ 10167 10162 10161 10158 ] final  -62.55 input  -65.29 | X-H torsion
[ 10718 10713 10712 10709 ] final  -73.99 input   66.30 | X-H torsion
[ 10763 10752 10751 10750 ] final -118.16 input  -60.55 | X-H torsion
[ 11005 11000 10999 10996 ] final   37.03 input  -57.11 | X-H torsion

> <Gold.Protein.ActiveResidues>
 VAL166  LYS551  ARG553  GLY616  TRP617  ASP618  TYR619  PRO620  LYS621  CYS622 
 ASP623  PHE694  ASN695  SER759  ASP760  ASP761  ALA762  ILE779  LEU786  VAL792 
 PHE793  MET794  SER795  GLU796  ALA797  LYS798  CYS799  TRP800  GLU811  SER814 

> <Gold.Protein.RotatedAtoms>
  152.1775  133.4685  159.4940 H   0  0  0  0  0  0  0  0  0  0  0  0  # atno 6907 bound_to 6896
  150.6929  134.1875  159.4281 H   0  0  0  0  0  0  0  0  0  0  0  0  # atno 6908 bound_to 6896
  151.9784  135.0040  160.0607 H   0  0  0  0  0  0  0  0  0  0  0  0  # atno 6909 bound_to 6896
  144.7349  140.3214  143.6170 H   0  0  0  0  0  0  0  0  0  0  0  0  # atno 7974 bound_to 7965
  155.7207  140.3493  155.5014 H   0  0  0  0  0  0  0  0  0  0  0  0  # atno 8008 bound_to 7997
  155.9272  140.1078  157.1182 H   0  0  0  0  0  0  0  0  0  0  0  0  # atno 8009 bound_to 7997
  154.4079  140.1238  156.4743 H   0  0  0  0  0  0  0  0  0  0  0  0  # atno 8010 bound_to 7997
  140.5931  143.2345  151.6095 H   0  0  0  0  0  0  0  0  0  0  0  0  # atno 10167 bound_to 10162
  156.0259  130.4406  150.2825 H   0  0  0  0  0  0  0  0  0  0  0  0  # atno 10718 bound_to 10713
  154.8578  135.4284  154.2095 H   0  0  0  0  0  0  0  0  0  0  0  0  # atno 10763 bound_to 10752
  153.3123  135.6976  153.7110 H   0  0  0  0  0  0  0  0  0  0  0  0  # atno 10764 bound_to 10752
  153.6197  135.3504  155.2981 H   0  0  0  0  0  0  0  0  0  0  0  0  # atno 10765 bound_to 10752
  140.2266  134.3577  155.7981 H   0  0  0  0  0  0  0  0  0  0  0  0  # atno 11005 bound_to 11000
  145.7565  139.1810  143.2291 LP  0  0  0  0  0  0  0  0  0  0  0  0  # atno 17320 bound_to 7965
  146.1020  140.7532  142.9544 LP  0  0  0  0  0  0  0  0  0  0  0  0  # atno 17321 bound_to 7965
  139.5240  144.3115  152.0989 LP  0  0  0  0  0  0  0  0  0  0  0  0  # atno 17342 bound_to 10162
  140.2283  144.4395  150.6311 LP  0  0  0  0  0  0  0  0  0  0  0  0  # atno 17343 bound_to 10162
  157.0928  131.0174  151.3115 LP  0  0  0  0  0  0  0  0  0  0  0  0  # atno 17370 bound_to 10713
  157.4840  130.7782  149.7442 LP  0  0  0  0  0  0  0  0  0  0  0  0  # atno 17371 bound_to 10713
  141.2220  133.7222  156.8663 LP  0  0  0  0  0  0  0  0  0  0  0  0  # atno 17394 bound_to 11000
  140.1794  134.9044  157.2930 LP  0  0  0  0  0  0  0  0  0  0  0  0  # atno 17395 bound_to 11000

$$$$
