AV-unprocessed.smi:692|AV-procd|sdf|3371|dock6
  -GOLD-   22720 0353D 1   1.00000     0.00000
 Structure written by MMmdl.
 36 37  0  0  0  0  0  0  0  0  2 V2000
  144.5861  138.2821  161.1660 C   0  0  0  0  0  0  0  0  0  0  0  0
  145.4593  137.7351  162.3008 C   0  0  0  0  0  0  0  0  0  0  0  0
  146.3621  136.6304  161.8427 C   0  0  0  0  0  0  0  0  0  0  0  0
  146.3611  135.3308  162.2783 C   0  0  0  0  0  0  0  0  0  0  0  0
  147.5876  134.3854  161.4837 S   0  0  0  0  0  0  0  0  0  0  0  0
  148.0695  135.8089  160.5581 C   0  0  0  0  0  0  0  0  0  0  0  0
  149.0609  135.8398  159.6529 N   0  5  0  0  0  0  0  0  0  0  0  0
  149.1965  136.9090  158.8358 C   0  0  0  0  0  0  0  0  0  0  0  0
  148.2816  137.5730  158.3429 O   0  0  0  0  0  0  0  0  0  0  0  0
  150.4719  137.2268  158.5710 N   0  0  0  0  0  0  0  0  0  0  0  0
  150.9240  138.3245  157.7207 C   0  0  1  0  0  0  0  0  0  0  0  0
  150.4216  138.1139  156.2914 C   0  0  0  0  0  0  0  0  0  0  0  0
  150.9236  139.2378  155.3772 C   0  0  0  0  0  0  0  0  0  0  0  0
  150.7240  140.6443  155.9625 C   0  0  0  0  0  0  0  0  0  0  0  0
  150.7604  141.6037  155.1912 O   0  0  0  0  0  0  0  0  0  0  0  0
  150.5479  140.7901  157.2982 N   0  0  0  0  0  0  0  0  0  0  0  0
  150.3911  142.1235  157.8816 C   0  0  0  0  0  0  0  0  0  0  0  0
  150.4176  139.6791  158.2538 C   0  0  0  0  0  0  0  0  0  0  0  0
  147.3381  136.8830  160.8749 N   0  0  0  0  0  0  0  0  0  0  0  0
  143.9409  139.0844  161.5240 H   0  0  0  0  0  0  0  0  0  0  0  0
  143.9477  137.5024  160.7492 H   0  0  0  0  0  0  0  0  0  0  0  0
  145.1987  138.6814  160.3573 H   0  0  0  0  0  0  0  0  0  0  0  0
  146.0496  138.5489  162.7230 H   0  0  0  0  0  0  0  0  0  0  0  0
  144.8182  137.3807  163.1089 H   0  0  0  0  0  0  0  0  0  0  0  0
  145.7192  134.8738  163.0164 H   0  0  0  0  0  0  0  0  0  0  0  0
  151.1871  136.6559  158.9972 H   0  0  0  0  0  0  0  0  0  0  0  0
  152.0157  138.3315  157.6988 H   0  0  0  0  0  0  0  0  0  0  0  0
  150.7645  137.1517  155.9092 H   0  0  0  0  0  0  0  0  0  0  0  0
  149.3310  138.0836  156.2764 H   0  0  0  0  0  0  0  0  0  0  0  0
  151.9903  139.1066  155.1927 H   0  0  0  0  0  0  0  0  0  0  0  0
  150.4299  139.1747  154.4071 H   0  0  0  0  0  0  0  0  0  0  0  0
  151.3020  142.7082  157.7467 H   0  0  0  0  0  0  0  0  0  0  0  0
  150.1791  142.0832  158.9508 H   0  0  0  0  0  0  0  0  0  0  0  0
  149.5669  142.6592  157.4081 H   0  0  0  0  0  0  0  0  0  0  0  0
  149.3612  139.5987  158.5151 H   0  0  0  0  0  0  0  0  0  0  0  0
  150.9474  139.9223  159.1762 H   0  0  0  0  0  0  0  0  0  0  0  0
  1  2  1  0  0  0  0
  1 20  1  0  0  0  0
  1 21  1  0  0  0  0
  1 22  1  0  0  0  0
  2  3  1  0  0  0  0
  2 23  1  0  0  0  0
  2 24  1  0  0  0  0
  3 19  1  0  0  0  0
  3  4  2  0  0  0  0
  4  5  1  0  0  0  0
  4 25  1  0  0  0  0
  5  6  1  0  0  0  0
  6  7  1  0  0  0  0
  6 19  2  0  0  0  0
  7  8  1  0  0  0  0
  8  9  2  0  0  0  0
  8 10  1  0  0  0  0
 10 11  1  0  0  0  0
 10 26  1  0  0  0  0
 11 18  1  0  0  0  0
 11 12  1  0  0  0  0
 11 27  1  0  0  0  0
 12 13  1  0  0  0  0
 12 28  1  0  0  0  0
 12 29  1  0  0  0  0
 13 14  1  0  0  0  0
 13 30  1  0  0  0  0
 13 31  1  0  0  0  0
 14 15  2  0  0  0  0
 14 16  1  0  0  0  0
 16 17  1  0  0  0  0
 16 18  1  0  0  0  0
 17 32  1  0  0  0  0
 17 33  1  0  0  0  0
 17 34  1  0  0  0  0
 18 35  1  0  0  0  0
 18 36  1  0  0  0  0
M  CHG  1   7  -1
M  END
> <s_m_source_file>
AV-unprocessed.smi

> <i_m_source_file_index>
692

> <i_lp_mmshare_version>
43012

> <i_f3d_flags>
0

> <s_epik_input>
W0NIM11bQ0gyXWMxW2NIXXNjKG4xKVtOSF1DKD1PKVtOSF1bQ0BASF0yW0NIMl1bQ0gyXUMoPU8pTihbQ0gzXSlbQ0gyXTI=

> <s_epik_cmdline>
J2VwaWtfcHl0aG9uJywgJy1waCcsICc3LjAnLCAnLXRuJywgJzgnLCAnLW1hJywgJzIwMCcsICctbWV0YWxfYmluZGluZycsICctaW1hZScsICc8aW5maWxlLm1hZT4nLCAnLW9tYWUnLCAnPG91dGZpbGUubWFlPic=

> <r_lp_tautomer_probability>
1

> <r_epik_Ionization_Penalty>
7.06728

> <r_epik_Ionization_Penalty_Charging>
5.78908

> <r_epik_Ionization_Penalty_Neutral>
1.2782

> <r_epik_State_Penalty>
5.78905

> <r_epik_Charging_Adjusted_Penalty>
11.5781

> <i_epik_Tot_Q>
-1

> <i_epik_Tot_abs_Q>
1

> <r_epik_Metal_State_Penalty>
1.76044

> <b_epik_Metal_Only>
1

> <s_lp_Force_Field>
OPLS_2005

> <r_lp_Energy>
4.22105

> <b_lp_Chiralities_Consistent>
1

> <s_lp_Variant>
AV-unprocessed.smi:692-4

> <Gold.Version>
5.8.1

> <Gold.Id.Protein>
6NUR|6NUR_protein|mol2

> <Gold.PLP.Fitness>
38.3760

> <Gold.PLP.PLP>
-27.6227

> <Gold.PLP.part.hbond>
-3.8599

> <Gold.PLP.part.metal>
0.0000

> <Gold.PLP.part.buried>
-0.7117

> <Gold.PLP.part.nonpolar>
-23.2114

> <Gold.PLP.part.repulsive>
0.2692

> <Gold.PLP.ligand.clash>
0.0000

> <Gold.PLP.ligand.torsion>
0.3017

> <Gold.PLP.Chemscore.Hbond>
3.7735

> <Gold.PLP.Chemscore.CHOScore>
0.0000

> <Gold.PLP.Chemscore.Metal>
0.0000

> <Gold.Chemscore.Hbonds>
donor molecule, donor type, donor heavy atom, donor atom, acceptor molecule, acceptor atom, score
      P1  H  6896  6907       L1     7  2.00
      P1  H  6931  6943       L1    19  0.06
      P1  H  6934  6947       L1    19  0.57
      P1  H  7989  7998       L1    15  0.38

> <Gold.PLP.Chemscore.Internal.Correction>
0.0362

> <Gold.Rescore>
     Score         DG    S(hbond)    S(metal)    S(lipo)     H(rot)  DE(clash)    DE(int)     intcor
     11.39     -15.25       1.70        0.00      61.86       1.23       0.91       2.95       ----

> <Gold.Chemscore.Fitness>
11.3879

> <Gold.Chemscore.DG>
-15.2529

> <Gold.Chemscore.ZeroCoef>
-5.4800

> <Gold.Chemscore.Hbond>
1.6979

> <Gold.Chemscore.Metal>
0.0000

> <Gold.Chemscore.Lipo>
61.8645

> <Gold.Chemscore.Internal_Hbond>
0.0000

> <Gold.Chemscore.DEClash>
0.9126

> <Gold.Chemscore.DEInternal>
2.9524

> <Gold.Chemscore.Rot>
1.2251

> <Gold.Chemscore.Internal.Correction>
   9.000000E+99

> <Gold.Chemscore.Hbonds>
donor molecule, donor type, donor heavy atom, donor atom, acceptor molecule, acceptor atom, score
      P1  H  6896  6907       L1     7  0.77
      P1  H  6931  6943       L1    19  0.01
      P1  H  6934  6947       L1    19  0.08
      P1  H  7989  7998       L1    15  0.20

> <Gold.Chemscore.Hbond.Weighted>
-5.6710

> <Gold.Chemscore.Metal.Weighted>
-0.0000

> <Gold.Chemscore.Lipo.Weighted>
-7.2381

> <Gold.Chemscore.Internal_Hbond.Weighted>
0.0000

> <Gold.Chemscore.DEClash.Weighted>
0.9126

> <Gold.Chemscore.DEInternal.Weighted>
2.9524

> <Gold.Chemscore.Rot.Weighted>
3.1362

> <Gold.Chemscore.Internal.Correction.Weighted>
   9.000000E+99

> <Gold.Protein.RotatedTorsions>
[ 6907 6896 6895 6894 ] final  -66.40 input  -60.11 | X-H torsion
[ 7974 7965 7964 7962 ] final -148.94 input  175.53 | X-H torsion
[ 8008 7997 7996 7995 ] final  -30.35 input   59.86 | X-H torsion
[ 10167 10162 10161 10158 ] final    5.82 input  -65.29 | X-H torsion
[ 10718 10713 10712 10709 ] final   33.87 input   66.30 | X-H torsion
[ 10763 10752 10751 10750 ] final  154.72 input  -60.55 | X-H torsion
[ 11005 11000 10999 10996 ] final  -15.23 input  -57.11 | X-H torsion

> <Gold.Protein.ActiveResidues>
 VAL166  LYS551  ARG553  GLY616  TRP617  ASP618  TYR619  PRO620  LYS621  CYS622 
 ASP623  PHE694  ASN695  SER759  ASP760  ASP761  ALA762  ILE779  LEU786  VAL792 
 PHE793  MET794  SER795  GLU796  ALA797  LYS798  CYS799  TRP800  GLU811  SER814 

> <Gold.Protein.RotatedAtoms>
  150.7468  134.6027  159.6044 H   0  0  0  0  0  0  0  0  0  0  0  0  # atno 6907 bound_to 6896
  152.3383  134.7165  160.0279 H   0  0  0  0  0  0  0  0  0  0  0  0  # atno 6908 bound_to 6896
  151.7625  133.3299  159.3458 H   0  0  0  0  0  0  0  0  0  0  0  0  # atno 6909 bound_to 6896
  144.7998  140.5131  143.5715 H   0  0  0  0  0  0  0  0  0  0  0  0  # atno 7974 bound_to 7965
  154.4254  140.1793  156.1393 H   0  0  0  0  0  0  0  0  0  0  0  0  # atno 8008 bound_to 7997
  156.0005  140.3360  155.6816 H   0  0  0  0  0  0  0  0  0  0  0  0  # atno 8009 bound_to 7997
  155.6250  140.0664  157.2657 H   0  0  0  0  0  0  0  0  0  0  0  0  # atno 8010 bound_to 7997
  140.6461  143.7657  150.7502 H   0  0  0  0  0  0  0  0  0  0  0  0  # atno 10167 bound_to 10162
  157.3033  130.7361  149.6680 H   0  0  0  0  0  0  0  0  0  0  0  0  # atno 10718 bound_to 10713
  154.1569  135.2812  155.3120 H   0  0  0  0  0  0  0  0  0  0  0  0  # atno 10763 bound_to 10752
  154.6176  135.5478  153.7543 H   0  0  0  0  0  0  0  0  0  0  0  0  # atno 10764 bound_to 10752
  153.0204  135.6431  154.1712 H   0  0  0  0  0  0  0  0  0  0  0  0  # atno 10765 bound_to 10752
  140.7945  133.8262  155.9411 H   0  0  0  0  0  0  0  0  0  0  0  0  # atno 11005 bound_to 11000
  145.5581  139.1478  143.3356 LP  0  0  0  0  0  0  0  0  0  0  0  0  # atno 17320 bound_to 7965
  146.2276  140.5718  142.8989 LP  0  0  0  0  0  0  0  0  0  0  0  0  # atno 17321 bound_to 7965
  140.1299  143.4535  152.2261 LP  0  0  0  0  0  0  0  0  0  0  0  0  # atno 17342 bound_to 10162
  139.5672  144.7442  151.3989 LP  0  0  0  0  0  0  0  0  0  0  0  0  # atno 17343 bound_to 10162
  155.9673  130.4273  150.4739 LP  0  0  0  0  0  0  0  0  0  0  0  0  # atno 17370 bound_to 10713
  157.2724  131.0590  151.2251 LP  0  0  0  0  0  0  0  0  0  0  0  0  # atno 17371 bound_to 10713
  140.9356  134.1966  157.4833 LP  0  0  0  0  0  0  0  0  0  0  0  0  # atno 17394 bound_to 11000
  139.8727  134.9851  156.5267 LP  0  0  0  0  0  0  0  0  0  0  0  0  # atno 17395 bound_to 11000

$$$$
