AV-unprocessed.smi:3349|AV-procd|sdf|12935|dock3
  -GOLD-   2272019363D 1   1.00000     0.00000
 Structure written by MMmdl.
 41 42  0  0  0  0  0  0  0  0  2 V2000
  145.7823  137.3838  152.0339 C   0  0  0  0  0  0  0  0  0  0  0  0
  145.8016  136.1663  152.9907 C   0  0  2  0  0  0  0  0  0  0  0  0
  146.4914  136.5352  154.3347 C   0  0  0  0  0  0  0  0  0  0  0  0
  147.9505  136.5087  154.2628 N   0  0  0  0  0  0  0  0  0  0  0  0
  148.7665  135.9283  155.1585 C   0  0  0  0  0  0  0  0  0  0  0  0
  148.3538  135.3150  156.1434 O   0  0  0  0  0  0  0  0  0  0  0  0
  150.2743  136.0560  154.8859 C   0  0  2  0  0  0  0  0  0  0  0  0
  151.1319  135.2158  155.8544 C   0  0  0  0  0  0  0  0  0  0  0  0
  150.6710  137.4588  154.8774 N   0  0  0  0  0  0  0  0  0  0  0  0
  150.3318  138.4415  154.0403 C   0  0  0  0  0  0  0  0  0  0  0  0
  150.8453  139.6216  154.3575 N   0  0  0  0  0  0  0  0  0  0  0  0
  151.5337  139.2746  155.4852 C   0  0  0  0  0  0  0  0  0  0  0  0
  151.4547  137.9942  155.8467 N   0  0  0  0  0  0  0  0  0  0  0  0
  146.4279  134.9683  152.3343 N   0  3  0  0  0  0  0  0  0  0  0  0
  146.6784  133.8234  153.2558 C   0  0  0  0  0  0  0  0  0  0  0  0
  147.3143  132.6303  152.5219 C   0  0  0  0  0  0  0  0  0  0  0  0
  146.4874  132.2337  151.4401 O   0  0  0  0  0  0  0  0  0  0  0  0
  146.3579  133.2763  150.4876 C   0  0  0  0  0  0  0  0  0  0  0  0
  145.6758  134.4903  151.1393 C   0  0  0  0  0  0  0  0  0  0  0  0
  145.3482  138.2659  152.5024 H   0  0  0  0  0  0  0  0  0  0  0  0
  145.1742  137.2140  151.1474 H   0  0  0  0  0  0  0  0  0  0  0  0
  146.7893  137.6473  151.7093 H   0  0  0  0  0  0  0  0  0  0  0  0
  144.7663  135.9074  153.2190 H   0  0  0  0  0  0  0  0  0  0  0  0
  146.2533  137.5580  154.6231 H   0  0  0  0  0  0  0  0  0  0  0  0
  146.1235  135.8938  155.1375 H   0  0  0  0  0  0  0  0  0  0  0  0
  148.3750  136.9878  153.4816 H   0  0  0  0  0  0  0  0  0  0  0  0
  150.4525  135.6676  153.8817 H   0  0  0  0  0  0  0  0  0  0  0  0
  150.8572  134.1613  155.8097 H   0  0  0  0  0  0  0  0  0  0  0  0
  151.0213  135.5423  156.8894 H   0  0  0  0  0  0  0  0  0  0  0  0
  152.1891  135.2875  155.5978 H   0  0  0  0  0  0  0  0  0  0  0  0
  149.6915  138.2918  153.1833 H   0  0  0  0  0  0  0  0  0  0  0  0
  152.1045  139.9885  156.0606 H   0  0  0  0  0  0  0  0  0  0  0  0
  147.3653  134.1054  154.0522 H   0  0  0  0  0  0  0  0  0  0  0  0
  145.7409  133.5181  153.7233 H   0  0  0  0  0  0  0  0  0  0  0  0
  148.3136  132.8811  152.1618 H   0  0  0  0  0  0  0  0  0  0  0  0
  147.4268  131.7883  153.2048 H   0  0  0  0  0  0  0  0  0  0  0  0
  147.3354  133.5457  150.0840 H   0  0  0  0  0  0  0  0  0  0  0  0
  145.7587  132.9153  149.6515 H   0  0  0  0  0  0  0  0  0  0  0  0
  144.6563  134.2314  151.4293 H   0  0  0  0  0  0  0  0  0  0  0  0
  145.6074  135.2652  150.3789 H   0  0  0  0  0  0  0  0  0  0  0  0
  147.3352  135.2657  152.0040 H   0  0  0  0  0  0  0  0  0  0  0  0
  1  2  1  0  0  0  0
  1 20  1  0  0  0  0
  1 21  1  0  0  0  0
  1 22  1  0  0  0  0
  2  3  1  0  0  0  0
  2 14  1  0  0  0  0
  2 23  1  0  0  0  0
  3  4  1  0  0  0  0
  3 24  1  0  0  0  0
  3 25  1  0  0  0  0
  4  5  1  0  0  0  0
  4 26  1  0  0  0  0
  5  6  2  0  0  0  0
  5  7  1  0  0  0  0
  7  8  1  0  0  0  0
  7  9  1  0  0  0  0
  7 27  1  0  0  0  0
  8 28  1  0  0  0  0
  8 29  1  0  0  0  0
  8 30  1  0  0  0  0
  9 13  1  0  0  0  0
  9 10  1  0  0  0  0
 10 11  2  0  0  0  0
 10 31  1  0  0  0  0
 11 12  1  0  0  0  0
 12 13  2  0  0  0  0
 12 32  1  0  0  0  0
 14 19  1  0  0  0  0
 14 15  1  0  0  0  0
 14 41  1  0  0  0  0
 15 16  1  0  0  0  0
 15 33  1  0  0  0  0
 15 34  1  0  0  0  0
 16 17  1  0  0  0  0
 16 35  1  0  0  0  0
 16 36  1  0  0  0  0
 17 18  1  0  0  0  0
 18 19  1  0  0  0  0
 18 37  1  0  0  0  0
 18 38  1  0  0  0  0
 19 39  1  0  0  0  0
 19 40  1  0  0  0  0
M  CHG  1  14   1
M  END
> <s_m_source_file>
AV-unprocessed.smi

> <i_m_source_file_index>
3349

> <i_lp_mmshare_version>
43012

> <i_f3d_flags>
0

> <s_epik_input>
W0NIMl0xW0NIMl1PW0NIMl1bQ0gyXU4xW0NASF0oW0NIM10pW0NIMl1bTkhdQyg9TylbQ0BIXShbQ0gzXSluMltjSF1uW2NIXW4y

> <s_epik_cmdline>
J2VwaWtfcHl0aG9uJywgJy1waCcsICc3LjAnLCAnLXRuJywgJzgnLCAnLW1hJywgJzIwMCcsICctbWV0YWxfYmluZGluZycsICctaW1hZScsICc8aW5maWxlLm1hZT4nLCAnLW9tYWUnLCAnPG91dGZpbGUubWFlPic=

> <r_lp_tautomer_probability>
1

> <r_epik_Ionization_Penalty>
0.71326

> <r_epik_Ionization_Penalty_Charging>
0.713252

> <r_epik_Ionization_Penalty_Neutral>
8.10337e-06

> <r_epik_State_Penalty>
0.737017

> <r_epik_Charging_Adjusted_Penalty>
1.45027

> <i_epik_Tot_Q>
1

> <i_epik_Tot_abs_Q>
1

> <r_epik_Metal_State_Penalty>
0.73702

> <b_epik_Metal_Only>
0

> <s_lp_Force_Field>
OPLS_2005

> <r_lp_Energy>
28.3535

> <b_lp_Chiralities_Consistent>
1

> <s_lp_Variant>
AV-unprocessed.smi:3349-5

> <Gold.Version>
5.8.1

> <Gold.Id.Protein>
6NUR|6NUR_protein|mol2

> <Gold.PLP.Fitness>
41.4000

> <Gold.PLP.PLP>
-27.1829

> <Gold.PLP.part.hbond>
-3.0000

> <Gold.PLP.part.metal>
0.0000

> <Gold.PLP.part.buried>
-2.2707

> <Gold.PLP.part.nonpolar>
-21.5149

> <Gold.PLP.part.repulsive>
0.3068

> <Gold.PLP.ligand.clash>
0.0000

> <Gold.PLP.ligand.torsion>
0.5802

> <Gold.PLP.Chemscore.Hbond>
3.5760

> <Gold.PLP.Chemscore.CHOScore>
1.4988

> <Gold.PLP.Chemscore.Metal>
0.0000

> <Gold.Chemscore.Hbonds>
donor molecule, donor type, donor heavy atom, donor atom, acceptor molecule, acceptor atom, score
      L1  H     4    26       P1  7948  0.56
      L1  H    14    41       P1  7948  2.00
      P1  H  7989  7998       L1    11  1.00
      L1  C    10    31       P1  7948  1.00
      L1  C    10    31       P1  7957  0.58

> <Gold.PLP.Chemscore.Internal.Correction>
0.1531

> <Gold.Rescore>
     Score         DG    S(hbond)    S(metal)    S(lipo)     H(rot)  DE(clash)    DE(int)     intcor
     11.96     -12.76       2.62        0.00      44.95       2.63       0.10       0.69       ----

> <Gold.Chemscore.Fitness>
11.9647

> <Gold.Chemscore.DG>
-12.7561

> <Gold.Chemscore.ZeroCoef>
-5.4800

> <Gold.Chemscore.Hbond>
2.6221

> <Gold.Chemscore.Metal>
0.0000

> <Gold.Chemscore.Lipo>
44.9456

> <Gold.Chemscore.Internal_Hbond>
0.0000

> <Gold.Chemscore.DEClash>
0.0991

> <Gold.Chemscore.DEInternal>
0.6923

> <Gold.Chemscore.Rot>
2.6329

> <Gold.Chemscore.Internal.Correction>
   9.000000E+99

> <Gold.Chemscore.Hbonds>
donor molecule, donor type, donor heavy atom, donor atom, acceptor molecule, acceptor atom, score
      L1  H     4    26       P1  7948  0.56
      L1  H    14    41       P1  7948  0.99
      P1  H  7989  7998       L1    11  0.82

> <Gold.Chemscore.Hbond.Weighted>
-8.7578

> <Gold.Chemscore.Metal.Weighted>
-0.0000

> <Gold.Chemscore.Lipo.Weighted>
-5.2586

> <Gold.Chemscore.Internal_Hbond.Weighted>
0.0000

> <Gold.Chemscore.DEClash.Weighted>
0.0991

> <Gold.Chemscore.DEInternal.Weighted>
0.6923

> <Gold.Chemscore.Rot.Weighted>
6.7403

> <Gold.Chemscore.Internal.Correction.Weighted>
   9.000000E+99

> <Gold.Protein.RotatedTorsions>
[ 6907 6896 6895 6894 ] final   19.89 input  -60.11 | X-H torsion
[ 7974 7965 7964 7962 ] final   26.04 input  175.53 | X-H torsion
[ 8008 7997 7996 7995 ] final  -47.10 input   59.86 | X-H torsion
[ 10167 10162 10161 10158 ] final   86.37 input  -65.29 | X-H torsion
[ 10718 10713 10712 10709 ] final  -93.39 input   66.30 | X-H torsion
[ 10763 10752 10751 10750 ] final  -43.37 input  -60.55 | X-H torsion
[ 11005 11000 10999 10996 ] final   -2.86 input  -57.11 | X-H torsion

> <Gold.Protein.ActiveResidues>
 VAL166  LYS551  ARG553  GLY616  TRP617  ASP618  TYR619  PRO620  LYS621  CYS622 
 ASP623  PHE694  ASN695  SER759  ASP760  ASP761  ALA762  ILE779  LEU786  VAL792 
 PHE793  MET794  SER795  GLU796  ALA797  LYS798  CYS799  TRP800  GLU811  SER814 

> <Gold.Protein.RotatedAtoms>
  151.8879  135.0428  160.0494 H   0  0  0  0  0  0  0  0  0  0  0  0  # atno 6907 bound_to 6896
  152.2460  133.5170  159.5306 H   0  0  0  0  0  0  0  0  0  0  0  0  # atno 6908 bound_to 6896
  150.7068  134.0941  159.3985 H   0  0  0  0  0  0  0  0  0  0  0  0  # atno 6909 bound_to 6896
  146.1858  139.7383  142.8868 H   0  0  0  0  0  0  0  0  0  0  0  0  # atno 7974 bound_to 7965
  154.4013  140.1355  156.4120 H   0  0  0  0  0  0  0  0  0  0  0  0  # atno 8008 bound_to 7997
  155.7725  140.3483  155.5234 H   0  0  0  0  0  0  0  0  0  0  0  0  # atno 8009 bound_to 7997
  155.8753  140.0978  157.1512 H   0  0  0  0  0  0  0  0  0  0  0  0  # atno 8010 bound_to 7997
  139.8882  144.6401  150.8768 H   0  0  0  0  0  0  0  0  0  0  0  0  # atno 10167 bound_to 10162
  156.0013  130.5025  150.5769 H   0  0  0  0  0  0  0  0  0  0  0  0  # atno 10718 bound_to 10713
  153.9944  135.6701  153.4756 H   0  0  0  0  0  0  0  0  0  0  0  0  # atno 10763 bound_to 10752
  153.0690  135.4984  154.8260 H   0  0  0  0  0  0  0  0  0  0  0  0  # atno 10764 bound_to 10752
  154.7090  135.3093  154.9189 H   0  0  0  0  0  0  0  0  0  0  0  0  # atno 10765 bound_to 10752
  140.6630  133.9304  155.8447 H   0  0  0  0  0  0  0  0  0  0  0  0  # atno 11005 bound_to 11000
  145.3943  141.0376  143.3106 LP  0  0  0  0  0  0  0  0  0  0  0  0  # atno 17320 bound_to 7965
  144.8395  139.5496  143.6907 LP  0  0  0  0  0  0  0  0  0  0  0  0  # atno 17321 bound_to 7965
  140.7732  143.3531  151.1974 LP  0  0  0  0  0  0  0  0  0  0  0  0  # atno 17342 bound_to 10162
  139.7134  143.9340  152.2957 LP  0  0  0  0  0  0  0  0  0  0  0  0  # atno 17343 bound_to 10162
  157.3655  131.0757  151.1601 LP  0  0  0  0  0  0  0  0  0  0  0  0  # atno 17370 bound_to 10713
  157.2371  130.6552  149.5874 LP  0  0  0  0  0  0  0  0  0  0  0  0  # atno 17371 bound_to 10713
  141.0451  134.0566  157.3854 LP  0  0  0  0  0  0  0  0  0  0  0  0  # atno 17394 bound_to 11000
  139.9007  135.0163  156.7252 LP  0  0  0  0  0  0  0  0  0  0  0  0  # atno 17395 bound_to 11000

$$$$
