AV-unprocessed.smi:1808|AV-procd|sdf|7308|dock7
  -GOLD-   22720 8563D 1   1.00000     0.00000
 Structure written by MMmdl.
 27 28  0  0  0  0  0  0  0  0  2 V2000
  151.0850  141.0566  158.0302 O   0  0  0  0  0  0  0  0  0  0  0  0
  152.2645  140.7177  157.9082 C   0  0  0  0  0  0  0  0  0  0  0  0
  153.1439  141.0068  158.8761 N   0  0  0  0  0  0  0  0  0  0  0  0
  152.8289  141.7076  160.1136 C   0  0  0  0  0  0  0  0  0  0  0  0
  151.9664  142.9448  159.8299 C   0  0  1  0  0  0  0  0  0  0  0  0
  151.9094  143.9381  160.9875 C   0  0  0  0  0  0  0  0  0  0  0  0
  151.5523  145.2479  160.3038 C   0  0  0  0  0  0  0  0  0  0  0  0
  151.9150  145.0119  158.8341 C   0  0  0  0  0  0  0  0  0  0  0  0
  152.5329  143.7326  158.7945 O   0  0  0  0  0  0  0  0  0  0  0  0
  152.8040  140.0530  156.8610 N   0  5  0  0  0  0  0  0  0  0  0  0
  152.0096  139.5563  155.8989 C   0  0  0  0  0  0  0  0  0  0  0  0
  150.6759  139.6615  155.9261 N   0  0  0  0  0  0  0  0  0  0  0  0
  150.0506  139.0800  154.8216 C   0  0  0  0  0  0  0  0  0  0  0  0
  150.9290  138.5276  153.9278 C   0  0  0  0  0  0  0  0  0  0  0  0
  152.5779  138.7218  154.4503 S   0  0  0  0  0  0  0  0  0  0  0  0
  154.0998  140.7101  158.7455 H   0  0  0  0  0  0  0  0  0  0  0  0
  152.2931  141.0269  160.7764 H   0  0  0  0  0  0  0  0  0  0  0  0
  153.7507  141.9962  160.6212 H   0  0  0  0  0  0  0  0  0  0  0  0
  150.9544  142.6505  159.5450 H   0  0  0  0  0  0  0  0  0  0  0  0
  151.1932  143.6499  161.7574 H   0  0  0  0  0  0  0  0  0  0  0  0
  152.8908  144.0264  161.4558 H   0  0  0  0  0  0  0  0  0  0  0  0
  150.4881  145.4643  160.4016 H   0  0  0  0  0  0  0  0  0  0  0  0
  152.1061  146.0830  160.7339 H   0  0  0  0  0  0  0  0  0  0  0  0
  151.0170  144.9979  158.2148 H   0  0  0  0  0  0  0  0  0  0  0  0
  152.5862  145.7762  158.4419 H   0  0  0  0  0  0  0  0  0  0  0  0
  148.9733  139.1069  154.7522 H   0  0  0  0  0  0  0  0  0  0  0  0
  150.7095  138.0226  152.9995 H   0  0  0  0  0  0  0  0  0  0  0  0
  1  2  2  0  0  0  0
  2  3  1  0  0  0  0
  2 10  1  0  0  0  0
  3  4  1  0  0  0  0
  3 16  1  0  0  0  0
  4  5  1  0  0  0  0
  4 17  1  0  0  0  0
  4 18  1  0  0  0  0
  5  9  1  0  0  0  0
  5  6  1  0  0  0  0
  5 19  1  0  0  0  0
  6  7  1  0  0  0  0
  6 20  1  0  0  0  0
  6 21  1  0  0  0  0
  7  8  1  0  0  0  0
  7 22  1  0  0  0  0
  7 23  1  0  0  0  0
  8  9  1  0  0  0  0
  8 24  1  0  0  0  0
  8 25  1  0  0  0  0
 10 11  1  0  0  0  0
 11 15  1  0  0  0  0
 11 12  2  0  0  0  0
 12 13  1  0  0  0  0
 13 14  2  0  0  0  0
 13 26  1  0  0  0  0
 14 15  1  0  0  0  0
 14 27  1  0  0  0  0
M  CHG  1  10  -1
M  END
> <s_m_source_file>
AV-unprocessed.smi

> <i_m_source_file_index>
1808

> <i_lp_mmshare_version>
43012

> <i_f3d_flags>
0

> <s_epik_input>
czFbY0hdW2NIXW5jMVtOSF1DKD1PKVtOSF1bQ0gyXVtDQEBIXTJbQ0gyXVtDSDJdW0NIMl1PMg==

> <s_epik_cmdline>
J2VwaWtfcHl0aG9uJywgJy1waCcsICc3LjAnLCAnLXRuJywgJzgnLCAnLW1hJywgJzIwMCcsICctbWV0YWxfYmluZGluZycsICctaW1hZScsICc8aW5maWxlLm1hZT4nLCAnLW9tYWUnLCAnPG91dGZpbGUubWFlPic=

> <r_lp_tautomer_probability>
0.999

> <r_epik_Ionization_Penalty>
8.26346

> <r_epik_Ionization_Penalty_Charging>
6.6559

> <r_epik_Ionization_Penalty_Neutral>
1.60756

> <r_epik_State_Penalty>
6.65607

> <r_epik_Charging_Adjusted_Penalty>
13.312

> <i_epik_Tot_Q>
-1

> <i_epik_Tot_abs_Q>
1

> <r_epik_Metal_State_Penalty>
2.5789

> <b_epik_Metal_Only>
1

> <s_lp_Force_Field>
OPLS_2005

> <r_lp_Energy>
13.0287

> <b_lp_Chiralities_Consistent>
1

> <s_lp_Variant>
AV-unprocessed.smi:1808-4

> <Gold.Version>
5.8.1

> <Gold.Id.Protein>
6NUR|6NUR_protein|mol2

> <Gold.PLP.Fitness>
45.3870

> <Gold.PLP.PLP>
-36.3327

> <Gold.PLP.part.hbond>
-1.0000

> <Gold.PLP.part.metal>
0.0000

> <Gold.PLP.part.buried>
-5.0697

> <Gold.PLP.part.nonpolar>
-30.0763

> <Gold.PLP.part.repulsive>
0.0960

> <Gold.PLP.ligand.clash>
0.0000

> <Gold.PLP.ligand.torsion>
0.1888

> <Gold.PLP.Chemscore.Hbond>
2.0000

> <Gold.PLP.Chemscore.CHOScore>
1.1402

> <Gold.PLP.Chemscore.Metal>
0.0000

> <Gold.Chemscore.Hbonds>
donor molecule, donor type, donor heavy atom, donor atom, acceptor molecule, acceptor atom, score
      P1  H  7997  8009       L1    10  2.00
      L1  C    14    27       P1  7948  0.27
      L1  C    14    27       P1  7949  0.67
      L1  C    14    27       P1  7957  0.02

> <Gold.PLP.Chemscore.Internal.Correction>
0.0113

> <Gold.Rescore>
     Score         DG    S(hbond)    S(metal)    S(lipo)     H(rot)  DE(clash)    DE(int)     intcor
     12.47     -14.20       0.93        0.00      76.49       1.30       0.00       1.73       ----

> <Gold.Chemscore.Fitness>
12.4696

> <Gold.Chemscore.DG>
-14.2019

> <Gold.Chemscore.ZeroCoef>
-5.4800

> <Gold.Chemscore.Hbond>
0.9282

> <Gold.Chemscore.Metal>
0.0000

> <Gold.Chemscore.Lipo>
76.4931

> <Gold.Chemscore.Internal_Hbond>
0.0000

> <Gold.Chemscore.DEClash>
0.0038

> <Gold.Chemscore.DEInternal>
1.7285

> <Gold.Chemscore.Rot>
1.3000

> <Gold.Chemscore.Internal.Correction>
   9.000000E+99

> <Gold.Chemscore.Hbonds>
donor molecule, donor type, donor heavy atom, donor atom, acceptor molecule, acceptor atom, score
      P1  H  7997  8009       L1    10  0.78

> <Gold.Chemscore.Hbond.Weighted>
-3.1002

> <Gold.Chemscore.Metal.Weighted>
-0.0000

> <Gold.Chemscore.Lipo.Weighted>
-8.9497

> <Gold.Chemscore.Internal_Hbond.Weighted>
0.0000

> <Gold.Chemscore.DEClash.Weighted>
0.0038

> <Gold.Chemscore.DEInternal.Weighted>
1.7285

> <Gold.Chemscore.Rot.Weighted>
3.3280

> <Gold.Chemscore.Internal.Correction.Weighted>
   9.000000E+99

> <Gold.Protein.RotatedTorsions>
[ 6907 6896 6895 6894 ] final   12.70 input  -60.11 | X-H torsion
[ 7974 7965 7964 7962 ] final -125.86 input  175.53 | X-H torsion
[ 8008 7997 7996 7995 ] final -165.04 input   59.86 | X-H torsion
[ 10167 10162 10161 10158 ] final  -43.10 input  -65.29 | X-H torsion
[ 10718 10713 10712 10709 ] final  151.10 input   66.30 | X-H torsion
[ 10763 10752 10751 10750 ] final  -41.68 input  -60.55 | X-H torsion
[ 11005 11000 10999 10996 ] final -149.56 input  -57.11 | X-H torsion

> <Gold.Protein.ActiveResidues>
 VAL166  LYS551  ARG553  GLY616  TRP617  ASP618  TYR619  PRO620  LYS621  CYS622 
 ASP623  PHE694  ASN695  SER759  ASP760  ASP761  ALA762  ILE779  LEU786  VAL792 
 PHE793  MET794  SER795  GLU796  ALA797  LYS798  CYS799  TRP800  GLU811  SER814 

> <Gold.Protein.RotatedAtoms>
  151.7745  135.0778  160.0364 H   0  0  0  0  0  0  0  0  0  0  0  0  # atno 6907 bound_to 6896
  152.3265  133.5907  159.5789 H   0  0  0  0  0  0  0  0  0  0  0  0  # atno 6908 bound_to 6896
  150.7399  133.9848  159.3630 H   0  0  0  0  0  0  0  0  0  0  0  0  # atno 6909 bound_to 6896
  144.9932  140.7752  143.4541 H   0  0  0  0  0  0  0  0  0  0  0  0  # atno 7974 bound_to 7965
  155.8441  140.0953  157.1716 H   0  0  0  0  0  0  0  0  0  0  0  0  # atno 8008 bound_to 7997
  154.3983  140.1395  156.3826 H   0  0  0  0  0  0  0  0  0  0  0  0  # atno 8009 bound_to 7997
  155.8032  140.3452  155.5417 H   0  0  0  0  0  0  0  0  0  0  0  0  # atno 8010 bound_to 7997
  140.6946  143.3001  151.3304 H   0  0  0  0  0  0  0  0  0  0  0  0  # atno 10167 bound_to 10162
  157.2750  131.0824  151.1572 H   0  0  0  0  0  0  0  0  0  0  0  0  # atno 10718 bound_to 10713
  153.9664  135.6733  153.4746 H   0  0  0  0  0  0  0  0  0  0  0  0  # atno 10763 bound_to 10752
  153.0813  135.4922  154.8506 H   0  0  0  0  0  0  0  0  0  0  0  0  # atno 10764 bound_to 10752
  154.7243  135.3124  154.8956 H   0  0  0  0  0  0  0  0  0  0  0  0  # atno 10765 bound_to 10752
  140.7495  134.3423  157.5129 H   0  0  0  0  0  0  0  0  0  0  0  0  # atno 11005 bound_to 11000
  145.2256  139.2139  143.5070 LP  0  0  0  0  0  0  0  0  0  0  0  0  # atno 17320 bound_to 7965
  146.3436  140.2122  142.8590 LP  0  0  0  0  0  0  0  0  0  0  0  0  # atno 17321 bound_to 7965
  139.6385  144.0583  152.2536 LP  0  0  0  0  0  0  0  0  0  0  0  0  # atno 17342 bound_to 10162
  140.0081  144.6244  150.7671 LP  0  0  0  0  0  0  0  0  0  0  0  0  # atno 17343 bound_to 10162
  157.3029  130.6852  149.6174 LP  0  0  0  0  0  0  0  0  0  0  0  0  # atno 17370 bound_to 10713
  155.9663  130.4386  150.5226 LP  0  0  0  0  0  0  0  0  0  0  0  0  # atno 17371 bound_to 10713
  139.8790  134.9132  156.3079 LP  0  0  0  0  0  0  0  0  0  0  0  0  # atno 17394 bound_to 11000
  140.9764  133.7295  156.0608 LP  0  0  0  0  0  0  0  0  0  0  0  0  # atno 17395 bound_to 11000

$$$$
