AV-unprocessed.smi:20|AV-procd|sdf|115|dock8
  -GOLD-   2262015283D 1   1.00000     0.00000
 Structure written by MMmdl.
 57 61  0  0  0  0  0  0  0  0  1 V2000
  142.2294  136.1129  153.5690 O   0  0  0  0  0  0  0  0  0  0  0  0
  143.0025  135.7161  152.7001 C   0  0  0  0  0  0  0  0  0  0  0  0
  143.1941  134.2514  152.3449 C   0  0  0  0  0  0  0  0  0  0  0  0
  144.4961  134.2545  151.5096 C   0  0  2  0  0  0  0  0  0  0  0  0
  144.4750  133.2362  150.3467 C   0  0  0  0  0  0  0  0  0  0  0  0
  144.5348  131.7903  150.8652 C   0  0  0  0  0  0  0  0  0  0  0  0
  145.7560  131.5821  151.7723 C   0  0  0  0  0  0  0  0  0  0  0  0
  145.7795  132.5773  152.8403 N   0  0  0  0  0  0  0  0  0  0  0  0
  146.5122  132.3292  153.9553 C   0  0  0  0  0  0  0  0  0  0  0  0
  147.2264  131.1740  153.9833 N   0  0  0  0  0  0  0  0  0  0  0  0
  147.9740  130.8639  155.0457 C   0  0  0  0  0  0  0  0  0  0  0  0
  148.1431  131.5523  156.1750 N   0  0  0  0  0  0  0  0  0  0  0  0
  147.4226  132.7094  156.1609 C   0  0  0  0  0  0  0  0  0  0  0  0
  146.5934  133.1774  155.1005 C   0  0  0  0  0  0  0  0  0  0  0  0
  146.0248  134.3956  155.4593 N   0  0  0  0  0  0  0  0  0  0  0  0
  146.4913  134.6337  156.6540 C   0  0  0  0  0  0  0  0  0  0  0  0
  147.3201  133.6600  157.1618 N   0  0  0  0  0  0  0  0  0  0  0  0
  147.9715  133.6662  158.4597 C   0  0  0  0  0  0  0  0  0  0  0  0
  147.0153  133.8347  159.6743 C   0  0  1  0  0  0  0  0  0  0  0  0
  146.7147  132.4406  160.2769 C   0  0  0  0  0  0  0  0  0  0  0  0
  147.8831  131.8399  160.7969 O   0  0  0  0  0  0  0  0  0  0  0  0
  147.5594  134.8187  160.7544 C   0  0  2  0  0  0  0  0  0  0  0  0
  146.8303  134.7817  162.0900 C   0  0  0  0  0  0  0  0  0  0  0  0
  147.2433  136.1014  162.7234 C   0  0  0  0  0  0  0  0  0  0  0  0
  147.2493  137.0192  161.6429 O   0  0  0  0  0  0  0  0  0  0  0  0
  147.4385  136.3162  160.4183 C   0  0  0  0  0  0  0  0  0  0  0  0
  145.7276  133.9759  152.4101 C   0  0  0  0  0  0  0  0  0  0  0  0
  144.5616  135.7090  150.9885 C   0  0  0  0  0  0  0  0  0  0  0  0
  143.7829  136.4797  151.9389 N   0  0  0  0  0  0  0  0  0  0  0  0
  143.2550  133.6271  153.2371 H   0  0  0  0  0  0  0  0  0  0  0  0
  142.3361  133.9231  151.7572 H   0  0  0  0  0  0  0  0  0  0  0  0
  143.5843  133.3742  149.7327 H   0  0  0  0  0  0  0  0  0  0  0  0
  145.3286  133.4151  149.6912 H   0  0  0  0  0  0  0  0  0  0  0  0
  143.6243  131.5592  151.4194 H   0  0  0  0  0  0  0  0  0  0  0  0
  144.5715  131.0933  150.0276 H   0  0  0  0  0  0  0  0  0  0  0  0
  145.7258  130.5765  152.1936 H   0  0  0  0  0  0  0  0  0  0  0  0
  146.6709  131.6647  151.1844 H   0  0  0  0  0  0  0  0  0  0  0  0
  148.5121  129.9296  154.9823 H   0  0  0  0  0  0  0  0  0  0  0  0
  146.2279  135.5237  157.2064 H   0  0  0  0  0  0  0  0  0  0  0  0
  148.5251  132.7301  158.5360 H   0  0  0  0  0  0  0  0  0  0  0  0
  148.7186  134.4609  158.4662 H   0  0  0  0  0  0  0  0  0  0  0  0
  146.0662  134.2350  159.3154 H   0  0  0  0  0  0  0  0  0  0  0  0
  145.9636  132.5120  161.0644 H   0  0  0  0  0  0  0  0  0  0  0  0
  146.3270  131.7547  159.5252 H   0  0  0  0  0  0  0  0  0  0  0  0
  148.4660  131.6436  160.0793 H   0  0  0  0  0  0  0  0  0  0  0  0
  148.6093  134.5906  160.9460 H   0  0  0  0  0  0  0  0  0  0  0  0
  145.7500  134.7634  161.9380 H   0  0  0  0  0  0  0  0  0  0  0  0
  147.1063  133.9278  162.7093 H   0  0  0  0  0  0  0  0  0  0  0  0
  146.5688  136.4197  163.5184 H   0  0  0  0  0  0  0  0  0  0  0  0
  148.2509  136.0301  163.1355 H   0  0  0  0  0  0  0  0  0  0  0  0
  148.3243  136.6957  159.9110 H   0  0  0  0  0  0  0  0  0  0  0  0
  146.5739  136.5132  159.7835 H   0  0  0  0  0  0  0  0  0  0  0  0
  146.6449  134.1865  151.8583 H   0  0  0  0  0  0  0  0  0  0  0  0
  145.7227  134.6559  153.2626 H   0  0  0  0  0  0  0  0  0  0  0  0
  145.5813  136.0881  150.9116 H   0  0  0  0  0  0  0  0  0  0  0  0
  144.0957  135.8049  150.0066 H   0  0  0  0  0  0  0  0  0  0  0  0
  143.8259  137.4870  151.9953 H   0  0  0  0  0  0  0  0  0  0  0  0
  1  2  2  0  0  0  0
  2 29  1  0  0  0  0
  2  3  1  0  0  0  0
  3  4  1  0  0  0  0
  3 30  1  0  0  0  0
  3 31  1  0  0  0  0
  4 27  1  0  0  0  0
  4  5  1  0  0  0  0
  4 28  1  0  0  0  0
  5  6  1  0  0  0  0
  5 32  1  0  0  0  0
  5 33  1  0  0  0  0
  6  7  1  0  0  0  0
  6 34  1  0  0  0  0
  6 35  1  0  0  0  0
  7  8  1  0  0  0  0
  7 36  1  0  0  0  0
  7 37  1  0  0  0  0
  8  9  1  0  0  0  0
  8 27  1  0  0  0  0
  9 14  1  0  0  0  0
  9 10  2  0  0  0  0
 10 11  1  0  0  0  0
 11 12  2  0  0  0  0
 11 38  1  0  0  0  0
 12 13  1  0  0  0  0
 13 17  1  0  0  0  0
 13 14  2  0  0  0  0
 14 15  1  0  0  0  0
 15 16  2  0  0  0  0
 16 17  1  0  0  0  0
 16 39  1  0  0  0  0
 17 18  1  0  0  0  0
 18 19  1  0  0  0  0
 18 40  1  0  0  0  0
 18 41  1  0  0  0  0
 19 20  1  0  0  0  0
 19 22  1  0  0  0  0
 19 42  1  0  0  0  0
 20 21  1  0  0  0  0
 20 43  1  0  0  0  0
 20 44  1  0  0  0  0
 21 45  1  0  0  0  0
 22 26  1  0  0  0  0
 22 23  1  0  0  0  0
 22 46  1  0  0  0  0
 23 24  1  0  0  0  0
 23 47  1  0  0  0  0
 23 48  1  0  0  0  0
 24 25  1  0  0  0  0
 24 49  1  0  0  0  0
 24 50  1  0  0  0  0
 25 26  1  0  0  0  0
 26 51  1  0  0  0  0
 26 52  1  0  0  0  0
 27 53  1  0  0  0  0
 27 54  1  0  0  0  0
 28 29  1  0  0  0  0
 28 55  1  0  0  0  0
 28 56  1  0  0  0  0
 29 57  1  0  0  0  0
M  END
> <s_m_source_file>
AV-unprocessed.smi

> <i_m_source_file_index>
20

> <i_lp_mmshare_version>
43012

> <i_f3d_flags>
0

> <s_epik_input>
W0NIMl0xW05IXUMoPU8pW0NIMl1bQ0BAXTEyW0NIMl1bQ0gyXVtDSDJdTihbQ0gyXTIpYyhuW2NIXW4zKWMoYzM0KW5bY0hdbjRbQ0gyXVtDQEhdKFtDSDJdW09IXSlbQ0BASF01W0NIMl1bQ0gyXU9bQ0gyXTU=

> <s_epik_cmdline>
J2VwaWtfcHl0aG9uJywgJy1waCcsICc3LjAnLCAnLXRuJywgJzgnLCAnLW1hJywgJzIwMCcsICctbWV0YWxfYmluZGluZycsICctaW1hZScsICc8aW5maWxlLm1hZT4nLCAnLW9tYWUnLCAnPG91dGZpbGUubWFlPic=

> <r_lp_tautomer_probability>
1

> <r_epik_Ionization_Penalty>
0.0019697

> <r_epik_Ionization_Penalty_Charging>
0

> <r_epik_Ionization_Penalty_Neutral>
0.0019697

> <r_epik_State_Penalty>
0.00113613

> <r_epik_Charging_Adjusted_Penalty>
0.00113613

> <i_epik_Tot_Q>
0

> <i_epik_Tot_abs_Q>
0

> <r_epik_Metal_State_Penalty>
-0

> <b_epik_Metal_Only>
0

> <s_lp_Force_Field>
OPLS_2005

> <r_lp_Energy>
60.5509

> <b_lp_Chiralities_Consistent>
1

> <s_lp_Variant>
AV-unprocessed.smi:20-3

> <Gold.Version>
5.8.1

> <Gold.Id.Protein>
6NUR|6NUR_protein|mol2

> <Gold.PLP.Fitness>
43.6677

> <Gold.PLP.PLP>
-39.9195

> <Gold.PLP.part.hbond>
-3.0000

> <Gold.PLP.part.metal>
0.0000

> <Gold.PLP.part.buried>
-7.5532

> <Gold.PLP.part.nonpolar>
-29.0200

> <Gold.PLP.part.repulsive>
0.3204

> <Gold.PLP.ligand.clash>
0.0000

> <Gold.PLP.ligand.torsion>
1.1515

> <Gold.PLP.Chemscore.Hbond>
1.9131

> <Gold.PLP.Chemscore.CHOScore>
0.0000

> <Gold.PLP.Chemscore.Metal>
0.0000

> <Gold.Chemscore.Hbonds>
donor molecule, donor type, donor heavy atom, donor atom, acceptor molecule, acceptor atom, score
      P1  H  6931  6943       L1    25  0.60
      P1  H  6934  6947       L1    25  0.72

> <Gold.PLP.Chemscore.Internal.Correction>
0.3119

> <Gold.Rescore>
     Score         DG    S(hbond)    S(metal)    S(lipo)     H(rot)  DE(clash)    DE(int)     intcor
     14.19     -15.06       1.82        0.00      82.99       2.43       0.04       0.83       ----

> <Gold.Chemscore.Fitness>
14.1922

> <Gold.Chemscore.DG>
-15.0577

> <Gold.Chemscore.ZeroCoef>
-5.4800

> <Gold.Chemscore.Hbond>
1.8238

> <Gold.Chemscore.Metal>
0.0000

> <Gold.Chemscore.Lipo>
82.9853

> <Gold.Chemscore.Internal_Hbond>
0.0000

> <Gold.Chemscore.DEClash>
0.0358

> <Gold.Chemscore.DEInternal>
0.8297

> <Gold.Chemscore.Rot>
2.4309

> <Gold.Chemscore.Internal.Correction>
   9.000000E+99

> <Gold.Chemscore.Hbonds>
donor molecule, donor type, donor heavy atom, donor atom, acceptor molecule, acceptor atom, score
      L1  H    29    57       P1 10171  0.02
      P1  H  6931  6943       L1    25  0.17
      P1  H  6934  6947       L1    25  0.21

> <Gold.Chemscore.Hbond.Weighted>
-6.0916

> <Gold.Chemscore.Metal.Weighted>
-0.0000

> <Gold.Chemscore.Lipo.Weighted>
-9.7093

> <Gold.Chemscore.Internal_Hbond.Weighted>
0.0000

> <Gold.Chemscore.DEClash.Weighted>
0.0358

> <Gold.Chemscore.DEInternal.Weighted>
0.8297

> <Gold.Chemscore.Rot.Weighted>
6.2231

> <Gold.Chemscore.Internal.Correction.Weighted>
   9.000000E+99

> <Gold.Protein.RotatedTorsions>
[ 6907 6896 6895 6894 ] final -110.38 input  -60.11 | X-H torsion
[ 7974 7965 7964 7962 ] final  -92.79 input  175.53 | X-H torsion
[ 8008 7997 7996 7995 ] final  -77.24 input   59.86 | X-H torsion
[ 10167 10162 10161 10158 ] final   30.20 input  -65.29 | X-H torsion
[ 10718 10713 10712 10709 ] final  -19.61 input   66.30 | X-H torsion
[ 10763 10752 10751 10750 ] final   81.71 input  -60.55 | X-H torsion
[ 11005 11000 10999 10996 ] final -148.11 input  -57.11 | X-H torsion

> <Gold.Protein.ActiveResidues>
 VAL166  LYS551  ARG553  GLY616  TRP617  ASP618  TYR619  PRO620  LYS621  CYS622 
 ASP623  PHE694  ASN695  SER759  ASP760  ASP761  ALA762  ILE779  LEU786  VAL792 
 PHE793  MET794  SER795  GLU796  ALA797  LYS798  CYS799  TRP800  GLU811  SER814 

> <Gold.Protein.RotatedAtoms>
  150.7621  133.9391  159.3450 H   0  0  0  0  0  0  0  0  0  0  0  0  # atno 6907 bound_to 6896
  151.7297  135.0875  160.0307 H   0  0  0  0  0  0  0  0  0  0  0  0  # atno 6908 bound_to 6896
  152.3597  133.6244  159.6042 H   0  0  0  0  0  0  0  0  0  0  0  0  # atno 6909 bound_to 6896
  145.3952  140.9532  143.2318 H   0  0  0  0  0  0  0  0  0  0  0  0  # atno 7974 bound_to 7965
  154.5578  140.0714  156.8771 H   0  0  0  0  0  0  0  0  0  0  0  0  # atno 8008 bound_to 7997
  155.2869  140.3375  155.4236 H   0  0  0  0  0  0  0  0  0  0  0  0  # atno 8009 bound_to 7997
  156.2017  140.1724  156.7872 H   0  0  0  0  0  0  0  0  0  0  0  0  # atno 8010 bound_to 7997
  140.4699  144.0778  150.6234 H   0  0  0  0  0  0  0  0  0  0  0  0  # atno 10167 bound_to 10162
  156.5432  130.4683  149.6488 H   0  0  0  0  0  0  0  0  0  0  0  0  # atno 10718 bound_to 10713
  153.1140  135.4755  154.9083 H   0  0  0  0  0  0  0  0  0  0  0  0  # atno 10763 bound_to 10752
  154.7509  135.3106  154.8561 H   0  0  0  0  0  0  0  0  0  0  0  0  # atno 10764 bound_to 10752
  153.9142  135.6862  153.4803 H   0  0  0  0  0  0  0  0  0  0  0  0  # atno 10765 bound_to 10752
  140.7647  134.3258  157.5092 H   0  0  0  0  0  0  0  0  0  0  0  0  # atno 11005 bound_to 11000
  144.8412  139.5468  143.6899 LP  0  0  0  0  0  0  0  0  0  0  0  0  # atno 17320 bound_to 7965
  146.2779  139.6799  142.9250 LP  0  0  0  0  0  0  0  0  0  0  0  0  # atno 17321 bound_to 7965
  140.3990  143.2713  151.9971 LP  0  0  0  0  0  0  0  0  0  0  0  0  # atno 17342 bound_to 10162
  139.4817  144.6014  151.7599 LP  0  0  0  0  0  0  0  0  0  0  0  0  # atno 17343 bound_to 10162
  156.2952  130.7146  151.2005 LP  0  0  0  0  0  0  0  0  0  0  0  0  # atno 17370 bound_to 10713
  157.7401  131.0521  150.5186 LP  0  0  0  0  0  0  0  0  0  0  0  0  # atno 17371 bound_to 10713
  139.8765  134.9223  156.3298 LP  0  0  0  0  0  0  0  0  0  0  0  0  # atno 17394 bound_to 11000
  140.9631  133.7376  156.0428 LP  0  0  0  0  0  0  0  0  0  0  0  0  # atno 17395 bound_to 11000

$$$$
