#       Name:                AV-unprocessed.smi:139
#       Creating user name   scv26
#       Creation time:       Thu Mar 26 18:33:31 2020


#       File generated by GOLD software.
#

@<TRIPOS>MOLECULE
AV-unprocessed.smi:139
    58    61     1
SMALL
NO_CHARGES


@<TRIPOS>ATOM
      1 ****        -1.1944   1.4837  -1.5094 O.2            1 S1                 0.0000
      2 ****        -0.4994   0.4681  -1.5581 C.2            1 S1                 0.0000
      3 ****         1.0320   0.5705  -1.5888 C.3            1 S1                 0.0000
      4 ****         1.5399   1.6495  -0.7142 N.am           1 S1                 0.0000
      5 ****         1.8572   2.9082  -1.2831 C.2            1 S1                 0.0000
      6 ****         1.7313   3.1149  -2.4908 O.2            1 S1                 0.0000
      7 ****         2.3306   3.9211  -0.3461 C.2            1 S1                 0.0000
      8 ****         2.6756   5.1381  -0.7997 F              1 S1                 0.0000
      9 ****         2.4299   3.6552   0.9726 C.2            1 S1                 0.0000
     10 ****         2.0938   2.4295   1.5163 N.am           1 S1                 0.0000
     11 ****         2.2122   2.1775   3.0015 C.3            1 S1                 0.0000
     12 ****         3.6264   1.6970   3.3485 C.3            1 S1                 0.0000
     13 ****         4.2792   2.9668   3.8518 C.3            1 S1                 0.0000
     14 ****         3.1034   3.6745   4.5137 C.3            1 S1                 0.0000
     15 ****         1.9869   3.3785   3.6820 O.3            1 S1                 0.0000
     16 ****         1.6522   1.3880   0.6728 C.2            1 S1                 0.0000
     17 ****         1.3722   0.2785   1.1326 O.2            1 S1                 0.0000
     18 ****        -1.0081  -0.7726  -1.5870 N.am           1 S1                 0.0000
     19 ****        -2.4268  -1.1124  -1.5157 C.3            1 S1                 0.0000
     20 ****        -2.8883  -1.1779  -0.0458 C.3            1 S1                 0.0000
     21 ****        -2.5406  -2.5201   0.6046 C.3            1 S1                 0.0000
     22 ****        -3.2101  -3.6827  -0.1376 C.3            1 S1                 0.0000
     23 ****        -3.0603  -3.6029  -1.6495 C.ar           1 S1                 0.0000
     24 ****        -3.2977  -4.7628  -2.4168 C.ar           1 S1                 0.0000
     25 ****        -3.1800  -4.7272  -3.8190 C.ar           1 S1                 0.0000
     26 ****        -2.8233  -3.5287  -4.4634 C.ar           1 S1                 0.0000
     27 ****        -2.5869  -2.3671  -3.7051 C.ar           1 S1                 0.0000
     28 ****        -2.7067  -2.3914  -2.2984 C.ar           1 S1                 0.0000
     29 ****         1.4725  -0.3856  -1.2990 H              1 S1                 0.0000
     30 ****         1.3409   0.7023  -2.6265 H              1 S1                 0.0000
     31 ****         2.7895   4.4402   1.6210 H              1 S1                 0.0000
     32 ****         1.4295   1.4642   3.2641 H              1 S1                 0.0000
     33 ****         3.5555   0.9597   4.1490 H              1 S1                 0.0000
     34 ****         4.1332   1.2444   2.4952 H              1 S1                 0.0000
     35 ****         5.1066   2.7813   4.5371 H              1 S1                 0.0000
     36 ****         4.6538   3.5570   3.0148 H              1 S1                 0.0000
     37 ****         2.9222   3.2631   5.5078 H              1 S1                 0.0000
     38 ****         3.2569   4.7495   4.6107 H              1 S1                 0.0000
     39 ****        -0.3614  -1.5464  -1.6370 H              1 S1                 0.0000
     40 ****        -2.9944  -0.3196  -2.0072 H              1 S1                 0.0000
     41 ****        -2.4762  -0.3490   0.5314 H              1 S1                 0.0000
     42 ****        -3.9715  -1.0554  -0.0112 H              1 S1                 0.0000
     43 ****        -1.4581  -2.6522   0.5898 H              1 S1                 0.0000
     44 ****        -2.8375  -2.5266   1.6537 H              1 S1                 0.0000
     45 ****        -2.8061  -4.6301   0.2215 H              1 S1                 0.0000
     46 ****        -4.2768  -3.6924   0.0893 H              1 S1                 0.0000
     47 ****        -3.5738  -5.6865  -1.9294 H              1 S1                 0.0000
     48 ****        -3.3638  -5.6193  -4.3993 H              1 S1                 0.0000
     49 ****        -2.7311  -3.4998  -5.5390 H              1 S1                 0.0000
     50 ****        -2.3112  -1.4508  -4.2068 H              1 S1                 0.0000
     51 ****        -0.7618   2.3851  -1.4895 LP             1 S1                 0.0000
     52 ****        -2.1912   1.4069  -1.4897 LP             1 S1                 0.0000
     53 ****         1.3994   2.3869  -3.0907 LP             1 S1                 0.0000
     54 ****         1.9610   4.0106  -2.8713 LP             1 S1                 0.0000
     55 ****         1.1657   3.2921   4.2461 LP             1 S1                 0.0000
     56 ****         1.8603   4.1171   3.0200 LP             1 S1                 0.0000
     57 ****         1.0610  -0.4511   0.5237 LP             1 S1                 0.0000
     58 ****         1.4564   0.1084   2.1145 LP             1 S1                 0.0000
@<TRIPOS>BOND
    1    1    2 2     
    2    2    3 1     
    3    2   18 am    
    4    3    4 1     
    5    3   29 1     
    6    3   30 1     
    7    4   16 am    
    8    4    5 am    
    9    5    6 2     
   10    5    7 1     
   11    7    8 1     
   12    7    9 2     
   13    9   10 1     
   14    9   31 1     
   15   10   11 1     
   16   10   16 am    
   17   11   15 1     
   18   11   12 1     
   19   11   32 1     
   20   12   13 1     
   21   12   33 1     
   22   12   34 1     
   23   13   14 1     
   24   13   35 1     
   25   13   36 1     
   26   14   15 1     
   27   14   37 1     
   28   14   38 1     
   29   16   17 2     
   30   18   19 1     
   31   18   39 1     
   32   19   28 1     
   33   19   20 1     
   34   19   40 1     
   35   20   21 1     
   36   20   41 1     
   37   20   42 1     
   38   21   22 1     
   39   21   43 1     
   40   21   44 1     
   41   22   23 1     
   42   22   45 1     
   43   22   46 1     
   44   23   28 ar    
   45   23   24 ar    
   46   24   25 ar    
   47   24   47 1     
   48   25   26 ar    
   49   25   48 1     
   50   26   27 ar    
   51   26   49 1     
   52   27   28 ar    
   53   27   50 1     
   54    1   51 1     
   55    1   52 1     
   56    6   53 1     
   57    6   54 1     
   58   15   55 1     
   59   15   56 1     
   60   17   57 1     
   61   17   58 1     
@<TRIPOS>SUBSTRUCTURE
      1 S1             1
@<TRIPOS>SET
LONE_PAIRS      STATIC     ATOMS    <user>   **** ""
8 51 52 53 54 55 56 57 58
DONOR_HYDROGENS      STATIC     ATOMS    <user>   **** ""
1 39
ATOM$BLUE        STATIC     ATOMS    COLORGROUP SYSTEM
8 51 52 53 54 55 56 57 58
ATOM$RED        STATIC     ATOMS    COLORGROUP SYSTEM
1 39
