AV-unprocessed.smi:3332|AV-procd|sdf|12830|dock2
  -GOLD-   2272019213D 1   1.00000     0.00000
 Structure written by MMmdl.
 41 42  0  0  0  0  0  0  0  0  1 V2000
  152.2390  145.0665  159.0583 C   0  0  0  0  0  0  0  0  0  0  0  0
  151.6372  144.3042  160.2435 C   0  0  0  0  0  0  0  0  0  0  0  0
  152.4754  143.1280  160.6496 C   0  0  0  0  0  0  0  0  0  0  0  0
  152.7901  142.1527  159.6996 N   0  0  0  0  0  0  0  0  0  0  0  0
  153.5400  141.1672  160.1983 C   0  0  0  0  0  0  0  0  0  0  0  0
  153.9588  139.9692  159.4064 C   0  0  0  0  0  0  0  0  0  0  0  0
  152.8116  139.3040  158.6217 C   0  0  0  0  0  0  0  0  0  0  0  0
  152.0676  140.2705  157.8160 N   0  0  0  0  0  0  0  0  0  0  0  0
  151.9881  140.2707  156.4760 C   0  0  0  0  0  0  0  0  0  0  0  0
  152.6372  139.5084  155.7588 O   0  0  0  0  0  0  0  0  0  0  0  0
  151.0050  141.2742  155.8604 C   0  0  0  0  0  0  0  0  0  0  0  0
  149.6187  140.6827  155.5148 C   0  0  1  0  0  0  0  0  0  0  0  0
  148.6626  141.6761  154.8977 C   0  0  0  0  0  0  0  0  0  0  0  0
  148.1572  141.2562  153.7408 C   0  0  0  0  0  0  0  0  0  0  0  0
  148.6737  139.9011  153.3457 C   0  0  0  0  0  0  0  0  0  0  0  0
  149.6893  139.5511  154.4571 C   0  0  0  0  0  0  0  0  0  0  0  0
  153.9008  141.3724  161.9058 S   0  0  0  0  0  0  0  0  0  0  0  0
  152.9964  142.8653  161.8952 C   0  0  0  0  0  0  0  0  0  0  0  0
  152.8536  143.6815  163.1364 C   0  0  0  0  0  0  0  0  0  0  0  0
  151.6135  145.9164  158.7854 H   0  0  0  0  0  0  0  0  0  0  0  0
  152.3295  144.4246  158.1814 H   0  0  0  0  0  0  0  0  0  0  0  0
  153.2320  145.4469  159.3002 H   0  0  0  0  0  0  0  0  0  0  0  0
  151.5119  144.9886  161.0827 H   0  0  0  0  0  0  0  0  0  0  0  0
  150.6316  143.9712  159.9832 H   0  0  0  0  0  0  0  0  0  0  0  0
  154.7429  140.2753  158.7127 H   0  0  0  0  0  0  0  0  0  0  0  0
  154.4149  139.2454  160.0820 H   0  0  0  0  0  0  0  0  0  0  0  0
  153.2116  138.5319  157.9643 H   0  0  0  0  0  0  0  0  0  0  0  0
  152.1481  138.7913  159.3199 H   0  0  0  0  0  0  0  0  0  0  0  0
  151.5060  140.9416  158.3195 H   0  0  0  0  0  0  0  0  0  0  0  0
  150.8775  142.1070  156.5546 H   0  0  0  0  0  0  0  0  0  0  0  0
  151.4616  141.6884  154.9609 H   0  0  0  0  0  0  0  0  0  0  0  0
  149.1486  140.2973  156.4209 H   0  0  0  0  0  0  0  0  0  0  0  0
  148.4143  142.6125  155.3753 H   0  0  0  0  0  0  0  0  0  0  0  0
  147.4447  141.8009  153.1388 H   0  0  0  0  0  0  0  0  0  0  0  0
  147.8513  139.1859  153.3101 H   0  0  0  0  0  0  0  0  0  0  0  0
  149.1446  139.9420  152.3630 H   0  0  0  0  0  0  0  0  0  0  0  0
  150.6897  139.4786  154.0282 H   0  0  0  0  0  0  0  0  0  0  0  0
  149.4659  138.5818  154.9042 H   0  0  0  0  0  0  0  0  0  0  0  0
  153.1978  144.7023  162.9690 H   0  0  0  0  0  0  0  0  0  0  0  0
  153.4361  143.2606  163.9562 H   0  0  0  0  0  0  0  0  0  0  0  0
  151.8106  143.7230  163.4519 H   0  0  0  0  0  0  0  0  0  0  0  0
  1  2  1  0  0  0  0
  1 20  1  0  0  0  0
  1 21  1  0  0  0  0
  1 22  1  0  0  0  0
  2  3  1  0  0  0  0
  2 23  1  0  0  0  0
  2 24  1  0  0  0  0
  3 18  2  0  0  0  0
  3  4  1  0  0  0  0
  4  5  2  0  0  0  0
  5  6  1  0  0  0  0
  5 17  1  0  0  0  0
  6  7  1  0  0  0  0
  6 25  1  0  0  0  0
  6 26  1  0  0  0  0
  7  8  1  0  0  0  0
  7 27  1  0  0  0  0
  7 28  1  0  0  0  0
  8  9  1  0  0  0  0
  8 29  1  0  0  0  0
  9 10  2  0  0  0  0
  9 11  1  0  0  0  0
 11 12  1  0  0  0  0
 11 30  1  0  0  0  0
 11 31  1  0  0  0  0
 12 16  1  0  0  0  0
 12 13  1  0  0  0  0
 12 32  1  0  0  0  0
 13 14  2  0  0  0  0
 13 33  1  0  0  0  0
 14 15  1  0  0  0  0
 14 34  1  0  0  0  0
 15 16  1  0  0  0  0
 15 35  1  0  0  0  0
 15 36  1  0  0  0  0
 16 37  1  0  0  0  0
 16 38  1  0  0  0  0
 17 18  1  0  0  0  0
 18 19  1  0  0  0  0
 19 39  1  0  0  0  0
 19 40  1  0  0  0  0
 19 41  1  0  0  0  0
M  END
> <s_m_source_file>
AV-unprocessed.smi

> <i_m_source_file_index>
3332

> <i_lp_mmshare_version>
43012

> <i_f3d_flags>
0

> <s_epik_input>
W0NIM11bQ0gyXWMxbmMoc2MxW0NIM10pW0NIMl1bQ0gyXVtOSF1DKD1PKVtDSDJdW0NAQEhdMltDSF09W0NIXVtDSDJdW0NIMl0y

> <s_epik_cmdline>
J2VwaWtfcHl0aG9uJywgJy1waCcsICc3LjAnLCAnLXRuJywgJzgnLCAnLW1hJywgJzIwMCcsICctbWV0YWxfYmluZGluZycsICctaW1hZScsICc8aW5maWxlLm1hZT4nLCAnLW9tYWUnLCAnPG91dGZpbGUubWFlPic=

> <r_epik_Ionization_Penalty>
0.00221844

> <r_epik_Ionization_Penalty_Charging>
0

> <r_epik_Ionization_Penalty_Neutral>
0.00221844

> <r_epik_State_Penalty>
0.00152607

> <r_epik_Charging_Adjusted_Penalty>
0.00152607

> <i_epik_Tot_Q>
0

> <i_epik_Tot_abs_Q>
0

> <r_epik_Metal_State_Penalty>
-0

> <b_epik_Metal_Only>
0

> <s_lp_Force_Field>
OPLS_2005

> <r_lp_Energy>
6.79719

> <b_lp_Chiralities_Consistent>
1

> <s_lp_Variant>
AV-unprocessed.smi:3332-2

> <Gold.Version>
5.8.1

> <Gold.Id.Protein>
6NUR|6NUR_protein|mol2

> <Gold.PLP.Fitness>
47.5131

> <Gold.PLP.PLP>
-45.3419

> <Gold.PLP.part.hbond>
-1.0000

> <Gold.PLP.part.metal>
0.0000

> <Gold.PLP.part.buried>
0.7003

> <Gold.PLP.part.nonpolar>
-43.5670

> <Gold.PLP.part.repulsive>
0.0765

> <Gold.PLP.ligand.clash>
0.0000

> <Gold.PLP.ligand.torsion>
0.4746

> <Gold.PLP.Chemscore.Hbond>
1.0000

> <Gold.PLP.Chemscore.CHOScore>
0.0000

> <Gold.PLP.Chemscore.Metal>
0.0000

> <Gold.Chemscore.Hbonds>
donor molecule, donor type, donor heavy atom, donor atom, acceptor molecule, acceptor atom, score
      P1  H  7997  8010       L1    10  1.00

> <Gold.PLP.Chemscore.Internal.Correction>
0.1203

> <Gold.Rescore>
     Score         DG    S(hbond)    S(metal)    S(lipo)     H(rot)  DE(clash)    DE(int)     intcor
     17.31     -19.91       0.69        0.00     136.59       1.51       2.17       0.42       ----

> <Gold.Chemscore.Fitness>
17.3143

> <Gold.Chemscore.DG>
-19.9062

> <Gold.Chemscore.ZeroCoef>
-5.4800

> <Gold.Chemscore.Hbond>
0.6920

> <Gold.Chemscore.Metal>
0.0000

> <Gold.Chemscore.Lipo>
136.5907

> <Gold.Chemscore.Internal_Hbond>
0.0000

> <Gold.Chemscore.DEClash>
2.1717

> <Gold.Chemscore.DEInternal>
0.4202

> <Gold.Chemscore.Rot>
1.5103

> <Gold.Chemscore.Internal.Correction>
   9.000000E+99

> <Gold.Chemscore.Hbonds>
donor molecule, donor type, donor heavy atom, donor atom, acceptor molecule, acceptor atom, score
      P1  H  7997  8010       L1    10  0.35

> <Gold.Chemscore.Hbond.Weighted>
-2.3114

> <Gold.Chemscore.Metal.Weighted>
-0.0000

> <Gold.Chemscore.Lipo.Weighted>
-15.9811

> <Gold.Chemscore.Internal_Hbond.Weighted>
0.0000

> <Gold.Chemscore.DEClash.Weighted>
2.1717

> <Gold.Chemscore.DEInternal.Weighted>
0.4202

> <Gold.Chemscore.Rot.Weighted>
3.8664

> <Gold.Chemscore.Internal.Correction.Weighted>
   9.000000E+99

> <Gold.Protein.RotatedTorsions>
[ 6907 6896 6895 6894 ] final   -0.14 input  -60.11 | X-H torsion
[ 7974 7965 7964 7962 ] final  -75.53 input  175.53 | X-H torsion
[ 8008 7997 7996 7995 ] final   99.16 input   59.86 | X-H torsion
[ 10167 10162 10161 10158 ] final  -51.90 input  -65.29 | X-H torsion
[ 10718 10713 10712 10709 ] final   29.80 input   66.30 | X-H torsion
[ 10763 10752 10751 10750 ] final   51.51 input  -60.55 | X-H torsion
[ 11005 11000 10999 10996 ] final  -41.44 input  -57.11 | X-H torsion

> <Gold.Protein.ActiveResidues>
 VAL166  LYS551  ARG553  GLY616  TRP617  ASP618  TYR619  PRO620  LYS621  CYS622 
 ASP623  PHE694  ASN695  SER759  ASP760  ASP761  ALA762  ILE779  LEU786  VAL792 
 PHE793  MET794  SER795  GLU796  ALA797  LYS798  CYS799  TRP800  GLU811  SER814 

> <Gold.Protein.RotatedAtoms>
  151.5670  135.1064  159.9985 H   0  0  0  0  0  0  0  0  0  0  0  0  # atno 6907 bound_to 6896
  152.4419  133.7460  159.6678 H   0  0  0  0  0  0  0  0  0  0  0  0  # atno 6908 bound_to 6896
  150.8326  133.7997  159.3116 H   0  0  0  0  0  0  0  0  0  0  0  0  # atno 6909 bound_to 6896
  145.6248  140.9353  143.1118 H   0  0  0  0  0  0  0  0  0  0  0  0  # atno 7974 bound_to 7965
  156.1077  140.3233  155.8028 H   0  0  0  0  0  0  0  0  0  0  0  0  # atno 8008 bound_to 7997
  155.4728  140.0548  157.2994 H   0  0  0  0  0  0  0  0  0  0  0  0  # atno 8009 bound_to 7997
  154.4738  140.2023  155.9942 H   0  0  0  0  0  0  0  0  0  0  0  0  # atno 8010 bound_to 7997
  140.6565  143.2603  151.4570 H   0  0  0  0  0  0  0  0  0  0  0  0  # atno 10167 bound_to 10162
  157.2513  130.7116  149.6406 H   0  0  0  0  0  0  0  0  0  0  0  0  # atno 10718 bound_to 10713
  152.9785  135.5843  154.4427 H   0  0  0  0  0  0  0  0  0  0  0  0  # atno 10763 bound_to 10752
  154.4026  135.2769  155.2089 H   0  0  0  0  0  0  0  0  0  0  0  0  # atno 10764 bound_to 10752
  154.3913  135.6124  153.5899 H   0  0  0  0  0  0  0  0  0  0  0  0  # atno 10765 bound_to 10752
  141.0246  133.6847  156.2457 H   0  0  0  0  0  0  0  0  0  0  0  0  # atno 11005 bound_to 11000
  144.7216  139.8010  143.7380 LP  0  0  0  0  0  0  0  0  0  0  0  0  # atno 17320 bound_to 7965
  146.1403  139.4458  143.0113 LP  0  0  0  0  0  0  0  0  0  0  0  0  # atno 17321 bound_to 7965
  139.5789  144.1755  152.1941 LP  0  0  0  0  0  0  0  0  0  0  0  0  # atno 17342 bound_to 10162
  140.1074  144.5486  150.6947 LP  0  0  0  0  0  0  0  0  0  0  0  0  # atno 17343 bound_to 10162
  155.9666  130.4427  150.5390 LP  0  0  0  0  0  0  0  0  0  0  0  0  # atno 17370 bound_to 10713
  157.3275  131.0693  151.1886 LP  0  0  0  0  0  0  0  0  0  0  0  0  # atno 17371 bound_to 10713
  140.6514  134.5063  157.5577 LP  0  0  0  0  0  0  0  0  0  0  0  0  # atno 17394 bound_to 11000
  139.9167  134.8231  156.1342 LP  0  0  0  0  0  0  0  0  0  0  0  0  # atno 17395 bound_to 11000

$$$$
