AV-unprocessed.smi:2854|AV-procd|sdf|10976|dock2
  -GOLD-   2272015433D 1   1.00000     0.00000
 Structure written by MMmdl.
 26 27  0  0  0  0  0  0  0  0  1 V2000
  149.9302  142.0615  155.5711 N   0  0  0  0  0  0  0  0  0  0  0  0
  150.7698  141.8667  156.6701 C   0  0  0  0  0  0  0  0  0  0  0  0
  150.9703  142.9134  157.5947 C   0  0  0  0  0  0  0  0  0  0  0  0
  151.7646  142.8067  158.6807 N   0  0  0  0  0  0  0  0  0  0  0  0
  152.3968  141.6322  158.8850 C   0  0  0  0  0  0  0  0  0  0  0  0
  152.2675  140.5233  158.0262 C   0  0  0  0  0  0  0  0  0  0  0  0
  151.4353  140.6363  156.8893 C   0  0  0  0  0  0  0  0  0  0  0  0
  151.2699  139.5640  155.9975 N   0  0  0  0  0  0  0  0  0  0  0  0
  152.5006  139.1756  155.3207 C   0  0  0  0  0  0  0  0  0  0  0  0
  152.2025  138.0907  154.2715 C   0  0  0  0  0  0  0  0  0  0  0  0
  151.5528  136.9871  154.8968 O   0  0  0  0  0  0  0  0  0  0  0  0
  150.3128  137.3627  155.4905 C   0  0  0  0  0  0  0  0  0  0  0  0
  150.5613  138.4279  156.5725 C   0  0  0  0  0  0  0  0  0  0  0  0
  149.7668  141.3322  154.8923 H   0  0  0  0  0  0  0  0  0  0  0  0
  149.4557  142.9412  155.4251 H   0  0  0  0  0  0  0  0  0  0  0  0
  150.4794  143.8666  157.4607 H   0  0  0  0  0  0  0  0  0  0  0  0
  153.0264  141.5735  159.7605 H   0  0  0  0  0  0  0  0  0  0  0  0
  152.7995  139.6081  158.2406 H   0  0  0  0  0  0  0  0  0  0  0  0
  152.9498  140.0467  154.8420 H   0  0  0  0  0  0  0  0  0  0  0  0
  153.2207  138.7980  156.0478 H   0  0  0  0  0  0  0  0  0  0  0  0
  151.5781  138.4866  153.4689 H   0  0  0  0  0  0  0  0  0  0  0  0
  153.1294  137.7455  153.8132 H   0  0  0  0  0  0  0  0  0  0  0  0
  149.6300  137.7365  154.7258 H   0  0  0  0  0  0  0  0  0  0  0  0
  149.8467  136.4809  155.9302 H   0  0  0  0  0  0  0  0  0  0  0  0
  151.1465  137.9973  157.3859 H   0  0  0  0  0  0  0  0  0  0  0  0
  149.6127  138.7602  156.9962 H   0  0  0  0  0  0  0  0  0  0  0  0
  1  2  1  0  0  0  0
  1 14  1  0  0  0  0
  1 15  1  0  0  0  0
  2  7  1  0  0  0  0
  2  3  2  0  0  0  0
  3  4  1  0  0  0  0
  3 16  1  0  0  0  0
  4  5  2  0  0  0  0
  5  6  1  0  0  0  0
  5 17  1  0  0  0  0
  6  7  2  0  0  0  0
  6 18  1  0  0  0  0
  7  8  1  0  0  0  0
  8 13  1  0  0  0  0
  8  9  1  0  0  0  0
  9 10  1  0  0  0  0
  9 19  1  0  0  0  0
  9 20  1  0  0  0  0
 10 11  1  0  0  0  0
 10 21  1  0  0  0  0
 10 22  1  0  0  0  0
 11 12  1  0  0  0  0
 12 13  1  0  0  0  0
 12 23  1  0  0  0  0
 12 24  1  0  0  0  0
 13 25  1  0  0  0  0
 13 26  1  0  0  0  0
M  END
> <s_m_source_file>
AV-unprocessed.smi

> <i_m_source_file_index>
2854

> <i_lp_mmshare_version>
43012

> <i_f3d_flags>
0

> <s_epik_input>
W05IMl1jMVtjSF1uW2NIXVtjSF1jMU4yW0NIMl1bQ0gyXU9bQ0gyXVtDSDJdMg==

> <s_epik_cmdline>
J2VwaWtfcHl0aG9uJywgJy1waCcsICc3LjAnLCAnLXRuJywgJzgnLCAnLW1hJywgJzIwMCcsICctbWV0YWxfYmluZGluZycsICctaW1hZScsICc8aW5maWxlLm1hZT4nLCAnLW9tYWUnLCAnPG91dGZpbGUubWFlPic=

> <r_lp_tautomer_probability>
1

> <r_epik_Ionization_Penalty>
1.93711

> <r_epik_Ionization_Penalty_Charging>
0

> <r_epik_Ionization_Penalty_Neutral>
1.93711

> <r_epik_State_Penalty>
2.06104

> <r_epik_Charging_Adjusted_Penalty>
2.06104

> <i_epik_Tot_Q>
0

> <i_epik_Tot_abs_Q>
0

> <r_epik_Metal_State_Penalty>
0.0183267

> <b_epik_Metal_Only>
0

> <s_lp_Force_Field>
OPLS_2005

> <r_lp_Energy>
22.5874

> <b_lp_Chiralities_Consistent>
1

> <s_lp_Variant>
AV-unprocessed.smi:2854-2

> <Gold.Version>
5.8.1

> <Gold.Id.Protein>
6NUR|6NUR_protein|mol2

> <Gold.PLP.Fitness>
30.4332

> <Gold.PLP.PLP>
-21.4472

> <Gold.PLP.part.hbond>
-2.0000

> <Gold.PLP.part.metal>
0.0000

> <Gold.PLP.part.buried>
-3.8599

> <Gold.PLP.part.nonpolar>
-16.2429

> <Gold.PLP.part.repulsive>
0.3121

> <Gold.PLP.ligand.clash>
0.0000

> <Gold.PLP.ligand.torsion>
0.0634

> <Gold.PLP.Chemscore.Hbond>
2.0000

> <Gold.PLP.Chemscore.CHOScore>
1.0000

> <Gold.PLP.Chemscore.Metal>
0.0000

> <Gold.Chemscore.Hbonds>
donor molecule, donor type, donor heavy atom, donor atom, acceptor molecule, acceptor atom, score
      L1  H     1    15       P1  8028  1.00
      P1  H 10752 10765       L1    11  0.95
      L1  C     3    16       P1  8028  1.00

> <Gold.PLP.Chemscore.Internal.Correction>
0.1129

> <Gold.Rescore>
     Score         DG    S(hbond)    S(metal)    S(lipo)     H(rot)  DE(clash)    DE(int)     intcor
     15.88     -16.47       1.84        0.00      63.25       1.00       0.53       0.06       ----

> <Gold.Chemscore.Fitness>
15.8806

> <Gold.Chemscore.DG>
-16.4720

> <Gold.Chemscore.ZeroCoef>
-5.4800

> <Gold.Chemscore.Hbond>
1.8419

> <Gold.Chemscore.Metal>
0.0000

> <Gold.Chemscore.Lipo>
63.2490

> <Gold.Chemscore.Internal_Hbond>
0.0000

> <Gold.Chemscore.DEClash>
0.5294

> <Gold.Chemscore.DEInternal>
0.0621

> <Gold.Chemscore.Rot>
1.0000

> <Gold.Chemscore.Internal.Correction>
   9.000000E+99

> <Gold.Chemscore.Hbonds>
donor molecule, donor type, donor heavy atom, donor atom, acceptor molecule, acceptor atom, score
      L1  H     1    15       P1  8028  1.00
      P1  H 10752 10765       L1    11  0.21

> <Gold.Chemscore.Hbond.Weighted>
-6.1519

> <Gold.Chemscore.Metal.Weighted>
-0.0000

> <Gold.Chemscore.Lipo.Weighted>
-7.4001

> <Gold.Chemscore.Internal_Hbond.Weighted>
0.0000

> <Gold.Chemscore.DEClash.Weighted>
0.5294

> <Gold.Chemscore.DEInternal.Weighted>
0.0621

> <Gold.Chemscore.Rot.Weighted>
2.5600

> <Gold.Chemscore.Internal.Correction.Weighted>
   9.000000E+99

> <Gold.Protein.RotatedTorsions>
[ 6907 6896 6895 6894 ] final   11.20 input  -60.11 | X-H torsion
[ 7974 7965 7964 7962 ] final -175.46 input  175.53 | X-H torsion
[ 8008 7997 7996 7995 ] final   88.92 input   59.86 | X-H torsion
[ 10167 10162 10161 10158 ] final   11.90 input  -65.29 | X-H torsion
[ 10718 10713 10712 10709 ] final    5.52 input   66.30 | X-H torsion
[ 10763 10752 10751 10750 ] final -179.64 input  -60.55 | X-H torsion
[ 11005 11000 10999 10996 ] final   34.43 input  -57.11 | X-H torsion

> <Gold.Protein.ActiveResidues>
 VAL166  LYS551  ARG553  GLY616  TRP617  ASP618  TYR619  PRO620  LYS621  CYS622 
 ASP623  PHE694  ASN695  SER759  ASP760  ASP761  ALA762  ILE779  LEU786  VAL792 
 PHE793  MET794  SER795  GLU796  ALA797  LYS798  CYS799  TRP800  GLU811  SER814 

> <Gold.Protein.RotatedAtoms>
  151.7505  135.0834  160.0329 H   0  0  0  0  0  0  0  0  0  0  0  0  # atno 6907 bound_to 6896
  152.3420  133.6073  159.5891 H   0  0  0  0  0  0  0  0  0  0  0  0  # atno 6908 bound_to 6896
  150.7485  133.9624  159.3561 H   0  0  0  0  0  0  0  0  0  0  0  0  # atno 6909 bound_to 6896
  144.7128  140.1317  143.6398 H   0  0  0  0  0  0  0  0  0  0  0  0  # atno 7974 bound_to 7965
  155.9937  140.3366  155.6778 H   0  0  0  0  0  0  0  0  0  0  0  0  # atno 8008 bound_to 7997
  155.6386  140.0692  157.2644 H   0  0  0  0  0  0  0  0  0  0  0  0  # atno 8009 bound_to 7997
  154.4227  140.1747  156.1536 H   0  0  0  0  0  0  0  0  0  0  0  0  # atno 8010 bound_to 7997
  140.6102  143.8423  150.7057 H   0  0  0  0  0  0  0  0  0  0  0  0  # atno 10167 bound_to 10162
  156.9086  130.5748  149.5647 H   0  0  0  0  0  0  0  0  0  0  0  0  # atno 10718 bound_to 10713
  154.5325  135.2800  155.1168 H   0  0  0  0  0  0  0  0  0  0  0  0  # atno 10763 bound_to 10752
  154.2682  135.6308  153.5304 H   0  0  0  0  0  0  0  0  0  0  0  0  # atno 10764 bound_to 10752
  152.9960  135.5622  154.5842 H   0  0  0  0  0  0  0  0  0  0  0  0  # atno 10765 bound_to 10752
  140.2530  134.3281  155.7884 H   0  0  0  0  0  0  0  0  0  0  0  0  # atno 11005 bound_to 11000
  145.9281  139.2588  143.1341 LP  0  0  0  0  0  0  0  0  0  0  0  0  # atno 17320 bound_to 7965
  145.9551  140.8879  143.0239 LP  0  0  0  0  0  0  0  0  0  0  0  0  # atno 17321 bound_to 7965
  140.1990  143.3975  152.1806 LP  0  0  0  0  0  0  0  0  0  0  0  0  # atno 17342 bound_to 10162
  139.5355  144.7205  151.4907 LP  0  0  0  0  0  0  0  0  0  0  0  0  # atno 17343 bound_to 10162
  156.0547  130.5610  150.9065 LP  0  0  0  0  0  0  0  0  0  0  0  0  # atno 17370 bound_to 10713
  157.5981  131.0942  150.9006 LP  0  0  0  0  0  0  0  0  0  0  0  0  # atno 17371 bound_to 10713
  141.2199  133.7364  156.9067 LP  0  0  0  0  0  0  0  0  0  0  0  0  # atno 17394 bound_to 11000
  140.1539  134.9211  157.2629 LP  0  0  0  0  0  0  0  0  0  0  0  0  # atno 17395 bound_to 11000

$$$$
