#       Name:                AV-unprocessed.smi:1549
#       Creating user name   scv26
#       Creation time:       Fri Mar 27 06:39:50 2020


#       File generated by GOLD software.
#

@<TRIPOS>MOLECULE
AV-unprocessed.smi:1549
    48    49     1
SMALL
NO_CHARGES


@<TRIPOS>ATOM
      1 ****        -3.2484   4.4139  -0.0559 C.3            1 S1                 0.0000
      2 ****        -1.7650   4.7887  -0.0940 C.3            1 S1                 0.0000
      3 ****        -0.9919   3.5929  -0.0808 O.3            1 S1                 0.0000
      4 ****         0.3864   3.6921  -0.1077 C.ar           1 S1                 0.0000
      5 ****         0.9445   4.9283  -0.1398 N.ar           1 S1                 0.0000
      6 ****         2.2895   5.0255  -0.1708 C.ar           1 S1                 0.0000
      7 ****         3.1427   3.9070  -0.1784 C.ar           1 S1                 0.0000
      8 ****         2.5662   2.6239  -0.1446 C.ar           1 S1                 0.0000
      9 ****         1.1559   2.5053  -0.0963 C.ar           1 S1                 0.0000
     10 ****         0.4695   1.2597  -0.0800 N.am           1 S1                 0.0000
     11 ****         0.9223   0.0580   0.3149 C.2            1 S1                 0.0000
     12 ****         2.0419  -0.1655   0.7749 O.2            1 S1                 0.0000
     13 ****        -0.0159  -0.8871   0.1601 N.am           1 S1                 0.0000
     14 ****         0.1476  -2.2995   0.4912 C.3            1 S1                 0.0000
     15 ****         0.8963  -3.0387  -0.6361 C.3            1 S1                 0.0000
     16 ****         1.0242  -4.5427  -0.3386 C.3            1 S1                 0.0000
     17 ****        -0.3388  -5.1997  -0.0507 C.3            1 S1                 0.0000
     18 ****        -1.1068  -5.2617  -1.2363 O.3            1 S1                 0.0000
     19 ****        -1.1146  -4.4403   1.0423 C.3            1 S1                 0.0000
     20 ****        -1.2325  -2.9368   0.7358 C.3            1 S1                 0.0000
     21 ****        -3.8762   5.3051  -0.0726 H              1 S1                 0.0000
     22 ****        -3.4875   3.8532   0.8480 H              1 S1                 0.0000
     23 ****        -3.5189   3.7986  -0.9142 H              1 S1                 0.0000
     24 ****        -1.5568   5.3657  -0.9964 H              1 S1                 0.0000
     25 ****        -1.5224   5.4096   0.7700 H              1 S1                 0.0000
     26 ****         2.6975   6.0250  -0.1969 H              1 S1                 0.0000
     27 ****         4.2149   4.0301  -0.2143 H              1 S1                 0.0000
     28 ****         3.2145   1.7621  -0.1715 H              1 S1                 0.0000
     29 ****        -0.5025   1.3015  -0.3500 H              1 S1                 0.0000
     30 ****        -0.9090  -0.6112  -0.2210 H              1 S1                 0.0000
     31 ****         0.7264  -2.3810   1.4136 H              1 S1                 0.0000
     32 ****         0.3719  -2.8975  -1.5822 H              1 S1                 0.0000
     33 ****         1.8908  -2.6119  -0.7712 H              1 S1                 0.0000
     34 ****         1.5212  -5.0478  -1.1675 H              1 S1                 0.0000
     35 ****         1.6722  -4.6752   0.5287 H              1 S1                 0.0000
     36 ****        -0.1770  -6.2274   0.2761 H              1 S1                 0.0000
     37 ****        -0.6233  -5.7545  -1.8816 H              1 S1                 0.0000
     38 ****        -2.1061  -4.8753   1.1738 H              1 S1                 0.0000
     39 ****        -0.5994  -4.5664   1.9955 H              1 S1                 0.0000
     40 ****        -1.7344  -2.4344   1.5638 H              1 S1                 0.0000
     41 ****        -1.8671  -2.7936  -0.1400 H              1 S1                 0.0000
     42 ****        -1.2640   3.0580  -0.8807 LP             1 S1                 0.0000
     43 ****        -1.2348   3.0949   0.7517 LP             1 S1                 0.0000
     44 ****         0.3720   5.7483  -0.1404 LP             1 S1                 0.0000
     45 ****         2.6979   0.5820   0.8793 LP             1 S1                 0.0000
     46 ****         2.2954  -1.0945   1.0442 LP             1 S1                 0.0000
     47 ****        -1.2774  -4.3369  -1.5764 LP             1 S1                 0.0000
     48 ****        -1.9788  -5.7144  -1.0500 LP             1 S1                 0.0000
@<TRIPOS>BOND
    1    1    2 1     
    2    1   21 1     
    3    1   22 1     
    4    1   23 1     
    5    2    3 1     
    6    2   24 1     
    7    2   25 1     
    8    3    4 1     
    9    4    9 ar    
   10    4    5 ar    
   11    5    6 ar    
   12    6    7 ar    
   13    6   26 1     
   14    7    8 ar    
   15    7   27 1     
   16    8    9 ar    
   17    8   28 1     
   18    9   10 1     
   19   10   11 am    
   20   10   29 1     
   21   11   12 2     
   22   11   13 am    
   23   13   14 1     
   24   13   30 1     
   25   14   20 1     
   26   14   15 1     
   27   14   31 1     
   28   15   16 1     
   29   15   32 1     
   30   15   33 1     
   31   16   17 1     
   32   16   34 1     
   33   16   35 1     
   34   17   18 1     
   35   17   19 1     
   36   17   36 1     
   37   18   37 1     
   38   19   20 1     
   39   19   38 1     
   40   19   39 1     
   41   20   40 1     
   42   20   41 1     
   43    3   42 1     
   44    3   43 1     
   45    5   44 1     
   46   12   45 1     
   47   12   46 1     
   48   18   47 1     
   49   18   48 1     
@<TRIPOS>SUBSTRUCTURE
      1 S1             1
@<TRIPOS>SET
LONE_PAIRS      STATIC     ATOMS    <user>   **** ""
7 42 43 44 45 46 47 48
DONOR_HYDROGENS      STATIC     ATOMS    <user>   **** ""
3 29 30 37
ATOM$BLUE        STATIC     ATOMS    COLORGROUP SYSTEM
7 42 43 44 45 46 47 48
ATOM$RED        STATIC     ATOMS    COLORGROUP SYSTEM
3 29 30 37
