AV-unprocessed.smi:862|AV-procd|sdf|3980|dock6
  -GOLD-   22720 1453D 1   1.00000     0.00000
 Structure written by MMmdl.
 45 47  0  0  0  0  0  0  0  0  3 V2000
  149.9408  136.5757  156.4213 N   0  0  0  0  0  0  0  0  0  0  0  0
  150.4473  135.4211  155.9776 C   0  0  0  0  0  0  0  0  0  0  0  0
  151.6626  135.2545  155.8906 O   0  0  0  0  0  0  0  0  0  0  0  0
  149.5330  134.4618  155.6858 N   0  0  0  0  0  0  0  0  0  0  0  0
  148.0702  134.6014  155.7768 C   0  0  0  0  0  0  0  0  0  0  0  0
  147.4978  134.7454  154.3544 C   0  0  0  0  0  0  0  0  0  0  0  0
  147.8954  133.5482  153.4649 C   0  0  0  0  0  0  0  0  0  0  0  0
  147.4463  133.7856  152.0742 N   0  3  0  0  0  0  0  0  0  0  0  0
  146.0652  133.3565  151.7506 C   0  0  2  0  0  0  0  0  0  0  0  0
  146.0034  132.1177  150.8519 C   0  0  0  0  0  0  0  0  0  0  0  0
  144.6223  132.1737  150.1885 C   0  0  0  0  0  0  0  0  0  0  0  0
  144.1775  133.6439  150.2297 C   0  0  0  0  0  0  0  0  0  0  0  0
  145.3145  134.4120  150.9250 C   0  0  1  0  0  0  0  0  0  0  0  0
  144.8559  135.5733  151.7053 N   0  0  0  0  0  0  0  0  0  0  0  0
  144.1084  135.5439  152.8557 C   0  0  0  0  0  0  0  0  0  0  0  0
  143.9176  136.8475  153.2354 C   0  0  0  0  0  0  0  0  0  0  0  0
  144.5534  137.6200  152.3018 N   0  3  0  0  0  0  0  0  0  0  0  0
  145.1217  136.8454  151.3720 C   0  0  0  0  0  0  0  0  0  0  0  0
  149.4203  133.3039  153.5306 C   0  0  0  0  0  0  0  0  0  0  0  0
  149.9061  133.2249  154.9892 C   0  0  0  0  0  0  0  0  0  0  0  0
  150.5638  137.3307  156.6696 H   0  0  0  0  0  0  0  0  0  0  0  0
  148.9424  136.6870  156.5186 H   0  0  0  0  0  0  0  0  0  0  0  0
  147.6553  133.7150  156.2587 H   0  0  0  0  0  0  0  0  0  0  0  0
  147.7452  135.4419  156.3897 H   0  0  0  0  0  0  0  0  0  0  0  0
  146.4114  134.8309  154.4008 H   0  0  0  0  0  0  0  0  0  0  0  0
  147.8628  135.6749  153.9140 H   0  0  0  0  0  0  0  0  0  0  0  0
  147.3845  132.6684  153.8595 H   0  0  0  0  0  0  0  0  0  0  0  0
  147.4802  134.7841  151.9265 H   0  0  0  0  0  0  0  0  0  0  0  0
  145.5176  133.1566  152.6731 H   0  0  0  0  0  0  0  0  0  0  0  0
  146.7746  132.1737  150.0817 H   0  0  0  0  0  0  0  0  0  0  0  0
  146.1524  131.1898  151.4050 H   0  0  0  0  0  0  0  0  0  0  0  0
  144.6539  131.7854  149.1698 H   0  0  0  0  0  0  0  0  0  0  0  0
  143.9137  131.5606  150.7470 H   0  0  0  0  0  0  0  0  0  0  0  0
  143.9935  134.0377  149.2295 H   0  0  0  0  0  0  0  0  0  0  0  0
  143.2387  133.7191  150.7791 H   0  0  0  0  0  0  0  0  0  0  0  0
  145.9848  134.7871  150.1490 H   0  0  0  0  0  0  0  0  0  0  0  0
  143.7780  134.6217  153.3122 H   0  0  0  0  0  0  0  0  0  0  0  0
  143.3924  137.2722  154.0788 H   0  0  0  0  0  0  0  0  0  0  0  0
  145.6889  137.1850  150.5234 H   0  0  0  0  0  0  0  0  0  0  0  0
  149.6888  132.3842  153.0129 H   0  0  0  0  0  0  0  0  0  0  0  0
  149.9483  134.1104  153.0193 H   0  0  0  0  0  0  0  0  0  0  0  0
  150.9805  133.0374  155.0165 H   0  0  0  0  0  0  0  0  0  0  0  0
  149.4470  132.3731  155.4931 H   0  0  0  0  0  0  0  0  0  0  0  0
  148.0983  133.3507  151.4366 H   0  0  0  0  0  0  0  0  0  0  0  0
  144.5934  138.6318  152.3146 H   0  0  0  0  0  0  0  0  0  0  0  0
  1  2  1  0  0  0  0
  1 21  1  0  0  0  0
  1 22  1  0  0  0  0
  2  3  2  0  0  0  0
  2  4  1  0  0  0  0
  4 20  1  0  0  0  0
  4  5  1  0  0  0  0
  5  6  1  0  0  0  0
  5 23  1  0  0  0  0
  5 24  1  0  0  0  0
  6  7  1  0  0  0  0
  6 25  1  0  0  0  0
  6 26  1  0  0  0  0
  7  8  1  0  0  0  0
  7 19  1  0  0  0  0
  7 27  1  0  0  0  0
  8  9  1  0  0  0  0
  8 28  1  0  0  0  0
  8 44  1  0  0  0  0
  9 13  1  0  0  0  0
  9 10  1  0  0  0  0
  9 29  1  0  0  0  0
 10 11  1  0  0  0  0
 10 30  1  0  0  0  0
 10 31  1  0  0  0  0
 11 12  1  0  0  0  0
 11 32  1  0  0  0  0
 11 33  1  0  0  0  0
 12 13  1  0  0  0  0
 12 34  1  0  0  0  0
 12 35  1  0  0  0  0
 13 14  1  0  0  0  0
 13 36  1  0  0  0  0
 14 18  1  0  0  0  0
 14 15  1  0  0  0  0
 15 16  2  0  0  0  0
 15 37  1  0  0  0  0
 16 17  1  0  0  0  0
 16 38  1  0  0  0  0
 17 18  2  0  0  0  0
 17 45  1  0  0  0  0
 18 39  1  0  0  0  0
 19 20  1  0  0  0  0
 19 40  1  0  0  0  0
 19 41  1  0  0  0  0
 20 42  1  0  0  0  0
 20 43  1  0  0  0  0
M  CHG  1   8   1
M  CHG  1  17   1
M  END
> <s_m_source_file>
AV-unprocessed.smi

> <i_m_source_file_index>
862

> <i_lp_mmshare_version>
43012

> <i_f3d_flags>
0

> <s_epik_input>
W05IMl1DKD1PKU4xW0NIMl1bQ0gyXVtDSF0oW0NIMl1bQ0gyXTEpW05IXVtDQEBIXTJbQ0gyXVtDSDJdW0NIMl1bQ0BIXTJuM1tjSF1bY0hdbltjSF0z

> <s_epik_cmdline>
J2VwaWtfcHl0aG9uJywgJy1waCcsICc3LjAnLCAnLXRuJywgJzgnLCAnLW1hJywgJzIwMCcsICctbWV0YWxfYmluZGluZycsICctaW1hZScsICc8aW5maWxlLm1hZT4nLCAnLW9tYWUnLCAnPG91dGZpbGUubWFlPic=

> <r_lp_tautomer_probability>
1

> <r_epik_Ionization_Penalty>
1.30217

> <r_epik_Ionization_Penalty_Charging>
0.00439521

> <r_epik_Ionization_Penalty_Neutral>
1.29777

> <r_epik_State_Penalty>
0.977606

> <r_epik_Charging_Adjusted_Penalty>
0.982001

> <i_epik_Tot_Q>
2

> <i_epik_Tot_abs_Q>
2

> <r_epik_Metal_State_Penalty>
1.03289

> <b_epik_Metal_Only>
0

> <s_lp_Force_Field>
OPLS_2005

> <r_lp_Energy>
65.3299

> <b_lp_Chiralities_Consistent>
1

> <s_lp_Variant>
AV-unprocessed.smi:862-5

> <Gold.Version>
5.8.1

> <Gold.Id.Protein>
6NUR|6NUR_protein|mol2

> <Gold.PLP.Fitness>
43.7123

> <Gold.PLP.PLP>
-32.1208

> <Gold.PLP.part.hbond>
-4.0000

> <Gold.PLP.part.metal>
0.0000

> <Gold.PLP.part.buried>
-0.1011

> <Gold.PLP.part.nonpolar>
-27.9839

> <Gold.PLP.part.repulsive>
0.1136

> <Gold.PLP.ligand.clash>
0.0000

> <Gold.PLP.ligand.torsion>
1.1467

> <Gold.PLP.Chemscore.Hbond>
4.4080

> <Gold.PLP.Chemscore.CHOScore>
0.2031

> <Gold.PLP.Chemscore.Metal>
0.0000

> <Gold.Chemscore.Hbonds>
donor molecule, donor type, donor heavy atom, donor atom, acceptor molecule, acceptor atom, score
      L1  H     8    28       P1  7948  1.41
      L1  H    17    45       P1 10175  1.95
      P1  H 10752 10765       L1     3  1.00
      L1  C    18    39       P1 10171  0.24

> <Gold.PLP.Chemscore.Internal.Correction>
0.0515

> <Gold.Rescore>
     Score         DG    S(hbond)    S(metal)    S(lipo)     H(rot)  DE(clash)    DE(int)     intcor
     14.95     -16.88       2.52        0.00      62.34       1.68       0.81       1.12       ----

> <Gold.Chemscore.Fitness>
14.9515

> <Gold.Chemscore.DG>
-16.8818

> <Gold.Chemscore.ZeroCoef>
-5.4800

> <Gold.Chemscore.Hbond>
2.5187

> <Gold.Chemscore.Metal>
0.0000

> <Gold.Chemscore.Lipo>
62.3383

> <Gold.Chemscore.Internal_Hbond>
0.0000

> <Gold.Chemscore.DEClash>
0.8056

> <Gold.Chemscore.DEInternal>
1.1247

> <Gold.Chemscore.Rot>
1.6814

> <Gold.Chemscore.Internal.Correction>
   9.000000E+99

> <Gold.Chemscore.Hbonds>
donor molecule, donor type, donor heavy atom, donor atom, acceptor molecule, acceptor atom, score
      L1  H     8    28       P1  7948  0.49
      L1  H    17    45       P1 10175  0.87
      P1  H 10752 10765       L1     3  0.98

> <Gold.Chemscore.Hbond.Weighted>
-8.4125

> <Gold.Chemscore.Metal.Weighted>
-0.0000

> <Gold.Chemscore.Lipo.Weighted>
-7.2936

> <Gold.Chemscore.Internal_Hbond.Weighted>
0.0000

> <Gold.Chemscore.DEClash.Weighted>
0.8056

> <Gold.Chemscore.DEInternal.Weighted>
1.1247

> <Gold.Chemscore.Rot.Weighted>
4.3043

> <Gold.Chemscore.Internal.Correction.Weighted>
   9.000000E+99

> <Gold.Protein.RotatedTorsions>
[ 6907 6896 6895 6894 ] final  -47.30 input  -60.11 | X-H torsion
[ 7974 7965 7964 7962 ] final  -74.74 input  175.53 | X-H torsion
[ 8008 7997 7996 7995 ] final -154.79 input   59.86 | X-H torsion
[ 10167 10162 10161 10158 ] final  159.28 input  -65.29 | X-H torsion
[ 10718 10713 10712 10709 ] final   58.60 input   66.30 | X-H torsion
[ 10763 10752 10751 10750 ] final -158.95 input  -60.55 | X-H torsion
[ 11005 11000 10999 10996 ] final -135.66 input  -57.11 | X-H torsion

> <Gold.Protein.ActiveResidues>
 VAL166  LYS551  ARG553  GLY616  TRP617  ASP618  TYR619  PRO620  LYS621  CYS622 
 ASP623  PHE694  ASN695  SER759  ASP760  ASP761  ALA762  ILE779  LEU786  VAL792 
 PHE793  MET794  SER795  GLU796  ALA797  LYS798  CYS799  TRP800  GLU811  SER814 

> <Gold.Protein.RotatedAtoms>
  150.9022  134.8435  159.7367 H   0  0  0  0  0  0  0  0  0  0  0  0  # atno 6907 bound_to 6896
  152.4898  134.4485  159.9577 H   0  0  0  0  0  0  0  0  0  0  0  0  # atno 6908 bound_to 6896
  151.4536  133.3572  159.2834 H   0  0  0  0  0  0  0  0  0  0  0  0  # atno 6909 bound_to 6896
  145.6352  140.9327  143.1065 H   0  0  0  0  0  0  0  0  0  0  0  0  # atno 7974 bound_to 7965
  155.6918  140.0756  157.2445 H   0  0  0  0  0  0  0  0  0  0  0  0  # atno 8008 bound_to 7997
  154.4087  140.1663  156.2148 H   0  0  0  0  0  0  0  0  0  0  0  0  # atno 8009 bound_to 7997
  155.9445  140.3382  155.6358 H   0  0  0  0  0  0  0  0  0  0  0  0  # atno 8010 bound_to 7997
  139.4831  144.4745  151.8530 H   0  0  0  0  0  0  0  0  0  0  0  0  # atno 10167 bound_to 10162
  157.5609  130.8835  149.9110 H   0  0  0  0  0  0  0  0  0  0  0  0  # atno 10718 bound_to 10713
  154.7515  135.3093  154.8549 H   0  0  0  0  0  0  0  0  0  0  0  0  # atno 10763 bound_to 10752
  153.9334  135.6782  153.4749 H   0  0  0  0  0  0  0  0  0  0  0  0  # atno 10764 bound_to 10752
  153.1111  135.4866  154.8965 H   0  0  0  0  0  0  0  0  0  0  0  0  # atno 10765 bound_to 10752
  140.8877  134.1851  157.4549 H   0  0  0  0  0  0  0  0  0  0  0  0  # atno 11005 bound_to 11000
  144.7178  139.8134  143.7392 LP  0  0  0  0  0  0  0  0  0  0  0  0  # atno 17320 bound_to 7965
  146.1325  139.4363  143.0160 LP  0  0  0  0  0  0  0  0  0  0  0  0  # atno 17321 bound_to 7965
  140.4216  144.2235  150.5887 LP  0  0  0  0  0  0  0  0  0  0  0  0  # atno 17342 bound_to 10162
  140.4868  143.2360  151.8877 LP  0  0  0  0  0  0  0  0  0  0  0  0  # atno 17343 bound_to 10162
  156.0662  130.3692  150.0874 LP  0  0  0  0  0  0  0  0  0  0  0  0  # atno 17370 bound_to 10713
  156.9038  130.9629  151.3572 LP  0  0  0  0  0  0  0  0  0  0  0  0  # atno 17371 bound_to 10713
  139.8726  134.9845  156.5242 LP  0  0  0  0  0  0  0  0  0  0  0  0  # atno 17394 bound_to 11000
  140.8384  133.8224  155.9051 LP  0  0  0  0  0  0  0  0  0  0  0  0  # atno 17395 bound_to 11000

$$$$
