AV-unprocessed.smi:1039|AV-procd|sdf|4523|dock3
  -GOLD-   22720 2543D 1   1.00000     0.00000
 Structure written by MMmdl.
 41 42  0  0  0  0  0  0  0  0  2 V2000
  147.8541  141.6969  154.1770 C   0  0  0  0  0  0  0  0  0  0  0  0
  148.3879  140.4666  154.9232 C   0  0  0  0  0  0  0  0  0  0  0  0
  148.4965  140.7232  156.4418 C   0  0  0  0  0  0  0  0  0  0  0  0
  149.1317  139.5216  157.1642 C   0  0  0  0  0  0  0  0  0  0  0  0
  150.4508  139.2536  156.5662 N   0  0  0  0  0  0  0  0  0  0  0  0
  151.6577  139.5184  157.1274 C   0  0  0  0  0  0  0  0  0  0  0  0
  152.7255  139.3937  156.5268 O   0  0  0  0  0  0  0  0  0  0  0  0
  151.6070  139.8989  158.4149 N   0  0  0  0  0  0  0  0  0  0  0  0
  152.7605  140.2114  159.2535 C   0  0  0  0  0  0  0  0  0  0  0  0
  153.1709  141.6983  159.2036 C   0  0  0  0  0  0  0  0  0  0  0  0
  152.9677  142.4509  160.4865 C   0  0  0  0  0  0  0  0  0  0  0  0
  153.4062  142.0498  161.6860 N   0  3  0  0  0  0  0  0  0  0  0  0
  153.0457  142.9470  162.6527 C   0  0  0  0  0  0  0  0  0  0  0  0
  152.3571  143.9447  162.0151 C   0  0  0  0  0  0  0  0  0  0  0  0
  152.3234  143.6150  160.6839 N   0  0  0  0  0  0  0  0  0  0  0  0
  151.6962  144.4042  159.6186 C   0  0  0  0  0  0  0  0  0  0  0  0
  151.2893  145.5826  160.0900 F   0  0  0  0  0  0  0  0  0  0  0  0
  152.5397  144.5749  158.6019 F   0  0  0  0  0  0  0  0  0  0  0  0
  150.3200  138.8261  155.1677 C   0  0  0  0  0  0  0  0  0  0  0  0
  149.7378  139.9897  154.3444 C   0  0  0  0  0  0  0  0  0  0  0  0
  148.5334  142.5444  154.2732 H   0  0  0  0  0  0  0  0  0  0  0  0
  146.8833  142.0025  154.5680 H   0  0  0  0  0  0  0  0  0  0  0  0
  147.7302  141.4880  153.1141 H   0  0  0  0  0  0  0  0  0  0  0  0
  147.6683  139.6592  154.7799 H   0  0  0  0  0  0  0  0  0  0  0  0
  149.0976  141.6151  156.6254 H   0  0  0  0  0  0  0  0  0  0  0  0
  147.5090  140.9250  156.8577 H   0  0  0  0  0  0  0  0  0  0  0  0
  149.1590  139.7088  158.2375 H   0  0  0  0  0  0  0  0  0  0  0  0
  148.4995  138.6405  157.0444 H   0  0  0  0  0  0  0  0  0  0  0  0
  150.6965  139.9828  158.8434 H   0  0  0  0  0  0  0  0  0  0  0  0
  152.5723  139.9044  160.2834 H   0  0  0  0  0  0  0  0  0  0  0  0
  153.5836  139.5919  158.9004 H   0  0  0  0  0  0  0  0  0  0  0  0
  154.2307  141.7874  158.9617 H   0  0  0  0  0  0  0  0  0  0  0  0
  152.6291  142.2218  158.4166 H   0  0  0  0  0  0  0  0  0  0  0  0
  153.3010  142.8120  163.6937 H   0  0  0  0  0  0  0  0  0  0  0  0
  151.9002  144.8444  162.4015 H   0  0  0  0  0  0  0  0  0  0  0  0
  150.8209  143.8745  159.2409 H   0  0  0  0  0  0  0  0  0  0  0  0
  151.2670  138.5018  154.7340 H   0  0  0  0  0  0  0  0  0  0  0  0
  149.6594  137.9596  155.1130 H   0  0  0  0  0  0  0  0  0  0  0  0
  149.6110  139.6810  153.3063 H   0  0  0  0  0  0  0  0  0  0  0  0
  150.4499  140.8164  154.3355 H   0  0  0  0  0  0  0  0  0  0  0  0
  153.9299  141.1988  161.8501 H   0  0  0  0  0  0  0  0  0  0  0  0
  1  2  1  0  0  0  0
  1 21  1  0  0  0  0
  1 22  1  0  0  0  0
  1 23  1  0  0  0  0
  2 20  1  0  0  0  0
  2  3  1  0  0  0  0
  2 24  1  0  0  0  0
  3  4  1  0  0  0  0
  3 25  1  0  0  0  0
  3 26  1  0  0  0  0
  4  5  1  0  0  0  0
  4 27  1  0  0  0  0
  4 28  1  0  0  0  0
  5  6  1  0  0  0  0
  5 19  1  0  0  0  0
  6  7  2  0  0  0  0
  6  8  1  0  0  0  0
  8  9  1  0  0  0  0
  8 29  1  0  0  0  0
  9 10  1  0  0  0  0
  9 30  1  0  0  0  0
  9 31  1  0  0  0  0
 10 11  1  0  0  0  0
 10 32  1  0  0  0  0
 10 33  1  0  0  0  0
 11 15  1  0  0  0  0
 11 12  2  0  0  0  0
 12 13  1  0  0  0  0
 12 41  1  0  0  0  0
 13 14  2  0  0  0  0
 13 34  1  0  0  0  0
 14 15  1  0  0  0  0
 14 35  1  0  0  0  0
 15 16  1  0  0  0  0
 16 17  1  0  0  0  0
 16 18  1  0  0  0  0
 16 36  1  0  0  0  0
 19 20  1  0  0  0  0
 19 37  1  0  0  0  0
 19 38  1  0  0  0  0
 20 39  1  0  0  0  0
 20 40  1  0  0  0  0
M  CHG  1  12   1
M  END
> <s_m_source_file>
AV-unprocessed.smi

> <i_m_source_file_index>
1039

> <i_lp_mmshare_version>
43012

> <i_f3d_flags>
0

> <s_epik_input>
W0NIM11bQ0hdMVtDSDJdW0NIMl1OKFtDSDJdW0NIMl0xKUMoPU8pW05IXVtDSDJdW0NIMl1jMm5bY0hdW2NIXW4yW0NIXShGKUY=

> <s_epik_cmdline>
J2VwaWtfcHl0aG9uJywgJy1waCcsICc3LjAnLCAnLXRuJywgJzgnLCAnLW1hJywgJzIwMCcsICctbWV0YWxfYmluZGluZycsICctaW1hZScsICc8aW5maWxlLm1hZT4nLCAnLW9tYWUnLCAnPG91dGZpbGUubWFlPic=

> <r_lp_tautomer_probability>
1

> <r_epik_Ionization_Penalty>
1.09425

> <r_epik_Ionization_Penalty_Charging>
0

> <r_epik_Ionization_Penalty_Neutral>
1.09425

> <r_epik_State_Penalty>
1.15074

> <r_epik_Charging_Adjusted_Penalty>
1.15074

> <i_epik_Tot_Q>
1

> <i_epik_Tot_abs_Q>
1

> <r_epik_Metal_State_Penalty>
1.2388

> <b_epik_Metal_Only>
0

> <s_lp_Force_Field>
OPLS_2005

> <r_lp_Energy>
37.2769

> <b_lp_Chiralities_Consistent>
1

> <s_lp_Variant>
AV-unprocessed.smi:1039-2

> <Gold.Version>
5.8.1

> <Gold.Id.Protein>
6NUR|6NUR_protein|mol2

> <Gold.PLP.Fitness>
49.7743

> <Gold.PLP.PLP>
-48.5397

> <Gold.PLP.part.hbond>
-1.0000

> <Gold.PLP.part.metal>
0.0000

> <Gold.PLP.part.buried>
-5.4010

> <Gold.PLP.part.nonpolar>
-41.3402

> <Gold.PLP.part.repulsive>
0.1530

> <Gold.PLP.ligand.clash>
0.2216

> <Gold.PLP.ligand.torsion>
0.7947

> <Gold.PLP.Chemscore.Hbond>
1.0000

> <Gold.PLP.Chemscore.CHOScore>
0.0000

> <Gold.PLP.Chemscore.Metal>
0.0000

> <Gold.Chemscore.Hbonds>
donor molecule, donor type, donor heavy atom, donor atom, acceptor molecule, acceptor atom, score
      P1  H  7997  8010       L1     7  1.00

> <Gold.PLP.Chemscore.Internal.Correction>
0.0457

> <Gold.Rescore>
     Score         DG    S(hbond)    S(metal)    S(lipo)     H(rot)  DE(clash)    DE(int)     intcor
     13.66     -14.29       0.99        0.00      82.31       1.61       0.00       0.63       ----

> <Gold.Chemscore.Fitness>
13.6623

> <Gold.Chemscore.DG>
-14.2950

> <Gold.Chemscore.ZeroCoef>
-5.4800

> <Gold.Chemscore.Hbond>
0.9862

> <Gold.Chemscore.Metal>
0.0000

> <Gold.Chemscore.Lipo>
82.3103

> <Gold.Chemscore.Internal_Hbond>
0.0000

> <Gold.Chemscore.DEClash>
0.0030

> <Gold.Chemscore.DEInternal>
0.6297

> <Gold.Chemscore.Rot>
1.6051

> <Gold.Chemscore.Internal.Correction>
   9.000000E+99

> <Gold.Chemscore.Hbonds>
donor molecule, donor type, donor heavy atom, donor atom, acceptor molecule, acceptor atom, score
      P1  H  7997  8010       L1     7  1.00

> <Gold.Chemscore.Hbond.Weighted>
-3.2939

> <Gold.Chemscore.Metal.Weighted>
-0.0000

> <Gold.Chemscore.Lipo.Weighted>
-9.6303

> <Gold.Chemscore.Internal_Hbond.Weighted>
0.0000

> <Gold.Chemscore.DEClash.Weighted>
0.0030

> <Gold.Chemscore.DEInternal.Weighted>
0.6297

> <Gold.Chemscore.Rot.Weighted>
4.1092

> <Gold.Chemscore.Internal.Correction.Weighted>
   9.000000E+99

> <Gold.Protein.RotatedTorsions>
[ 6907 6896 6895 6894 ] final  -44.75 input  -60.11 | X-H torsion
[ 7974 7965 7964 7962 ] final  133.68 input  175.53 | X-H torsion
[ 8008 7997 7996 7995 ] final   83.02 input   59.86 | X-H torsion
[ 10167 10162 10161 10158 ] final -100.36 input  -65.29 | X-H torsion
[ 10718 10713 10712 10709 ] final -114.31 input   66.30 | X-H torsion
[ 10763 10752 10751 10750 ] final   52.41 input  -60.55 | X-H torsion
[ 11005 11000 10999 10996 ] final -160.26 input  -57.11 | X-H torsion

> <Gold.Protein.ActiveResidues>
 VAL166  LYS551  ARG553  GLY616  TRP617  ASP618  TYR619  PRO620  LYS621  CYS622 
 ASP623  PHE694  ASN695  SER759  ASP760  ASP761  ALA762  ILE779  LEU786  VAL792 
 PHE793  MET794  SER795  GLU796  ALA797  LYS798  CYS799  TRP800  GLU811  SER814 

> <Gold.Protein.RotatedAtoms>
  150.9294  134.8709  159.7540 H   0  0  0  0  0  0  0  0  0  0  0  0  # atno 6907 bound_to 6896
  152.5030  134.4102  159.9456 H   0  0  0  0  0  0  0  0  0  0  0  0  # atno 6908 bound_to 6896
  151.4130  133.3682  159.2781 H   0  0  0  0  0  0  0  0  0  0  0  0  # atno 6909 bound_to 6896
  144.9840  139.4474  143.5372 H   0  0  0  0  0  0  0  0  0  0  0  0  # atno 7974 bound_to 7965
  155.9184  140.3423  155.6153 H   0  0  0  0  0  0  0  0  0  0  0  0  # atno 8008 bound_to 7997
  155.7303  140.0794  157.2310 H   0  0  0  0  0  0  0  0  0  0  0  0  # atno 8009 bound_to 7997
  154.4066  140.1589  156.2489 H   0  0  0  0  0  0  0  0  0  0  0  0  # atno 8010 bound_to 7997
  140.2527  143.3461  152.0700 H   0  0  0  0  0  0  0  0  0  0  0  0  # atno 10167 bound_to 10162
  156.0822  130.6020  150.8758 H   0  0  0  0  0  0  0  0  0  0  0  0  # atno 10718 bound_to 10713
  152.9789  135.5813  154.4575 H   0  0  0  0  0  0  0  0  0  0  0  0  # atno 10763 bound_to 10752
  154.4155  135.2770  155.2011 H   0  0  0  0  0  0  0  0  0  0  0  0  # atno 10764 bound_to 10752
  154.3783  135.6152  153.5831 H   0  0  0  0  0  0  0  0  0  0  0  0  # atno 10765 bound_to 10752
  140.6335  134.4626  157.5230 H   0  0  0  0  0  0  0  0  0  0  0  0  # atno 11005 bound_to 11000
  146.3415  139.9131  142.8777 LP  0  0  0  0  0  0  0  0  0  0  0  0  # atno 17320 bound_to 7965
  145.2379  140.9998  143.3952 LP  0  0  0  0  0  0  0  0  0  0  0  0  # atno 17321 bound_to 7965
  139.5041  144.6769  151.6106 LP  0  0  0  0  0  0  0  0  0  0  0  0  # atno 17342 bound_to 10162
  140.6028  143.9579  150.6398 LP  0  0  0  0  0  0  0  0  0  0  0  0  # atno 17343 bound_to 10162
  157.5943  131.0943  150.9067 LP  0  0  0  0  0  0  0  0  0  0  0  0  # atno 17370 bound_to 10713
  156.9237  130.5324  149.5279 LP  0  0  0  0  0  0  0  0  0  0  0  0  # atno 17371 bound_to 10713
  139.9107  134.8351  156.1540 LP  0  0  0  0  0  0  0  0  0  0  0  0  # atno 17394 bound_to 11000
  141.0658  133.6820  156.2042 LP  0  0  0  0  0  0  0  0  0  0  0  0  # atno 17395 bound_to 11000

$$$$
