AV-unprocessed.smi:1033|AV-procd|sdf|4504|dock2
  -GOLD-   22720 2503D 1   1.00000     0.00000
 Structure written by MMmdl.
 57 59  0  0  0  0  0  0  0  0  3 V2000
  152.5794  143.8523  161.6780 C   0  0  0  0  0  0  0  0  0  0  0  0
  152.1453  143.2173  160.3679 C   0  0  0  0  0  0  0  0  0  0  0  0
  152.5157  141.8773  160.1125 C   0  0  0  0  0  0  0  0  0  0  0  0
  152.1053  141.3251  158.9050 C   0  0  0  0  0  0  0  0  0  0  0  0
  152.3047  140.0527  158.3648 N   0  3  0  0  0  0  0  0  0  0  0  0
  151.7089  139.9796  157.1424 C   0  0  0  0  0  0  0  0  0  0  0  0
  151.1313  141.1866  156.8954 N   0  0  0  0  0  0  0  0  0  0  0  0
  150.3666  141.6469  155.7289 C   0  0  0  0  0  0  0  0  0  0  0  0
  149.7740  140.4888  154.9005 C   0  0  2  0  0  0  0  0  0  0  0  0
  149.8191  140.8516  153.5336 O   0  0  0  0  0  0  0  0  0  0  0  0
  148.3131  140.1967  155.3007 C   0  0  0  0  0  0  0  0  0  0  0  0
  147.3631  140.0942  154.1865 N   0  0  0  0  0  0  0  0  0  0  0  0
  146.2126  139.2483  154.5036 C   0  0  0  0  0  0  0  0  0  0  0  0
  145.2408  139.8954  155.5120 C   0  0  0  0  0  0  0  0  0  0  0  0
  144.7656  141.2086  155.0052 N   0  3  0  0  0  0  0  0  0  0  0  0
  143.7771  141.8416  155.9147 C   0  0  0  0  0  0  0  0  0  0  0  0
  142.4509  141.0594  155.9918 C   0  0  1  0  0  0  0  0  0  0  0  0
  141.4370  141.6898  156.9583 C   0  0  0  0  0  0  0  0  0  0  0  0
  141.8743  141.0322  154.7033 O   0  0  0  0  0  0  0  0  0  0  0  0
  145.9159  142.0905  154.6695 C   0  0  0  0  0  0  0  0  0  0  0  0
  146.8668  141.3781  153.6857 C   0  0  0  0  0  0  0  0  0  0  0  0
  151.3529  142.0576  157.9666 C   0  0  0  0  0  0  0  0  0  0  0  0
  150.9789  143.3783  158.2017 C   0  0  0  0  0  0  0  0  0  0  0  0
  151.3854  143.9576  159.4250 C   0  0  0  0  0  0  0  0  0  0  0  0
  150.9900  145.3962  159.7117 C   0  0  0  0  0  0  0  0  0  0  0  0
  153.1554  143.1554  162.2877 H   0  0  0  0  0  0  0  0  0  0  0  0
  151.7112  144.1638  162.2591 H   0  0  0  0  0  0  0  0  0  0  0  0
  153.2042  144.7260  161.4909 H   0  0  0  0  0  0  0  0  0  0  0  0
  153.0931  141.3076  160.8257 H   0  0  0  0  0  0  0  0  0  0  0  0
  151.6948  139.1193  156.4884 H   0  0  0  0  0  0  0  0  0  0  0  0
  149.5829  142.3203  156.0785 H   0  0  0  0  0  0  0  0  0  0  0  0
  151.0389  142.2473  155.1141 H   0  0  0  0  0  0  0  0  0  0  0  0
  150.3843  139.5971  155.0481 H   0  0  0  0  0  0  0  0  0  0  0  0
  149.5912  140.0955  153.0149 H   0  0  0  0  0  0  0  0  0  0  0  0
  148.3091  139.2348  155.8148 H   0  0  0  0  0  0  0  0  0  0  0  0
  147.9776  140.9165  156.0474 H   0  0  0  0  0  0  0  0  0  0  0  0
  145.6700  139.0271  153.5833 H   0  0  0  0  0  0  0  0  0  0  0  0
  146.5535  138.2846  154.8837 H   0  0  0  0  0  0  0  0  0  0  0  0
  144.3876  139.2325  155.6610 H   0  0  0  0  0  0  0  0  0  0  0  0
  145.7137  140.0208  156.4869 H   0  0  0  0  0  0  0  0  0  0  0  0
  144.1975  141.9082  156.9195 H   0  0  0  0  0  0  0  0  0  0  0  0
  143.6003  142.8689  155.5908 H   0  0  0  0  0  0  0  0  0  0  0  0
  142.6317  140.0240  156.2790 H   0  0  0  0  0  0  0  0  0  0  0  0
  141.8172  141.6983  157.9801 H   0  0  0  0  0  0  0  0  0  0  0  0
  140.5007  141.1307  156.9643 H   0  0  0  0  0  0  0  0  0  0  0  0
  141.2077  142.7193  156.6801 H   0  0  0  0  0  0  0  0  0  0  0  0
  142.4187  140.5079  154.1356 H   0  0  0  0  0  0  0  0  0  0  0  0
  145.5607  143.0114  154.2085 H   0  0  0  0  0  0  0  0  0  0  0  0
  146.4443  142.3807  155.5783 H   0  0  0  0  0  0  0  0  0  0  0  0
  147.6977  142.0327  153.4256 H   0  0  0  0  0  0  0  0  0  0  0  0
  146.3336  141.2072  152.7492 H   0  0  0  0  0  0  0  0  0  0  0  0
  150.4013  143.9407  157.4832 H   0  0  0  0  0  0  0  0  0  0  0  0
  150.3926  145.8153  158.9014 H   0  0  0  0  0  0  0  0  0  0  0  0
  151.8760  146.0201  159.8294 H   0  0  0  0  0  0  0  0  0  0  0  0
  150.3986  145.4570  160.6255 H   0  0  0  0  0  0  0  0  0  0  0  0
  144.2804  141.0146  154.1408 H   0  0  0  0  0  0  0  0  0  0  0  0
  152.8093  139.2888  158.7957 H   0  0  0  0  0  0  0  0  0  0  0  0
  1  2  1  0  0  0  0
  1 26  1  0  0  0  0
  1 27  1  0  0  0  0
  1 28  1  0  0  0  0
  2 24  1  0  0  0  0
  2  3  2  0  0  0  0
  3  4  1  0  0  0  0
  3 29  1  0  0  0  0
  4 22  2  0  0  0  0
  4  5  1  0  0  0  0
  5  6  2  0  0  0  0
  5 57  1  0  0  0  0
  6  7  1  0  0  0  0
  6 30  1  0  0  0  0
  7  8  1  0  0  0  0
  7 22  1  0  0  0  0
  8  9  1  0  0  0  0
  8 31  1  0  0  0  0
  8 32  1  0  0  0  0
  9 10  1  0  0  0  0
  9 11  1  0  0  0  0
  9 33  1  0  0  0  0
 10 34  1  0  0  0  0
 11 12  1  0  0  0  0
 11 35  1  0  0  0  0
 11 36  1  0  0  0  0
 12 21  1  0  0  0  0
 12 13  1  0  0  0  0
 13 14  1  0  0  0  0
 13 37  1  0  0  0  0
 13 38  1  0  0  0  0
 14 15  1  0  0  0  0
 14 39  1  0  0  0  0
 14 40  1  0  0  0  0
 15 16  1  0  0  0  0
 15 20  1  0  0  0  0
 15 56  1  0  0  0  0
 16 17  1  0  0  0  0
 16 41  1  0  0  0  0
 16 42  1  0  0  0  0
 17 18  1  0  0  0  0
 17 19  1  0  0  0  0
 17 43  1  0  0  0  0
 18 44  1  0  0  0  0
 18 45  1  0  0  0  0
 18 46  1  0  0  0  0
 19 47  1  0  0  0  0
 20 21  1  0  0  0  0
 20 48  1  0  0  0  0
 20 49  1  0  0  0  0
 21 50  1  0  0  0  0
 21 51  1  0  0  0  0
 22 23  1  0  0  0  0
 23 24  2  0  0  0  0
 23 52  1  0  0  0  0
 24 25  1  0  0  0  0
 25 53  1  0  0  0  0
 25 54  1  0  0  0  0
 25 55  1  0  0  0  0
M  CHG  1   5   1
M  CHG  1  15   1
M  END
> <s_m_source_file>
AV-unprocessed.smi

> <i_m_source_file_index>
1033

> <i_lp_mmshare_version>
43012

> <i_f3d_flags>
0

> <s_epik_input>
W0NIM11jKFtjSF0xKWMoW0NIM10pW2NIXWMoYzEyKW4oW2NIXW4yKVtDSDJdW0NASF0oW09IXSlbQ0gyXU4zW0NIMl1bQ0gyXU4oW0NIMl1bQ0gyXTMpW0NIMl1bQ0BIXShbQ0gzXSlbT0hd

> <s_epik_cmdline>
J2VwaWtfcHl0aG9uJywgJy1waCcsICc3LjAnLCAnLXRuJywgJzgnLCAnLW1hJywgJzIwMCcsICctbWV0YWxfYmluZGluZycsICctaW1hZScsICc8aW5maWxlLm1hZT4nLCAnLW9tYWUnLCAnPG91dGZpbGUubWFlPic=

> <r_epik_Ionization_Penalty>
1.28617

> <r_epik_Ionization_Penalty_Charging>
1.23646

> <r_epik_Ionization_Penalty_Neutral>
0.0497112

> <r_epik_State_Penalty>
1.79157

> <r_epik_Charging_Adjusted_Penalty>
3.02803

> <i_epik_Tot_Q>
2

> <i_epik_Tot_abs_Q>
2

> <r_epik_Metal_State_Penalty>
5.81739

> <b_epik_Metal_Only>
0

> <s_lp_Force_Field>
OPLS_2005

> <r_lp_Energy>
41.725

> <b_lp_Chiralities_Consistent>
1

> <s_lp_Variant>
AV-unprocessed.smi:1033-15

> <Gold.Version>
5.8.1

> <Gold.Id.Protein>
6NUR|6NUR_protein|mol2

> <Gold.PLP.Fitness>
57.9539

> <Gold.PLP.PLP>
-46.5451

> <Gold.PLP.part.hbond>
-5.5785

> <Gold.PLP.part.metal>
0.0000

> <Gold.PLP.part.buried>
-5.4911

> <Gold.PLP.part.nonpolar>
-34.9342

> <Gold.PLP.part.repulsive>
0.2135

> <Gold.PLP.ligand.clash>
0.0000

> <Gold.PLP.ligand.torsion>
1.7968

> <Gold.PLP.Chemscore.Hbond>
4.7968

> <Gold.PLP.Chemscore.CHOScore>
0.0000

> <Gold.PLP.Chemscore.Metal>
0.0000

> <Gold.Chemscore.Hbonds>
donor molecule, donor type, donor heavy atom, donor atom, acceptor molecule, acceptor atom, score
      L1  H    10    34       P1  7957  0.50
      L1  H    15    56       P1 10175  2.00
      L1  H    19    47       P1 10175  0.91
      P1  H  7989  7998       L1    10  0.25
      P1  H  8011  8017       L1    10  1.00

> <Gold.PLP.Chemscore.Internal.Correction>
0.6119

> <Gold.Rescore>
     Score         DG    S(hbond)    S(metal)    S(lipo)     H(rot)  DE(clash)    DE(int)     intcor
     18.92     -21.14       2.97        0.00     117.85       3.15       0.28       1.94       ----

> <Gold.Chemscore.Fitness>
18.9196

> <Gold.Chemscore.DG>
-21.1371

> <Gold.Chemscore.ZeroCoef>
-5.4800

> <Gold.Chemscore.Hbond>
2.9725

> <Gold.Chemscore.Metal>
0.0000

> <Gold.Chemscore.Lipo>
117.8504

> <Gold.Chemscore.Internal_Hbond>
0.0000

> <Gold.Chemscore.DEClash>
0.2768

> <Gold.Chemscore.DEInternal>
1.9407

> <Gold.Chemscore.Rot>
3.1483

> <Gold.Chemscore.Internal.Correction>
   9.000000E+99

> <Gold.Chemscore.Hbonds>
donor molecule, donor type, donor heavy atom, donor atom, acceptor molecule, acceptor atom, score
      L1  H    10    34       P1  7957  0.50
      L1  H    15    56       P1 10175  0.85
      L1  H    19    47       P1 10175  0.60
      P1  H  7989  7998       L1    10  0.01
      P1  H  8011  8017       L1    10  0.57

> <Gold.Chemscore.Hbond.Weighted>
-9.9283

> <Gold.Chemscore.Metal.Weighted>
-0.0000

> <Gold.Chemscore.Lipo.Weighted>
-13.7885

> <Gold.Chemscore.Internal_Hbond.Weighted>
0.0000

> <Gold.Chemscore.DEClash.Weighted>
0.2768

> <Gold.Chemscore.DEInternal.Weighted>
1.9407

> <Gold.Chemscore.Rot.Weighted>
8.0597

> <Gold.Chemscore.Internal.Correction.Weighted>
   9.000000E+99

> <Gold.Protein.RotatedTorsions>
[ 6907 6896 6895 6894 ] final  173.88 input  -60.11 | X-H torsion
[ 7974 7965 7964 7962 ] final   58.99 input  175.53 | X-H torsion
[ 8008 7997 7996 7995 ] final   71.65 input   59.86 | X-H torsion
[ 10167 10162 10161 10158 ] final   52.57 input  -65.29 | X-H torsion
[ 10718 10713 10712 10709 ] final    9.37 input   66.30 | X-H torsion
[ 10763 10752 10751 10750 ] final   18.53 input  -60.55 | X-H torsion
[ 11005 11000 10999 10996 ] final    4.86 input  -57.11 | X-H torsion

> <Gold.Protein.ActiveResidues>
 VAL166  LYS551  ARG553  GLY616  TRP617  ASP618  TYR619  PRO620  LYS621  CYS622 
 ASP623  PHE694  ASN695  SER759  ASP760  ASP761  ALA762  ILE779  LEU786  VAL792 
 PHE793  MET794  SER795  GLU796  ALA797  LYS798  CYS799  TRP800  GLU811  SER814 

> <Gold.Protein.RotatedAtoms>
  151.7613  133.3334  159.3418 H   0  0  0  0  0  0  0  0  0  0  0  0  # atno 6907 bound_to 6896
  150.7497  134.6103  159.6092 H   0  0  0  0  0  0  0  0  0  0  0  0  # atno 6908 bound_to 6896
  152.3403  134.7145  160.0317 H   0  0  0  0  0  0  0  0  0  0  0  0  # atno 6909 bound_to 6896
  145.9121  139.3662  143.0529 H   0  0  0  0  0  0  0  0  0  0  0  0  # atno 7974 bound_to 7965
  155.7570  140.3487  155.5179 H   0  0  0  0  0  0  0  0  0  0  0  0  # atno 8008 bound_to 7997
  155.8950  140.1024  157.1412 H   0  0  0  0  0  0  0  0  0  0  0  0  # atno 8009 bound_to 7997
  154.4037  140.1297  156.4351 H   0  0  0  0  0  0  0  0  0  0  0  0  # atno 8010 bound_to 7997
  140.2499  144.3490  150.6351 H   0  0  0  0  0  0  0  0  0  0  0  0  # atno 10167 bound_to 10162
  156.9654  130.5948  149.5665 H   0  0  0  0  0  0  0  0  0  0  0  0  # atno 10718 bound_to 10713
  153.1241  135.6726  153.9286 H   0  0  0  0  0  0  0  0  0  0  0  0  # atno 10763 bound_to 10752
  153.8793  135.3060  155.3446 H   0  0  0  0  0  0  0  0  0  0  0  0  # atno 10764 bound_to 10752
  154.7649  135.4969  153.9614 H   0  0  0  0  0  0  0  0  0  0  0  0  # atno 10765 bound_to 10752
  140.5772  134.0047  155.8032 H   0  0  0  0  0  0  0  0  0  0  0  0  # atno 11005 bound_to 11000
  145.8658  140.9449  143.0676 LP  0  0  0  0  0  0  0  0  0  0  0  0  # atno 17320 bound_to 7965
  144.6744  140.0590  143.7476 LP  0  0  0  0  0  0  0  0  0  0  0  0  # atno 17321 bound_to 7965
  140.6048  143.2167  151.7002 LP  0  0  0  0  0  0  0  0  0  0  0  0  # atno 17342 bound_to 10162
  139.5049  144.3735  152.0446 LP  0  0  0  0  0  0  0  0  0  0  0  0  # atno 17343 bound_to 10162
  156.0305  130.5396  150.8521 LP  0  0  0  0  0  0  0  0  0  0  0  0  # atno 17370 bound_to 10713
  157.5629  131.0946  150.9532 LP  0  0  0  0  0  0  0  0  0  0  0  0  # atno 17371 bound_to 10713
  141.1019  133.9754  157.3064 LP  0  0  0  0  0  0  0  0  0  0  0  0  # atno 17394 bound_to 11000
  139.9334  135.0198  156.8476 LP  0  0  0  0  0  0  0  0  0  0  0  0  # atno 17395 bound_to 11000

$$$$
