AV-unprocessed.smi:67|AV-procd|sdf|636|dock8
  -GOLD-   2262016533D 1   1.00000     0.00000
 Structure written by MMmdl.
 48 50  0  0  0  0  0  0  0  0  2 V2000
  146.2070  135.4758  151.3451 O   0  0  0  0  0  0  0  0  0  0  0  0
  145.6830  134.2028  151.6700 C   0  0  2  0  0  0  0  0  0  0  0  0
  146.7951  133.3757  152.3602 C   0  0  0  0  0  0  0  0  0  0  0  0
  147.6213  134.2030  153.2792 N   0  3  2  0  0  0  0  0  0  0  0  0
  148.8181  133.4869  153.7922 C   0  0  0  0  0  0  0  0  0  0  0  0
  149.7498  134.4410  154.5580 C   0  0  0  0  0  0  0  0  0  0  0  0
  148.9793  135.1779  155.6730 C   0  0  1  0  0  0  0  0  0  0  0  0
  149.7858  136.0095  156.5110 O   0  0  0  0  0  0  0  0  0  0  0  0
  150.3630  137.1907  156.0847 C   0  0  0  0  0  0  0  0  0  0  0  0
  151.7166  137.3669  155.7027 C   0  0  0  0  0  0  0  0  0  0  0  0
  152.1829  138.6267  155.2820 C   0  0  0  0  0  0  0  0  0  0  0  0
  151.3101  139.7285  155.2389 C   0  0  0  0  0  0  0  0  0  0  0  0
  149.9617  139.5762  155.6214 C   0  0  0  0  0  0  0  0  0  0  0  0
  149.0067  140.7598  155.5709 C   0  0  0  0  0  0  0  0  0  0  0  0
  149.4365  141.7054  156.4054 F   0  0  0  0  0  0  0  0  0  0  0  0
  148.9476  141.2679  154.3395 F   0  0  0  0  0  0  0  0  0  0  0  0
  147.7750  140.3972  155.9308 F   0  0  0  0  0  0  0  0  0  0  0  0
  149.5017  138.3071  156.0343 C   0  0  0  0  0  0  0  0  0  0  0  0
  147.6779  135.8338  155.1669 C   0  0  0  0  0  0  0  0  0  0  0  0
  146.8328  134.8201  154.3780 C   0  0  0  0  0  0  0  0  0  0  0  0
  145.0723  133.5154  150.4437 C   0  0  0  0  0  0  0  0  0  0  0  0
  144.0006  132.6193  151.0574 C   0  0  0  0  0  0  0  0  0  0  0  0
  143.4817  133.3602  152.2016 N   0  0  0  0  0  0  0  0  0  0  0  0
  144.4633  134.3720  152.5935 C   0  0  0  0  0  0  0  0  0  0  0  0
  147.1467  135.4520  151.4458 H   0  0  0  0  0  0  0  0  0  0  0  0
  146.3615  132.5306  152.8978 H   0  0  0  0  0  0  0  0  0  0  0  0
  147.4294  132.9270  151.5940 H   0  0  0  0  0  0  0  0  0  0  0  0
  148.5026  132.6649  154.4368 H   0  0  0  0  0  0  0  0  0  0  0  0
  149.3684  133.0451  152.9602 H   0  0  0  0  0  0  0  0  0  0  0  0
  150.5738  133.8752  154.9936 H   0  0  0  0  0  0  0  0  0  0  0  0
  150.2029  135.1272  153.8473 H   0  0  0  0  0  0  0  0  0  0  0  0
  148.6543  134.3953  156.3602 H   0  0  0  0  0  0  0  0  0  0  0  0
  152.4303  136.5623  155.7152 H   0  0  0  0  0  0  0  0  0  0  0  0
  153.2156  138.7482  154.9899 H   0  0  0  0  0  0  0  0  0  0  0  0
  151.6805  140.6881  154.9097 H   0  0  0  0  0  0  0  0  0  0  0  0
  148.4668  138.1831  156.3183 H   0  0  0  0  0  0  0  0  0  0  0  0
  147.1022  136.2069  156.0146 H   0  0  0  0  0  0  0  0  0  0  0  0
  147.8670  136.6966  154.5337 H   0  0  0  0  0  0  0  0  0  0  0  0
  145.9567  135.3245  153.9696 H   0  0  0  0  0  0  0  0  0  0  0  0
  146.4645  134.0386  155.0445 H   0  0  0  0  0  0  0  0  0  0  0  0
  144.5925  134.2528  149.7977 H   0  0  0  0  0  0  0  0  0  0  0  0
  145.7890  132.9644  149.8344 H   0  0  0  0  0  0  0  0  0  0  0  0
  143.2127  132.3647  150.3482 H   0  0  0  0  0  0  0  0  0  0  0  0
  144.4523  131.6871  151.3979 H   0  0  0  0  0  0  0  0  0  0  0  0
  143.2798  132.7306  152.9720 H   0  0  0  0  0  0  0  0  0  0  0  0
  144.7282  134.2837  153.6474 H   0  0  0  0  0  0  0  0  0  0  0  0
  144.0192  135.3593  152.4598 H   0  0  0  0  0  0  0  0  0  0  0  0
  147.9712  134.9647  152.7151 H   0  0  0  0  0  0  0  0  0  0  0  0
  1  2  1  0  0  0  0
  1 25  1  0  0  0  0
  2 24  1  0  0  0  0
  2  3  1  0  0  0  0
  2 21  1  0  0  0  0
  3  4  1  0  0  0  0
  3 26  1  0  0  0  0
  3 27  1  0  0  0  0
  4 20  1  0  0  0  0
  4  5  1  0  0  0  0
  4 48  1  0  0  0  0
  5  6  1  0  0  0  0
  5 28  1  0  0  0  0
  5 29  1  0  0  0  0
  6  7  1  0  0  0  0
  6 30  1  0  0  0  0
  6 31  1  0  0  0  0
  7  8  1  0  0  0  0
  7 19  1  0  0  0  0
  7 32  1  0  0  0  0
  8  9  1  0  0  0  0
  9 18  1  0  0  0  0
  9 10  2  0  0  0  0
 10 11  1  0  0  0  0
 10 33  1  0  0  0  0
 11 12  2  0  0  0  0
 11 34  1  0  0  0  0
 12 13  1  0  0  0  0
 12 35  1  0  0  0  0
 13 14  1  0  0  0  0
 13 18  2  0  0  0  0
 14 15  1  0  0  0  0
 14 16  1  0  0  0  0
 14 17  1  0  0  0  0
 18 36  1  0  0  0  0
 19 20  1  0  0  0  0
 19 37  1  0  0  0  0
 19 38  1  0  0  0  0
 20 39  1  0  0  0  0
 20 40  1  0  0  0  0
 21 22  1  0  0  0  0
 21 41  1  0  0  0  0
 21 42  1  0  0  0  0
 22 23  1  0  0  0  0
 22 43  1  0  0  0  0
 22 44  1  0  0  0  0
 23 24  1  0  0  0  0
 23 45  1  0  0  0  0
 24 46  1  0  0  0  0
 24 47  1  0  0  0  0
M  CHG  1   4   1
M  END
> <s_m_source_file>
AV-unprocessed.smi

> <i_m_source_file_index>
67

> <i_lp_mmshare_version>
43012

> <i_f3d_flags>
0

> <s_epik_input>
W0NIMl0xW05IXVtDSDJdW0NIMl1bQ0BAXTEoW09IXSlbQ0gyXU4yW0NIMl1bQ0gyXVtDSF0oW0NIMl1bQ0gyXTIpT2MzW2NIXVtjSF1bY0hdYyhDKEYpKEYpRilbY0hdMw==

> <s_epik_cmdline>
J2VwaWtfcHl0aG9uJywgJy1waCcsICc3LjAnLCAnLXRuJywgJzgnLCAnLW1hJywgJzIwMCcsICctbWV0YWxfYmluZGluZycsICctaW1hZScsICc8aW5maWxlLm1hZT4nLCAnLW9tYWUnLCAnPG91dGZpbGUubWFlPic=

> <r_epik_Ionization_Penalty>
2.37709

> <r_epik_Ionization_Penalty_Charging>
0.0305656

> <r_epik_Ionization_Penalty_Neutral>
2.34653

> <r_epik_State_Penalty>
2.56959

> <r_epik_Charging_Adjusted_Penalty>
2.60016

> <i_epik_Tot_Q>
1

> <i_epik_Tot_abs_Q>
1

> <r_epik_Metal_State_Penalty>
2.56925

> <b_epik_Metal_Only>
0

> <s_lp_Force_Field>
OPLS_2005

> <r_lp_Energy>
55.6007

> <b_lp_Chiralities_Consistent>
1

> <s_lp_Variant>
AV-unprocessed.smi:67-8

> <Gold.Version>
5.8.1

> <Gold.Id.Protein>
6NUR|6NUR_protein|mol2

> <Gold.PLP.Fitness>
46.7710

> <Gold.PLP.PLP>
-35.6531

> <Gold.PLP.part.hbond>
-2.9907

> <Gold.PLP.part.metal>
0.0000

> <Gold.PLP.part.buried>
-4.1656

> <Gold.PLP.part.nonpolar>
-29.5223

> <Gold.PLP.part.repulsive>
0.0141

> <Gold.PLP.ligand.clash>
1.3339

> <Gold.PLP.ligand.torsion>
0.5961

> <Gold.PLP.Chemscore.Hbond>
3.9913

> <Gold.PLP.Chemscore.CHOScore>
0.0000

> <Gold.PLP.Chemscore.Metal>
0.0000

> <Gold.Chemscore.Hbonds>
donor molecule, donor type, donor heavy atom, donor atom, acceptor molecule, acceptor atom, score
      L1  H     1    25       P1  7948  1.00
      L1  H     4    48       P1  7948  2.00
      L1  H    23    45       P1 10957  0.76

> <Gold.PLP.Chemscore.Internal.Correction>
1.6702

> <Gold.Rescore>
     Score         DG    S(hbond)    S(metal)    S(lipo)     H(rot)  DE(clash)    DE(int)     intcor
     17.41     -18.08       2.69        0.00      78.39       2.17       0.01       0.66       ----

> <Gold.Chemscore.Fitness>
17.4056

> <Gold.Chemscore.DG>
-18.0757

> <Gold.Chemscore.ZeroCoef>
-5.4800

> <Gold.Chemscore.Hbond>
2.6909

> <Gold.Chemscore.Metal>
0.0000

> <Gold.Chemscore.Lipo>
78.3942

> <Gold.Chemscore.Internal_Hbond>
0.0000

> <Gold.Chemscore.DEClash>
0.0063

> <Gold.Chemscore.DEInternal>
0.6639

> <Gold.Chemscore.Rot>
2.1734

> <Gold.Chemscore.Internal.Correction>
   9.000000E+99

> <Gold.Chemscore.Hbonds>
donor molecule, donor type, donor heavy atom, donor atom, acceptor molecule, acceptor atom, score
      L1  H     1    25       P1  7948  0.93
      L1  H     4    48       P1  7948  0.93
      L1  H    23    45       P1 10957  0.19

> <Gold.Chemscore.Hbond.Weighted>
-8.9876

> <Gold.Chemscore.Metal.Weighted>
-0.0000

> <Gold.Chemscore.Lipo.Weighted>
-9.1721

> <Gold.Chemscore.Internal_Hbond.Weighted>
0.0000

> <Gold.Chemscore.DEClash.Weighted>
0.0063

> <Gold.Chemscore.DEInternal.Weighted>
0.6639

> <Gold.Chemscore.Rot.Weighted>
5.5640

> <Gold.Chemscore.Internal.Correction.Weighted>
   9.000000E+99

> <Gold.Protein.RotatedTorsions>
[ 6907 6896 6895 6894 ] final  -30.29 input  -60.11 | X-H torsion
[ 7974 7965 7964 7962 ] final  155.80 input  175.53 | X-H torsion
[ 8008 7997 7996 7995 ] final   68.48 input   59.86 | X-H torsion
[ 10167 10162 10161 10158 ] final   21.23 input  -65.29 | X-H torsion
[ 10718 10713 10712 10709 ] final  174.03 input   66.30 | X-H torsion
[ 10763 10752 10751 10750 ] final    7.22 input  -60.55 | X-H torsion
[ 11005 11000 10999 10996 ] final  -15.68 input  -57.11 | X-H torsion

> <Gold.Protein.ActiveResidues>
 VAL166  LYS551  ARG553  GLY616  TRP617  ASP618  TYR619  PRO620  LYS621  CYS622 
 ASP623  PHE694  ASN695  SER759  ASP760  ASP761  ALA762  ILE779  LEU786  VAL792 
 PHE793  MET794  SER795  GLU796  ALA797  LYS798  CYS799  TRP800  GLU811  SER814 

> <Gold.Protein.RotatedAtoms>
  151.1076  135.0008  159.8478 H   0  0  0  0  0  0  0  0  0  0  0  0  # atno 6907 bound_to 6896
  152.5441  134.1875  159.8670 H   0  0  0  0  0  0  0  0  0  0  0  0  # atno 6908 bound_to 6896
  151.1922  133.4616  159.2628 H   0  0  0  0  0  0  0  0  0  0  0  0  # atno 6909 bound_to 6896
  144.8002  139.7117  143.6185 H   0  0  0  0  0  0  0  0  0  0  0  0  # atno 7974 bound_to 7965
  155.7090  140.3494  155.4965 H   0  0  0  0  0  0  0  0  0  0  0  0  # atno 8008 bound_to 7997
  155.9372  140.1095  157.1106 H   0  0  0  0  0  0  0  0  0  0  0  0  # atno 8009 bound_to 7997
  154.4096  140.1219  156.4867 H   0  0  0  0  0  0  0  0  0  0  0  0  # atno 8010 bound_to 7997
  140.5443  143.9622  150.6538 H   0  0  0  0  0  0  0  0  0  0  0  0  # atno 10167 bound_to 10162
  156.9556  131.0044  151.2939 H   0  0  0  0  0  0  0  0  0  0  0  0  # atno 10718 bound_to 10713
  153.2388  135.6901  153.7806 H   0  0  0  0  0  0  0  0  0  0  0  0  # atno 10763 bound_to 10752
  153.6943  135.3307  155.3210 H   0  0  0  0  0  0  0  0  0  0  0  0  # atno 10764 bound_to 10752
  154.8346  135.4553  154.1302 H   0  0  0  0  0  0  0  0  0  0  0  0  # atno 10765 bound_to 10752
  140.7991  133.8228  155.9453 H   0  0  0  0  0  0  0  0  0  0  0  0  # atno 11005 bound_to 11000
  146.2282  139.5762  142.9573 LP  0  0  0  0  0  0  0  0  0  0  0  0  # atno 17320 bound_to 7965
  145.5571  141.0408  143.2246 LP  0  0  0  0  0  0  0  0  0  0  0  0  # atno 17321 bound_to 7965
  140.3031  143.3247  152.0952 LP  0  0  0  0  0  0  0  0  0  0  0  0  # atno 17342 bound_to 10162
  139.5001  144.6684  151.6301 LP  0  0  0  0  0  0  0  0  0  0  0  0  # atno 17343 bound_to 10162
  157.5693  130.8299  149.8369 LP  0  0  0  0  0  0  0  0  0  0  0  0  # atno 17370 bound_to 10713
  156.0344  130.3755  150.1600 LP  0  0  0  0  0  0  0  0  0  0  0  0  # atno 17371 bound_to 10713
  140.9313  134.2018  157.4862 LP  0  0  0  0  0  0  0  0  0  0  0  0  # atno 17394 bound_to 11000
  139.8723  134.9834  156.5195 LP  0  0  0  0  0  0  0  0  0  0  0  0  # atno 17395 bound_to 11000

$$$$
