AV-unprocessed.smi:1278|AV-procd|sdf|5351|dock5
  -GOLD-   22720 4483D 1   1.00000     0.00000
 Structure written by MMmdl.
 38 39  0  0  0  0  0  0  0  0  3 V2000
  145.8768  132.1253  149.5412 C   0  0  0  0  0  0  0  0  0  0  0  0
  146.4872  133.0324  150.6188 C   0  0  2  0  0  0  0  0  0  0  0  0
  146.6047  132.3020  151.9671 C   0  0  0  0  0  0  0  0  0  0  0  0
  147.1918  133.2393  153.0297 C   0  0  0  0  0  0  0  0  0  0  0  0
  146.3688  134.5330  153.1368 C   0  0  0  0  0  0  0  0  0  0  0  0
  146.2763  135.2191  151.8223 N   0  3  2  0  0  0  0  0  0  0  0  0
  145.5995  136.5354  151.9253 C   0  0  0  0  0  0  0  0  0  0  0  0
  145.8841  137.2374  153.2667 C   0  0  0  0  0  0  0  0  0  0  0  0
  147.3031  137.5367  153.4146 N   0  0  0  0  0  0  0  0  0  0  0  0
  147.8129  138.6592  153.9410 C   0  0  0  0  0  0  0  0  0  0  0  0
  147.0569  139.5511  154.3341 O   0  0  0  0  0  0  0  0  0  0  0  0
  149.1637  138.6750  153.9832 N   0  5  0  0  0  0  0  0  0  0  0  0
  149.7967  139.3085  154.9840 C   0  0  0  0  0  0  0  0  0  0  0  0
  151.0935  139.6349  154.9353 N   0  0  0  0  0  0  0  0  0  0  0  0
  151.5437  140.2926  156.0816 C   0  0  0  0  0  0  0  0  0  0  0  0
  150.5652  140.4770  157.0222 C   0  0  0  0  0  0  0  0  0  0  0  0
  149.0389  139.8302  156.4913 S   0  0  0  0  0  0  0  0  0  0  0  0
  145.6778  134.3346  150.7859 C   0  0  0  0  0  0  0  0  0  0  0  0
  144.8630  131.8222  149.8052 H   0  0  0  0  0  0  0  0  0  0  0  0
  146.4703  131.2205  149.4068 H   0  0  0  0  0  0  0  0  0  0  0  0
  145.8315  132.6349  148.5783 H   0  0  0  0  0  0  0  0  0  0  0  0
  147.4926  133.3010  150.2907 H   0  0  0  0  0  0  0  0  0  0  0  0
  145.6225  131.9529  152.2890 H   0  0  0  0  0  0  0  0  0  0  0  0
  147.2329  131.4162  151.8656 H   0  0  0  0  0  0  0  0  0  0  0  0
  147.2207  132.7350  153.9958 H   0  0  0  0  0  0  0  0  0  0  0  0
  148.2248  133.4813  152.7759 H   0  0  0  0  0  0  0  0  0  0  0  0
  145.3655  134.3136  153.5056 H   0  0  0  0  0  0  0  0  0  0  0  0
  146.8380  135.1936  153.8669 H   0  0  0  0  0  0  0  0  0  0  0  0
  145.8895  137.1615  151.0800 H   0  0  0  0  0  0  0  0  0  0  0  0
  144.5205  136.3951  151.8448 H   0  0  0  0  0  0  0  0  0  0  0  0
  145.3333  138.1771  153.3186 H   0  0  0  0  0  0  0  0  0  0  0  0
  145.5549  136.6382  154.1158 H   0  0  0  0  0  0  0  0  0  0  0  0
  147.9571  136.8341  153.1012 H   0  0  0  0  0  0  0  0  0  0  0  0
  152.5789  140.5939  156.1432 H   0  0  0  0  0  0  0  0  0  0  0  0
  150.6468  140.9525  157.9877 H   0  0  0  0  0  0  0  0  0  0  0  0
  145.6407  134.8525  149.8281 H   0  0  0  0  0  0  0  0  0  0  0  0
  144.6456  134.1056  151.0571 H   0  0  0  0  0  0  0  0  0  0  0  0
  147.2260  135.4099  151.5366 H   0  0  0  0  0  0  0  0  0  0  0  0
  1  2  1  0  0  0  0
  1 19  1  0  0  0  0
  1 20  1  0  0  0  0
  1 21  1  0  0  0  0
  2 18  1  0  0  0  0
  2  3  1  0  0  0  0
  2 22  1  0  0  0  0
  3  4  1  0  0  0  0
  3 23  1  0  0  0  0
  3 24  1  0  0  0  0
  4  5  1  0  0  0  0
  4 25  1  0  0  0  0
  4 26  1  0  0  0  0
  5  6  1  0  0  0  0
  5 27  1  0  0  0  0
  5 28  1  0  0  0  0
  6  7  1  0  0  0  0
  6 18  1  0  0  0  0
  6 38  1  0  0  0  0
  7  8  1  0  0  0  0
  7 29  1  0  0  0  0
  7 30  1  0  0  0  0
  8  9  1  0  0  0  0
  8 31  1  0  0  0  0
  8 32  1  0  0  0  0
  9 10  1  0  0  0  0
  9 33  1  0  0  0  0
 10 11  2  0  0  0  0
 10 12  1  0  0  0  0
 12 13  1  0  0  0  0
 13 17  1  0  0  0  0
 13 14  2  0  0  0  0
 14 15  1  0  0  0  0
 15 16  2  0  0  0  0
 15 34  1  0  0  0  0
 16 17  1  0  0  0  0
 16 35  1  0  0  0  0
 18 36  1  0  0  0  0
 18 37  1  0  0  0  0
M  CHG  1   6   1
M  CHG  1  12  -1
M  END
> <s_m_source_file>
AV-unprocessed.smi

> <i_m_source_file_index>
1278

> <i_lp_mmshare_version>
43012

> <i_f3d_flags>
0

> <s_epik_input>
W0NIM11bQ0BASF0xW0NIMl1bQ0gyXVtDSDJdTihbQ0gyXTEpW0NIMl1bQ0gyXVtOSF1DKD1PKVtOSF1jMm5bY0hdW2NIXXMy

> <s_epik_cmdline>
J2VwaWtfcHl0aG9uJywgJy1waCcsICc3LjAnLCAnLXRuJywgJzgnLCAnLW1hJywgJzIwMCcsICctbWV0YWxfYmluZGluZycsICctaW1hZScsICc8aW5maWxlLm1hZT4nLCAnLW9tYWUnLCAnPG91dGZpbGUubWFlPic=

> <r_lp_tautomer_probability>
0.999

> <r_epik_Ionization_Penalty>
6.22019

> <r_epik_Ionization_Penalty_Charging>
5.38911

> <r_epik_Ionization_Penalty_Neutral>
0.831074

> <r_epik_State_Penalty>
5.38904

> <r_epik_Charging_Adjusted_Penalty>
10.7782

> <i_epik_Tot_Q>
0

> <i_epik_Tot_abs_Q>
2

> <r_epik_Metal_State_Penalty>
1.41502

> <b_epik_Metal_Only>
1

> <s_lp_Force_Field>
OPLS_2005

> <r_lp_Energy>
5.98005

> <b_lp_Chiralities_Consistent>
1

> <s_lp_Variant>
AV-unprocessed.smi:1278-5

> <Gold.Version>
5.8.1

> <Gold.Id.Protein>
6NUR|6NUR_protein|mol2

> <Gold.PLP.Fitness>
39.6381

> <Gold.PLP.PLP>
-28.8785

> <Gold.PLP.part.hbond>
-3.0000

> <Gold.PLP.part.metal>
0.0000

> <Gold.PLP.part.buried>
-4.3427

> <Gold.PLP.part.nonpolar>
-22.8545

> <Gold.PLP.part.repulsive>
1.3761

> <Gold.PLP.ligand.clash>
0.0000

> <Gold.PLP.ligand.torsion>
0.6581

> <Gold.PLP.Chemscore.Hbond>
4.0000

> <Gold.PLP.Chemscore.CHOScore>
0.0000

> <Gold.PLP.Chemscore.Metal>
0.0000

> <Gold.Chemscore.Hbonds>
donor molecule, donor type, donor heavy atom, donor atom, acceptor molecule, acceptor atom, score
      L1  H     6    38       P1  7948  2.00
      L1  H     9    33       P1  7948  0.96
      P1  H  7989  7998       L1    14  1.00

> <Gold.PLP.Chemscore.Internal.Correction>
0.0759

> <Gold.Rescore>
     Score         DG    S(hbond)    S(metal)    S(lipo)     H(rot)  DE(clash)    DE(int)     intcor
     17.44     -18.47       2.94        0.00      61.51       1.57       0.12       0.92       ----

> <Gold.Chemscore.Fitness>
17.4364

> <Gold.Chemscore.DG>
-18.4722

> <Gold.Chemscore.ZeroCoef>
-5.4800

> <Gold.Chemscore.Hbond>
2.9368

> <Gold.Chemscore.Metal>
0.0000

> <Gold.Chemscore.Lipo>
61.5076

> <Gold.Chemscore.Internal_Hbond>
0.0000

> <Gold.Chemscore.DEClash>
0.1195

> <Gold.Chemscore.DEInternal>
0.9162

> <Gold.Chemscore.Rot>
1.5676

> <Gold.Chemscore.Internal.Correction>
   9.000000E+99

> <Gold.Chemscore.Hbonds>
donor molecule, donor type, donor heavy atom, donor atom, acceptor molecule, acceptor atom, score
      L1  H     6    38       P1  7948  0.92
      L1  H     9    33       P1  7948  0.92
      P1  H  7989  7998       L1    14  0.32

> <Gold.Chemscore.Hbond.Weighted>
-9.8088

> <Gold.Chemscore.Metal.Weighted>
-0.0000

> <Gold.Chemscore.Lipo.Weighted>
-7.1964

> <Gold.Chemscore.Internal_Hbond.Weighted>
0.0000

> <Gold.Chemscore.DEClash.Weighted>
0.1195

> <Gold.Chemscore.DEInternal.Weighted>
0.9162

> <Gold.Chemscore.Rot.Weighted>
4.0130

> <Gold.Chemscore.Internal.Correction.Weighted>
   9.000000E+99

> <Gold.Protein.RotatedTorsions>
[ 6907 6896 6895 6894 ] final   98.47 input  -60.11 | X-H torsion
[ 7974 7965 7964 7962 ] final   91.98 input  175.53 | X-H torsion
[ 8008 7997 7996 7995 ] final -171.76 input   59.86 | X-H torsion
[ 10167 10162 10161 10158 ] final -120.09 input  -65.29 | X-H torsion
[ 10718 10713 10712 10709 ] final   83.18 input   66.30 | X-H torsion
[ 10763 10752 10751 10750 ] final  -44.12 input  -60.55 | X-H torsion
[ 11005 11000 10999 10996 ] final  -73.71 input  -57.11 | X-H torsion

> <Gold.Protein.ActiveResidues>
 VAL166  LYS551  ARG553  GLY616  TRP617  ASP618  TYR619  PRO620  LYS621  CYS622 
 ASP623  PHE694  ASN695  SER759  ASP760  ASP761  ALA762  ILE779  LEU786  VAL792 
 PHE793  MET794  SER795  GLU796  ALA797  LYS798  CYS799  TRP800  GLU811  SER814 

> <Gold.Protein.RotatedAtoms>
  152.5408  134.0575  159.8137 H   0  0  0  0  0  0  0  0  0  0  0  0  # atno 6907 bound_to 6896
  151.0708  133.5460  159.2634 H   0  0  0  0  0  0  0  0  0  0  0  0  # atno 6908 bound_to 6896
  151.2324  135.0567  159.9047 H   0  0  0  0  0  0  0  0  0  0  0  0  # atno 6909 bound_to 6896
  145.4984  139.2276  143.2791 H   0  0  0  0  0  0  0  0  0  0  0  0  # atno 7974 bound_to 7965
  155.9358  140.1099  157.1096 H   0  0  0  0  0  0  0  0  0  0  0  0  # atno 8008 bound_to 7997
  154.4079  140.1228  156.4928 H   0  0  0  0  0  0  0  0  0  0  0  0  # atno 8009 bound_to 7997
  155.7023  140.3472  155.4941 H   0  0  0  0  0  0  0  0  0  0  0  0  # atno 8010 bound_to 7997
  140.0396  143.5166  152.2136 H   0  0  0  0  0  0  0  0  0  0  0  0  # atno 10167 bound_to 10162
  157.6873  131.0080  150.2485 H   0  0  0  0  0  0  0  0  0  0  0  0  # atno 10718 bound_to 10713
  154.0069  135.6686  153.4762 H   0  0  0  0  0  0  0  0  0  0  0  0  # atno 10763 bound_to 10752
  153.0638  135.5013  154.8149 H   0  0  0  0  0  0  0  0  0  0  0  0  # atno 10764 bound_to 10752
  154.7019  135.3080  154.9292 H   0  0  0  0  0  0  0  0  0  0  0  0  # atno 10765 bound_to 10752
  141.1626  133.6887  156.7253 H   0  0  0  0  0  0  0  0  0  0  0  0  # atno 11005 bound_to 11000
  146.2241  140.5783  142.9004 LP  0  0  0  0  0  0  0  0  0  0  0  0  # atno 17320 bound_to 7965
  144.7794  140.5808  143.6616 LP  0  0  0  0  0  0  0  0  0  0  0  0  # atno 17321 bound_to 7965
  139.6022  144.7586  151.3144 LP  0  0  0  0  0  0  0  0  0  0  0  0  # atno 17342 bound_to 10162
  140.7266  143.6986  150.7863 LP  0  0  0  0  0  0  0  0  0  0  0  0  # atno 17343 bound_to 10162
  156.3086  130.3768  149.7683 LP  0  0  0  0  0  0  0  0  0  0  0  0  # atno 17370 bound_to 10713
  156.5291  130.8249  151.3230 LP  0  0  0  0  0  0  0  0  0  0  0  0  # atno 17371 bound_to 10713
  140.2785  134.8335  157.3912 LP  0  0  0  0  0  0  0  0  0  0  0  0  # atno 17394 bound_to 11000
  140.1455  134.4917  155.7999 LP  0  0  0  0  0  0  0  0  0  0  0  0  # atno 17395 bound_to 11000

$$$$
