#       Name:                AV-unprocessed.smi:1767
#       Creating user name   scv26
#       Creation time:       Fri Mar 27 08:38:01 2020


#       File generated by GOLD software.
#

@<TRIPOS>MOLECULE
AV-unprocessed.smi:1767
    35    37     1
SMALL
NO_CHARGES


@<TRIPOS>ATOM
      1 ****        -1.3350   3.0499  -1.5601 O.3            1 S1                 0.0000
      2 ****        -0.8987   1.7149  -1.4060 C.3            1 S1                 0.0000
      3 ****         0.6423   1.7100  -1.3664 C.3            1 S1                 0.0000
      4 ****         1.1891   0.3665  -1.4323 N.pl3          1 S1                 0.0000
      5 ****         1.4346  -0.3515  -2.5450 C.2            1 S1                 0.0000
      6 ****         1.9286  -1.5756  -2.3846 N.2            1 S1                 0.0000
      7 ****         2.0152  -1.6632  -1.0058 C.ar           1 S1                 0.0000
      8 ****         2.4614  -2.7203  -0.1807 C.ar           1 S1                 0.0000
      9 ****         2.4549  -2.5826   1.2230 C.ar           1 S1                 0.0000
     10 ****         2.0042  -1.3885   1.8223 C.ar           1 S1                 0.0000
     11 ****         1.5569  -0.3208   1.0208 C.ar           1 S1                 0.0000
     12 ****         1.5630  -0.4625  -0.3795 C.ar           1 S1                 0.0000
     13 ****        -1.5101   1.0469  -0.1818 C.ar           1 S1                 0.0000
     14 ****        -2.0117  -0.2693  -0.2747 C.ar           1 S1                 0.0000
     15 ****        -2.5505  -0.9060   0.8600 C.ar           1 S1                 0.0000
     16 ****        -2.5919  -0.2298   2.0944 C.ar           1 S1                 0.0000
     17 ****        -3.1076  -0.8427   3.1860 F              1 S1                 0.0000
     18 ****        -2.0947   1.0838   2.1932 C.ar           1 S1                 0.0000
     19 ****        -1.5552   1.7207   1.0590 C.ar           1 S1                 0.0000
     20 ****        -2.2719   3.0454  -1.6852 H              1 S1                 0.0000
     21 ****        -1.2308   1.1802  -2.2970 H              1 S1                 0.0000
     22 ****         1.0399   2.2714  -2.2133 H              1 S1                 0.0000
     23 ****         1.0129   2.2022  -0.4661 H              1 S1                 0.0000
     24 ****         1.2346   0.0467  -3.5291 H              1 S1                 0.0000
     25 ****         2.8081  -3.6398  -0.6287 H              1 S1                 0.0000
     26 ****         2.7972  -3.3980   1.8434 H              1 S1                 0.0000
     27 ****         2.0012  -1.2925   2.8982 H              1 S1                 0.0000
     28 ****         1.2081   0.5934   1.4774 H              1 S1                 0.0000
     29 ****        -1.9742  -0.8002  -1.2147 H              1 S1                 0.0000
     30 ****        -2.9288  -1.9147   0.7839 H              1 S1                 0.0000
     31 ****        -2.1233   1.6019   3.1403 H              1 S1                 0.0000
     32 ****        -1.1672   2.7250   1.1476 H              1 S1                 0.0000
     33 ****        -0.8901   3.4608  -2.3558 LP             1 S1                 0.0000
     34 ****        -1.1062   3.5765  -0.7413 LP             1 S1                 0.0000
     35 ****         2.1731  -2.2541  -3.0773 LP             1 S1                 0.0000
@<TRIPOS>BOND
    1    1    2 1     
    2    1   20 1     
    3    2    3 1     
    4    2   13 1     
    5    2   21 1     
    6    3    4 1     
    7    3   22 1     
    8    3   23 1     
    9    4   12 1     
   10    4    5 1     
   11    5    6 2     
   12    5   24 1     
   13    6    7 1     
   14    7   12 ar    
   15    7    8 ar    
   16    8    9 ar    
   17    8   25 1     
   18    9   10 ar    
   19    9   26 1     
   20   10   11 ar    
   21   10   27 1     
   22   11   12 ar    
   23   11   28 1     
   24   13   19 ar    
   25   13   14 ar    
   26   14   15 ar    
   27   14   29 1     
   28   15   16 ar    
   29   15   30 1     
   30   16   17 1     
   31   16   18 ar    
   32   18   19 ar    
   33   18   31 1     
   34   19   32 1     
   35    1   33 1     
   36    1   34 1     
   37    6   35 1     
@<TRIPOS>SUBSTRUCTURE
      1 S1             1
@<TRIPOS>SET
LONE_PAIRS      STATIC     ATOMS    <user>   **** ""
3 33 34 35
DONOR_HYDROGENS      STATIC     ATOMS    <user>   **** ""
1 20
ATOM$BLUE        STATIC     ATOMS    COLORGROUP SYSTEM
3 33 34 35
ATOM$RED        STATIC     ATOMS    COLORGROUP SYSTEM
1 20
