AV-unprocessed.smi:249|AV-procd|sdf|1904|dock9
  -GOLD-   2262020583D 1   1.00000     0.00000
 Structure written by MMmdl.
 64 67  0  0  0  0  0  0  0  0  2 V2000
  145.8851  128.7720  151.9510 C   0  0  0  0  0  0  0  0  0  0  0  0
  145.6633  130.2880  151.8210 C   0  0  0  0  0  0  0  0  0  0  0  0
  146.8720  131.0992  152.1478 N   0  3  2  0  0  0  0  0  0  0  0  0
  147.3349  130.8644  153.5461 C   0  0  0  0  0  0  0  0  0  0  0  0
  148.6250  131.6347  153.8700 C   0  0  0  0  0  0  0  0  0  0  0  0
  148.4478  133.1516  153.6553 C   0  0  2  0  0  0  0  0  0  0  0  0
  147.5111  133.7784  154.6026 N   0  0  0  0  0  0  0  0  0  0  0  0
  146.7319  134.9155  154.1229 C   0  0  0  0  0  0  0  0  0  0  0  0
  148.0099  134.0367  155.8322 C   0  0  0  0  0  0  0  0  0  0  0  0
  149.0370  134.9179  155.9126 N   0  0  0  0  0  0  0  0  0  0  0  0
  149.5637  135.2201  157.1036 C   0  0  0  0  0  0  0  0  0  0  0  0
  149.2187  134.7633  158.3098 N   0  0  0  0  0  0  0  0  0  0  0  0
  148.1907  133.8706  158.2272 C   0  0  0  0  0  0  0  0  0  0  0  0
  147.5334  133.4501  157.0379 C   0  0  0  0  0  0  0  0  0  0  0  0
  146.5382  132.5299  157.3439 N   0  0  0  0  0  0  0  0  0  0  0  0
  146.6002  132.4157  158.6430 C   0  0  0  0  0  0  0  0  0  0  0  0
  147.5595  133.1918  159.2535 N   0  0  0  0  0  0  0  0  0  0  0  0
  147.8434  133.2684  160.6752 C   0  0  0  0  0  0  0  0  0  0  0  0
  147.3433  134.5815  161.3269 C   0  0  1  0  0  0  0  0  0  0  0  0
  147.8623  135.8463  160.6003 C   0  0  0  0  0  0  0  0  0  0  0  0
  147.8729  136.9687  161.4588 O   0  0  0  0  0  0  0  0  0  0  0  0
  145.8026  134.5825  161.4904 C   0  0  2  0  0  0  0  0  0  0  0  0
  145.2404  135.7675  162.2559 C   0  0  0  0  0  0  0  0  0  0  0  0
  143.8577  135.2649  162.6551 C   0  0  0  0  0  0  0  0  0  0  0  0
  144.0040  133.8643  162.8575 O   0  0  0  0  0  0  0  0  0  0  0  0
  145.2505  133.4232  162.3281 C   0  0  0  0  0  0  0  0  0  0  0  0
  148.0104  133.3348  152.1905 C   0  0  0  0  0  0  0  0  0  0  0  0
  146.7153  132.5611  151.8504 C   0  0  1  0  0  0  0  0  0  0  0  0
  146.3474  132.8434  150.3787 C   0  0  0  0  0  0  0  0  0  0  0  0
  145.0332  128.2280  151.5420 H   0  0  0  0  0  0  0  0  0  0  0  0
  145.9901  128.4553  152.9881 H   0  0  0  0  0  0  0  0  0  0  0  0
  146.7721  128.4525  151.4032 H   0  0  0  0  0  0  0  0  0  0  0  0
  145.3645  130.4555  150.7890 H   0  0  0  0  0  0  0  0  0  0  0  0
  144.8246  130.6034  152.4433 H   0  0  0  0  0  0  0  0  0  0  0  0
  146.5424  131.1406  154.2430 H   0  0  0  0  0  0  0  0  0  0  0  0
  147.5384  129.8074  153.7080 H   0  0  0  0  0  0  0  0  0  0  0  0
  148.9524  131.4083  154.8848 H   0  0  0  0  0  0  0  0  0  0  0  0
  149.4257  131.2727  153.2237 H   0  0  0  0  0  0  0  0  0  0  0  0
  149.4167  133.6358  153.7799 H   0  0  0  0  0  0  0  0  0  0  0  0
  146.2854  135.4824  154.9419 H   0  0  0  0  0  0  0  0  0  0  0  0
  145.9167  134.5714  153.4864 H   0  0  0  0  0  0  0  0  0  0  0  0
  147.3572  135.5950  153.5424 H   0  0  0  0  0  0  0  0  0  0  0  0
  150.3772  135.9305  157.0887 H   0  0  0  0  0  0  0  0  0  0  0  0
  145.9384  131.7650  159.1963 H   0  0  0  0  0  0  0  0  0  0  0  0
  147.3888  132.4065  161.1652 H   0  0  0  0  0  0  0  0  0  0  0  0
  148.9210  133.1615  160.8017 H   0  0  0  0  0  0  0  0  0  0  0  0
  147.7682  134.6152  162.3312 H   0  0  0  0  0  0  0  0  0  0  0  0
  148.8702  135.6887  160.2177 H   0  0  0  0  0  0  0  0  0  0  0  0
  147.2480  136.0775  159.7300 H   0  0  0  0  0  0  0  0  0  0  0  0
  147.5611  136.6994  162.3094 H   0  0  0  0  0  0  0  0  0  0  0  0
  145.3298  134.5519  160.5071 H   0  0  0  0  0  0  0  0  0  0  0  0
  145.8380  135.9660  163.1472 H   0  0  0  0  0  0  0  0  0  0  0  0
  145.1943  136.6818  161.6637 H   0  0  0  0  0  0  0  0  0  0  0  0
  143.4740  135.7600  163.5472 H   0  0  0  0  0  0  0  0  0  0  0  0
  143.1461  135.4257  161.8445 H   0  0  0  0  0  0  0  0  0  0  0  0
  145.1252  132.5110  161.7443 H   0  0  0  0  0  0  0  0  0  0  0  0
  145.9141  133.1988  163.1642 H   0  0  0  0  0  0  0  0  0  0  0  0
  147.8944  134.3935  151.9583 H   0  0  0  0  0  0  0  0  0  0  0  0
  148.8130  132.9871  151.5381 H   0  0  0  0  0  0  0  0  0  0  0  0
  145.9087  132.9467  152.4761 H   0  0  0  0  0  0  0  0  0  0  0  0
  146.3992  133.9111  150.1628 H   0  0  0  0  0  0  0  0  0  0  0  0
  145.3295  132.5396  150.1380 H   0  0  0  0  0  0  0  0  0  0  0  0
  147.0285  132.3380  149.6931 H   0  0  0  0  0  0  0  0  0  0  0  0
  147.6094  130.7687  151.5419 H   0  0  0  0  0  0  0  0  0  0  0  0
  1  2  1  0  0  0  0
  1 30  1  0  0  0  0
  1 31  1  0  0  0  0
  1 32  1  0  0  0  0
  2  3  1  0  0  0  0
  2 33  1  0  0  0  0
  2 34  1  0  0  0  0
  3 28  1  0  0  0  0
  3  4  1  0  0  0  0
  3 64  1  0  0  0  0
  4  5  1  0  0  0  0
  4 35  1  0  0  0  0
  4 36  1  0  0  0  0
  5  6  1  0  0  0  0
  5 37  1  0  0  0  0
  5 38  1  0  0  0  0
  6  7  1  0  0  0  0
  6 27  1  0  0  0  0
  6 39  1  0  0  0  0
  7  8  1  0  0  0  0
  7  9  1  0  0  0  0
  8 40  1  0  0  0  0
  8 41  1  0  0  0  0
  8 42  1  0  0  0  0
  9 14  1  0  0  0  0
  9 10  2  0  0  0  0
 10 11  1  0  0  0  0
 11 12  2  0  0  0  0
 11 43  1  0  0  0  0
 12 13  1  0  0  0  0
 13 17  1  0  0  0  0
 13 14  2  0  0  0  0
 14 15  1  0  0  0  0
 15 16  2  0  0  0  0
 16 17  1  0  0  0  0
 16 44  1  0  0  0  0
 17 18  1  0  0  0  0
 18 19  1  0  0  0  0
 18 45  1  0  0  0  0
 18 46  1  0  0  0  0
 19 20  1  0  0  0  0
 19 22  1  0  0  0  0
 19 47  1  0  0  0  0
 20 21  1  0  0  0  0
 20 48  1  0  0  0  0
 20 49  1  0  0  0  0
 21 50  1  0  0  0  0
 22 26  1  0  0  0  0
 22 23  1  0  0  0  0
 22 51  1  0  0  0  0
 23 24  1  0  0  0  0
 23 52  1  0  0  0  0
 23 53  1  0  0  0  0
 24 25  1  0  0  0  0
 24 54  1  0  0  0  0
 24 55  1  0  0  0  0
 25 26  1  0  0  0  0
 26 56  1  0  0  0  0
 26 57  1  0  0  0  0
 27 28  1  0  0  0  0
 27 58  1  0  0  0  0
 27 59  1  0  0  0  0
 28 29  1  0  0  0  0
 28 60  1  0  0  0  0
 29 61  1  0  0  0  0
 29 62  1  0  0  0  0
 29 63  1  0  0  0  0
M  CHG  1   3   1
M  END
> <s_m_source_file>
AV-unprocessed.smi

> <i_m_source_file_index>
249

> <i_lp_mmshare_version>
43012

> <i_f3d_flags>
0

> <s_epik_input>
W0NIM11bQ0gyXU4xW0NIMl1bQ0gyXVtDQEhdKFtDSDJdW0NASF0xW0NIM10pTihbQ0gzXSljKG5bY0hdbjIpYyhjMjMpbltjSF1uM1tDSDJdW0NASF0oW0NIMl1bT0hdKVtDQEBIXTRbQ0gyXVtDSDJdT1tDSDJdNA==

> <s_epik_cmdline>
J2VwaWtfcHl0aG9uJywgJy1waCcsICc3LjAnLCAnLXRuJywgJzgnLCAnLW1hJywgJzIwMCcsICctbWV0YWxfYmluZGluZycsICctaW1hZScsICc8aW5maWxlLm1hZT4nLCAnLW9tYWUnLCAnPG91dGZpbGUubWFlPic=

> <r_lp_tautomer_probability>
1

> <r_epik_Ionization_Penalty>
0.00294688

> <r_epik_Ionization_Penalty_Charging>
0.00169971

> <r_epik_Ionization_Penalty_Neutral>
0.00124717

> <r_epik_State_Penalty>
-0

> <r_epik_Charging_Adjusted_Penalty>
0.00169971

> <i_epik_Tot_Q>
1

> <i_epik_Tot_abs_Q>
1

> <r_epik_Metal_State_Penalty>
-0

> <b_epik_Metal_Only>
0

> <s_lp_Force_Field>
OPLS_2005

> <r_lp_Energy>
56.7452

> <b_lp_Chiralities_Consistent>
1

> <s_lp_Variant>
AV-unprocessed.smi:249-7

> <Gold.Version>
5.8.1

> <Gold.Id.Protein>
6NUR|6NUR_protein|mol2

> <Gold.PLP.Fitness>
50.8925

> <Gold.PLP.PLP>
-41.2642

> <Gold.PLP.part.hbond>
-4.0000

> <Gold.PLP.part.metal>
0.0000

> <Gold.PLP.part.buried>
-5.0218

> <Gold.PLP.part.nonpolar>
-32.1983

> <Gold.PLP.part.repulsive>
0.2066

> <Gold.PLP.ligand.clash>
0.0000

> <Gold.PLP.ligand.torsion>
1.2253

> <Gold.PLP.Chemscore.Hbond>
3.7680

> <Gold.PLP.Chemscore.CHOScore>
0.0000

> <Gold.PLP.Chemscore.Metal>
0.0000

> <Gold.Chemscore.Hbonds>
donor molecule, donor type, donor heavy atom, donor atom, acceptor molecule, acceptor atom, score
      L1  H     3    64       P1 10747  1.00
      P1  H  6896  6907       L1    12  1.00
      P1  H  6931  6943       L1    21  1.00
      P1  H  6934  6947       L1    21  0.39

> <Gold.PLP.Chemscore.Internal.Correction>
0.7750

> <Gold.Rescore>
     Score         DG    S(hbond)    S(metal)    S(lipo)     H(rot)  DE(clash)    DE(int)     intcor
     18.77     -20.20       3.06        0.00     101.90       2.90       0.02       1.42       ----

> <Gold.Chemscore.Fitness>
18.7653

> <Gold.Chemscore.DG>
-20.2001

> <Gold.Chemscore.ZeroCoef>
-5.4800

> <Gold.Chemscore.Hbond>
3.0610

> <Gold.Chemscore.Metal>
0.0000

> <Gold.Chemscore.Lipo>
101.8983

> <Gold.Chemscore.Internal_Hbond>
0.0000

> <Gold.Chemscore.DEClash>
0.0186

> <Gold.Chemscore.DEInternal>
1.4161

> <Gold.Chemscore.Rot>
2.9006

> <Gold.Chemscore.Internal.Correction>
   9.000000E+99

> <Gold.Chemscore.Hbonds>
donor molecule, donor type, donor heavy atom, donor atom, acceptor molecule, acceptor atom, score
      L1  H     3    64       P1 10747  0.99
      P1  H  6896  6907       L1    12  0.84
      P1  H  6931  6943       L1    21  0.30
      P1  H  6934  6947       L1    21  0.32

> <Gold.Chemscore.Hbond.Weighted>
-10.2236

> <Gold.Chemscore.Metal.Weighted>
-0.0000

> <Gold.Chemscore.Lipo.Weighted>
-11.9221

> <Gold.Chemscore.Internal_Hbond.Weighted>
0.0000

> <Gold.Chemscore.DEClash.Weighted>
0.0186

> <Gold.Chemscore.DEInternal.Weighted>
1.4161

> <Gold.Chemscore.Rot.Weighted>
7.4256

> <Gold.Chemscore.Internal.Correction.Weighted>
   9.000000E+99

> <Gold.Protein.RotatedTorsions>
[ 6907 6896 6895 6894 ] final  -89.91 input  -60.11 | X-H torsion
[ 7974 7965 7964 7962 ] final   54.31 input  175.53 | X-H torsion
[ 8008 7997 7996 7995 ] final  -40.04 input   59.86 | X-H torsion
[ 10167 10162 10161 10158 ] final  -75.85 input  -65.29 | X-H torsion
[ 10718 10713 10712 10709 ] final  143.69 input   66.30 | X-H torsion
[ 10763 10752 10751 10750 ] final   13.51 input  -60.55 | X-H torsion
[ 11005 11000 10999 10996 ] final  -48.75 input  -57.11 | X-H torsion

> <Gold.Protein.ActiveResidues>
 VAL166  LYS551  ARG553  GLY616  TRP617  ASP618  TYR619  PRO620  LYS621  CYS622 
 ASP623  PHE694  ASN695  SER759  ASP760  ASP761  ALA762  ILE779  LEU786  VAL792 
 PHE793  MET794  SER795  GLU796  ALA797  LYS798  CYS799  TRP800  GLU811  SER814 

> <Gold.Protein.RotatedAtoms>
  150.6877  134.2513  159.4511 H   0  0  0  0  0  0  0  0  0  0  0  0  # atno 6907 bound_to 6896
  152.0450  134.9686  160.0583 H   0  0  0  0  0  0  0  0  0  0  0  0  # atno 6908 bound_to 6896
  152.1172  133.4298  159.4695 H   0  0  0  0  0  0  0  0  0  0  0  0  # atno 6909 bound_to 6896
  145.9621  139.4069  143.0241 H   0  0  0  0  0  0  0  0  0  0  0  0  # atno 7974 bound_to 7965
  154.4016  140.1535  156.2963 H   0  0  0  0  0  0  0  0  0  0  0  0  # atno 8008 bound_to 7997
  155.8741  140.3447  155.5820 H   0  0  0  0  0  0  0  0  0  0  0  0  # atno 8009 bound_to 7997
  155.7741  140.0834  157.2083 H   0  0  0  0  0  0  0  0  0  0  0  0  # atno 8010 bound_to 7997
  140.4907  143.2381  151.7911 H   0  0  0  0  0  0  0  0  0  0  0  0  # atno 10167 bound_to 10162
  157.3660  131.0972  151.0872 H   0  0  0  0  0  0  0  0  0  0  0  0  # atno 10718 bound_to 10713
  153.1714  135.6813  153.8602 H   0  0  0  0  0  0  0  0  0  0  0  0  # atno 10763 bound_to 10752
  153.7965  135.3162  155.3386 H   0  0  0  0  0  0  0  0  0  0  0  0  # atno 10764 bound_to 10752
  154.8000  135.4783  154.0346 H   0  0  0  0  0  0  0  0  0  0  0  0  # atno 10765 bound_to 10752
  141.0719  133.6676  156.3486 H   0  0  0  0  0  0  0  0  0  0  0  0  # atno 11005 bound_to 11000
  145.8025  140.9764  143.0991 LP  0  0  0  0  0  0  0  0  0  0  0  0  # atno 17320 bound_to 7965
  144.6817  139.9819  143.7483 LP  0  0  0  0  0  0  0  0  0  0  0  0  # atno 17321 bound_to 7965
  139.4851  144.4652  151.9492 LP  0  0  0  0  0  0  0  0  0  0  0  0  # atno 17342 bound_to 10162
  140.3739  144.2821  150.5916 LP  0  0  0  0  0  0  0  0  0  0  0  0  # atno 17343 bound_to 10162
  157.1994  130.6388  149.5733 LP  0  0  0  0  0  0  0  0  0  0  0  0  # atno 17370 bound_to 10713
  155.9746  130.4696  150.6400 LP  0  0  0  0  0  0  0  0  0  0  0  0  # atno 17371 bound_to 10713
  140.5655  134.5892  157.5444 LP  0  0  0  0  0  0  0  0  0  0  0  0  # atno 17394 bound_to 11000
  139.9532  134.7580  156.0401 LP  0  0  0  0  0  0  0  0  0  0  0  0  # atno 17395 bound_to 11000

$$$$
