AV-unprocessed.smi:1101|AV-procd|sdf|4766|dock4
  -GOLD-   22720 3303D 1   1.00000     0.00000
 Structure written by MMmdl.
 41 42  0  0  0  0  0  0  0  0  1 V2000
  147.7465  139.9933  153.3659 C   0  0  0  0  0  0  0  0  0  0  0  0
  148.9966  140.6446  153.9700 C   0  0  0  0  0  0  0  0  0  0  0  0
  149.9147  139.6373  154.6799 C   0  0  1  0  0  0  0  0  0  0  0  0
  150.2482  138.4261  153.7843 C   0  0  0  0  0  0  0  0  0  0  0  0
  151.1563  137.5386  154.5252 N   0  0  0  0  0  0  0  0  0  0  0  0
  150.8587  136.3208  155.0432 C   0  0  0  0  0  0  0  0  0  0  0  0
  151.5354  135.7757  155.9164 O   0  0  0  0  0  0  0  0  0  0  0  0
  149.7767  135.7310  154.5072 N   0  0  0  0  0  0  0  0  0  0  0  0
  149.2568  134.4214  154.8833 C   0  0  0  0  0  0  0  0  0  0  0  0
  149.7972  133.3124  153.9660 C   0  0  0  0  0  0  0  0  0  0  0  0
  148.7069  132.7195  153.1187 C   0  0  0  0  0  0  0  0  0  0  0  0
  147.9207  133.3686  152.1242 C   0  0  0  0  0  0  0  0  0  0  0  0
  147.0416  132.5602  151.5545 N   0  0  0  0  0  0  0  0  0  0  0  0
  147.2347  131.3717  152.1630 N   0  0  0  0  0  0  0  0  0  0  0  0
  146.4265  130.2342  151.7793 C   0  0  0  0  0  0  0  0  0  0  0  0
  148.2320  131.4381  153.1121 C   0  0  0  0  0  0  0  0  0  0  0  0
  152.4016  138.2436  154.8388 C   0  0  0  0  0  0  0  0  0  0  0  0
  152.0591  139.4609  155.7150 C   0  0  0  0  0  0  0  0  0  0  0  0
  151.1320  140.2979  155.0275 O   0  0  0  0  0  0  0  0  0  0  0  0
  147.1314  140.7346  152.8553 H   0  0  0  0  0  0  0  0  0  0  0  0
  147.1316  139.5266  154.1359 H   0  0  0  0  0  0  0  0  0  0  0  0
  148.0146  139.2260  152.6393 H   0  0  0  0  0  0  0  0  0  0  0  0
  149.5516  141.1390  153.1718 H   0  0  0  0  0  0  0  0  0  0  0  0
  148.6992  141.4283  154.6677 H   0  0  0  0  0  0  0  0  0  0  0  0
  149.4219  139.2899  155.5901 H   0  0  0  0  0  0  0  0  0  0  0  0
  149.3273  137.9425  153.4588 H   0  0  0  0  0  0  0  0  0  0  0  0
  150.7423  138.7592  152.8701 H   0  0  0  0  0  0  0  0  0  0  0  0
  149.2764  136.2295  153.7858 H   0  0  0  0  0  0  0  0  0  0  0  0
  149.5516  134.2263  155.9147 H   0  0  0  0  0  0  0  0  0  0  0  0
  148.1655  134.4343  154.8693 H   0  0  0  0  0  0  0  0  0  0  0  0
  150.5891  133.7147  153.3331 H   0  0  0  0  0  0  0  0  0  0  0  0
  150.2693  132.5405  154.5747 H   0  0  0  0  0  0  0  0  0  0  0  0
  147.9640  134.3984  151.8013 H   0  0  0  0  0  0  0  0  0  0  0  0
  146.7766  129.3370  152.2905 H   0  0  0  0  0  0  0  0  0  0  0  0
  146.4952  130.0770  150.7025 H   0  0  0  0  0  0  0  0  0  0  0  0
  145.3857  130.4138  152.0504 H   0  0  0  0  0  0  0  0  0  0  0  0
  148.5204  130.5775  153.6978 H   0  0  0  0  0  0  0  0  0  0  0  0
  153.1315  137.6121  155.3473 H   0  0  0  0  0  0  0  0  0  0  0  0
  152.8787  138.5680  153.9129 H   0  0  0  0  0  0  0  0  0  0  0  0
  151.6398  139.1467  156.6722 H   0  0  0  0  0  0  0  0  0  0  0  0
  152.9593  140.0355  155.9329 H   0  0  0  0  0  0  0  0  0  0  0  0
  1  2  1  0  0  0  0
  1 20  1  0  0  0  0
  1 21  1  0  0  0  0
  1 22  1  0  0  0  0
  2  3  1  0  0  0  0
  2 23  1  0  0  0  0
  2 24  1  0  0  0  0
  3 19  1  0  0  0  0
  3  4  1  0  0  0  0
  3 25  1  0  0  0  0
  4  5  1  0  0  0  0
  4 26  1  0  0  0  0
  4 27  1  0  0  0  0
  5  6  1  0  0  0  0
  5 17  1  0  0  0  0
  6  7  2  0  0  0  0
  6  8  1  0  0  0  0
  8  9  1  0  0  0  0
  8 28  1  0  0  0  0
  9 10  1  0  0  0  0
  9 29  1  0  0  0  0
  9 30  1  0  0  0  0
 10 11  1  0  0  0  0
 10 31  1  0  0  0  0
 10 32  1  0  0  0  0
 11 16  2  0  0  0  0
 11 12  1  0  0  0  0
 12 13  2  0  0  0  0
 12 33  1  0  0  0  0
 13 14  1  0  0  0  0
 14 15  1  0  0  0  0
 14 16  1  0  0  0  0
 15 34  1  0  0  0  0
 15 35  1  0  0  0  0
 15 36  1  0  0  0  0
 16 37  1  0  0  0  0
 17 18  1  0  0  0  0
 17 38  1  0  0  0  0
 17 39  1  0  0  0  0
 18 19  1  0  0  0  0
 18 40  1  0  0  0  0
 18 41  1  0  0  0  0
M  END
> <s_m_source_file>
AV-unprocessed.smi

> <i_m_source_file_index>
1101

> <i_lp_mmshare_version>
43012

> <i_f3d_flags>
0

> <s_epik_input>
W0NIM11bQ0gyXVtDQEBIXTFbQ0gyXU4oW0NIMl1bQ0gyXU8xKUMoPU8pW05IXVtDSDJdW0NIMl1jMltjSF1ubihbQ0gzXSlbY0hdMg==

> <s_epik_cmdline>
J2VwaWtfcHl0aG9uJywgJy1waCcsICc3LjAnLCAnLXRuJywgJzgnLCAnLW1hJywgJzIwMCcsICctbWV0YWxfYmluZGluZycsICctaW1hZScsICc8aW5maWxlLm1hZT4nLCAnLW9tYWUnLCAnPG91dGZpbGUubWFlPic=

> <r_lp_tautomer_probability>
1

> <r_epik_Ionization_Penalty>
0.000536373

> <r_epik_Ionization_Penalty_Charging>
0

> <r_epik_Ionization_Penalty_Neutral>
0.000536373

> <r_epik_State_Penalty>
-0

> <r_epik_Charging_Adjusted_Penalty>
0

> <i_epik_Tot_Q>
0

> <i_epik_Tot_abs_Q>
0

> <r_epik_Metal_State_Penalty>
-0

> <b_epik_Metal_Only>
0

> <s_lp_Force_Field>
OPLS_2005

> <r_lp_Energy>
24.031

> <b_lp_Chiralities_Consistent>
1

> <s_lp_Variant>
AV-unprocessed.smi:1101-2

> <Gold.Version>
5.8.1

> <Gold.Id.Protein>
6NUR|6NUR_protein|mol2

> <Gold.PLP.Fitness>
47.8279

> <Gold.PLP.PLP>
-38.5146

> <Gold.PLP.part.hbond>
-3.0000

> <Gold.PLP.part.metal>
0.0000

> <Gold.PLP.part.buried>
-1.6708

> <Gold.PLP.part.nonpolar>
-35.0676

> <Gold.PLP.part.repulsive>
0.2710

> <Gold.PLP.ligand.clash>
0.0000

> <Gold.PLP.ligand.torsion>
0.6834

> <Gold.PLP.Chemscore.Hbond>
2.5440

> <Gold.PLP.Chemscore.CHOScore>
1.0000

> <Gold.PLP.Chemscore.Metal>
0.0000

> <Gold.Chemscore.Hbonds>
donor molecule, donor type, donor heavy atom, donor atom, acceptor molecule, acceptor atom, score
      L1  H     8    28       P1  7948  0.82
      P1  H  7989  7998       L1    19  1.00
      P1  H 10752 10765       L1     7  0.90
      L1  C    12    33       P1  7948  0.67

> <Gold.PLP.Chemscore.Internal.Correction>
0.0481

> <Gold.Rescore>
     Score         DG    S(hbond)    S(metal)    S(lipo)     H(rot)  DE(clash)    DE(int)     intcor
     16.07     -17.44       1.89        0.00      81.12       1.51       0.55       0.83       ----

> <Gold.Chemscore.Fitness>
16.0679

> <Gold.Chemscore.DG>
-17.4440

> <Gold.Chemscore.ZeroCoef>
-5.4800

> <Gold.Chemscore.Hbond>
1.8950

> <Gold.Chemscore.Metal>
0.0000

> <Gold.Chemscore.Lipo>
81.1172

> <Gold.Chemscore.Internal_Hbond>
0.0000

> <Gold.Chemscore.DEClash>
0.5472

> <Gold.Chemscore.DEInternal>
0.8289

> <Gold.Chemscore.Rot>
1.5062

> <Gold.Chemscore.Internal.Correction>
   9.000000E+99

> <Gold.Chemscore.Hbonds>
donor molecule, donor type, donor heavy atom, donor atom, acceptor molecule, acceptor atom, score
      L1  H     8    28       P1  7948  0.71
      P1  H  7989  7998       L1    19  0.27
      P1  H 10752 10765       L1     7  0.18

> <Gold.Chemscore.Hbond.Weighted>
-6.3292

> <Gold.Chemscore.Metal.Weighted>
-0.0000

> <Gold.Chemscore.Lipo.Weighted>
-9.4907

> <Gold.Chemscore.Internal_Hbond.Weighted>
0.0000

> <Gold.Chemscore.DEClash.Weighted>
0.5472

> <Gold.Chemscore.DEInternal.Weighted>
0.8289

> <Gold.Chemscore.Rot.Weighted>
3.8558

> <Gold.Chemscore.Internal.Correction.Weighted>
   9.000000E+99

> <Gold.Protein.RotatedTorsions>
[ 6907 6896 6895 6894 ] final  115.21 input  -60.11 | X-H torsion
[ 7974 7965 7964 7962 ] final   87.90 input  175.53 | X-H torsion
[ 8008 7997 7996 7995 ] final  -62.69 input   59.86 | X-H torsion
[ 10167 10162 10161 10158 ] final   17.52 input  -65.29 | X-H torsion
[ 10718 10713 10712 10709 ] final   88.00 input   66.30 | X-H torsion
[ 10763 10752 10751 10750 ] final -158.67 input  -60.55 | X-H torsion
[ 11005 11000 10999 10996 ] final   34.83 input  -57.11 | X-H torsion

> <Gold.Protein.ActiveResidues>
 VAL166  LYS551  ARG553  GLY616  TRP617  ASP618  TYR619  PRO620  LYS621  CYS622 
 ASP623  PHE694  ASN695  SER759  ASP760  ASP761  ALA762  ILE779  LEU786  VAL792 
 PHE793  MET794  SER795  GLU796  ALA797  LYS798  CYS799  TRP800  GLU811  SER814 

> <Gold.Protein.RotatedAtoms>
  152.4756  133.8130  159.7013 H   0  0  0  0  0  0  0  0  0  0  0  0  # atno 6907 bound_to 6896
  150.8770  133.7415  159.2950 H   0  0  0  0  0  0  0  0  0  0  0  0  # atno 6908 bound_to 6896
  151.4931  135.1062  159.9861 H   0  0  0  0  0  0  0  0  0  0  0  0  # atno 6909 bound_to 6896
  145.5528  139.2297  143.2503 H   0  0  0  0  0  0  0  0  0  0  0  0  # atno 7974 bound_to 7965
  154.4513  140.0991  156.6626 H   0  0  0  0  0  0  0  0  0  0  0  0  # atno 8008 bound_to 7997
  155.5276  140.3480  155.4401 H   0  0  0  0  0  0  0  0  0  0  0  0  # atno 8009 bound_to 7997
  156.0687  140.1344  156.9844 H   0  0  0  0  0  0  0  0  0  0  0  0  # atno 8010 bound_to 7997
  140.5720  143.9144  150.6720 H   0  0  0  0  0  0  0  0  0  0  0  0  # atno 10167 bound_to 10162
  157.6945  131.0277  150.3208 H   0  0  0  0  0  0  0  0  0  0  0  0  # atno 10718 bound_to 10713
  154.7538  135.3099  154.8509 H   0  0  0  0  0  0  0  0  0  0  0  0  # atno 10763 bound_to 10752
  153.9289  135.6787  153.4750 H   0  0  0  0  0  0  0  0  0  0  0  0  # atno 10764 bound_to 10752
  153.1134  135.4856  154.9003 H   0  0  0  0  0  0  0  0  0  0  0  0  # atno 10765 bound_to 10752
  140.2489  134.3327  155.7898 H   0  0  0  0  0  0  0  0  0  0  0  0  # atno 11005 bound_to 11000
  146.1905  140.6351  142.9148 LP  0  0  0  0  0  0  0  0  0  0  0  0  # atno 17320 bound_to 7965
  144.7521  140.5217  143.6794 LP  0  0  0  0  0  0  0  0  0  0  0  0  # atno 17321 bound_to 7965
  140.2621  143.3516  152.1313 LP  0  0  0  0  0  0  0  0  0  0  0  0  # atno 17342 bound_to 10162
  139.5122  144.6913  151.5751 LP  0  0  0  0  0  0  0  0  0  0  0  0  # atno 17343 bound_to 10162
  156.3696  130.3861  149.7186 LP  0  0  0  0  0  0  0  0  0  0  0  0  # atno 17370 bound_to 10713
  156.4605  130.7949  151.2970 LP  0  0  0  0  0  0  0  0  0  0  0  0  # atno 17371 bound_to 10713
  141.2203  133.7342  156.9004 LP  0  0  0  0  0  0  0  0  0  0  0  0  # atno 17394 bound_to 11000
  140.1578  134.9186  157.2676 LP  0  0  0  0  0  0  0  0  0  0  0  0  # atno 17395 bound_to 11000

$$$$
