AV-unprocessed.smi:2079|AV-procd|sdf|8486|dock2
  -GOLD-   2272011193D 1   1.00000     0.00000
 Structure written by MMmdl.
 41 42  0  0  0  0  0  0  0  0  3 V2000
  147.0566  139.7097  152.8440 C   0  0  0  0  0  0  0  0  0  0  0  0
  148.1248  140.2317  153.7422 C   0  0  0  0  0  0  0  0  0  0  0  0
  149.0175  139.6216  154.5775 C   0  0  0  0  0  0  0  0  0  0  0  0
  149.7436  140.7127  155.1246 C   0  0  0  0  0  0  0  0  0  0  0  0
  150.7866  140.4909  156.0623 N   0  0  0  0  0  0  0  0  0  0  0  0
  151.7345  139.5360  156.0577 C   0  0  0  0  0  0  0  0  0  0  0  0
  151.7694  138.6941  155.1521 O   0  0  0  0  0  0  0  0  0  0  0  0
  152.5805  139.6428  157.1199 N   0  5  0  0  0  0  0  0  0  0  0  0
  152.2537  140.3033  158.3827 C   0  0  0  0  0  0  0  0  0  0  0  0
  152.7178  141.7739  158.3556 C   0  0  0  0  0  0  0  0  0  0  0  0
  152.2482  142.5108  159.5635 N   0  3  1  0  0  0  0  0  0  0  0  0
  152.9557  142.0383  160.7878 C   0  0  0  0  0  0  0  0  0  0  0  0
  152.3900  142.6736  162.0638 C   0  0  0  0  0  0  0  0  0  0  0  0
  152.4725  144.1976  161.9766 C   0  0  0  0  0  0  0  0  0  0  0  0
  151.7294  144.6733  160.7255 C   0  0  0  0  0  0  0  0  0  0  0  0
  152.2583  144.0053  159.4358 C   0  0  2  0  0  0  0  0  0  0  0  0
  151.4129  144.5098  158.2467 C   0  0  0  0  0  0  0  0  0  0  0  0
  149.3293  141.8839  154.6642 N   0  0  0  0  0  0  0  0  0  0  0  0
  148.2908  141.5814  153.7757 O   0  0  0  0  0  0  0  0  0  0  0  0
  146.7689  138.6976  153.1292 H   0  0  0  0  0  0  0  0  0  0  0  0
  147.4009  139.6855  151.8102 H   0  0  0  0  0  0  0  0  0  0  0  0
  146.1675  140.3387  152.8910 H   0  0  0  0  0  0  0  0  0  0  0  0
  149.1321  138.5647  154.7655 H   0  0  0  0  0  0  0  0  0  0  0  0
  150.8206  141.1366  156.8369 H   0  0  0  0  0  0  0  0  0  0  0  0
  151.1797  140.2797  158.5693 H   0  0  0  0  0  0  0  0  0  0  0  0
  152.7058  139.8011  159.2391 H   0  0  0  0  0  0  0  0  0  0  0  0
  153.8075  141.8043  158.2999 H   0  0  0  0  0  0  0  0  0  0  0  0
  152.3867  142.2599  157.4384 H   0  0  0  0  0  0  0  0  0  0  0  0
  152.8677  140.9532  160.8629 H   0  0  0  0  0  0  0  0  0  0  0  0
  154.0199  142.2642  160.7013 H   0  0  0  0  0  0  0  0  0  0  0  0
  151.3539  142.3627  162.2053 H   0  0  0  0  0  0  0  0  0  0  0  0
  152.9437  142.3195  162.9338 H   0  0  0  0  0  0  0  0  0  0  0  0
  152.0393  144.6512  162.8687 H   0  0  0  0  0  0  0  0  0  0  0  0
  153.5153  144.5151  161.9356 H   0  0  0  0  0  0  0  0  0  0  0  0
  150.6655  144.4596  160.8399 H   0  0  0  0  0  0  0  0  0  0  0  0
  151.8156  145.7578  160.6464 H   0  0  0  0  0  0  0  0  0  0  0  0
  153.2921  144.3201  159.2834 H   0  0  0  0  0  0  0  0  0  0  0  0
  151.3841  145.5996  158.2265 H   0  0  0  0  0  0  0  0  0  0  0  0
  150.3834  144.1571  158.3159 H   0  0  0  0  0  0  0  0  0  0  0  0
  151.8073  144.1949  157.2817 H   0  0  0  0  0  0  0  0  0  0  0  0
  151.2802  142.2469  159.6798 H   0  0  0  0  0  0  0  0  0  0  0  0
  1  2  1  0  0  0  0
  1 20  1  0  0  0  0
  1 21  1  0  0  0  0
  1 22  1  0  0  0  0
  2 19  1  0  0  0  0
  2  3  2  0  0  0  0
  3  4  1  0  0  0  0
  3 23  1  0  0  0  0
  4  5  1  0  0  0  0
  4 18  2  0  0  0  0
  5  6  1  0  0  0  0
  5 24  1  0  0  0  0
  6  7  2  0  0  0  0
  6  8  1  0  0  0  0
  8  9  1  0  0  0  0
  9 10  1  0  0  0  0
  9 25  1  0  0  0  0
  9 26  1  0  0  0  0
 10 11  1  0  0  0  0
 10 27  1  0  0  0  0
 10 28  1  0  0  0  0
 11 16  1  0  0  0  0
 11 12  1  0  0  0  0
 11 41  1  0  0  0  0
 12 13  1  0  0  0  0
 12 29  1  0  0  0  0
 12 30  1  0  0  0  0
 13 14  1  0  0  0  0
 13 31  1  0  0  0  0
 13 32  1  0  0  0  0
 14 15  1  0  0  0  0
 14 33  1  0  0  0  0
 14 34  1  0  0  0  0
 15 16  1  0  0  0  0
 15 35  1  0  0  0  0
 15 36  1  0  0  0  0
 16 17  1  0  0  0  0
 16 37  1  0  0  0  0
 17 38  1  0  0  0  0
 17 39  1  0  0  0  0
 17 40  1  0  0  0  0
 18 19  1  0  0  0  0
M  CHG  1   8  -1
M  CHG  1  11   1
M  END
> <s_m_source_file>
AV-unprocessed.smi

> <i_m_source_file_index>
2079

> <i_lp_mmshare_version>
43012

> <i_f3d_flags>
0

> <s_epik_input>
W0NIM11jMVtjSF1jKG5vMSlbTkhdQyg9TylbTkhdW0NIMl1bQ0gyXU4yW0NIMl1bQ0gyXVtDSDJdW0NIMl1bQ0BIXTJbQ0gzXQ==

> <s_epik_cmdline>
J2VwaWtfcHl0aG9uJywgJy1waCcsICc3LjAnLCAnLXRuJywgJzgnLCAnLW1hJywgJzIwMCcsICctbWV0YWxfYmluZGluZycsICctaW1hZScsICc8aW5maWxlLm1hZT4nLCAnLW9tYWUnLCAnPG91dGZpbGUubWFlPic=

> <r_epik_Ionization_Penalty>
6.7666

> <r_epik_Ionization_Penalty_Charging>
6.7666

> <r_epik_Ionization_Penalty_Neutral>
5.77131e-06

> <r_epik_State_Penalty>
6.79217

> <r_epik_Charging_Adjusted_Penalty>
13.5588

> <i_epik_Tot_Q>
0

> <i_epik_Tot_abs_Q>
2

> <r_epik_Metal_State_Penalty>
2.72569

> <b_epik_Metal_Only>
1

> <s_lp_Force_Field>
OPLS_2005

> <r_lp_Energy>
14.3166

> <b_lp_Chiralities_Consistent>
1

> <s_lp_Variant>
AV-unprocessed.smi:2079-12

> <Gold.Version>
5.8.1

> <Gold.Id.Protein>
6NUR|6NUR_protein|mol2

> <Gold.PLP.Fitness>
42.9587

> <Gold.PLP.PLP>
-38.2163

> <Gold.PLP.part.hbond>
-3.3362

> <Gold.PLP.part.metal>
0.0000

> <Gold.PLP.part.buried>
-2.6844

> <Gold.PLP.part.nonpolar>
-32.4760

> <Gold.PLP.part.repulsive>
1.7657

> <Gold.PLP.ligand.clash>
0.0000

> <Gold.PLP.ligand.torsion>
0.7399

> <Gold.PLP.Chemscore.Hbond>
2.0560

> <Gold.PLP.Chemscore.CHOScore>
0.0000

> <Gold.PLP.Chemscore.Metal>
0.0000

> <Gold.Chemscore.Hbonds>
donor molecule, donor type, donor heavy atom, donor atom, acceptor molecule, acceptor atom, score
      P1  H  7997  8009       L1     8  2.00
      P1  H  8011  8017       L1    19  0.02

> <Gold.PLP.Chemscore.Internal.Correction>
0.0544

> <Gold.Rescore>
     Score         DG    S(hbond)    S(metal)    S(lipo)     H(rot)  DE(clash)    DE(int)     intcor
     14.06     -16.14       0.65        0.00     106.21       1.54       0.20       1.88       ----

> <Gold.Chemscore.Fitness>
14.0550

> <Gold.Chemscore.DG>
-16.1357

> <Gold.Chemscore.ZeroCoef>
-5.4800

> <Gold.Chemscore.Hbond>
0.6508

> <Gold.Chemscore.Metal>
0.0000

> <Gold.Chemscore.Lipo>
106.2095

> <Gold.Chemscore.Internal_Hbond>
0.0000

> <Gold.Chemscore.DEClash>
0.2023

> <Gold.Chemscore.DEInternal>
1.8783

> <Gold.Chemscore.Rot>
1.5409

> <Gold.Chemscore.Internal.Correction>
   9.000000E+99

> <Gold.Chemscore.Hbonds>
donor molecule, donor type, donor heavy atom, donor atom, acceptor molecule, acceptor atom, score
      P1  H  7997  8009       L1     8  0.61

> <Gold.Chemscore.Hbond.Weighted>
-2.1738

> <Gold.Chemscore.Metal.Weighted>
-0.0000

> <Gold.Chemscore.Lipo.Weighted>
-12.4265

> <Gold.Chemscore.Internal_Hbond.Weighted>
0.0000

> <Gold.Chemscore.DEClash.Weighted>
0.2023

> <Gold.Chemscore.DEInternal.Weighted>
1.8783

> <Gold.Chemscore.Rot.Weighted>
3.9446

> <Gold.Chemscore.Internal.Correction.Weighted>
   9.000000E+99

> <Gold.Protein.RotatedTorsions>
[ 6907 6896 6895 6894 ] final -163.35 input  -60.11 | X-H torsion
[ 7974 7965 7964 7962 ] final    5.99 input  175.53 | X-H torsion
[ 8008 7997 7996 7995 ] final -173.38 input   59.86 | X-H torsion
[ 10167 10162 10161 10158 ] final  135.77 input  -65.29 | X-H torsion
[ 10718 10713 10712 10709 ] final  149.56 input   66.30 | X-H torsion
[ 10763 10752 10751 10750 ] final  -40.37 input  -60.55 | X-H torsion
[ 11005 11000 10999 10996 ] final  -63.04 input  -57.11 | X-H torsion

> <Gold.Protein.ActiveResidues>
 VAL166  LYS551  ARG553  GLY616  TRP617  ASP618  TYR619  PRO620  LYS621  CYS622 
 ASP623  PHE694  ASN695  SER759  ASP760  ASP761  ALA762  ILE779  LEU786  VAL792 
 PHE793  MET794  SER795  GLU796  ALA797  LYS798  CYS799  TRP800  GLU811  SER814 

> <Gold.Protein.RotatedAtoms>
  151.3946  133.3777  159.2724 H   0  0  0  0  0  0  0  0  0  0  0  0  # atno 6907 bound_to 6896
  150.9479  134.8883  159.7664 H   0  0  0  0  0  0  0  0  0  0  0  0  # atno 6908 bound_to 6896
  152.5099  134.3900  159.9433 H   0  0  0  0  0  0  0  0  0  0  0  0  # atno 6909 bound_to 6896
  146.2437  140.0300  142.8390 H   0  0  0  0  0  0  0  0  0  0  0  0  # atno 7974 bound_to 7965
  155.9567  140.1136  157.0931 H   0  0  0  0  0  0  0  0  0  0  0  0  # atno 8008 bound_to 7997
  154.4122  140.1190  156.5191 H   0  0  0  0  0  0  0  0  0  0  0  0  # atno 8009 bound_to 7997
  155.6773  140.3473  155.4843 H   0  0  0  0  0  0  0  0  0  0  0  0  # atno 8010 bound_to 7997
  139.5205  144.6500  151.5330 H   0  0  0  0  0  0  0  0  0  0  0  0  # atno 10167 bound_to 10162
  157.2946  131.0859  151.1436 H   0  0  0  0  0  0  0  0  0  0  0  0  # atno 10718 bound_to 10713
  153.9447  135.6757  153.4744 H   0  0  0  0  0  0  0  0  0  0  0  0  # atno 10763 bound_to 10752
  153.0914  135.4873  154.8693 H   0  0  0  0  0  0  0  0  0  0  0  0  # atno 10764 bound_to 10752
  154.7358  135.3149  154.8773 H   0  0  0  0  0  0  0  0  0  0  0  0  # atno 10765 bound_to 10752
  141.1380  133.6647  156.5620 H   0  0  0  0  0  0  0  0  0  0  0  0  # atno 11005 bound_to 11000
  145.1163  140.9436  143.4626 LP  0  0  0  0  0  0  0  0  0  0  0  0  # atno 17320 bound_to 7965
  145.0525  139.3170  143.5921 LP  0  0  0  0  0  0  0  0  0  0  0  0  # atno 17321 bound_to 7965
  140.6301  143.9093  150.6598 LP  0  0  0  0  0  0  0  0  0  0  0  0  # atno 17342 bound_to 10162
  140.2395  143.3675  152.1499 LP  0  0  0  0  0  0  0  0  0  0  0  0  # atno 17343 bound_to 10162
  157.2819  130.6754  149.6070 LP  0  0  0  0  0  0  0  0  0  0  0  0  # atno 17370 bound_to 10713
  155.9668  130.4447  150.5472 LP  0  0  0  0  0  0  0  0  0  0  0  0  # atno 17371 bound_to 10713
  140.3980  134.7381  157.4763 LP  0  0  0  0  0  0  0  0  0  0  0  0  # atno 17394 bound_to 11000
  140.0517  134.6122  155.8854 LP  0  0  0  0  0  0  0  0  0  0  0  0  # atno 17395 bound_to 11000

$$$$
