AV-unprocessed.smi:2511|AV-procd|sdf|9887|dock7
  -GOLD-   2272013523D 1   1.00000     0.00000
 Structure written by MMmdl.
 40 41  0  0  0  0  0  0  0  0  1 V2000
  142.5688  132.4453  150.0702 N   0  0  0  0  0  0  0  0  0  0  0  0
  143.8562  132.7163  150.3104 C   0  0  0  0  0  0  0  0  0  0  0  0
  144.7554  131.9268  150.0253 O   0  0  0  0  0  0  0  0  0  0  0  0
  144.1548  134.0648  150.9094 C   0  0  0  0  0  0  0  0  0  0  0  0
  143.1980  134.6956  151.7369 C   0  0  0  0  0  0  0  0  0  0  0  0
  143.4895  135.9608  152.2817 C   0  0  0  0  0  0  0  0  0  0  0  0
  144.7350  136.5624  151.9857 C   0  0  0  0  0  0  0  0  0  0  0  0
  145.1447  137.8383  152.4575 N   0  0  0  0  0  0  0  0  0  0  0  0
  146.3862  138.2757  152.7474 C   0  0  0  0  0  0  0  0  0  0  0  0
  147.4073  137.5978  152.6577 O   0  0  0  0  0  0  0  0  0  0  0  0
  146.4405  139.5625  153.1378 N   0  0  0  0  0  0  0  0  0  0  0  0
  147.6136  140.3505  153.5234 C   0  0  1  0  0  0  0  0  0  0  0  0
  147.1689  141.5218  154.4175 C   0  0  0  0  0  0  0  0  0  0  0  0
  148.3722  142.3454  154.8998 C   0  0  0  0  0  0  0  0  0  0  0  0
  149.3989  141.4614  155.6246 C   0  0  0  0  0  0  0  0  0  0  0  0
  149.8657  140.2881  154.7377 C   0  0  1  0  0  0  0  0  0  0  0  0
  150.9110  139.4044  155.4493 C   0  0  0  0  0  0  0  0  0  0  0  0
  151.4215  138.5029  154.6098 F   0  0  0  0  0  0  0  0  0  0  0  0
  151.9010  140.1607  155.9239 F   0  0  0  0  0  0  0  0  0  0  0  0
  150.3469  138.7672  156.4755 F   0  0  0  0  0  0  0  0  0  0  0  0
  148.6480  139.4697  154.2573 C   0  0  0  0  0  0  0  0  0  0  0  0
  145.6137  135.8626  151.1344 C   0  0  0  0  0  0  0  0  0  0  0  0
  145.3408  134.6491  150.6110 N   0  0  0  0  0  0  0  0  0  0  0  0
  142.3065  131.5559  149.6716 H   0  0  0  0  0  0  0  0  0  0  0  0
  141.8662  133.1357  150.2934 H   0  0  0  0  0  0  0  0  0  0  0  0
  142.2510  134.2236  151.9554 H   0  0  0  0  0  0  0  0  0  0  0  0
  142.7492  136.4437  152.8998 H   0  0  0  0  0  0  0  0  0  0  0  0
  144.4123  138.5305  152.5169 H   0  0  0  0  0  0  0  0  0  0  0  0
  145.5589  140.0546  153.1668 H   0  0  0  0  0  0  0  0  0  0  0  0
  148.0750  140.7757  152.6302 H   0  0  0  0  0  0  0  0  0  0  0  0
  146.4781  142.1671  153.8730 H   0  0  0  0  0  0  0  0  0  0  0  0
  146.6216  141.1426  155.2820 H   0  0  0  0  0  0  0  0  0  0  0  0
  148.8465  142.8340  154.0479 H   0  0  0  0  0  0  0  0  0  0  0  0
  148.0342  143.1415  155.5640 H   0  0  0  0  0  0  0  0  0  0  0  0
  150.2529  142.0705  155.9220 H   0  0  0  0  0  0  0  0  0  0  0  0
  148.9598  141.0773  156.5460 H   0  0  0  0  0  0  0  0  0  0  0  0
  150.3471  140.7121  153.8547 H   0  0  0  0  0  0  0  0  0  0  0  0
  148.1740  138.9841  155.1116 H   0  0  0  0  0  0  0  0  0  0  0  0
  148.9845  138.6679  153.5999 H   0  0  0  0  0  0  0  0  0  0  0  0
  146.5706  136.2870  150.8669 H   0  0  0  0  0  0  0  0  0  0  0  0
  1  2  1  0  0  0  0
  1 24  1  0  0  0  0
  1 25  1  0  0  0  0
  2  3  2  0  0  0  0
  2  4  1  0  0  0  0
  4 23  1  0  0  0  0
  4  5  2  0  0  0  0
  5  6  1  0  0  0  0
  5 26  1  0  0  0  0
  6  7  2  0  0  0  0
  6 27  1  0  0  0  0
  7  8  1  0  0  0  0
  7 22  1  0  0  0  0
  8  9  1  0  0  0  0
  8 28  1  0  0  0  0
  9 10  2  0  0  0  0
  9 11  1  0  0  0  0
 11 12  1  0  0  0  0
 11 29  1  0  0  0  0
 12 21  1  0  0  0  0
 12 13  1  0  0  0  0
 12 30  1  0  0  0  0
 13 14  1  0  0  0  0
 13 31  1  0  0  0  0
 13 32  1  0  0  0  0
 14 15  1  0  0  0  0
 14 33  1  0  0  0  0
 14 34  1  0  0  0  0
 15 16  1  0  0  0  0
 15 35  1  0  0  0  0
 15 36  1  0  0  0  0
 16 17  1  0  0  0  0
 16 21  1  0  0  0  0
 16 37  1  0  0  0  0
 17 18  1  0  0  0  0
 17 19  1  0  0  0  0
 17 20  1  0  0  0  0
 21 38  1  0  0  0  0
 21 39  1  0  0  0  0
 22 23  2  0  0  0  0
 22 40  1  0  0  0  0
M  END
> <s_m_source_file>
AV-unprocessed.smi

> <i_m_source_file_index>
2511

> <i_lp_mmshare_version>
43012

> <i_f3d_flags>
0

> <s_epik_input>
W05IMl1DKD1PKWMxW2NIXVtjSF1jKFtjSF1uMSlbTkhdQyg9TylbTkhdW0NAQEhdMltDSDJdW0NIMl1bQ0gyXVtDQEBIXShDKEYpKEYpRilbQ0gyXTI=

> <s_epik_cmdline>
J2VwaWtfcHl0aG9uJywgJy1waCcsICc3LjAnLCAnLXRuJywgJzgnLCAnLW1hJywgJzIwMCcsICctbWV0YWxfYmluZGluZycsICctaW1hZScsICc8aW5maWxlLm1hZT4nLCAnLW9tYWUnLCAnPG91dGZpbGUubWFlPic=

> <r_lp_tautomer_probability>
1

> <r_epik_Ionization_Penalty>
4.28758e-05

> <r_epik_Ionization_Penalty_Charging>
0

> <r_epik_Ionization_Penalty_Neutral>
4.28758e-05

> <r_epik_State_Penalty>
-0

> <r_epik_Charging_Adjusted_Penalty>
0

> <i_epik_Tot_Q>
0

> <i_epik_Tot_abs_Q>
0

> <r_epik_Metal_State_Penalty>
-0

> <b_epik_Metal_Only>
0

> <s_lp_Force_Field>
OPLS_2005

> <r_lp_Energy>
28.5247

> <b_lp_Chiralities_Consistent>
1

> <s_lp_Variant>
AV-unprocessed.smi:2511-2

> <Gold.Version>
5.8.1

> <Gold.Id.Protein>
6NUR|6NUR_protein|mol2

> <Gold.PLP.Fitness>
46.2658

> <Gold.PLP.PLP>
-34.4425

> <Gold.PLP.part.hbond>
-5.0000

> <Gold.PLP.part.metal>
0.0000

> <Gold.PLP.part.buried>
0.5320

> <Gold.PLP.part.nonpolar>
-36.7475

> <Gold.PLP.part.repulsive>
6.4901

> <Gold.PLP.ligand.clash>
0.0000

> <Gold.PLP.ligand.torsion>
0.9592

> <Gold.PLP.Chemscore.Hbond>
3.5748

> <Gold.PLP.Chemscore.CHOScore>
0.9978

> <Gold.PLP.Chemscore.Metal>
0.0000

> <Gold.Chemscore.Hbonds>
donor molecule, donor type, donor heavy atom, donor atom, acceptor molecule, acceptor atom, score
      L1  H     1    24       P1 10952  0.82
      L1  H     1    25       P1 10186  0.82
      L1  H     8    28       P1 10175  0.94
      L1  H    11    29       P1 10175  0.98
      L1  C    22    40       P1  7948  0.99

> <Gold.PLP.Chemscore.Internal.Correction>
0.0241

> <Gold.Rescore>
     Score         DG    S(hbond)    S(metal)    S(lipo)     H(rot)  DE(clash)    DE(int)     intcor
     16.00     -23.65       3.63        0.00      73.47       1.00       4.22       3.43       ----

> <Gold.Chemscore.Fitness>
15.9968

> <Gold.Chemscore.DG>
-23.6473

> <Gold.Chemscore.ZeroCoef>
-5.4800

> <Gold.Chemscore.Hbond>
3.6322

> <Gold.Chemscore.Metal>
0.0000

> <Gold.Chemscore.Lipo>
73.4693

> <Gold.Chemscore.Internal_Hbond>
0.0000

> <Gold.Chemscore.DEClash>
4.2238

> <Gold.Chemscore.DEInternal>
3.4267

> <Gold.Chemscore.Rot>
1.0000

> <Gold.Chemscore.Internal.Correction>
   9.000000E+99

> <Gold.Chemscore.Hbonds>
donor molecule, donor type, donor heavy atom, donor atom, acceptor molecule, acceptor atom, score
      L1  H     1    24       P1 10952  0.79
      L1  H     1    25       P1 10186  0.81
      L1  H     8    28       P1 10175  0.88
      L1  H    11    29       P1 10175  0.88

> <Gold.Chemscore.Hbond.Weighted>
-12.1314

> <Gold.Chemscore.Metal.Weighted>
-0.0000

> <Gold.Chemscore.Lipo.Weighted>
-8.5959

> <Gold.Chemscore.Internal_Hbond.Weighted>
0.0000

> <Gold.Chemscore.DEClash.Weighted>
4.2238

> <Gold.Chemscore.DEInternal.Weighted>
3.4267

> <Gold.Chemscore.Rot.Weighted>
2.5600

> <Gold.Chemscore.Internal.Correction.Weighted>
   9.000000E+99

> <Gold.Protein.RotatedTorsions>
[ 6907 6896 6895 6894 ] final   65.53 input  -60.11 | X-H torsion
[ 7974 7965 7964 7962 ] final  -85.62 input  175.53 | X-H torsion
[ 8008 7997 7996 7995 ] final  175.88 input   59.86 | X-H torsion
[ 10167 10162 10161 10158 ] final   -9.76 input  -65.29 | X-H torsion
[ 10718 10713 10712 10709 ] final  -44.15 input   66.30 | X-H torsion
[ 10763 10752 10751 10750 ] final  -80.23 input  -60.55 | X-H torsion
[ 11005 11000 10999 10996 ] final -144.01 input  -57.11 | X-H torsion

> <Gold.Protein.ActiveResidues>
 VAL166  LYS551  ARG553  GLY616  TRP617  ASP618  TYR619  PRO620  LYS621  CYS622 
 ASP623  PHE694  ASN695  SER759  ASP760  ASP761  ALA762  ILE779  LEU786  VAL792 
 PHE793  MET794  SER795  GLU796  ALA797  LYS798  CYS799  TRP800  GLU811  SER814 

> <Gold.Protein.RotatedAtoms>
  152.4414  134.5583  159.9886 H   0  0  0  0  0  0  0  0  0  0  0  0  # atno 6907 bound_to 6896
  151.5679  133.3388  159.2992 H   0  0  0  0  0  0  0  0  0  0  0  0  # atno 6908 bound_to 6896
  150.8321  134.7612  159.6926 H   0  0  0  0  0  0  0  0  0  0  0  0  # atno 6909 bound_to 6896
  145.4908  140.9553  143.1813 H   0  0  0  0  0  0  0  0  0  0  0  0  # atno 7974 bound_to 7965
  156.0824  140.1398  156.9696 H   0  0  0  0  0  0  0  0  0  0  0  0  # atno 8008 bound_to 7997
  154.4593  140.0949  156.6896 H   0  0  0  0  0  0  0  0  0  0  0  0  # atno 8009 bound_to 7997
  155.5054  140.3452  155.4381 H   0  0  0  0  0  0  0  0  0  0  0  0  # atno 8010 bound_to 7997
  140.7096  143.5822  150.8980 H   0  0  0  0  0  0  0  0  0  0  0  0  # atno 10167 bound_to 10162
  156.2416  130.4180  149.8754 H   0  0  0  0  0  0  0  0  0  0  0  0  # atno 10718 bound_to 10713
  154.5486  135.5668  153.6902 H   0  0  0  0  0  0  0  0  0  0  0  0  # atno 10763 bound_to 10752
  152.9983  135.6245  154.2404 H   0  0  0  0  0  0  0  0  0  0  0  0  # atno 10764 bound_to 10752
  154.2338  135.2865  155.2859 H   0  0  0  0  0  0  0  0  0  0  0  0  # atno 10765 bound_to 10752
  140.8068  134.2792  157.4957 H   0  0  0  0  0  0  0  0  0  0  0  0  # atno 11005 bound_to 11000
  144.7835  139.6475  143.7144 LP  0  0  0  0  0  0  0  0  0  0  0  0  # atno 17320 bound_to 7965
  146.2285  139.5769  142.9571 LP  0  0  0  0  0  0  0  0  0  0  0  0  # atno 17321 bound_to 7965
  139.9548  143.6231  152.3019 LP  0  0  0  0  0  0  0  0  0  0  0  0  # atno 17342 bound_to 10162
  139.6762  144.7658  151.1691 LP  0  0  0  0  0  0  0  0  0  0  0  0  # atno 17343 bound_to 10162
  156.6334  130.8675  151.3500 LP  0  0  0  0  0  0  0  0  0  0  0  0  # atno 17370 bound_to 10713
  157.7177  130.9519  150.1319 LP  0  0  0  0  0  0  0  0  0  0  0  0  # atno 17371 bound_to 10713
  139.8717  134.9460  156.3927 LP  0  0  0  0  0  0  0  0  0  0  0  0  # atno 17394 bound_to 11000
  140.9239  133.7626  155.9940 LP  0  0  0  0  0  0  0  0  0  0  0  0  # atno 17395 bound_to 11000

$$$$
