#       Name:                AV-unprocessed.smi:2026
#       Creating user name   scv26
#       Creation time:       Fri Mar 27 10:46:22 2020


#       File generated by GOLD software.
#

@<TRIPOS>MOLECULE
AV-unprocessed.smi:2026
    53    55     1
SMALL
NO_CHARGES


@<TRIPOS>ATOM
      1 ****        -4.7050   3.8579   2.6026 C.3            1 S1                 0.0000
      2 ****        -3.8899   2.9513   1.6963 C.ar           1 S1                 0.0000
      3 ****        -3.4612   3.4555   0.4478 C.ar           1 S1                 0.0000
      4 ****        -2.7192   2.6020  -0.3600 C.ar           1 S1                 0.0000
      5 ****        -2.1588   2.7989  -1.6237 N.pl3          1 S1                 1.0000
      6 ****        -1.5147   1.6654  -2.0164 C.2            1 S1                 0.0000
      7 ****        -1.6569   0.7466  -1.0231 N.pl3          1 S1                 0.0000
      8 ****        -1.1487  -0.6307  -0.9449 C.3            1 S1                 0.0000
      9 ****         0.3246  -0.6948  -0.4973 C.3            1 S1                 0.0000
     10 ****         0.4339  -0.1329   0.7962 O.3            1 S1                 0.0000
     11 ****         0.8439  -2.1464  -0.4510 C.3            1 S1                 0.0000
     12 ****         2.3067  -2.2056  -0.5341 N.am           1 S1                 0.0000
     13 ****         3.1248  -2.2826   0.5303 C.2            1 S1                 0.0000
     14 ****         2.7862  -2.3349   1.7117 O.2            1 S1                 0.0000
     15 ****         4.3895  -2.2889   0.0887 N.am           1 S1                 0.0000
     16 ****         4.4842  -2.2070  -1.3566 C.3            1 S1                 0.0000
     17 ****         5.2037  -0.9162  -1.7871 C.3            1 S1                 0.0000
     18 ****         5.1497  -3.4677  -1.9370 C.3            1 S1                 0.0000
     19 ****         2.9989  -2.1541  -1.6801 C.2            1 S1                 0.0000
     20 ****         2.5431  -2.0666  -2.8206 O.2            1 S1                 0.0000
     21 ****        -2.4005   1.2873   0.0330 C.ar           1 S1                 0.0000
     22 ****        -2.8132   0.7766   1.2620 C.ar           1 S1                 0.0000
     23 ****        -3.5676   1.6294   2.0992 C.ar           1 S1                 0.0000
     24 ****        -4.0278   1.0994   3.4466 C.3            1 S1                 0.0000
     25 ****        -4.9081   4.8182   2.1278 H              1 S1                 0.0000
     26 ****        -4.1685   4.0517   3.5317 H              1 S1                 0.0000
     27 ****        -5.6634   3.3980   2.8445 H              1 S1                 0.0000
     28 ****        -3.7000   4.4617   0.1355 H              1 S1                 0.0000
     29 ****        -0.9841   1.5220  -2.9467 H              1 S1                 0.0000
     30 ****        -1.7907  -1.2226  -0.2923 H              1 S1                 0.0000
     31 ****        -1.2499  -1.0612  -1.9420 H              1 S1                 0.0000
     32 ****         0.9244  -0.0993  -1.1872 H              1 S1                 0.0000
     33 ****        -0.0338  -0.6843   1.4046 H              1 S1                 0.0000
     34 ****         0.4752  -2.6637   0.4368 H              1 S1                 0.0000
     35 ****         0.4367  -2.7065  -1.2948 H              1 S1                 0.0000
     36 ****         5.2005  -2.3350   0.6884 H              1 S1                 0.0000
     37 ****         5.2642  -0.8413  -2.8734 H              1 S1                 0.0000
     38 ****         6.2222  -0.8874  -1.3986 H              1 S1                 0.0000
     39 ****         4.6886  -0.0257  -1.4234 H              1 S1                 0.0000
     40 ****         5.2054  -3.4200  -3.0253 H              1 S1                 0.0000
     41 ****         4.6003  -4.3730  -1.6744 H              1 S1                 0.0000
     42 ****         6.1671  -3.5813  -1.5612 H              1 S1                 0.0000
     43 ****        -2.5671  -0.2275   1.5729 H              1 S1                 0.0000
     44 ****        -3.6556   0.0904   3.6274 H              1 S1                 0.0000
     45 ****        -5.1167   1.0665   3.4928 H              1 S1                 0.0000
     46 ****        -3.6650   1.7360   4.2540 H              1 S1                 0.0000
     47 ****        -2.2084   3.6441  -2.1779 H              1 S1                 0.0000
     48 ****         0.0370   0.7849   0.7995 LP             1 S1                 0.0000
     49 ****         1.3969  -0.0806   1.0605 LP             1 S1                 0.0000
     50 ****         1.8163  -2.3218   1.9549 LP             1 S1                 0.0000
     51 ****         3.4808  -2.3906   2.4289 LP             1 S1                 0.0000
     52 ****         1.5540  -2.0263  -2.9621 LP             1 S1                 0.0000
     53 ****         3.1621  -2.0360  -3.6055 LP             1 S1                 0.0000
@<TRIPOS>BOND
    1    1    2 1     
    2    1   25 1     
    3    1   26 1     
    4    1   27 1     
    5    2   23 ar    
    6    2    3 ar    
    7    3    4 ar    
    8    3   28 1     
    9    4   21 ar    
   10    4    5 1     
   11    5    6 2     
   12    5   47 1     
   13    6    7 1     
   14    6   29 1     
   15    7    8 1     
   16    7   21 1     
   17    8    9 1     
   18    8   30 1     
   19    8   31 1     
   20    9   10 1     
   21    9   11 1     
   22    9   32 1     
   23   10   33 1     
   24   11   12 1     
   25   11   34 1     
   26   11   35 1     
   27   12   19 am    
   28   12   13 am    
   29   13   14 2     
   30   13   15 am    
   31   15   16 1     
   32   15   36 1     
   33   16   17 1     
   34   16   18 1     
   35   16   19 1     
   36   17   37 1     
   37   17   38 1     
   38   17   39 1     
   39   18   40 1     
   40   18   41 1     
   41   18   42 1     
   42   19   20 2     
   43   21   22 ar    
   44   22   23 ar    
   45   22   43 1     
   46   23   24 1     
   47   24   44 1     
   48   24   45 1     
   49   24   46 1     
   50   10   48 1     
   51   10   49 1     
   52   14   50 1     
   53   14   51 1     
   54   20   52 1     
   55   20   53 1     
@<TRIPOS>SUBSTRUCTURE
      1 S1             1
@<TRIPOS>SET
LONE_PAIRS      STATIC     ATOMS    <user>   **** ""
6 48 49 50 51 52 53
DONOR_HYDROGENS      STATIC     ATOMS    <user>   **** ""
3 47 33 36
ATOM$BLUE        STATIC     ATOMS    COLORGROUP SYSTEM
6 48 49 50 51 52 53
ATOM$RED        STATIC     ATOMS    COLORGROUP SYSTEM
3 47 33 36
