AV-unprocessed.smi:2062|AV-procd|sdf|8398|dock7
  -GOLD-   2272011 83D 1   1.00000     0.00000
 Structure written by MMmdl.
 43 44  0  0  0  0  0  0  0  0  2 V2000
  151.4912  140.8779  156.1291 C   0  0  0  0  0  0  0  0  0  0  0  0
  151.3020  139.4564  155.5733 C   0  0  0  0  0  0  0  0  0  0  0  0
  152.6147  138.9397  154.9656 C   0  0  0  0  0  0  0  0  0  0  0  0
  150.1604  139.3875  154.5350 C   0  0  0  0  0  0  0  0  0  0  0  0
  148.8075  139.5541  155.1342 N   0  3  1  0  0  0  0  0  0  0  0  0
  148.3678  140.9681  155.2167 C   0  0  0  0  0  0  0  0  0  0  0  0
  147.8821  141.4789  153.8489 C   0  0  0  0  0  0  0  0  0  0  0  0
  146.8388  140.6372  153.3763 O   0  0  0  0  0  0  0  0  0  0  0  0
  147.2631  139.2928  153.1720 C   0  0  2  0  0  0  0  0  0  0  0  0
  146.0862  138.4844  152.5974 C   0  0  0  0  0  0  0  0  0  0  0  0
  146.5071  137.1653  152.1369 N   0  0  0  0  0  0  0  0  0  0  0  0
  145.6877  136.2089  151.6773 C   0  0  0  0  0  0  0  0  0  0  0  0
  144.4671  136.3452  151.5908 O   0  0  0  0  0  0  0  0  0  0  0  0
  146.3744  135.1064  151.3302 N   0  0  0  0  0  0  0  0  0  0  0  0
  145.8709  133.8874  150.8049 C   0  0  0  0  0  0  0  0  0  0  0  0
  146.6358  132.8762  150.3771 N   0  0  0  0  0  0  0  0  0  0  0  0
  145.8725  131.8021  149.9124 C   0  0  0  0  0  0  0  0  0  0  0  0
  144.5189  132.0144  149.9947 C   0  0  0  0  0  0  0  0  0  0  0  0
  144.1463  133.5803  150.6639 S   0  0  0  0  0  0  0  0  0  0  0  0
  147.7412  138.7179  154.5241 C   0  0  0  0  0  0  0  0  0  0  0  0
  151.7352  141.5861  155.3365 H   0  0  0  0  0  0  0  0  0  0  0  0
  152.3002  140.9077  156.8597 H   0  0  0  0  0  0  0  0  0  0  0  0
  150.5913  141.2348  156.6301 H   0  0  0  0  0  0  0  0  0  0  0  0
  151.0680  138.7992  156.4098 H   0  0  0  0  0  0  0  0  0  0  0  0
  152.9311  139.5529  154.1212 H   0  0  0  0  0  0  0  0  0  0  0  0
  152.5074  137.9144  154.6104 H   0  0  0  0  0  0  0  0  0  0  0  0
  153.4195  138.9477  155.7015 H   0  0  0  0  0  0  0  0  0  0  0  0
  150.3256  140.1770  153.8004 H   0  0  0  0  0  0  0  0  0  0  0  0
  150.2103  138.4507  153.9803 H   0  0  0  0  0  0  0  0  0  0  0  0
  147.5487  141.0315  155.9344 H   0  0  0  0  0  0  0  0  0  0  0  0
  149.1655  141.6001  155.6082 H   0  0  0  0  0  0  0  0  0  0  0  0
  147.4965  142.4941  153.9440 H   0  0  0  0  0  0  0  0  0  0  0  0
  148.6969  141.5168  153.1245 H   0  0  0  0  0  0  0  0  0  0  0  0
  148.0801  139.2748  152.4493 H   0  0  0  0  0  0  0  0  0  0  0  0
  145.3359  138.3289  153.3730 H   0  0  0  0  0  0  0  0  0  0  0  0
  145.5904  139.0371  151.7975 H   0  0  0  0  0  0  0  0  0  0  0  0
  147.4957  136.9644  152.1765 H   0  0  0  0  0  0  0  0  0  0  0  0
  147.3747  135.1403  151.4601 H   0  0  0  0  0  0  0  0  0  0  0  0
  146.3760  130.9223  149.5394 H   0  0  0  0  0  0  0  0  0  0  0  0
  143.7215  131.3470  149.7037 H   0  0  0  0  0  0  0  0  0  0  0  0
  148.0680  137.6856  154.4091 H   0  0  0  0  0  0  0  0  0  0  0  0
  146.9006  138.6891  155.2188 H   0  0  0  0  0  0  0  0  0  0  0  0
  148.9071  139.2424  156.0900 H   0  0  0  0  0  0  0  0  0  0  0  0
  1  2  1  0  0  0  0
  1 21  1  0  0  0  0
  1 22  1  0  0  0  0
  1 23  1  0  0  0  0
  2  3  1  0  0  0  0
  2  4  1  0  0  0  0
  2 24  1  0  0  0  0
  3 25  1  0  0  0  0
  3 26  1  0  0  0  0
  3 27  1  0  0  0  0
  4  5  1  0  0  0  0
  4 28  1  0  0  0  0
  4 29  1  0  0  0  0
  5 20  1  0  0  0  0
  5  6  1  0  0  0  0
  5 43  1  0  0  0  0
  6  7  1  0  0  0  0
  6 30  1  0  0  0  0
  6 31  1  0  0  0  0
  7  8  1  0  0  0  0
  7 32  1  0  0  0  0
  7 33  1  0  0  0  0
  8  9  1  0  0  0  0
  9 10  1  0  0  0  0
  9 20  1  0  0  0  0
  9 34  1  0  0  0  0
 10 11  1  0  0  0  0
 10 35  1  0  0  0  0
 10 36  1  0  0  0  0
 11 12  1  0  0  0  0
 11 37  1  0  0  0  0
 12 13  2  0  0  0  0
 12 14  1  0  0  0  0
 14 15  1  0  0  0  0
 14 38  1  0  0  0  0
 15 19  1  0  0  0  0
 15 16  2  0  0  0  0
 16 17  1  0  0  0  0
 17 18  2  0  0  0  0
 17 39  1  0  0  0  0
 18 19  1  0  0  0  0
 18 40  1  0  0  0  0
 20 41  1  0  0  0  0
 20 42  1  0  0  0  0
M  CHG  1   5   1
M  END
> <s_m_source_file>
AV-unprocessed.smi

> <i_m_source_file_index>
2062

> <i_lp_mmshare_version>
43012

> <i_f3d_flags>
0

> <s_epik_input>
W0NIM11bQ0hdKFtDSDNdKVtDSDJdTjFbQ0gyXVtDSDJdT1tDQEhdKFtDSDJdMSlbQ0gyXVtOSF1DKD1PKVtOSF1jMm5bY0hdW2NIXXMy

> <s_epik_cmdline>
J2VwaWtfcHl0aG9uJywgJy1waCcsICc3LjAnLCAnLXRuJywgJzgnLCAnLW1hJywgJzIwMCcsICctbWV0YWxfYmluZGluZycsICctaW1hZScsICc8aW5maWxlLm1hZT4nLCAnLW9tYWUnLCAnPG91dGZpbGUubWFlPic=

> <r_lp_tautomer_probability>
0.999

> <r_epik_Ionization_Penalty>
0.0985527

> <r_epik_Ionization_Penalty_Charging>
0.098413

> <r_epik_Ionization_Penalty_Neutral>
0.000139681

> <r_epik_State_Penalty>
0.0884988

> <r_epik_Charging_Adjusted_Penalty>
0.186912

> <i_epik_Tot_Q>
1

> <i_epik_Tot_abs_Q>
1

> <r_epik_Metal_State_Penalty>
0.141792

> <b_epik_Metal_Only>
0

> <s_lp_Force_Field>
OPLS_2005

> <r_lp_Energy>
18.2091

> <b_lp_Chiralities_Consistent>
1

> <s_lp_Variant>
AV-unprocessed.smi:2062-3

> <Gold.Version>
5.8.1

> <Gold.Id.Protein>
6NUR|6NUR_protein|mol2

> <Gold.PLP.Fitness>
42.0461

> <Gold.PLP.PLP>
-35.7695

> <Gold.PLP.part.hbond>
-2.0000

> <Gold.PLP.part.metal>
0.0000

> <Gold.PLP.part.buried>
-4.3742

> <Gold.PLP.part.nonpolar>
-31.3657

> <Gold.PLP.part.repulsive>
2.0277

> <Gold.PLP.ligand.clash>
0.0000

> <Gold.PLP.ligand.torsion>
0.5828

> <Gold.PLP.Chemscore.Hbond>
1.9760

> <Gold.PLP.Chemscore.CHOScore>
0.4840

> <Gold.PLP.Chemscore.Metal>
0.0000

> <Gold.Chemscore.Hbonds>
donor molecule, donor type, donor heavy atom, donor atom, acceptor molecule, acceptor atom, score
      L1  H    11    37       P1  7948  1.00
      L1  H    14    38       P1  7948  0.98
      L1  C    17    39       P1 10747  0.41

> <Gold.PLP.Chemscore.Internal.Correction>
0.0622

> <Gold.Rescore>
     Score         DG    S(hbond)    S(metal)    S(lipo)     H(rot)  DE(clash)    DE(int)     intcor
     15.24     -17.16       1.86        0.00      85.20       1.76       0.16       1.76       ----

> <Gold.Chemscore.Fitness>
15.2418

> <Gold.Chemscore.DG>
-17.1633

> <Gold.Chemscore.ZeroCoef>
-5.4800

> <Gold.Chemscore.Hbond>
1.8623

> <Gold.Chemscore.Metal>
0.0000

> <Gold.Chemscore.Lipo>
85.2022

> <Gold.Chemscore.Internal_Hbond>
0.0000

> <Gold.Chemscore.DEClash>
0.1628

> <Gold.Chemscore.DEInternal>
1.7586

> <Gold.Chemscore.Rot>
1.7599

> <Gold.Chemscore.Internal.Correction>
   9.000000E+99

> <Gold.Chemscore.Hbonds>
donor molecule, donor type, donor heavy atom, donor atom, acceptor molecule, acceptor atom, score
      L1  H    11    37       P1  7948  0.99
      L1  H    14    38       P1  7948  0.69

> <Gold.Chemscore.Hbond.Weighted>
-6.2200

> <Gold.Chemscore.Metal.Weighted>
-0.0000

> <Gold.Chemscore.Lipo.Weighted>
-9.9687

> <Gold.Chemscore.Internal_Hbond.Weighted>
0.0000

> <Gold.Chemscore.DEClash.Weighted>
0.1628

> <Gold.Chemscore.DEInternal.Weighted>
1.7586

> <Gold.Chemscore.Rot.Weighted>
4.5054

> <Gold.Chemscore.Internal.Correction.Weighted>
   9.000000E+99

> <Gold.Protein.RotatedTorsions>
[ 6907 6896 6895 6894 ] final   79.59 input  -60.11 | X-H torsion
[ 7974 7965 7964 7962 ] final -114.36 input  175.53 | X-H torsion
[ 8008 7997 7996 7995 ] final  121.75 input   59.86 | X-H torsion
[ 10167 10162 10161 10158 ] final  -68.20 input  -65.29 | X-H torsion
[ 10718 10713 10712 10709 ] final -140.69 input   66.30 | X-H torsion
[ 10763 10752 10751 10750 ] final  -45.80 input  -60.55 | X-H torsion
[ 11005 11000 10999 10996 ] final   92.75 input  -57.11 | X-H torsion

> <Gold.Protein.ActiveResidues>
 VAL166  LYS551  ARG553  GLY616  TRP617  ASP618  TYR619  PRO620  LYS621  CYS622 
 ASP623  PHE694  ASN695  SER759  ASP760  ASP761  ALA762  ILE779  LEU786  VAL792 
 PHE793  MET794  SER795  GLU796  ALA797  LYS798  CYS799  TRP800  GLU811  SER814 

> <Gold.Protein.RotatedAtoms>
  152.5204  134.3488  159.9243 H   0  0  0  0  0  0  0  0  0  0  0  0  # atno 6907 bound_to 6896
  151.3438  133.3945  159.2681 H   0  0  0  0  0  0  0  0  0  0  0  0  # atno 6908 bound_to 6896
  150.9782  134.9160  159.7886 H   0  0  0  0  0  0  0  0  0  0  0  0  # atno 6909 bound_to 6896
  145.1210  140.8669  143.3814 H   0  0  0  0  0  0  0  0  0  0  0  0  # atno 7974 bound_to 7965
  156.2699  140.2801  156.1358 H   0  0  0  0  0  0  0  0  0  0  0  0  # atno 8008 bound_to 7997
  155.1006  140.0389  157.2713 H   0  0  0  0  0  0  0  0  0  0  0  0  # atno 8009 bound_to 7997
  154.6818  140.2610  155.6906 H   0  0  0  0  0  0  0  0  0  0  0  0  # atno 8010 bound_to 7997
  140.5526  143.2312  151.6883 H   0  0  0  0  0  0  0  0  0  0  0  0  # atno 10167 bound_to 10162
  156.3252  130.7556  151.1662 H   0  0  0  0  0  0  0  0  0  0  0  0  # atno 10718 bound_to 10713
  154.0345  135.6652  153.4784 H   0  0  0  0  0  0  0  0  0  0  0  0  # atno 10763 bound_to 10752
  153.0527  135.5075  154.7901 H   0  0  0  0  0  0  0  0  0  0  0  0  # atno 10764 bound_to 10752
  154.6857  135.3052  154.9516 H   0  0  0  0  0  0  0  0  0  0  0  0  # atno 10765 bound_to 10752
  139.8819  134.8751  156.3618 H   0  0  0  0  0  0  0  0  0  0  0  0  # atno 11005 bound_to 11000
  145.0740  139.3010  143.5817 LP  0  0  0  0  0  0  0  0  0  0  0  0  # atno 17320 bound_to 7965
  146.3521  140.0224  142.8657 LP  0  0  0  0  0  0  0  0  0  0  0  0  # atno 17321 bound_to 7965
  139.5034  144.3794  152.0391 LP  0  0  0  0  0  0  0  0  0  0  0  0  # atno 17342 bound_to 10162
  140.2912  144.3751  150.6088 LP  0  0  0  0  0  0  0  0  0  0  0  0  # atno 17343 bound_to 10162
  157.7420  131.0496  150.5058 LP  0  0  0  0  0  0  0  0  0  0  0  0  # atno 17370 bound_to 10713
  156.5216  130.4163  149.6248 LP  0  0  0  0  0  0  0  0  0  0  0  0  # atno 17371 bound_to 10713
  140.9524  133.7442  156.0290 LP  0  0  0  0  0  0  0  0  0  0  0  0  # atno 17394 bound_to 11000
  140.8089  134.3422  157.5417 LP  0  0  0  0  0  0  0  0  0  0  0  0  # atno 17395 bound_to 11000

$$$$
