#       Name:                AV-unprocessed.smi:1367
#       Creating user name   scv26
#       Creation time:       Fri Mar 27 05:16:50 2020


#       File generated by GOLD software.
#

@<TRIPOS>MOLECULE
AV-unprocessed.smi:1367
    35    35     1
SMALL
NO_CHARGES


@<TRIPOS>ATOM
      1 ****        -4.1220  -0.7819   1.3918 C.3            1 S1                 0.0000
      2 ****        -2.6134  -0.6721   1.3310 C.2            1 S1                 0.0000
      3 ****        -2.0620   0.4705   1.4902 N.2            1 S1                 0.0000
      4 ****        -0.6619   0.5769   1.4336 C.2            1 S1                 0.0000
      5 ****        -0.0933   1.9717   1.6267 C.3            1 S1                 0.0000
      6 ****         0.1207  -0.5182   1.2140 C.2            1 S1                 0.0000
      7 ****         1.6467  -0.4537   1.1341 C.3            1 S1                 0.0000
      8 ****         2.2246  -0.0006  -0.2085 C.2            1 S1                 0.0000
      9 ****         3.1296   0.8330  -0.2376 O.2            1 S1                 0.0000
     10 ****         1.6986  -0.5578  -1.3099 N.am           1 S1                 0.0000
     11 ****         2.0702  -0.2305  -2.6814 C.3            1 S1                 0.0000
     12 ****         1.2558   0.9531  -3.2317 C.3            1 S1                 0.0000
     13 ****         1.5986   1.1646  -4.5020 F              1 S1                 0.0000
     14 ****        -0.0482   0.6798  -3.1820 F              1 S1                 0.0000
     15 ****         1.4976   2.0647  -2.5368 F              1 S1                 0.0000
     16 ****        -0.5544  -1.8159   1.0325 C.2            1 S1                 0.0000
     17 ****         0.1036  -2.8323   0.8135 O.2            1 S1                 0.0000
     18 ****        -1.9155  -1.8370   1.1039 N.pl3          1 S1                -1.0000
     19 ****        -4.5871   0.2043   1.4275 H              1 S1                 0.0000
     20 ****        -4.4237  -1.3364   2.2807 H              1 S1                 0.0000
     21 ****        -4.5009  -1.3044   0.5129 H              1 S1                 0.0000
     22 ****         0.5261   2.0107   2.5226 H              1 S1                 0.0000
     23 ****        -0.8879   2.7105   1.7367 H              1 S1                 0.0000
     24 ****         0.5145   2.2613   0.7694 H              1 S1                 0.0000
     25 ****         2.0031   0.2282   1.9066 H              1 S1                 0.0000
     26 ****         2.0908  -1.4154   1.3924 H              1 S1                 0.0000
     27 ****         0.9600  -1.2363  -1.1873 H              1 S1                 0.0000
     28 ****         3.1392  -0.0227  -2.7496 H              1 S1                 0.0000
     29 ****         1.8902  -1.1146  -3.2935 H              1 S1                 0.0000
     30 ****        -2.6228   1.2822   1.6537 LP             1 S1                 0.0000
     31 ****         3.4865   1.2135   0.6155 LP             1 S1                 0.0000
     32 ****         3.5080   1.1298  -1.1144 LP             1 S1                 0.0000
     33 ****         1.1007  -2.7801   0.7580 LP             1 S1                 0.0000
     34 ****        -0.3587  -3.7105   0.6910 LP             1 S1                 0.0000
     35 ****        -2.4079  -2.7000   0.9912 LP             1 S1                 0.0000
@<TRIPOS>BOND
    1    1    2 1     
    2    1   19 1     
    3    1   20 1     
    4    1   21 1     
    5    2   18 1     
    6    2    3 2     
    7    3    4 1     
    8    4    5 1     
    9    4    6 2     
   10    5   22 1     
   11    5   23 1     
   12    5   24 1     
   13    6    7 1     
   14    6   16 1     
   15    7    8 1     
   16    7   25 1     
   17    7   26 1     
   18    8    9 2     
   19    8   10 am    
   20   10   11 1     
   21   10   27 1     
   22   11   12 1     
   23   11   28 1     
   24   11   29 1     
   25   12   13 1     
   26   12   14 1     
   27   12   15 1     
   28   16   17 2     
   29   16   18 1     
   30    3   30 1     
   31    9   31 1     
   32    9   32 1     
   33   17   33 1     
   34   17   34 1     
   35   18   35 1     
@<TRIPOS>SUBSTRUCTURE
      1 S1             1
@<TRIPOS>SET
LONE_PAIRS      STATIC     ATOMS    <user>   **** ""
6 30 31 32 33 34 35
DONOR_HYDROGENS      STATIC     ATOMS    <user>   **** ""
1 27
ATOM$BLUE        STATIC     ATOMS    COLORGROUP SYSTEM
6 30 31 32 33 34 35
ATOM$RED        STATIC     ATOMS    COLORGROUP SYSTEM
1 27
