AV-unprocessed.smi:2025|AV-procd|sdf|8200|dock5
  -GOLD-   2272010453D 1   1.00000     0.00000
 Structure written by MMmdl.
 39 40  0  0  0  0  0  0  0  0  1 V2000
  145.0252  128.6316  161.2684 C   0  0  0  0  0  0  0  0  0  0  0  0
  144.6224  130.1062  161.1123 C   0  0  1  0  0  0  0  0  0  0  0  0
  145.7497  130.8369  160.5373 N   0  0  0  0  0  0  0  0  0  0  0  0
  146.9926  130.8826  161.0420 C   0  0  0  0  0  0  0  0  0  0  0  0
  147.3271  130.2997  162.0744 O   0  0  0  0  0  0  0  0  0  0  0  0
  147.9990  131.7434  160.2666 C   0  0  0  0  0  0  0  0  0  0  0  0
  147.8679  133.1785  160.5504 N   0  0  0  0  0  0  0  0  0  0  0  0
  147.2587  133.5906  161.7218 C   0  0  0  0  0  0  0  0  0  0  0  0
  147.1141  134.8878  162.0698 C   0  0  0  0  0  0  0  0  0  0  0  0
  147.6020  135.9524  161.2022 C   0  0  0  0  0  0  0  0  0  0  0  0
  147.5095  137.1485  161.4822 O   0  0  0  0  0  0  0  0  0  0  0  0
  148.2076  135.5055  160.0049 N   0  0  0  0  0  0  0  0  0  0  0  0
  148.7251  136.5221  159.1123 C   0  0  0  0  0  0  0  0  0  0  0  0
  148.3737  134.1454  159.6544 C   0  0  0  0  0  0  0  0  0  0  0  0
  148.9404  133.7966  158.6160 O   0  0  0  0  0  0  0  0  0  0  0  0
  143.3739  130.2832  160.2228 C   0  0  1  0  0  0  0  0  0  0  0  0
  142.1078  129.6175  160.7597 C   0  0  0  0  0  0  0  0  0  0  0  0
  141.0241  130.3616  160.0108 C   0  0  0  0  0  0  0  0  0  0  0  0
  141.6041  131.7704  159.8843 C   0  0  0  0  0  0  0  0  0  0  0  0
  143.0015  131.6548  160.1406 O   0  0  0  0  0  0  0  0  0  0  0  0
  144.2399  128.0537  161.7559 H   0  0  0  0  0  0  0  0  0  0  0  0
  145.9241  128.5335  161.8783 H   0  0  0  0  0  0  0  0  0  0  0  0
  145.2268  128.1700  160.3011 H   0  0  0  0  0  0  0  0  0  0  0  0
  144.4022  130.4942  162.1085 H   0  0  0  0  0  0  0  0  0  0  0  0
  145.5677  131.3551  159.6902 H   0  0  0  0  0  0  0  0  0  0  0  0
  149.0153  131.4085  160.4823 H   0  0  0  0  0  0  0  0  0  0  0  0
  147.8501  131.5621  159.2013 H   0  0  0  0  0  0  0  0  0  0  0  0
  146.8845  132.8373  162.4000 H   0  0  0  0  0  0  0  0  0  0  0  0
  146.6338  135.1410  163.0035 H   0  0  0  0  0  0  0  0  0  0  0  0
  148.8692  136.1180  158.1101 H   0  0  0  0  0  0  0  0  0  0  0  0
  149.6691  136.8657  159.5375 H   0  0  0  0  0  0  0  0  0  0  0  0
  147.9954  137.3316  159.0518 H   0  0  0  0  0  0  0  0  0  0  0  0
  143.5725  129.9226  159.2117 H   0  0  0  0  0  0  0  0  0  0  0  0
  142.0805  128.5420  160.5819 H   0  0  0  0  0  0  0  0  0  0  0  0
  142.0088  129.7917  161.8323 H   0  0  0  0  0  0  0  0  0  0  0  0
  140.8900  129.9238  159.0207 H   0  0  0  0  0  0  0  0  0  0  0  0
  140.0619  130.3419  160.5234 H   0  0  0  0  0  0  0  0  0  0  0  0
  141.4263  132.1885  158.8930 H   0  0  0  0  0  0  0  0  0  0  0  0
  141.1663  132.4456  160.6202 H   0  0  0  0  0  0  0  0  0  0  0  0
  1  2  1  0  0  0  0
  1 21  1  0  0  0  0
  1 22  1  0  0  0  0
  1 23  1  0  0  0  0
  2  3  1  0  0  0  0
  2 16  1  0  0  0  0
  2 24  1  0  0  0  0
  3  4  1  0  0  0  0
  3 25  1  0  0  0  0
  4  5  2  0  0  0  0
  4  6  1  0  0  0  0
  6  7  1  0  0  0  0
  6 26  1  0  0  0  0
  6 27  1  0  0  0  0
  7 14  1  0  0  0  0
  7  8  1  0  0  0  0
  8  9  2  0  0  0  0
  8 28  1  0  0  0  0
  9 10  1  0  0  0  0
  9 29  1  0  0  0  0
 10 11  2  0  0  0  0
 10 12  1  0  0  0  0
 12 13  1  0  0  0  0
 12 14  1  0  0  0  0
 13 30  1  0  0  0  0
 13 31  1  0  0  0  0
 13 32  1  0  0  0  0
 14 15  2  0  0  0  0
 16 20  1  0  0  0  0
 16 17  1  0  0  0  0
 16 33  1  0  0  0  0
 17 18  1  0  0  0  0
 17 34  1  0  0  0  0
 17 35  1  0  0  0  0
 18 19  1  0  0  0  0
 18 36  1  0  0  0  0
 18 37  1  0  0  0  0
 19 20  1  0  0  0  0
 19 38  1  0  0  0  0
 19 39  1  0  0  0  0
M  END
> <s_m_source_file>
AV-unprocessed.smi

> <i_m_source_file_index>
2025

> <i_lp_mmshare_version>
43012

> <i_f3d_flags>
0

> <s_epik_input>
TzFbQ0gyXVtDSDJdW0NIMl1bQ0BIXTFbQ0BIXShbQ0gzXSlbTkhdQyg9TylbQ0gyXW4yW2NIXVtjSF1jKD1PKW4oW0NIM10pYzI9Tw==

> <s_epik_cmdline>
J2VwaWtfcHl0aG9uJywgJy1waCcsICc3LjAnLCAnLXRuJywgJzgnLCAnLW1hJywgJzIwMCcsICctbWV0YWxfYmluZGluZycsICctaW1hZScsICc8aW5maWxlLm1hZT4nLCAnLW9tYWUnLCAnPG91dGZpbGUubWFlPic=

> <r_lp_tautomer_probability>
1

> <r_epik_Ionization_Penalty>
3.54787e-08

> <r_epik_Ionization_Penalty_Charging>
1.24654e-08

> <r_epik_Ionization_Penalty_Neutral>
2.30132e-08

> <r_epik_State_Penalty>
-0

> <r_epik_Charging_Adjusted_Penalty>
1.24654e-08

> <i_epik_Tot_Q>
0

> <i_epik_Tot_abs_Q>
0

> <r_epik_Metal_State_Penalty>
-0

> <b_epik_Metal_Only>
0

> <s_lp_Force_Field>
OPLS_2005

> <r_lp_Energy>
25.8508

> <b_lp_Chiralities_Consistent>
1

> <s_lp_Variant>
AV-unprocessed.smi:2025-4

> <Gold.Version>
5.8.1

> <Gold.Id.Protein>
6NUR|6NUR_protein|mol2

> <Gold.PLP.Fitness>
39.5820

> <Gold.PLP.PLP>
-33.2304

> <Gold.PLP.part.hbond>
-3.0000

> <Gold.PLP.part.metal>
0.0000

> <Gold.PLP.part.buried>
-4.1148

> <Gold.PLP.part.nonpolar>
-25.1840

> <Gold.PLP.part.repulsive>
0.0446

> <Gold.PLP.ligand.clash>
0.0000

> <Gold.PLP.ligand.torsion>
0.6006

> <Gold.PLP.Chemscore.Hbond>
2.5105

> <Gold.PLP.Chemscore.CHOScore>
0.0000

> <Gold.PLP.Chemscore.Metal>
0.0000

> <Gold.Chemscore.Hbonds>
donor molecule, donor type, donor heavy atom, donor atom, acceptor molecule, acceptor atom, score
      P1  H  6896  6907       L1    15  0.75
      P1  H  6931  6943       L1    11  0.96
      P1  H  6934  6947       L1    11  0.86

> <Gold.PLP.Chemscore.Internal.Correction>
0.0213

> <Gold.Rescore>
     Score         DG    S(hbond)    S(metal)    S(lipo)     H(rot)  DE(clash)    DE(int)     intcor
     13.52     -14.20       2.13        0.00      53.47       1.82       0.12       0.56       ----

> <Gold.Chemscore.Fitness>
13.5162

> <Gold.Chemscore.DG>
-14.1990

> <Gold.Chemscore.ZeroCoef>
-5.4800

> <Gold.Chemscore.Hbond>
2.1347

> <Gold.Chemscore.Metal>
0.0000

> <Gold.Chemscore.Lipo>
53.4652

> <Gold.Chemscore.Internal_Hbond>
0.0000

> <Gold.Chemscore.DEClash>
0.1201

> <Gold.Chemscore.DEInternal>
0.5627

> <Gold.Chemscore.Rot>
1.8228

> <Gold.Chemscore.Internal.Correction>
   9.000000E+99

> <Gold.Chemscore.Hbonds>
donor molecule, donor type, donor heavy atom, donor atom, acceptor molecule, acceptor atom, score
      P1  H  6896  6907       L1    15  0.09
      P1  H  6931  6943       L1    11  0.91
      P1  H  6934  6947       L1    11  0.83

> <Gold.Chemscore.Hbond.Weighted>
-7.1300

> <Gold.Chemscore.Metal.Weighted>
-0.0000

> <Gold.Chemscore.Lipo.Weighted>
-6.2554

> <Gold.Chemscore.Internal_Hbond.Weighted>
0.0000

> <Gold.Chemscore.DEClash.Weighted>
0.1201

> <Gold.Chemscore.DEInternal.Weighted>
0.5627

> <Gold.Chemscore.Rot.Weighted>
4.6665

> <Gold.Chemscore.Internal.Correction.Weighted>
   9.000000E+99

> <Gold.Protein.RotatedTorsions>
[ 6907 6896 6895 6894 ] final -110.22 input  -60.11 | X-H torsion
[ 7974 7965 7964 7962 ] final -154.30 input  175.53 | X-H torsion
[ 8008 7997 7996 7995 ] final   89.53 input   59.86 | X-H torsion
[ 10167 10162 10161 10158 ] final   68.23 input  -65.29 | X-H torsion
[ 10718 10713 10712 10709 ] final    2.04 input   66.30 | X-H torsion
[ 10763 10752 10751 10750 ] final   53.49 input  -60.55 | X-H torsion
[ 11005 11000 10999 10996 ] final -110.33 input  -57.11 | X-H torsion

> <Gold.Protein.ActiveResidues>
 VAL166  LYS551  ARG553  GLY616  TRP617  ASP618  TYR619  PRO620  LYS621  CYS622 
 ASP623  PHE694  ASN695  SER759  ASP760  ASP761  ALA762  ILE779  LEU786  VAL792 
 PHE793  MET794  SER795  GLU796  ALA797  LYS798  CYS799  TRP800  GLU811  SER814 

> <Gold.Protein.RotatedAtoms>
  150.7611  133.9414  159.3457 H   0  0  0  0  0  0  0  0  0  0  0  0  # atno 6907 bound_to 6896
  151.7322  135.0870  160.0311 H   0  0  0  0  0  0  0  0  0  0  0  0  # atno 6908 bound_to 6896
  152.3582  133.6226  159.6031 H   0  0  0  0  0  0  0  0  0  0  0  0  # atno 6909 bound_to 6896
  144.7696  140.4407  143.5916 H   0  0  0  0  0  0  0  0  0  0  0  0  # atno 7974 bound_to 7965
  156.0011  140.3359  155.6846 H   0  0  0  0  0  0  0  0  0  0  0  0  # atno 8008 bound_to 7997
  155.6289  140.0683  157.2673 H   0  0  0  0  0  0  0  0  0  0  0  0  # atno 8009 bound_to 7997
  154.4249  140.1763  156.1439 H   0  0  0  0  0  0  0  0  0  0  0  0  # atno 8010 bound_to 7997
  140.0809  144.5072  150.7163 H   0  0  0  0  0  0  0  0  0  0  0  0  # atno 10167 bound_to 10162
  156.8572  130.5574  149.5665 H   0  0  0  0  0  0  0  0  0  0  0  0  # atno 10718 bound_to 10713
  152.9796  135.5777  154.4750 H   0  0  0  0  0  0  0  0  0  0  0  0  # atno 10763 bound_to 10752
  154.4307  135.2773  155.1916 H   0  0  0  0  0  0  0  0  0  0  0  0  # atno 10764 bound_to 10752
  154.3626  135.6185  153.5752 H   0  0  0  0  0  0  0  0  0  0  0  0  # atno 10765 bound_to 10752
  141.0797  133.9240  157.2314 H   0  0  0  0  0  0  0  0  0  0  0  0  # atno 11005 bound_to 11000
  145.6363  139.1543  143.2941 LP  0  0  0  0  0  0  0  0  0  0  0  0  # atno 17320 bound_to 7965
  146.1833  140.6463  142.9179 LP  0  0  0  0  0  0  0  0  0  0  0  0  # atno 17321 bound_to 7965
  140.7078  143.2481  151.4673 LP  0  0  0  0  0  0  0  0  0  0  0  0  # atno 17342 bound_to 10162
  139.5780  144.1774  152.1930 LP  0  0  0  0  0  0  0  0  0  0  0  0  # atno 17343 bound_to 10162
  156.0796  130.5810  150.9539 LP  0  0  0  0  0  0  0  0  0  0  0  0  # atno 17370 bound_to 10713
  157.6271  131.0924  150.8514 LP  0  0  0  0  0  0  0  0  0  0  0  0  # atno 17371 bound_to 10713
  139.9611  135.0154  156.9262 LP  0  0  0  0  0  0  0  0  0  0  0  0  # atno 17394 bound_to 11000
  140.5495  134.0641  155.7365 LP  0  0  0  0  0  0  0  0  0  0  0  0  # atno 17395 bound_to 11000

$$$$
