AV-unprocessed.smi:2439|AV-procd|sdf|9608|dock1
  -GOLD-   2272013243D 1   1.00000     0.00000
 Structure written by MMmdl.
 41 43  0  0  0  0  0  0  0  0  2 V2000
  151.2986  136.7702  154.2089 N   0  0  0  0  0  0  0  0  0  0  0  0
  150.7454  137.7784  154.3352 C   0  0  0  0  0  0  0  0  0  0  0  0
  150.0485  139.0488  154.4957 C   0  0  0  0  0  0  0  0  0  0  0  0
  150.7095  140.1122  155.1457 C   0  0  0  0  0  0  0  0  0  0  0  0
  150.0413  141.3398  155.3054 C   0  0  0  0  0  0  0  0  0  0  0  0
  148.7321  141.4554  154.8048 C   0  0  0  0  0  0  0  0  0  0  0  0
  148.0882  140.4463  154.1818 N   0  0  0  0  0  0  0  0  0  0  0  0
  148.7247  139.2596  154.0239 C   0  0  0  0  0  0  0  0  0  0  0  0
  148.0291  138.2262  153.3682 N   0  0  0  0  0  0  0  0  0  0  0  0
  146.5723  138.1837  153.3159 C   0  0  0  0  0  0  0  0  0  0  0  0
  146.0443  136.9138  152.6262 C   0  0  1  0  0  0  0  0  0  0  0  0
  146.2419  135.6665  153.5156 C   0  0  0  0  0  0  0  0  0  0  0  0
  145.6251  134.4610  152.9108 N   0  3  2  0  0  0  0  0  0  0  0  0
  146.4299  133.8753  151.8040 C   0  0  0  0  0  0  0  0  0  0  0  0
  145.7836  132.5916  151.2634 C   0  0  0  0  0  0  0  0  0  0  0  0
  144.3500  132.8644  150.7949 C   0  0  0  0  0  0  0  0  0  0  0  0
  143.5318  133.4674  151.9450 C   0  0  0  0  0  0  0  0  0  0  0  0
  144.2008  134.7163  152.5581 C   0  0  2  0  0  0  0  0  0  0  0  0
  144.0733  135.9852  151.6893 C   0  0  0  0  0  0  0  0  0  0  0  0
  144.6512  137.0862  152.3817 O   0  0  0  0  0  0  0  0  0  0  0  0
  151.7166  139.9937  155.5191 H   0  0  0  0  0  0  0  0  0  0  0  0
  150.5216  142.1722  155.7982 H   0  0  0  0  0  0  0  0  0  0  0  0
  148.1864  142.3816  154.9078 H   0  0  0  0  0  0  0  0  0  0  0  0
  148.5452  137.4415  152.9961 H   0  0  0  0  0  0  0  0  0  0  0  0
  146.1729  138.2604  154.3278 H   0  0  0  0  0  0  0  0  0  0  0  0
  146.2194  139.0685  152.7855 H   0  0  0  0  0  0  0  0  0  0  0  0
  146.5650  136.7751  151.6782 H   0  0  0  0  0  0  0  0  0  0  0  0
  147.3014  135.4904  153.7061 H   0  0  0  0  0  0  0  0  0  0  0  0
  145.7777  135.8352  154.4883 H   0  0  0  0  0  0  0  0  0  0  0  0
  146.5477  134.5926  150.9920 H   0  0  0  0  0  0  0  0  0  0  0  0
  147.4325  133.6494  152.1688 H   0  0  0  0  0  0  0  0  0  0  0  0
  146.3760  132.1948  150.4382 H   0  0  0  0  0  0  0  0  0  0  0  0
  145.7799  131.8249  152.0391 H   0  0  0  0  0  0  0  0  0  0  0  0
  144.3593  133.5445  149.9426 H   0  0  0  0  0  0  0  0  0  0  0  0
  143.8859  131.9400  150.4498 H   0  0  0  0  0  0  0  0  0  0  0  0
  142.5241  133.7068  151.6036 H   0  0  0  0  0  0  0  0  0  0  0  0
  143.4142  132.7118  152.7232 H   0  0  0  0  0  0  0  0  0  0  0  0
  143.6791  134.9244  153.4937 H   0  0  0  0  0  0  0  0  0  0  0  0
  144.5460  135.8632  150.7140 H   0  0  0  0  0  0  0  0  0  0  0  0
  143.0224  136.2083  151.5035 H   0  0  0  0  0  0  0  0  0  0  0  0
  145.6147  133.7550  153.6333 H   0  0  0  0  0  0  0  0  0  0  0  0
  1  2  3  0  0  0  0
  2  3  1  0  0  0  0
  3  8  1  0  0  0  0
  3  4  2  0  0  0  0
  4  5  1  0  0  0  0
  4 21  1  0  0  0  0
  5  6  2  0  0  0  0
  5 22  1  0  0  0  0
  6  7  1  0  0  0  0
  6 23  1  0  0  0  0
  7  8  2  0  0  0  0
  8  9  1  0  0  0  0
  9 10  1  0  0  0  0
  9 24  1  0  0  0  0
 10 11  1  0  0  0  0
 10 25  1  0  0  0  0
 10 26  1  0  0  0  0
 11 20  1  0  0  0  0
 11 12  1  0  0  0  0
 11 27  1  0  0  0  0
 12 13  1  0  0  0  0
 12 28  1  0  0  0  0
 12 29  1  0  0  0  0
 13 18  1  0  0  0  0
 13 14  1  0  0  0  0
 13 41  1  0  0  0  0
 14 15  1  0  0  0  0
 14 30  1  0  0  0  0
 14 31  1  0  0  0  0
 15 16  1  0  0  0  0
 15 32  1  0  0  0  0
 15 33  1  0  0  0  0
 16 17  1  0  0  0  0
 16 34  1  0  0  0  0
 16 35  1  0  0  0  0
 17 18  1  0  0  0  0
 17 36  1  0  0  0  0
 17 37  1  0  0  0  0
 18 19  1  0  0  0  0
 18 38  1  0  0  0  0
 19 20  1  0  0  0  0
 19 39  1  0  0  0  0
 19 40  1  0  0  0  0
M  CHG  1  13   1
M  END
> <s_m_source_file>
AV-unprocessed.smi

> <i_m_source_file_index>
2439

> <i_lp_mmshare_version>
43012

> <i_f3d_flags>
0

> <s_epik_input>
TiNDYzFbY0hdW2NIXVtjSF1uYzFbTkhdW0NIMl1bQ0BIXShbQ0gyXTIpT1tDSDJdW0NAQEhdKE4yMylbQ0gyXVtDSDJdW0NIMl1bQ0gyXTM=

> <s_epik_cmdline>
J2VwaWtfcHl0aG9uJywgJy1waCcsICc3LjAnLCAnLXRuJywgJzgnLCAnLW1hJywgJzIwMCcsICctbWV0YWxfYmluZGluZycsICctaW1hZScsICc8aW5maWxlLm1hZT4nLCAnLW9tYWUnLCAnPG91dGZpbGUubWFlPic=

> <r_epik_Ionization_Penalty>
0.0803594

> <r_epik_Ionization_Penalty_Charging>
0.0803403

> <r_epik_Ionization_Penalty_Neutral>
1.90988e-05

> <r_epik_State_Penalty>
0.0711481

> <r_epik_Charging_Adjusted_Penalty>
0.151488

> <i_epik_Tot_Q>
1

> <i_epik_Tot_abs_Q>
1

> <r_epik_Metal_State_Penalty>
0.0711482

> <b_epik_Metal_Only>
0

> <s_lp_Force_Field>
OPLS_2005

> <r_lp_Energy>
31.3602

> <b_lp_Chiralities_Consistent>
1

> <s_lp_Variant>
AV-unprocessed.smi:2439-6

> <Gold.Version>
5.8.1

> <Gold.Id.Protein>
6NUR|6NUR_protein|mol2

> <Gold.PLP.Fitness>
40.7493

> <Gold.PLP.PLP>
-32.1361

> <Gold.PLP.part.hbond>
-2.1142

> <Gold.PLP.part.metal>
0.0000

> <Gold.PLP.part.buried>
-2.5077

> <Gold.PLP.part.nonpolar>
-28.5165

> <Gold.PLP.part.repulsive>
2.0374

> <Gold.PLP.ligand.clash>
0.0000

> <Gold.PLP.ligand.torsion>
0.1975

> <Gold.PLP.Chemscore.Hbond>
2.0000

> <Gold.PLP.Chemscore.CHOScore>
1.0000

> <Gold.PLP.Chemscore.Metal>
0.0000

> <Gold.Chemscore.Hbonds>
donor molecule, donor type, donor heavy atom, donor atom, acceptor molecule, acceptor atom, score
      L1  H     9    24       P1  7948  1.00
      P1  H 10752 10764       L1     1  1.00
      L1  C     6    23       P1  8028  1.00

> <Gold.PLP.Chemscore.Internal.Correction>
0.0083

> <Gold.Rescore>
     Score         DG    S(hbond)    S(metal)    S(lipo)     H(rot)  DE(clash)    DE(int)     intcor
     16.61     -16.93       1.90        0.00      71.36       1.27       0.13       0.19       ----

> <Gold.Chemscore.Fitness>
16.6058

> <Gold.Chemscore.DG>
-16.9293

> <Gold.Chemscore.ZeroCoef>
-5.4800

> <Gold.Chemscore.Hbond>
1.8986

> <Gold.Chemscore.Metal>
0.0000

> <Gold.Chemscore.Lipo>
71.3570

> <Gold.Chemscore.Internal_Hbond>
0.0000

> <Gold.Chemscore.DEClash>
0.1342

> <Gold.Chemscore.DEInternal>
0.1893

> <Gold.Chemscore.Rot>
1.2659

> <Gold.Chemscore.Internal.Correction>
   9.000000E+99

> <Gold.Chemscore.Hbonds>
donor molecule, donor type, donor heavy atom, donor atom, acceptor molecule, acceptor atom, score
      L1  H     9    24       P1  7948  0.99
      P1  H 10752 10764       L1     1  0.97

> <Gold.Chemscore.Hbond.Weighted>
-6.3413

> <Gold.Chemscore.Metal.Weighted>
-0.0000

> <Gold.Chemscore.Lipo.Weighted>
-8.3488

> <Gold.Chemscore.Internal_Hbond.Weighted>
0.0000

> <Gold.Chemscore.DEClash.Weighted>
0.1342

> <Gold.Chemscore.DEInternal.Weighted>
0.1893

> <Gold.Chemscore.Rot.Weighted>
3.2408

> <Gold.Chemscore.Internal.Correction.Weighted>
   9.000000E+99

> <Gold.Protein.RotatedTorsions>
[ 6907 6896 6895 6894 ] final -106.18 input  -60.11 | X-H torsion
[ 7974 7965 7964 7962 ] final  -76.03 input  175.53 | X-H torsion
[ 8008 7997 7996 7995 ] final    5.78 input   59.86 | X-H torsion
[ 10167 10162 10161 10158 ] final -133.83 input  -65.29 | X-H torsion
[ 10718 10713 10712 10709 ] final  170.21 input   66.30 | X-H torsion
[ 10763 10752 10751 10750 ] final  -71.51 input  -60.55 | X-H torsion
[ 11005 11000 10999 10996 ] final   40.40 input  -57.11 | X-H torsion

> <Gold.Protein.ActiveResidues>
 VAL166  LYS551  ARG553  GLY616  TRP617  ASP618  TYR619  PRO620  LYS621  CYS622 
 ASP623  PHE694  ASN695  SER759  ASP760  ASP761  ALA762  ILE779  LEU786  VAL792 
 PHE793  MET794  SER795  GLU796  ALA797  LYS798  CYS799  TRP800  GLU811  SER814 

> <Gold.Protein.RotatedAtoms>
  150.7375  134.0015  159.3639 H   0  0  0  0  0  0  0  0  0  0  0  0  # atno 6907 bound_to 6896
  151.7969  135.0718  160.0404 H   0  0  0  0  0  0  0  0  0  0  0  0  # atno 6908 bound_to 6896
  152.3168  133.5774  159.5754 H   0  0  0  0  0  0  0  0  0  0  0  0  # atno 6909 bound_to 6896
  145.6182  140.9369  143.1152 H   0  0  0  0  0  0  0  0  0  0  0  0  # atno 7974 bound_to 7965
  154.7327  140.2733  155.6442 H   0  0  0  0  0  0  0  0  0  0  0  0  # atno 8008 bound_to 7997
  156.2854  140.2712  156.1957 H   0  0  0  0  0  0  0  0  0  0  0  0  # atno 8009 bound_to 7997
  155.0360  140.0371  157.2482 H   0  0  0  0  0  0  0  0  0  0  0  0  # atno 8010 bound_to 7997
  139.8943  143.6685  152.2607 H   0  0  0  0  0  0  0  0  0  0  0  0  # atno 10167 bound_to 10162
  157.0114  131.0205  151.2802 H   0  0  0  0  0  0  0  0  0  0  0  0  # atno 10718 bound_to 10713
  154.4327  135.5960  153.6079 H   0  0  0  0  0  0  0  0  0  0  0  0  # atno 10763 bound_to 10752
  152.9800  135.5979  154.3819 H   0  0  0  0  0  0  0  0  0  0  0  0  # atno 10764 bound_to 10752
  154.3659  135.2841  155.2272 H   0  0  0  0  0  0  0  0  0  0  0  0  # atno 10765 bound_to 10752
  140.1934  134.3959  155.8134 H   0  0  0  0  0  0  0  0  0  0  0  0  # atno 11005 bound_to 11000
  144.7242  139.7931  143.7371 LP  0  0  0  0  0  0  0  0  0  0  0  0  # atno 17320 bound_to 7965
  146.1451  139.4519  143.0084 LP  0  0  0  0  0  0  0  0  0  0  0  0  # atno 17321 bound_to 7965
  139.7082  144.7624  151.1157 LP  0  0  0  0  0  0  0  0  0  0  0  0  # atno 17342 bound_to 10162
  140.7720  143.5366  150.9361 LP  0  0  0  0  0  0  0  0  0  0  0  0  # atno 17343 bound_to 10162
  157.5317  130.8063  149.7925 LP  0  0  0  0  0  0  0  0  0  0  0  0  # atno 17370 bound_to 10713
  156.0134  130.3823  150.2188 LP  0  0  0  0  0  0  0  0  0  0  0  0  # atno 17371 bound_to 10713
  141.2226  133.7057  156.8134 LP  0  0  0  0  0  0  0  0  0  0  0  0  # atno 17394 bound_to 11000
  140.2134  134.8810  157.3299 LP  0  0  0  0  0  0  0  0  0  0  0  0  # atno 17395 bound_to 11000

$$$$
