AV-unprocessed.smi:1278|AV-procd|sdf|5353|dock4
  -GOLD-   22720 4483D 1   1.00000     0.00000
 Structure written by MMmdl.
 38 39  0  0  0  0  0  0  0  0  3 V2000
  147.6446  133.4482  152.6839 C   0  0  0  0  0  0  0  0  0  0  0  0
  146.1841  133.8075  153.0104 C   0  0  2  0  0  0  0  0  0  0  0  0
  145.2387  133.6128  151.8106 C   0  0  0  0  0  0  0  0  0  0  0  0
  145.4322  134.7198  150.7647 C   0  0  0  0  0  0  0  0  0  0  0  0
  145.3076  136.1115  151.4043 C   0  0  0  0  0  0  0  0  0  0  0  0
  146.2604  136.2715  152.5327 N   0  3  1  0  0  0  0  0  0  0  0  0
  146.2603  137.6534  153.0729 C   0  0  0  0  0  0  0  0  0  0  0  0
  146.5246  138.7077  151.9817 C   0  0  0  0  0  0  0  0  0  0  0  0
  147.5164  139.6834  152.4168 N   0  0  0  0  0  0  0  0  0  0  0  0
  147.4286  140.4506  153.5127 C   0  0  0  0  0  0  0  0  0  0  0  0
  146.4442  140.3577  154.2499 O   0  0  0  0  0  0  0  0  0  0  0  0
  148.4833  141.2786  153.6825 N   0  5  0  0  0  0  0  0  0  0  0  0
  149.3033  141.1144  154.7334 C   0  0  0  0  0  0  0  0  0  0  0  0
  150.4574  140.4419  154.6593 N   0  0  0  0  0  0  0  0  0  0  0  0
  151.1534  140.3982  155.8688 C   0  0  0  0  0  0  0  0  0  0  0  0
  150.5180  141.0607  156.8854 C   0  0  0  0  0  0  0  0  0  0  0  0
  149.0180  141.7631  156.3506 S   0  0  0  0  0  0  0  0  0  0  0  0
  146.0474  135.2350  153.5799 C   0  0  0  0  0  0  0  0  0  0  0  0
  148.0684  134.1097  151.9284 H   0  0  0  0  0  0  0  0  0  0  0  0
  147.7221  132.4265  152.3112 H   0  0  0  0  0  0  0  0  0  0  0  0
  148.2726  133.5202  153.5725 H   0  0  0  0  0  0  0  0  0  0  0  0
  145.8650  133.1134  153.7893 H   0  0  0  0  0  0  0  0  0  0  0  0
  145.3880  132.6319  151.3579 H   0  0  0  0  0  0  0  0  0  0  0  0
  144.2061  133.6334  152.1615 H   0  0  0  0  0  0  0  0  0  0  0  0
  146.4086  134.6187  150.2901 H   0  0  0  0  0  0  0  0  0  0  0  0
  144.6943  134.6105  149.9696 H   0  0  0  0  0  0  0  0  0  0  0  0
  145.5031  136.8691  150.6443 H   0  0  0  0  0  0  0  0  0  0  0  0
  144.2894  136.2752  151.7611 H   0  0  0  0  0  0  0  0  0  0  0  0
  145.2869  137.8689  153.5160 H   0  0  0  0  0  0  0  0  0  0  0  0
  146.9878  137.7281  153.8827 H   0  0  0  0  0  0  0  0  0  0  0  0
  146.8589  138.2511  151.0500 H   0  0  0  0  0  0  0  0  0  0  0  0
  145.6032  139.2430  151.7513 H   0  0  0  0  0  0  0  0  0  0  0  0
  148.3415  139.7872  151.8442 H   0  0  0  0  0  0  0  0  0  0  0  0
  152.0958  139.8729  155.9148 H   0  0  0  0  0  0  0  0  0  0  0  0
  150.8384  141.1794  157.9093 H   0  0  0  0  0  0  0  0  0  0  0  0
  145.0526  135.3651  154.0092 H   0  0  0  0  0  0  0  0  0  0  0  0
  146.7532  135.3635  154.3997 H   0  0  0  0  0  0  0  0  0  0  0  0
  147.1813  136.1178  152.1478 H   0  0  0  0  0  0  0  0  0  0  0  0
  1  2  1  0  0  0  0
  1 19  1  0  0  0  0
  1 20  1  0  0  0  0
  1 21  1  0  0  0  0
  2 18  1  0  0  0  0
  2  3  1  0  0  0  0
  2 22  1  0  0  0  0
  3  4  1  0  0  0  0
  3 23  1  0  0  0  0
  3 24  1  0  0  0  0
  4  5  1  0  0  0  0
  4 25  1  0  0  0  0
  4 26  1  0  0  0  0
  5  6  1  0  0  0  0
  5 27  1  0  0  0  0
  5 28  1  0  0  0  0
  6  7  1  0  0  0  0
  6 18  1  0  0  0  0
  6 38  1  0  0  0  0
  7  8  1  0  0  0  0
  7 29  1  0  0  0  0
  7 30  1  0  0  0  0
  8  9  1  0  0  0  0
  8 31  1  0  0  0  0
  8 32  1  0  0  0  0
  9 10  1  0  0  0  0
  9 33  1  0  0  0  0
 10 11  2  0  0  0  0
 10 12  1  0  0  0  0
 12 13  1  0  0  0  0
 13 17  1  0  0  0  0
 13 14  2  0  0  0  0
 14 15  1  0  0  0  0
 15 16  2  0  0  0  0
 15 34  1  0  0  0  0
 16 17  1  0  0  0  0
 16 35  1  0  0  0  0
 18 36  1  0  0  0  0
 18 37  1  0  0  0  0
M  CHG  1   6   1
M  CHG  1  12  -1
M  END
> <s_m_source_file>
AV-unprocessed.smi

> <i_m_source_file_index>
1278

> <i_lp_mmshare_version>
43012

> <i_f3d_flags>
0

> <s_epik_input>
W0NIM11bQ0BASF0xW0NIMl1bQ0gyXVtDSDJdTihbQ0gyXTEpW0NIMl1bQ0gyXVtOSF1DKD1PKVtOSF1jMm5bY0hdW2NIXXMy

> <s_epik_cmdline>
J2VwaWtfcHl0aG9uJywgJy1waCcsICc3LjAnLCAnLXRuJywgJzgnLCAnLW1hJywgJzIwMCcsICctbWV0YWxfYmluZGluZycsICctaW1hZScsICc8aW5maWxlLm1hZT4nLCAnLW9tYWUnLCAnPG91dGZpbGUubWFlPic=

> <r_lp_tautomer_probability>
0.999

> <r_epik_Ionization_Penalty>
6.22019

> <r_epik_Ionization_Penalty_Charging>
5.38911

> <r_epik_Ionization_Penalty_Neutral>
0.831074

> <r_epik_State_Penalty>
5.38904

> <r_epik_Charging_Adjusted_Penalty>
10.7782

> <i_epik_Tot_Q>
0

> <i_epik_Tot_abs_Q>
2

> <r_epik_Metal_State_Penalty>
1.41502

> <b_epik_Metal_Only>
1

> <s_lp_Force_Field>
OPLS_2005

> <r_lp_Energy>
8.40837

> <b_lp_Chiralities_Consistent>
1

> <s_lp_Variant>
AV-unprocessed.smi:1278-7

> <Gold.Version>
5.8.1

> <Gold.Id.Protein>
6NUR|6NUR_protein|mol2

> <Gold.PLP.Fitness>
40.8967

> <Gold.PLP.PLP>
-31.2528

> <Gold.PLP.part.hbond>
-3.7130

> <Gold.PLP.part.metal>
0.0000

> <Gold.PLP.part.buried>
-1.6006

> <Gold.PLP.part.nonpolar>
-26.8142

> <Gold.PLP.part.repulsive>
1.3611

> <Gold.PLP.ligand.clash>
0.0000

> <Gold.PLP.ligand.torsion>
1.7041

> <Gold.PLP.Chemscore.Hbond>
4.3317

> <Gold.PLP.Chemscore.CHOScore>
0.0000

> <Gold.PLP.Chemscore.Metal>
0.0000

> <Gold.Chemscore.Hbonds>
donor molecule, donor type, donor heavy atom, donor atom, acceptor molecule, acceptor atom, score
      L1  H     6    38       P1  7948  2.00
      L1  H     9    33       P1  7957  0.76
      P1  H  7989  7998       L1    14  1.00
      P1  H  8011  8017       L1    12  0.47

> <Gold.PLP.Chemscore.Internal.Correction>
0.0568

> <Gold.Rescore>
     Score         DG    S(hbond)    S(metal)    S(lipo)     H(rot)  DE(clash)    DE(int)     intcor
     15.08     -17.90       2.93        0.00      56.78       1.57       0.02       2.80       ----

> <Gold.Chemscore.Fitness>
15.0785

> <Gold.Chemscore.DG>
-17.9042

> <Gold.Chemscore.ZeroCoef>
-5.4800

> <Gold.Chemscore.Hbond>
2.9324

> <Gold.Chemscore.Metal>
0.0000

> <Gold.Chemscore.Lipo>
56.7784

> <Gold.Chemscore.Internal_Hbond>
0.0000

> <Gold.Chemscore.DEClash>
0.0240

> <Gold.Chemscore.DEInternal>
2.8017

> <Gold.Chemscore.Rot>
1.5676

> <Gold.Chemscore.Internal.Correction>
   9.000000E+99

> <Gold.Chemscore.Hbonds>
donor molecule, donor type, donor heavy atom, donor atom, acceptor molecule, acceptor atom, score
      L1  H     6    38       P1  7948  1.00
      L1  H     9    33       P1  7957  0.77
      P1  H  7989  7998       L1    14  0.47
      P1  H  8011  8017       L1    12  0.14

> <Gold.Chemscore.Hbond.Weighted>
-9.7941

> <Gold.Chemscore.Metal.Weighted>
-0.0000

> <Gold.Chemscore.Lipo.Weighted>
-6.6431

> <Gold.Chemscore.Internal_Hbond.Weighted>
0.0000

> <Gold.Chemscore.DEClash.Weighted>
0.0240

> <Gold.Chemscore.DEInternal.Weighted>
2.8017

> <Gold.Chemscore.Rot.Weighted>
4.0130

> <Gold.Chemscore.Internal.Correction.Weighted>
   9.000000E+99

> <Gold.Protein.RotatedTorsions>
[ 6907 6896 6895 6894 ] final -123.56 input  -60.11 | X-H torsion
[ 7974 7965 7964 7962 ] final  -89.86 input  175.53 | X-H torsion
[ 8008 7997 7996 7995 ] final -174.17 input   59.86 | X-H torsion
[ 10167 10162 10161 10158 ] final  155.23 input  -65.29 | X-H torsion
[ 10718 10713 10712 10709 ] final  161.53 input   66.30 | X-H torsion
[ 10763 10752 10751 10750 ] final  120.02 input  -60.55 | X-H torsion
[ 11005 11000 10999 10996 ] final  -90.69 input  -57.11 | X-H torsion

> <Gold.Protein.ActiveResidues>
 VAL166  LYS551  ARG553  GLY616  TRP617  ASP618  TYR619  PRO620  LYS621  CYS622 
 ASP623  PHE694  ASN695  SER759  ASP760  ASP761  ALA762  ILE779  LEU786  VAL792 
 PHE793  MET794  SER795  GLU796  ALA797  LYS798  CYS799  TRP800  GLU811  SER814 

> <Gold.Protein.RotatedAtoms>
  150.8682  133.7543  159.2969 H   0  0  0  0  0  0  0  0  0  0  0  0  # atno 6907 bound_to 6896
  151.5164  135.1065  159.9876 H   0  0  0  0  0  0  0  0  0  0  0  0  # atno 6908 bound_to 6896
  152.4676  133.7913  159.6959 H   0  0  0  0  0  0  0  0  0  0  0  0  # atno 6909 bound_to 6896
  145.4342  140.9557  143.2111 H   0  0  0  0  0  0  0  0  0  0  0  0  # atno 7974 bound_to 7965
  155.9667  140.1155  157.0849 H   0  0  0  0  0  0  0  0  0  0  0  0  # atno 8008 bound_to 7997
  154.4145  140.1171  156.5318 H   0  0  0  0  0  0  0  0  0  0  0  0  # atno 8009 bound_to 7997
  155.6650  140.3473  155.4799 H   0  0  0  0  0  0  0  0  0  0  0  0  # atno 8010 bound_to 7997
  139.4821  144.5117  151.8014 H   0  0  0  0  0  0  0  0  0  0  0  0  # atno 10167 bound_to 10162
  157.1353  131.0527  151.2352 H   0  0  0  0  0  0  0  0  0  0  0  0  # atno 10718 bound_to 10713
  153.5920  135.3464  155.2914 H   0  0  0  0  0  0  0  0  0  0  0  0  # atno 10763 bound_to 10752
  154.8651  135.4207  154.2506 H   0  0  0  0  0  0  0  0  0  0  0  0  # atno 10764 bound_to 10752
  153.3315  135.7044  153.7014 H   0  0  0  0  0  0  0  0  0  0  0  0  # atno 10765 bound_to 10752
  141.1560  133.7708  156.9773 H   0  0  0  0  0  0  0  0  0  0  0  0  # atno 11005 bound_to 11000
  144.8163  139.5870  143.7007 LP  0  0  0  0  0  0  0  0  0  0  0  0  # atno 17320 bound_to 7965
  146.2591  139.6369  142.9374 LP  0  0  0  0  0  0  0  0  0  0  0  0  # atno 17321 bound_to 7965
  140.4621  144.1707  150.5907 LP  0  0  0  0  0  0  0  0  0  0  0  0  # atno 17342 bound_to 10162
  140.4473  143.2501  151.9394 LP  0  0  0  0  0  0  0  0  0  0  0  0  # atno 17343 bound_to 10162
  157.4356  130.7515  149.7026 LP  0  0  0  0  0  0  0  0  0  0  0  0  # atno 17370 bound_to 10713
  155.9799  130.4035  150.3557 LP  0  0  0  0  0  0  0  0  0  0  0  0  # atno 17371 bound_to 10713
  140.1089  134.9489  157.2036 LP  0  0  0  0  0  0  0  0  0  0  0  0  # atno 17394 bound_to 11000
  140.3220  134.2906  155.7244 LP  0  0  0  0  0  0  0  0  0  0  0  0  # atno 17395 bound_to 11000

$$$$
