AV-unprocessed.smi:1934|AV-procd|sdf|7825|dock9
  -GOLD-   22720 9573D 1   1.00000     0.00000
 Structure written by MMmdl.
 46 47  0  0  0  0  0  0  0  0  2 V2000
  152.2183  141.2155  159.0271 C   0  0  0  0  0  0  0  0  0  0  0  0
  151.8562  140.7171  157.6591 C   0  0  0  0  0  0  0  0  0  0  0  0
  150.6925  141.0194  156.8941 C   0  0  0  0  0  0  0  0  0  0  0  0
  150.8901  140.3009  155.7464 C   0  0  0  0  0  0  0  0  0  0  0  0
  150.0947  140.2154  154.6468 N   0  0  0  0  0  0  0  0  0  0  0  0
  148.7525  140.1755  154.5797 C   0  0  0  0  0  0  0  0  0  0  0  0
  147.9865  140.1655  155.5436 O   0  0  0  0  0  0  0  0  0  0  0  0
  148.3316  140.1397  153.3072 N   0  0  0  0  0  0  0  0  0  0  0  0
  146.9340  140.1049  152.8927 C   0  0  0  0  0  0  0  0  0  0  0  0
  146.5525  138.7304  152.3110 C   0  0  0  0  0  0  0  0  0  0  0  0
  145.3106  138.1896  152.9178 N   0  3  1  0  0  0  0  0  0  0  0  0
  144.8586  136.9372  152.2588 C   0  0  0  0  0  0  0  0  0  0  0  0
  143.4904  136.4908  152.7980 C   0  0  0  0  0  0  0  0  0  0  0  0
  143.5260  136.3271  154.3240 C   0  0  0  0  0  0  0  0  0  0  0  0
  144.0574  137.5988  155.0114 C   0  0  2  0  0  0  0  0  0  0  0  0
  143.0319  138.7458  155.0202 C   0  0  0  0  0  0  0  0  0  0  0  0
  145.4054  138.0263  154.3943 C   0  0  0  0  0  0  0  0  0  0  0  0
  152.0906  139.6303  155.8432 N   0  0  0  0  0  0  0  0  0  0  0  0
  152.7442  138.7423  154.9008 C   0  0  0  0  0  0  0  0  0  0  0  0
  152.6814  139.8887  157.0295 N   0  0  0  0  0  0  0  0  0  0  0  0
  151.5288  141.9918  159.3594 H   0  0  0  0  0  0  0  0  0  0  0  0
  153.2231  141.6384  159.0392 H   0  0  0  0  0  0  0  0  0  0  0  0
  152.1870  140.4081  159.7589 H   0  0  0  0  0  0  0  0  0  0  0  0
  149.8665  141.6606  157.1619 H   0  0  0  0  0  0  0  0  0  0  0  0
  150.5851  140.1934  153.7649 H   0  0  0  0  0  0  0  0  0  0  0  0
  149.0262  140.1488  152.5742 H   0  0  0  0  0  0  0  0  0  0  0  0
  146.3008  140.3729  153.7391 H   0  0  0  0  0  0  0  0  0  0  0  0
  146.7860  140.8798  152.1401 H   0  0  0  0  0  0  0  0  0  0  0  0
  146.4082  138.8516  151.2364 H   0  0  0  0  0  0  0  0  0  0  0  0
  147.3630  138.0097  152.4319 H   0  0  0  0  0  0  0  0  0  0  0  0
  144.7813  137.0914  151.1819 H   0  0  0  0  0  0  0  0  0  0  0  0
  145.6019  136.1534  152.4148 H   0  0  0  0  0  0  0  0  0  0  0  0
  142.7286  137.2193  152.5188 H   0  0  0  0  0  0  0  0  0  0  0  0
  143.1971  135.5496  152.3321 H   0  0  0  0  0  0  0  0  0  0  0  0
  142.5352  136.0719  154.7017 H   0  0  0  0  0  0  0  0  0  0  0  0
  144.1738  135.4861  154.5752 H   0  0  0  0  0  0  0  0  0  0  0  0
  144.2429  137.3473  156.0563 H   0  0  0  0  0  0  0  0  0  0  0  0
  142.7941  139.0891  154.0135 H   0  0  0  0  0  0  0  0  0  0  0  0
  143.4096  139.6025  155.5791 H   0  0  0  0  0  0  0  0  0  0  0  0
  142.1001  138.4341  155.4930 H   0  0  0  0  0  0  0  0  0  0  0  0
  146.1661  137.2771  154.6198 H   0  0  0  0  0  0  0  0  0  0  0  0
  145.7382  138.9517  154.8634 H   0  0  0  0  0  0  0  0  0  0  0  0
  152.2985  138.8381  153.9108 H   0  0  0  0  0  0  0  0  0  0  0  0
  152.6411  137.7109  155.2384 H   0  0  0  0  0  0  0  0  0  0  0  0
  153.8040  138.9899  154.8308 H   0  0  0  0  0  0  0  0  0  0  0  0
  144.5882  138.8734  152.7428 H   0  0  0  0  0  0  0  0  0  0  0  0
  1  2  1  0  0  0  0
  1 21  1  0  0  0  0
  1 22  1  0  0  0  0
  1 23  1  0  0  0  0
  2 20  2  0  0  0  0
  2  3  1  0  0  0  0
  3  4  2  0  0  0  0
  3 24  1  0  0  0  0
  4  5  1  0  0  0  0
  4 18  1  0  0  0  0
  5  6  1  0  0  0  0
  5 25  1  0  0  0  0
  6  7  2  0  0  0  0
  6  8  1  0  0  0  0
  8  9  1  0  0  0  0
  8 26  1  0  0  0  0
  9 10  1  0  0  0  0
  9 27  1  0  0  0  0
  9 28  1  0  0  0  0
 10 11  1  0  0  0  0
 10 29  1  0  0  0  0
 10 30  1  0  0  0  0
 11 17  1  0  0  0  0
 11 12  1  0  0  0  0
 11 46  1  0  0  0  0
 12 13  1  0  0  0  0
 12 31  1  0  0  0  0
 12 32  1  0  0  0  0
 13 14  1  0  0  0  0
 13 33  1  0  0  0  0
 13 34  1  0  0  0  0
 14 15  1  0  0  0  0
 14 35  1  0  0  0  0
 14 36  1  0  0  0  0
 15 16  1  0  0  0  0
 15 17  1  0  0  0  0
 15 37  1  0  0  0  0
 16 38  1  0  0  0  0
 16 39  1  0  0  0  0
 16 40  1  0  0  0  0
 17 41  1  0  0  0  0
 17 42  1  0  0  0  0
 18 19  1  0  0  0  0
 18 20  1  0  0  0  0
 19 43  1  0  0  0  0
 19 44  1  0  0  0  0
 19 45  1  0  0  0  0
M  CHG  1  11   1
M  END
> <s_m_source_file>
AV-unprocessed.smi

> <i_m_source_file_index>
1934

> <i_lp_mmshare_version>
43012

> <i_f3d_flags>
0

> <s_epik_input>
W0NIM11jMVtjSF1jKG4objEpW0NIM10pW05IXUMoPU8pW05IXVtDSDJdW0NIMl1OMltDSDJdW0NIMl1bQ0gyXVtDQEBIXShbQ0gzXSlbQ0gyXTI=

> <s_epik_cmdline>
J2VwaWtfcHl0aG9uJywgJy1waCcsICc3LjAnLCAnLXRuJywgJzgnLCAnLW1hJywgJzIwMCcsICctbWV0YWxfYmluZGluZycsICctaW1hZScsICc8aW5maWxlLm1hZT4nLCAnLW9tYWUnLCAnPG91dGZpbGUubWFlPic=

> <r_lp_tautomer_probability>
1

> <r_epik_Ionization_Penalty>
0.00202955

> <r_epik_Ionization_Penalty_Charging>
0.00195276

> <r_epik_Ionization_Penalty_Neutral>
7.67968e-05

> <r_epik_State_Penalty>
0.00133177

> <r_epik_Charging_Adjusted_Penalty>
0.00328452

> <i_epik_Tot_Q>
1

> <i_epik_Tot_abs_Q>
1

> <r_epik_Metal_State_Penalty>
-0

> <b_epik_Metal_Only>
0

> <s_lp_Force_Field>
OPLS_2005

> <r_lp_Energy>
20.4325

> <b_lp_Chiralities_Consistent>
1

> <s_lp_Variant>
AV-unprocessed.smi:1934-3

> <Gold.Version>
5.8.1

> <Gold.Id.Protein>
6NUR|6NUR_protein|mol2

> <Gold.PLP.Fitness>
41.5768

> <Gold.PLP.PLP>
-30.9325

> <Gold.PLP.part.hbond>
-2.8858

> <Gold.PLP.part.metal>
0.0000

> <Gold.PLP.part.buried>
-2.7852

> <Gold.PLP.part.nonpolar>
-26.5032

> <Gold.PLP.part.repulsive>
1.3771

> <Gold.PLP.ligand.clash>
0.0000

> <Gold.PLP.ligand.torsion>
0.6925

> <Gold.PLP.Chemscore.Hbond>
4.0000

> <Gold.PLP.Chemscore.CHOScore>
0.0000

> <Gold.PLP.Chemscore.Metal>
0.0000

> <Gold.Chemscore.Hbonds>
donor molecule, donor type, donor heavy atom, donor atom, acceptor molecule, acceptor atom, score
      L1  H     8    26       P1  7957  1.00
      L1  H    11    46       P1 10175  2.00
      P1  H  7997  8009       L1    20  1.00

> <Gold.PLP.Chemscore.Internal.Correction>
0.0293

> <Gold.Rescore>
     Score         DG    S(hbond)    S(metal)    S(lipo)     H(rot)  DE(clash)    DE(int)     intcor
     16.89     -18.35       2.91        0.00      59.34       1.48       0.78       0.68       ----

> <Gold.Chemscore.Fitness>
16.8872

> <Gold.Chemscore.DG>
-18.3514

> <Gold.Chemscore.ZeroCoef>
-5.4800

> <Gold.Chemscore.Hbond>
2.9123

> <Gold.Chemscore.Metal>
0.0000

> <Gold.Chemscore.Lipo>
59.3397

> <Gold.Chemscore.Internal_Hbond>
0.0000

> <Gold.Chemscore.DEClash>
0.7849

> <Gold.Chemscore.DEInternal>
0.6793

> <Gold.Chemscore.Rot>
1.4838

> <Gold.Chemscore.Internal.Correction>
   9.000000E+99

> <Gold.Chemscore.Hbonds>
donor molecule, donor type, donor heavy atom, donor atom, acceptor molecule, acceptor atom, score
      L1  H     8    26       P1  7957  0.93
      L1  H    11    46       P1 10175  1.00
      P1  H  7997  8009       L1    20  0.69

> <Gold.Chemscore.Hbond.Weighted>
-9.7272

> <Gold.Chemscore.Metal.Weighted>
-0.0000

> <Gold.Chemscore.Lipo.Weighted>
-6.9427

> <Gold.Chemscore.Internal_Hbond.Weighted>
0.0000

> <Gold.Chemscore.DEClash.Weighted>
0.7849

> <Gold.Chemscore.DEInternal.Weighted>
0.6793

> <Gold.Chemscore.Rot.Weighted>
3.7985

> <Gold.Chemscore.Internal.Correction.Weighted>
   9.000000E+99

> <Gold.Protein.RotatedTorsions>
[ 6907 6896 6895 6894 ] final   48.80 input  -60.11 | X-H torsion
[ 7974 7965 7964 7962 ] final  -53.55 input  175.53 | X-H torsion
[ 8008 7997 7996 7995 ] final  171.07 input   59.86 | X-H torsion
[ 10167 10162 10161 10158 ] final  -55.12 input  -65.29 | X-H torsion
[ 10718 10713 10712 10709 ] final  -37.58 input   66.30 | X-H torsion
[ 10763 10752 10751 10750 ] final  108.91 input  -60.55 | X-H torsion
[ 11005 11000 10999 10996 ] final -122.31 input  -57.11 | X-H torsion

> <Gold.Protein.ActiveResidues>
 VAL166  LYS551  ARG553  GLY616  TRP617  ASP618  TYR619  PRO620  LYS621  CYS622 
 ASP623  PHE694  ASN695  SER759  ASP760  ASP761  ALA762  ILE779  LEU786  VAL792 
 PHE793  MET794  SER795  GLU796  ALA797  LYS798  CYS799  TRP800  GLU811  SER814 

> <Gold.Protein.RotatedAtoms>
  152.2836  134.7801  160.0391 H   0  0  0  0  0  0  0  0  0  0  0  0  # atno 6907 bound_to 6896
  151.8371  133.3412  159.3640 H   0  0  0  0  0  0  0  0  0  0  0  0  # atno 6908 bound_to 6896
  150.7200  134.5355  159.5766 H   0  0  0  0  0  0  0  0  0  0  0  0  # atno 6909 bound_to 6896
  145.8956  140.8035  142.9769 H   0  0  0  0  0  0  0  0  0  0  0  0  # atno 7974 bound_to 7965
  156.1306  140.1521  156.9071 H   0  0  0  0  0  0  0  0  0  0  0  0  # atno 8008 bound_to 7997
  154.4906  140.0852  156.7625 H   0  0  0  0  0  0  0  0  0  0  0  0  # atno 8009 bound_to 7997
  155.4264  140.3425  155.4278 H   0  0  0  0  0  0  0  0  0  0  0  0  # atno 8010 bound_to 7997
  140.6392  143.2498  151.5034 H   0  0  0  0  0  0  0  0  0  0  0  0  # atno 10167 bound_to 10162
  156.3135  130.4256  149.8027 H   0  0  0  0  0  0  0  0  0  0  0  0  # atno 10718 bound_to 10713
  153.4272  135.3797  155.2148 H   0  0  0  0  0  0  0  0  0  0  0  0  # atno 10763 bound_to 10752
  154.8748  135.3831  154.4312 H   0  0  0  0  0  0  0  0  0  0  0  0  # atno 10764 bound_to 10752
  153.4839  135.7088  153.5985 H   0  0  0  0  0  0  0  0  0  0  0  0  # atno 10765 bound_to 10752
  141.0004  134.0410  157.3544 H   0  0  0  0  0  0  0  0  0  0  0  0  # atno 11005 bound_to 11000
  144.6733  140.1597  143.7423 LP  0  0  0  0  0  0  0  0  0  0  0  0  # atno 17320 bound_to 7965
  145.8854  139.2346  143.1580 LP  0  0  0  0  0  0  0  0  0  0  0  0  # atno 17321 bound_to 7965
  139.5602  144.2176  152.1678 LP  0  0  0  0  0  0  0  0  0  0  0  0  # atno 17342 bound_to 10162
  140.1441  144.5175  150.6726 LP  0  0  0  0  0  0  0  0  0  0  0  0  # atno 17343 bound_to 10162
  156.5362  130.8279  151.3253 LP  0  0  0  0  0  0  0  0  0  0  0  0  # atno 17370 bound_to 10713
  157.7396  130.9835  150.2326 LP  0  0  0  0  0  0  0  0  0  0  0  0  # atno 17371 bound_to 10713
  139.9036  135.0173  156.7383 LP  0  0  0  0  0  0  0  0  0  0  0  0  # atno 17394 bound_to 11000
  140.6898  133.9400  155.7959 LP  0  0  0  0  0  0  0  0  0  0  0  0  # atno 17395 bound_to 11000

$$$$
