AV-unprocessed.smi:2520|AV-procd|sdf|9910|dock4
  -GOLD-   2272013543D 1   1.00000     0.00000
 Structure written by MMmdl.
 41 44  0  0  0  0  0  0  0  0  1 V2000
  150.4088  136.3027  159.0867 O   0  0  0  0  0  0  0  0  0  0  0  0
  149.5990  137.2278  159.1183 C   0  0  0  0  0  0  0  0  0  0  0  0
  148.4552  137.1289  159.8282 N   0  0  0  0  0  0  0  0  0  0  0  0
  147.9363  136.0721  160.6317 C   0  0  0  0  0  0  0  0  0  0  0  0
  147.3080  136.4898  161.8245 C   0  0  0  0  0  0  0  0  0  0  0  0
  146.7596  135.5111  162.6709 C   0  0  0  0  0  0  0  0  0  0  0  0
  146.8745  134.1710  162.2644 C   0  0  0  0  0  0  0  0  0  0  0  0
  147.4801  133.8139  161.1114 N   0  0  0  0  0  0  0  0  0  0  0  0
  147.9982  134.7519  160.3116 N   0  0  0  0  0  0  0  0  0  0  0  0
  149.7899  138.3813  158.4589 N   0  0  0  0  0  0  0  0  0  0  0  0
  150.9717  138.7045  157.6694 C   0  0  1  0  0  0  0  0  0  0  0  0
  150.6278  139.0175  156.2040 C   0  0  2  0  0  0  0  0  0  0  0  0
  151.1131  138.1064  155.1100 C   0  0  0  0  0  0  0  0  0  0  0  0
  152.4095  138.7820  154.6537 C   0  0  0  0  0  0  0  0  0  0  0  0
  152.8002  139.5954  155.7577 O   0  0  0  0  0  0  0  0  0  0  0  0
  151.6164  140.1695  156.3066 C   0  0  2  0  0  0  0  0  0  0  0  0
  151.4813  140.1547  157.8438 C   0  0  0  0  0  0  0  0  0  0  0  0
  152.7477  140.3923  158.6622 C   0  0  0  0  0  0  0  0  0  0  0  0
  152.8273  141.8945  158.9584 C   0  0  0  0  0  0  0  0  0  0  0  0
  151.4208  142.4469  158.7060 C   0  0  0  0  0  0  0  0  0  0  0  0
  150.5503  141.2215  158.4274 C   0  0  0  0  0  0  0  0  0  0  0  0
  147.8393  137.9239  159.7384 H   0  0  0  0  0  0  0  0  0  0  0  0
  147.2471  137.5358  162.0880 H   0  0  0  0  0  0  0  0  0  0  0  0
  146.2697  135.7770  163.5959 H   0  0  0  0  0  0  0  0  0  0  0  0
  146.4743  133.3725  162.8710 H   0  0  0  0  0  0  0  0  0  0  0  0
  149.0766  139.0930  158.5306 H   0  0  0  0  0  0  0  0  0  0  0  0
  151.7782  137.9721  157.7517 H   0  0  0  0  0  0  0  0  0  0  0  0
  149.6046  139.3777  156.0792 H   0  0  0  0  0  0  0  0  0  0  0  0
  151.3110  137.1059  155.4958 H   0  0  0  0  0  0  0  0  0  0  0  0
  150.3986  138.0156  154.2914 H   0  0  0  0  0  0  0  0  0  0  0  0
  153.1867  138.0654  154.3877 H   0  0  0  0  0  0  0  0  0  0  0  0
  152.2244  139.4225  153.7903 H   0  0  0  0  0  0  0  0  0  0  0  0
  151.2956  141.0813  155.8004 H   0  0  0  0  0  0  0  0  0  0  0  0
  152.6859  139.8422  159.6021 H   0  0  0  0  0  0  0  0  0  0  0  0
  153.6472  140.0403  158.1568 H   0  0  0  0  0  0  0  0  0  0  0  0
  153.1521  142.0732  159.9838 H   0  0  0  0  0  0  0  0  0  0  0  0
  153.5449  142.3804  158.2965 H   0  0  0  0  0  0  0  0  0  0  0  0
  151.0461  143.0321  159.5463 H   0  0  0  0  0  0  0  0  0  0  0  0
  151.4342  143.0974  157.8306 H   0  0  0  0  0  0  0  0  0  0  0  0
  149.7181  141.4629  157.7651 H   0  0  0  0  0  0  0  0  0  0  0  0
  150.1176  140.8812  159.3689 H   0  0  0  0  0  0  0  0  0  0  0  0
  1  2  2  0  0  0  0
  2  3  1  0  0  0  0
  2 10  1  0  0  0  0
  3  4  1  0  0  0  0
  3 22  1  0  0  0  0
  4  9  1  0  0  0  0
  4  5  2  0  0  0  0
  5  6  1  0  0  0  0
  5 23  1  0  0  0  0
  6  7  2  0  0  0  0
  6 24  1  0  0  0  0
  7  8  1  0  0  0  0
  7 25  1  0  0  0  0
  8  9  2  0  0  0  0
 10 11  1  0  0  0  0
 10 26  1  0  0  0  0
 11 17  1  0  0  0  0
 11 12  1  0  0  0  0
 11 27  1  0  0  0  0
 12 16  1  0  0  0  0
 12 13  1  0  0  0  0
 12 28  1  0  0  0  0
 13 14  1  0  0  0  0
 13 29  1  0  0  0  0
 13 30  1  0  0  0  0
 14 15  1  0  0  0  0
 14 31  1  0  0  0  0
 14 32  1  0  0  0  0
 15 16  1  0  0  0  0
 16 17  1  0  0  0  0
 16 33  1  0  0  0  0
 17 21  1  0  0  0  0
 17 18  1  0  0  0  0
 18 19  1  0  0  0  0
 18 34  1  0  0  0  0
 18 35  1  0  0  0  0
 19 20  1  0  0  0  0
 19 36  1  0  0  0  0
 19 37  1  0  0  0  0
 20 21  1  0  0  0  0
 20 38  1  0  0  0  0
 20 39  1  0  0  0  0
 21 40  1  0  0  0  0
 21 41  1  0  0  0  0
M  END
> <s_m_source_file>
AV-unprocessed.smi

> <i_m_source_file_index>
2520

> <i_lp_mmshare_version>
43012

> <i_f3d_flags>
0

> <s_epik_input>
bjFuW2NIXVtjSF1bY0hdYzFbTkhdQyg9TylbTkhdW0NAQEhdMltDQEBIXShbQ0gyXVtDSDJdTzMpW0NASF0zQzI0W0NIMl1bQ0gyXVtDSDJdW0NIMl00

> <s_epik_cmdline>
J2VwaWtfcHl0aG9uJywgJy1waCcsICc3LjAnLCAnLXRuJywgJzgnLCAnLW1hJywgJzIwMCcsICctbWV0YWxfYmluZGluZycsICctaW1hZScsICc8aW5maWxlLm1hZT4nLCAnLW9tYWUnLCAnPG91dGZpbGUubWFlPic=

> <r_lp_tautomer_probability>
1

> <r_epik_Ionization_Penalty>
0.00552561

> <r_epik_Ionization_Penalty_Charging>
0

> <r_epik_Ionization_Penalty_Neutral>
0.00552561

> <r_epik_State_Penalty>
-0

> <r_epik_Charging_Adjusted_Penalty>
0

> <i_epik_Tot_Q>
0

> <i_epik_Tot_abs_Q>
0

> <r_epik_Metal_State_Penalty>
-0

> <b_epik_Metal_Only>
0

> <s_lp_Force_Field>
OPLS_2005

> <r_lp_Energy>
61.147

> <b_lp_Chiralities_Consistent>
1

> <s_lp_Variant>
AV-unprocessed.smi:2520-4

> <Gold.Version>
5.8.1

> <Gold.Id.Protein>
6NUR|6NUR_protein|mol2

> <Gold.PLP.Fitness>
42.4043

> <Gold.PLP.PLP>
-37.1055

> <Gold.PLP.part.hbond>
-2.0000

> <Gold.PLP.part.metal>
0.0000

> <Gold.PLP.part.buried>
-6.4097

> <Gold.PLP.part.nonpolar>
-29.8052

> <Gold.PLP.part.repulsive>
0.4895

> <Gold.PLP.ligand.clash>
0.0000

> <Gold.PLP.ligand.torsion>
0.4436

> <Gold.PLP.Chemscore.Hbond>
2.0000

> <Gold.PLP.Chemscore.CHOScore>
0.0000

> <Gold.PLP.Chemscore.Metal>
0.0000

> <Gold.Chemscore.Hbonds>
donor molecule, donor type, donor heavy atom, donor atom, acceptor molecule, acceptor atom, score
      P1  H  6896  6909       L1     1  1.00
      P1  H  7997  8008       L1    15  1.00

> <Gold.PLP.Chemscore.Internal.Correction>
0.1860

> <Gold.Rescore>
     Score         DG    S(hbond)    S(metal)    S(lipo)     H(rot)  DE(clash)    DE(int)     intcor
     19.85     -20.29       1.95        0.00      92.66       1.00       0.01       0.43       ----

> <Gold.Chemscore.Fitness>
19.8506

> <Gold.Chemscore.DG>
-20.2874

> <Gold.Chemscore.ZeroCoef>
-5.4800

> <Gold.Chemscore.Hbond>
1.9540

> <Gold.Chemscore.Metal>
0.0000

> <Gold.Chemscore.Lipo>
92.6590

> <Gold.Chemscore.Internal_Hbond>
0.0000

> <Gold.Chemscore.DEClash>
0.0095

> <Gold.Chemscore.DEInternal>
0.4273

> <Gold.Chemscore.Rot>
1.0000

> <Gold.Chemscore.Internal.Correction>
   9.000000E+99

> <Gold.Chemscore.Hbonds>
donor molecule, donor type, donor heavy atom, donor atom, acceptor molecule, acceptor atom, score
      P1  H  6896  6909       L1     1  0.95
      P1  H  7997  8008       L1    15  0.99

> <Gold.Chemscore.Hbond.Weighted>
-6.5263

> <Gold.Chemscore.Metal.Weighted>
-0.0000

> <Gold.Chemscore.Lipo.Weighted>
-10.8411

> <Gold.Chemscore.Internal_Hbond.Weighted>
0.0000

> <Gold.Chemscore.DEClash.Weighted>
0.0095

> <Gold.Chemscore.DEInternal.Weighted>
0.4273

> <Gold.Chemscore.Rot.Weighted>
2.5600

> <Gold.Chemscore.Internal.Correction.Weighted>
   9.000000E+99

> <Gold.Protein.RotatedTorsions>
[ 6907 6896 6895 6894 ] final   67.25 input  -60.11 | X-H torsion
[ 7974 7965 7964 7962 ] final -152.83 input  175.53 | X-H torsion
[ 8008 7997 7996 7995 ] final  -25.81 input   59.86 | X-H torsion
[ 10167 10162 10161 10158 ] final   14.32 input  -65.29 | X-H torsion
[ 10718 10713 10712 10709 ] final   38.91 input   66.30 | X-H torsion
[ 10763 10752 10751 10750 ] final -122.87 input  -60.55 | X-H torsion
[ 11005 11000 10999 10996 ] final  111.46 input  -57.11 | X-H torsion

> <Gold.Protein.ActiveResidues>
 VAL166  LYS551  ARG553  GLY616  TRP617  ASP618  TYR619  PRO620  LYS621  CYS622 
 ASP623  PHE694  ASN695  SER759  ASP760  ASP761  ALA762  ILE779  LEU786  VAL792 
 PHE793  MET794  SER795  GLU796  ALA797  LYS798  CYS799  TRP800  GLU811  SER814 

> <Gold.Protein.RotatedAtoms>
  152.4539  134.5334  159.9817 H   0  0  0  0  0  0  0  0  0  0  0  0  # atno 6907 bound_to 6896
  151.5400  133.3428  159.2941 H   0  0  0  0  0  0  0  0  0  0  0  0  # atno 6908 bound_to 6896
  150.8477  134.7822  159.7046 H   0  0  0  0  0  0  0  0  0  0  0  0  # atno 6909 bound_to 6896
  144.7773  140.4608  143.5864 H   0  0  0  0  0  0  0  0  0  0  0  0  # atno 7974 bound_to 7965
  154.4456  140.1916  156.0678 H   0  0  0  0  0  0  0  0  0  0  0  0  # atno 8008 bound_to 7997
  156.0534  140.3306  155.7350 H   0  0  0  0  0  0  0  0  0  0  0  0  # atno 8009 bound_to 7997
  155.5522  140.0596  157.2838 H   0  0  0  0  0  0  0  0  0  0  0  0  # atno 8010 bound_to 7997
  140.5944  143.8732  150.6903 H   0  0  0  0  0  0  0  0  0  0  0  0  # atno 10167 bound_to 10162
  157.3644  130.7667  149.7072 H   0  0  0  0  0  0  0  0  0  0  0  0  # atno 10718 bound_to 10713
  154.8697  135.4118  154.2851 H   0  0  0  0  0  0  0  0  0  0  0  0  # atno 10763 bound_to 10752
  153.3737  135.7008  153.6624 H   0  0  0  0  0  0  0  0  0  0  0  0  # atno 10764 bound_to 10752
  153.5475  135.3635  155.2717 H   0  0  0  0  0  0  0  0  0  0  0  0  # atno 10765 bound_to 10752
  139.8904  134.9508  156.6435 H   0  0  0  0  0  0  0  0  0  0  0  0  # atno 11005 bound_to 11000
  145.6150  139.1517  143.3054 LP  0  0  0  0  0  0  0  0  0  0  0  0  # atno 17320 bound_to 7965
  146.1960  140.6264  142.9124 LP  0  0  0  0  0  0  0  0  0  0  0  0  # atno 17321 bound_to 7965
  140.2262  143.3770  152.1602 LP  0  0  0  0  0  0  0  0  0  0  0  0  # atno 17342 bound_to 10162
  139.5248  144.7088  151.5270 LP  0  0  0  0  0  0  0  0  0  0  0  0  # atno 17343 bound_to 10162
  155.9743  130.4105  150.3931 LP  0  0  0  0  0  0  0  0  0  0  0  0  # atno 17370 bound_to 10713
  157.2013  131.0438  151.2649 LP  0  0  0  0  0  0  0  0  0  0  0  0  # atno 17371 bound_to 10713
  140.7575  133.8845  155.8393 LP  0  0  0  0  0  0  0  0  0  0  0  0  # atno 17394 bound_to 11000
  140.9949  134.1228  157.4373 LP  0  0  0  0  0  0  0  0  0  0  0  0  # atno 17395 bound_to 11000

$$$$
