AV-unprocessed.smi:2752|AV-procd|sdf|10607|dock4
  -GOLD-   2272015 63D 1   1.00000     0.00000
 Structure written by MMmdl.
 34 35  0  0  0  0  0  0  0  0  1 V2000
  149.8286  138.7763  154.0033 C   0  0  0  0  0  0  0  0  0  0  0  0
  149.2026  140.0330  154.2050 O   0  0  0  0  0  0  0  0  0  0  0  0
  147.8033  139.9436  154.4612 C   0  0  2  0  0  0  0  0  0  0  0  0
  147.0609  139.8029  153.1278 C   0  0  0  0  0  0  0  0  0  0  0  0
  146.9614  141.2327  152.6040 C   0  0  0  0  0  0  0  0  0  0  0  0
  146.7401  142.0907  153.8526 C   0  0  0  0  0  0  0  0  0  0  0  0
  147.2843  141.2783  155.0443 C   0  0  2  0  0  0  0  0  0  0  0  0
  148.3105  142.0241  155.7702 N   0  0  0  0  0  0  0  0  0  0  0  0
  149.1736  141.4850  156.6428 C   0  0  0  0  0  0  0  0  0  0  0  0
  149.1775  140.2905  156.9420 O   0  0  0  0  0  0  0  0  0  0  0  0
  150.0175  142.4125  157.1279 N   0  0  0  0  0  0  0  0  0  0  0  0
  151.0740  142.2361  158.0605 C   0  0  0  0  0  0  0  0  0  0  0  0
  151.6219  143.4327  158.5767 C   0  0  0  0  0  0  0  0  0  0  0  0
  152.6753  143.3669  159.5096 C   0  0  0  0  0  0  0  0  0  0  0  0
  153.1529  142.1037  159.9012 C   0  0  0  0  0  0  0  0  0  0  0  0
  154.1638  141.9901  160.7952 F   0  0  0  0  0  0  0  0  0  0  0  0
  152.5534  140.9611  159.3401 C   0  0  0  0  0  0  0  0  0  0  0  0
  151.5436  141.0230  158.4463 N   0  0  0  0  0  0  0  0  0  0  0  0
  150.8875  138.9270  153.7940 H   0  0  0  0  0  0  0  0  0  0  0  0
  149.3942  138.2368  153.1617 H   0  0  0  0  0  0  0  0  0  0  0  0
  149.7500  138.1538  154.8953 H   0  0  0  0  0  0  0  0  0  0  0  0
  147.5876  139.1195  155.1437 H   0  0  0  0  0  0  0  0  0  0  0  0
  147.5501  139.1315  152.4223 H   0  0  0  0  0  0  0  0  0  0  0  0
  146.0585  139.4129  153.3094 H   0  0  0  0  0  0  0  0  0  0  0  0
  147.9026  141.5125  152.1290 H   0  0  0  0  0  0  0  0  0  0  0  0
  146.1683  141.3547  151.8658 H   0  0  0  0  0  0  0  0  0  0  0  0
  147.2183  143.0655  153.7462 H   0  0  0  0  0  0  0  0  0  0  0  0
  145.6739  142.2725  153.9931 H   0  0  0  0  0  0  0  0  0  0  0  0
  146.4493  141.0717  155.7169 H   0  0  0  0  0  0  0  0  0  0  0  0
  148.3785  143.0121  155.5758 H   0  0  0  0  0  0  0  0  0  0  0  0
  149.8928  143.3536  156.7856 H   0  0  0  0  0  0  0  0  0  0  0  0
  151.2418  144.3944  158.2637 H   0  0  0  0  0  0  0  0  0  0  0  0
  153.1075  144.2694  159.9158 H   0  0  0  0  0  0  0  0  0  0  0  0
  152.8919  139.9730  159.6147 H   0  0  0  0  0  0  0  0  0  0  0  0
  1  2  1  0  0  0  0
  1 19  1  0  0  0  0
  1 20  1  0  0  0  0
  1 21  1  0  0  0  0
  2  3  1  0  0  0  0
  3  7  1  0  0  0  0
  3  4  1  0  0  0  0
  3 22  1  0  0  0  0
  4  5  1  0  0  0  0
  4 23  1  0  0  0  0
  4 24  1  0  0  0  0
  5  6  1  0  0  0  0
  5 25  1  0  0  0  0
  5 26  1  0  0  0  0
  6  7  1  0  0  0  0
  6 27  1  0  0  0  0
  6 28  1  0  0  0  0
  7  8  1  0  0  0  0
  7 29  1  0  0  0  0
  8  9  1  0  0  0  0
  8 30  1  0  0  0  0
  9 10  2  0  0  0  0
  9 11  1  0  0  0  0
 11 12  1  0  0  0  0
 11 31  1  0  0  0  0
 12 18  1  0  0  0  0
 12 13  2  0  0  0  0
 13 14  1  0  0  0  0
 13 32  1  0  0  0  0
 14 15  2  0  0  0  0
 14 33  1  0  0  0  0
 15 16  1  0  0  0  0
 15 17  1  0  0  0  0
 17 18  2  0  0  0  0
 17 34  1  0  0  0  0
M  END
> <s_m_source_file>
AV-unprocessed.smi

> <i_m_source_file_index>
2752

> <i_lp_mmshare_version>
43012

> <i_f3d_flags>
0

> <s_epik_input>
W0NIM11PW0NAQEhdMVtDSDJdW0NIMl1bQ0gyXVtDQEhdMVtOSF1DKD1PKVtOSF1jMltjSF1bY0hdYyhGKVtjSF1uMg==

> <s_epik_cmdline>
J2VwaWtfcHl0aG9uJywgJy1waCcsICc3LjAnLCAnLXRuJywgJzgnLCAnLW1hJywgJzIwMCcsICctbWV0YWxfYmluZGluZycsICctaW1hZScsICc8aW5maWxlLm1hZT4nLCAnLW9tYWUnLCAnPG91dGZpbGUubWFlPic=

> <r_lp_tautomer_probability>
1

> <r_epik_Ionization_Penalty>
3.49853e-05

> <r_epik_Ionization_Penalty_Charging>
0

> <r_epik_Ionization_Penalty_Neutral>
3.49853e-05

> <r_epik_State_Penalty>
-0

> <r_epik_Charging_Adjusted_Penalty>
0

> <i_epik_Tot_Q>
0

> <i_epik_Tot_abs_Q>
0

> <r_epik_Metal_State_Penalty>
-0

> <b_epik_Metal_Only>
0

> <s_lp_Force_Field>
OPLS_2005

> <r_lp_Energy>
23.7965

> <b_lp_Chiralities_Consistent>
1

> <s_lp_Variant>
AV-unprocessed.smi:2752-3

> <Gold.Version>
5.8.1

> <Gold.Id.Protein>
6NUR|6NUR_protein|mol2

> <Gold.PLP.Fitness>
37.2210

> <Gold.PLP.PLP>
-32.0417

> <Gold.PLP.part.hbond>
-2.0000

> <Gold.PLP.part.metal>
0.0000

> <Gold.PLP.part.buried>
-3.9445

> <Gold.PLP.part.nonpolar>
-25.0279

> <Gold.PLP.part.repulsive>
0.2264

> <Gold.PLP.ligand.clash>
0.0000

> <Gold.PLP.ligand.torsion>
0.4030

> <Gold.PLP.Chemscore.Hbond>
1.9913

> <Gold.PLP.Chemscore.CHOScore>
0.0000

> <Gold.PLP.Chemscore.Metal>
0.0000

> <Gold.Chemscore.Hbonds>
donor molecule, donor type, donor heavy atom, donor atom, acceptor molecule, acceptor atom, score
      L1  H     8    30       P1  8028  1.00
      L1  H    11    31       P1  8028  0.99

> <Gold.PLP.Chemscore.Internal.Correction>
0.0115

> <Gold.Rescore>
     Score         DG    S(hbond)    S(metal)    S(lipo)     H(rot)  DE(clash)    DE(int)     intcor
     12.24     -17.95       1.93        0.00      79.43       1.28       0.34       5.37       ----

> <Gold.Chemscore.Fitness>
12.2394

> <Gold.Chemscore.DG>
-17.9505

> <Gold.Chemscore.ZeroCoef>
-5.4800

> <Gold.Chemscore.Hbond>
1.9340

> <Gold.Chemscore.Metal>
0.0000

> <Gold.Chemscore.Lipo>
79.4279

> <Gold.Chemscore.Internal_Hbond>
0.0000

> <Gold.Chemscore.DEClash>
0.3403

> <Gold.Chemscore.DEInternal>
5.3708

> <Gold.Chemscore.Rot>
1.2821

> <Gold.Chemscore.Internal.Correction>
   9.000000E+99

> <Gold.Chemscore.Hbonds>
donor molecule, donor type, donor heavy atom, donor atom, acceptor molecule, acceptor atom, score
      L1  H     8    30       P1  8028  0.98
      L1  H    11    31       P1  8028  0.90

> <Gold.Chemscore.Hbond.Weighted>
-6.4596

> <Gold.Chemscore.Metal.Weighted>
-0.0000

> <Gold.Chemscore.Lipo.Weighted>
-9.2931

> <Gold.Chemscore.Internal_Hbond.Weighted>
0.0000

> <Gold.Chemscore.DEClash.Weighted>
0.3403

> <Gold.Chemscore.DEInternal.Weighted>
5.3708

> <Gold.Chemscore.Rot.Weighted>
3.2822

> <Gold.Chemscore.Internal.Correction.Weighted>
   9.000000E+99

> <Gold.Protein.RotatedTorsions>
[ 6907 6896 6895 6894 ] final  144.72 input  -60.11 | X-H torsion
[ 7974 7965 7964 7962 ] final   25.40 input  175.53 | X-H torsion
[ 8008 7997 7996 7995 ] final   35.04 input   59.86 | X-H torsion
[ 10167 10162 10161 10158 ] final   50.50 input  -65.29 | X-H torsion
[ 10718 10713 10712 10709 ] final  171.34 input   66.30 | X-H torsion
[ 10763 10752 10751 10750 ] final  -65.69 input  -60.55 | X-H torsion
[ 11005 11000 10999 10996 ] final -157.60 input  -57.11 | X-H torsion

> <Gold.Protein.ActiveResidues>
 VAL166  LYS551  ARG553  GLY616  TRP617  ASP618  TYR619  PRO620  LYS621  CYS622 
 ASP623  PHE694  ASN695  SER759  ASP760  ASP761  ALA762  ILE779  LEU786  VAL792 
 PHE793  MET794  SER795  GLU796  ALA797  LYS798  CYS799  TRP800  GLU811  SER814 

> <Gold.Protein.RotatedAtoms>
  152.1901  133.4767  159.5002 H   0  0  0  0  0  0  0  0  0  0  0  0  # atno 6907 bound_to 6896
  150.6949  134.1724  159.4226 H   0  0  0  0  0  0  0  0  0  0  0  0  # atno 6908 bound_to 6896
  151.9638  135.0110  160.0600 H   0  0  0  0  0  0  0  0  0  0  0  0  # atno 6909 bound_to 6896
  146.1891  139.7472  142.8845 H   0  0  0  0  0  0  0  0  0  0  0  0  # atno 7974 bound_to 7965
  155.1646  140.3286  155.4404 H   0  0  0  0  0  0  0  0  0  0  0  0  # atno 8008 bound_to 7997
  156.2531  140.1954  156.6703 H   0  0  0  0  0  0  0  0  0  0  0  0  # atno 8009 bound_to 7997
  154.6380  140.0574  156.9798 H   0  0  0  0  0  0  0  0  0  0  0  0  # atno 8010 bound_to 7997
  140.2717  144.3257  150.6288 H   0  0  0  0  0  0  0  0  0  0  0  0  # atno 10167 bound_to 10162
  156.9950  131.0159  151.2846 H   0  0  0  0  0  0  0  0  0  0  0  0  # atno 10718 bound_to 10713
  154.3487  135.6141  153.5632 H   0  0  0  0  0  0  0  0  0  0  0  0  # atno 10763 bound_to 10752
  152.9799  135.5787  154.4768 H   0  0  0  0  0  0  0  0  0  0  0  0  # atno 10764 bound_to 10752
  154.4485  135.2852  155.1775 H   0  0  0  0  0  0  0  0  0  0  0  0  # atno 10765 bound_to 10752
  140.6629  134.4330  157.5234 H   0  0  0  0  0  0  0  0  0  0  0  0  # atno 11005 bound_to 11000
  145.3849  141.0364  143.3156 LP  0  0  0  0  0  0  0  0  0  0  0  0  # atno 17320 bound_to 7965
  144.8452  139.5409  143.6882 LP  0  0  0  0  0  0  0  0  0  0  0  0  # atno 17321 bound_to 7965
  140.5884  143.2169  151.7299 LP  0  0  0  0  0  0  0  0  0  0  0  0  # atno 17342 bound_to 10162
  139.4987  144.3976  152.0215 LP  0  0  0  0  0  0  0  0  0  0  0  0  # atno 17343 bound_to 10162
  157.5431  130.8133  149.8053 LP  0  0  0  0  0  0  0  0  0  0  0  0  # atno 17370 bound_to 10713
  156.0192  130.3802  150.2013 LP  0  0  0  0  0  0  0  0  0  0  0  0  # atno 17371 bound_to 10713
  139.9007  134.8563  156.1909 LP  0  0  0  0  0  0  0  0  0  0  0  0  # atno 17394 bound_to 11000
  141.0452  133.6917  156.1669 LP  0  0  0  0  0  0  0  0  0  0  0  0  # atno 17395 bound_to 11000

$$$$
