#       Name:                AV-unprocessed.smi:229
#       Creating user name   scv26
#       Creation time:       Thu Mar 26 20:26:54 2020


#       File generated by GOLD software.
#

@<TRIPOS>MOLECULE
AV-unprocessed.smi:229
    70    74     1
SMALL
NO_CHARGES


@<TRIPOS>ATOM
      1 ****        -4.0892  -1.7463   2.6678 C.3            1 S1                 0.0000
      2 ****        -4.8237  -0.8795   1.6363 C.3            1 S1                 0.0000
      3 ****        -4.1100  -0.7955   0.2769 C.3            1 S1                 0.0000
      4 ****        -2.7685  -0.0439   0.3490 C.3            1 S1                 0.0000
      5 ****        -2.2058   0.1017  -0.9878 N.3            1 S1                 0.0000
      6 ****        -0.8936   0.4474  -1.0220 C.ar           1 S1                 0.0000
      7 ****        -0.5133   1.6218  -1.5936 N.ar           1 S1                 0.0000
      8 ****         0.7750   1.9770  -1.6162 C.ar           1 S1                 0.0000
      9 ****         1.8311   1.3183  -1.1355 N.ar           1 S1                 0.0000
     10 ****         1.4582   0.1344  -0.5713 C.ar           1 S1                 0.0000
     11 ****         0.1320  -0.3746  -0.4745 C.ar           1 S1                 0.0000
     12 ****         0.1476  -1.6157   0.1523 N.2            1 S1                 0.0000
     13 ****         1.4077  -1.8209   0.4234 C.2            1 S1                 0.0000
     14 ****         2.2628  -0.8188   0.0257 N.pl3          1 S1                 0.0000
     15 ****         3.7034  -0.7809   0.2049 C.3            1 S1                 0.0000
     16 ****         4.1211   0.0837   1.4109 C.3            1 S1                 0.0000
     17 ****         3.5246  -0.4346   2.5852 O.3            1 S1                 0.0000
     18 ****         5.6479   0.1158   1.6052 C.3            1 S1                 0.0000
     19 ****         6.1225   1.0109   2.7486 C.3            1 S1                 0.0000
     20 ****         7.5736   1.2632   2.3886 C.3            1 S1                 0.0000
     21 ****         7.5982   1.1138   0.8645 C.3            1 S1                 0.0000
     22 ****         6.2843   0.7161   0.4868 O.3            1 S1                 0.0000
     23 ****        -3.1175   0.7640  -1.9153 C.3            1 S1                 0.0000
     24 ****        -4.4836   0.0406  -1.9537 C.3            1 S1                 0.0000
     25 ****        -5.5081   0.8467  -2.7455 C.3            1 S1                 0.0000
     26 ****        -5.4307   0.2386  -4.1374 C.3            1 S1                 0.0000
     27 ****        -5.3052  -1.1429  -3.8570 O.3            1 S1                 0.0000
     28 ****        -4.4432  -1.2942  -2.7348 C.3            1 S1                 0.0000
     29 ****        -4.9830  -0.1078  -0.6211 O.3            1 S1                 0.0000
     30 ****        -4.6677  -1.8226   3.5886 H              1 S1                 0.0000
     31 ****        -3.1171  -1.3269   2.9264 H              1 S1                 0.0000
     32 ****        -3.9306  -2.7570   2.2910 H              1 S1                 0.0000
     33 ****        -5.8196  -1.2970   1.4844 H              1 S1                 0.0000
     34 ****        -4.9738   0.1230   2.0388 H              1 S1                 0.0000
     35 ****        -3.9368  -1.8095  -0.0846 H              1 S1                 0.0000
     36 ****        -2.9148   0.9475   0.7801 H              1 S1                 0.0000
     37 ****        -2.0835  -0.5753   1.0074 H              1 S1                 0.0000
     38 ****         0.9895   2.9262  -2.0846 H              1 S1                 0.0000
     39 ****         1.7500  -2.7123   0.9285 H              1 S1                 0.0000
     40 ****         4.0672  -1.8027   0.3218 H              1 S1                 0.0000
     41 ****         4.1494  -0.3944  -0.7123 H              1 S1                 0.0000
     42 ****         3.7530   1.1009   1.2686 H              1 S1                 0.0000
     43 ****         3.7524   0.1283   3.3094 H              1 S1                 0.0000
     44 ****         6.0416  -0.8943   1.7346 H              1 S1                 0.0000
     45 ****         5.5722   1.9530   2.7446 H              1 S1                 0.0000
     46 ****         6.0032   0.5505   3.7297 H              1 S1                 0.0000
     47 ****         7.9153   2.2439   2.7206 H              1 S1                 0.0000
     48 ****         8.2144   0.5094   2.8479 H              1 S1                 0.0000
     49 ****         7.8616   2.0467   0.3651 H              1 S1                 0.0000
     50 ****         8.3176   0.3522   0.5614 H              1 S1                 0.0000
     51 ****        -3.2540   1.7959  -1.5881 H              1 S1                 0.0000
     52 ****        -2.6833   0.7992  -2.9155 H              1 S1                 0.0000
     53 ****        -6.5088   0.6821  -2.3429 H              1 S1                 0.0000
     54 ****        -5.3229   1.9214  -2.7389 H              1 S1                 0.0000
     55 ****        -6.3136   0.4489  -4.7413 H              1 S1                 0.0000
     56 ****        -4.5485   0.5908  -4.6744 H              1 S1                 0.0000
     57 ****        -3.4352  -1.5237  -3.0824 H              1 S1                 0.0000
     58 ****        -4.7896  -2.1422  -2.1446 H              1 S1                 0.0000
     59 ****        -2.1394  -0.8178  -1.3752 LP             1 S1                 0.0000
     60 ****        -1.2018   2.2230  -1.9993 LP             1 S1                 0.0000
     61 ****         2.7733   1.6498  -1.1829 LP             1 S1                 0.0000
     62 ****        -0.6289  -2.2140   0.3501 LP             1 S1                 0.0000
     63 ****         3.8643  -1.3594   2.7565 LP             1 S1                 0.0000
     64 ****         2.5308  -0.4594   2.4764 LP             1 S1                 0.0000
     65 ****         5.7623   1.5168   0.1930 LP             1 S1                 0.0000
     66 ****         6.3353   0.0577  -0.2641 LP             1 S1                 0.0000
     67 ****        -4.9162  -1.6146  -4.6483 LP             1 S1                 0.0000
     68 ****        -6.2038  -1.5285  -3.6476 LP             1 S1                 0.0000
     69 ****        -5.1536   0.8050  -0.2501 LP             1 S1                 0.0000
     70 ****        -5.8436  -0.6151  -0.6668 LP             1 S1                 0.0000
@<TRIPOS>BOND
    1    1    2 1     
    2    1   30 1     
    3    1   31 1     
    4    1   32 1     
    5    2    3 1     
    6    2   33 1     
    7    2   34 1     
    8    3   29 1     
    9    3    4 1     
   10    3   35 1     
   11    4    5 1     
   12    4   36 1     
   13    4   37 1     
   14    5    6 1     
   15    5   23 1     
   16    6   11 ar    
   17    6    7 ar    
   18    7    8 ar    
   19    8    9 ar    
   20    8   38 1     
   21    9   10 ar    
   22   10   14 1     
   23   10   11 ar    
   24   11   12 1     
   25   12   13 2     
   26   13   14 1     
   27   13   39 1     
   28   14   15 1     
   29   15   16 1     
   30   15   40 1     
   31   15   41 1     
   32   16   17 1     
   33   16   18 1     
   34   16   42 1     
   35   17   43 1     
   36   18   22 1     
   37   18   19 1     
   38   18   44 1     
   39   19   20 1     
   40   19   45 1     
   41   19   46 1     
   42   20   21 1     
   43   20   47 1     
   44   20   48 1     
   45   21   22 1     
   46   21   49 1     
   47   21   50 1     
   48   23   24 1     
   49   23   51 1     
   50   23   52 1     
   51   24   28 1     
   52   24   25 1     
   53   24   29 1     
   54   25   26 1     
   55   25   53 1     
   56   25   54 1     
   57   26   27 1     
   58   26   55 1     
   59   26   56 1     
   60   27   28 1     
   61   28   57 1     
   62   28   58 1     
   63    5   59 1     
   64    7   60 1     
   65    9   61 1     
   66   12   62 1     
   67   17   63 1     
   68   17   64 1     
   69   22   65 1     
   70   22   66 1     
   71   27   67 1     
   72   27   68 1     
   73   29   69 1     
   74   29   70 1     
@<TRIPOS>SUBSTRUCTURE
      1 S1             1
@<TRIPOS>SET
LONE_PAIRS      STATIC     ATOMS    <user>   **** ""
12 59 60 61 62 63 64 65 66 67 68 69 70
DONOR_HYDROGENS      STATIC     ATOMS    <user>   **** ""
1 43
ATOM$BLUE        STATIC     ATOMS    COLORGROUP SYSTEM
12 59 60 61 62 63 64 65 66 67 68 69 70
ATOM$RED        STATIC     ATOMS    COLORGROUP SYSTEM
1 43
