AV-unprocessed.smi:999|AV-procd|sdf|4353|dock6
  -GOLD-   22720 2253D 1   1.00000     0.00000
 Structure written by MMmdl.
 37 38  0  0  0  0  0  0  0  0  2 V2000
  154.1565  141.7753  160.6594 C   0  0  0  0  0  0  0  0  0  0  0  0
  152.7377  141.6714  160.0628 C   0  0  2  0  0  0  0  0  0  0  0  0
  152.6585  140.6766  158.8945 C   0  0  0  0  0  0  0  0  0  0  0  0
  153.6832  140.2218  158.3840 O   0  0  0  0  0  0  0  0  0  0  0  0
  151.4239  140.3479  158.4830 N   0  0  0  0  0  0  0  0  0  0  0  0
  151.1065  139.4288  157.3953 C   0  0  2  0  0  0  0  0  0  0  0  0
  151.5267  140.0639  156.0561 C   0  0  0  0  0  0  0  0  0  0  0  0
  151.1296  139.1787  154.8598 C   0  0  0  0  0  0  0  0  0  0  0  0
  149.6163  138.8519  154.8465 C   0  0  2  0  0  0  0  0  0  0  0  0
  148.7457  140.0797  154.4883 C   0  0  0  0  0  0  0  0  0  0  0  0
  149.3250  141.1710  154.2917 O   0  0  0  0  0  0  0  0  0  0  0  0
  147.5053  139.9223  154.4435 O   0  5  0  0  0  0  0  0  0  0  0  0
  149.2165  138.2077  156.1968 C   0  0  0  0  0  0  0  0  0  0  0  0
  149.6024  139.0838  157.4036 C   0  0  0  0  0  0  0  0  0  0  0  0
  152.2051  142.9676  159.6581 N   0  0  0  0  0  0  0  0  0  0  0  0
  151.8192  143.3673  158.3945 C   0  0  0  0  0  0  0  0  0  0  0  0
  151.4261  144.6723  158.4772 C   0  0  0  0  0  0  0  0  0  0  0  0
  151.6237  144.9976  159.8476 C   0  0  0  0  0  0  0  0  0  0  0  0
  152.0988  143.9815  160.5483 N   0  0  0  0  0  0  0  0  0  0  0  0
  154.5121  140.8006  160.9950 H   0  0  0  0  0  0  0  0  0  0  0  0
  154.1665  142.4406  161.5229 H   0  0  0  0  0  0  0  0  0  0  0  0
  154.8797  142.1587  159.9386 H   0  0  0  0  0  0  0  0  0  0  0  0
  152.0880  141.2942  160.8546 H   0  0  0  0  0  0  0  0  0  0  0  0
  150.6395  140.7654  158.9622 H   0  0  0  0  0  0  0  0  0  0  0  0
  151.6785  138.5081  157.5244 H   0  0  0  0  0  0  0  0  0  0  0  0
  151.0697  141.0490  155.9524 H   0  0  0  0  0  0  0  0  0  0  0  0
  152.6049  140.2267  156.0455 H   0  0  0  0  0  0  0  0  0  0  0  0
  151.4387  139.6519  153.9271 H   0  0  0  0  0  0  0  0  0  0  0  0
  151.6910  138.2453  154.9092 H   0  0  0  0  0  0  0  0  0  0  0  0
  149.4346  138.1221  154.0569 H   0  0  0  0  0  0  0  0  0  0  0  0
  148.1499  137.9818  156.2248 H   0  0  0  0  0  0  0  0  0  0  0  0
  149.7177  137.2434  156.2882 H   0  0  0  0  0  0  0  0  0  0  0  0
  149.3433  138.5629  158.3260 H   0  0  0  0  0  0  0  0  0  0  0  0
  149.0118  140.0009  157.3967 H   0  0  0  0  0  0  0  0  0  0  0  0
  151.8563  142.6957  157.5492 H   0  0  0  0  0  0  0  0  0  0  0  0
  151.0596  145.3009  157.6794 H   0  0  0  0  0  0  0  0  0  0  0  0
  151.4427  145.9366  160.3495 H   0  0  0  0  0  0  0  0  0  0  0  0
  1  2  1  0  0  0  0
  1 20  1  0  0  0  0
  1 21  1  0  0  0  0
  1 22  1  0  0  0  0
  2  3  1  0  0  0  0
  2 15  1  0  0  0  0
  2 23  1  0  0  0  0
  3  4  2  0  0  0  0
  3  5  1  0  0  0  0
  5  6  1  0  0  0  0
  5 24  1  0  0  0  0
  6 14  1  0  0  0  0
  6  7  1  0  0  0  0
  6 25  1  0  0  0  0
  7  8  1  0  0  0  0
  7 26  1  0  0  0  0
  7 27  1  0  0  0  0
  8  9  1  0  0  0  0
  8 28  1  0  0  0  0
  8 29  1  0  0  0  0
  9 10  1  0  0  0  0
  9 13  1  0  0  0  0
  9 30  1  0  0  0  0
 10 11  2  0  0  0  0
 10 12  1  0  0  0  0
 13 14  1  0  0  0  0
 13 31  1  0  0  0  0
 13 32  1  0  0  0  0
 14 33  1  0  0  0  0
 14 34  1  0  0  0  0
 15 19  1  0  0  0  0
 15 16  1  0  0  0  0
 16 17  2  0  0  0  0
 16 35  1  0  0  0  0
 17 18  1  0  0  0  0
 17 36  1  0  0  0  0
 18 19  2  0  0  0  0
 18 37  1  0  0  0  0
M  CHG  1  12  -1
M  END
> <s_m_source_file>
AV-unprocessed.smi

> <i_m_source_file_index>
999

> <i_lp_mmshare_version>
43012

> <i_f3d_flags>
0

> <s_epik_input>
bjFbY0hdW2NIXVtjSF1uMVtDQEhdKFtDSDNdKUMoPU8pW05IXVtDQEBIXTJbQ0gyXVtDSDJdW0NAQEhdKEMoPU8pW09IXSlbQ0gyXVtDSDJdMg==

> <s_epik_cmdline>
J2VwaWtfcHl0aG9uJywgJy1waCcsICc3LjAnLCAnLXRuJywgJzgnLCAnLW1hJywgJzIwMCcsICctbWV0YWxfYmluZGluZycsICctaW1hZScsICc8aW5maWxlLm1hZT4nLCAnLW9tYWUnLCAnPG91dGZpbGUubWFlPic=

> <r_lp_tautomer_probability>
1

> <r_epik_Ionization_Penalty>
0.00221712

> <r_epik_Ionization_Penalty_Charging>
0.00217268

> <r_epik_Ionization_Penalty_Neutral>
4.44343e-05

> <r_epik_State_Penalty>
0.0014925

> <r_epik_Charging_Adjusted_Penalty>
0.00366518

> <i_epik_Tot_Q>
-1

> <i_epik_Tot_abs_Q>
1

> <r_epik_Metal_State_Penalty>
-0

> <b_epik_Metal_Only>
0

> <s_lp_Force_Field>
OPLS_2005

> <r_lp_Energy>
7.42219

> <b_lp_Chiralities_Consistent>
1

> <s_lp_Variant>
AV-unprocessed.smi:999-3

> <Gold.Version>
5.8.1

> <Gold.Id.Protein>
6NUR|6NUR_protein|mol2

> <Gold.PLP.Fitness>
45.6221

> <Gold.PLP.PLP>
-40.3029

> <Gold.PLP.part.hbond>
-3.0000

> <Gold.PLP.part.metal>
0.0000

> <Gold.PLP.part.buried>
-2.6094

> <Gold.PLP.part.nonpolar>
-34.1242

> <Gold.PLP.part.repulsive>
0.5192

> <Gold.PLP.ligand.clash>
0.0000

> <Gold.PLP.ligand.torsion>
0.2975

> <Gold.PLP.Chemscore.Hbond>
1.9277

> <Gold.PLP.Chemscore.CHOScore>
0.0000

> <Gold.PLP.Chemscore.Metal>
0.0000

> <Gold.Chemscore.Hbonds>
donor molecule, donor type, donor heavy atom, donor atom, acceptor molecule, acceptor atom, score
      P1  H  7997  8009       L1     4  0.85
      P1  H  8011  8017       L1    11  0.12

> <Gold.PLP.Chemscore.Internal.Correction>
0.1312

> <Gold.Rescore>
     Score         DG    S(hbond)    S(metal)    S(lipo)     H(rot)  DE(clash)    DE(int)     intcor
     15.50     -16.37       1.83        0.00      84.12       1.98       0.08       0.79       ----

> <Gold.Chemscore.Fitness>
15.5021

> <Gold.Chemscore.DG>
-16.3712

> <Gold.Chemscore.ZeroCoef>
-5.4800

> <Gold.Chemscore.Hbond>
1.8296

> <Gold.Chemscore.Metal>
0.0000

> <Gold.Chemscore.Lipo>
84.1223

> <Gold.Chemscore.Internal_Hbond>
0.0000

> <Gold.Chemscore.DEClash>
0.0758

> <Gold.Chemscore.DEInternal>
0.7933

> <Gold.Chemscore.Rot>
1.9774

> <Gold.Chemscore.Internal.Correction>
   9.000000E+99

> <Gold.Chemscore.Hbonds>
donor molecule, donor type, donor heavy atom, donor atom, acceptor molecule, acceptor atom, score
      P1  H  7989  7998       L1    11  0.02
      P1  H  7997  8009       L1     4  0.83
      P1  H  8011  8017       L1    11  0.13

> <Gold.Chemscore.Hbond.Weighted>
-6.1110

> <Gold.Chemscore.Metal.Weighted>
-0.0000

> <Gold.Chemscore.Lipo.Weighted>
-9.8423

> <Gold.Chemscore.Internal_Hbond.Weighted>
0.0000

> <Gold.Chemscore.DEClash.Weighted>
0.0758

> <Gold.Chemscore.DEInternal.Weighted>
0.7933

> <Gold.Chemscore.Rot.Weighted>
5.0620

> <Gold.Chemscore.Internal.Correction.Weighted>
   9.000000E+99

> <Gold.Protein.RotatedTorsions>
[ 6907 6896 6895 6894 ] final  108.71 input  -60.11 | X-H torsion
[ 7974 7965 7964 7962 ] final   65.89 input  175.53 | X-H torsion
[ 8008 7997 7996 7995 ] final  135.39 input   59.86 | X-H torsion
[ 10167 10162 10161 10158 ] final   55.76 input  -65.29 | X-H torsion
[ 10718 10713 10712 10709 ] final  -25.15 input   66.30 | X-H torsion
[ 10763 10752 10751 10750 ] final  -13.92 input  -60.55 | X-H torsion
[ 11005 11000 10999 10996 ] final  -83.49 input  -57.11 | X-H torsion

> <Gold.Protein.ActiveResidues>
 VAL166  LYS551  ARG553  GLY616  TRP617  ASP618  TYR619  PRO620  LYS621  CYS622 
 ASP623  PHE694  ASN695  SER759  ASP760  ASP761  ALA762  ILE779  LEU786  VAL792 
 PHE793  MET794  SER795  GLU796  ALA797  LYS798  CYS799  TRP800  GLU811  SER814 

> <Gold.Protein.RotatedAtoms>
  152.5100  133.9050  159.7459 H   0  0  0  0  0  0  0  0  0  0  0  0  # atno 6907 bound_to 6896
  150.9457  133.6598  159.2789 H   0  0  0  0  0  0  0  0  0  0  0  0  # atno 6908 bound_to 6896
  151.3894  135.0958  159.9574 H   0  0  0  0  0  0  0  0  0  0  0  0  # atno 6909 bound_to 6896
  145.8331  139.3151  143.0976 H   0  0  0  0  0  0  0  0  0  0  0  0  # atno 7974 bound_to 7965
  156.3003  140.2472  156.3574 H   0  0  0  0  0  0  0  0  0  0  0  0  # atno 8008 bound_to 7997
  154.8909  140.0409  157.1857 H   0  0  0  0  0  0  0  0  0  0  0  0  # atno 8009 bound_to 7997
  154.8598  140.2919  155.5550 H   0  0  0  0  0  0  0  0  0  0  0  0  # atno 8010 bound_to 7997
  140.2160  144.3839  150.6469 H   0  0  0  0  0  0  0  0  0  0  0  0  # atno 10167 bound_to 10162
  156.4682  130.4518  149.6886 H   0  0  0  0  0  0  0  0  0  0  0  0  # atno 10718 bound_to 10713
  153.5205  135.7016  153.5734 H   0  0  0  0  0  0  0  0  0  0  0  0  # atno 10763 bound_to 10752
  153.3785  135.3926  155.1839 H   0  0  0  0  0  0  0  0  0  0  0  0  # atno 10764 bound_to 10752
  154.8695  135.3829  154.4693 H   0  0  0  0  0  0  0  0  0  0  0  0  # atno 10765 bound_to 10752
  141.1657  133.7297  156.8728 H   0  0  0  0  0  0  0  0  0  0  0  0  # atno 11005 bound_to 11000
  145.9549  140.8880  143.0240 LP  0  0  0  0  0  0  0  0  0  0  0  0  # atno 17320 bound_to 7965
  144.6738  140.1731  143.7412 LP  0  0  0  0  0  0  0  0  0  0  0  0  # atno 17321 bound_to 7965
  140.6290  143.2185  151.6537 LP  0  0  0  0  0  0  0  0  0  0  0  0  # atno 17342 bound_to 10162
  139.5162  144.3354  152.0788 LP  0  0  0  0  0  0  0  0  0  0  0  0  # atno 17343 bound_to 10162
  156.3646  130.7499  151.2475 LP  0  0  0  0  0  0  0  0  0  0  0  0  # atno 17370 bound_to 10713
  157.7493  131.0340  150.4299 LP  0  0  0  0  0  0  0  0  0  0  0  0  # atno 17371 bound_to 10713
  140.1769  134.9060  157.2902 LP  0  0  0  0  0  0  0  0  0  0  0  0  # atno 17394 bound_to 11000
  140.2438  134.3763  155.7469 LP  0  0  0  0  0  0  0  0  0  0  0  0  # atno 17395 bound_to 11000

$$$$
