AV-unprocessed.smi:2398|AV-procd|sdf|9498|dock2
  -GOLD-   2272013123D 1   1.00000     0.00000
 Structure written by MMmdl.
 34 35  0  0  0  0  0  0  0  0  1 V2000
  144.5215  136.3995  152.4180 O   0  0  0  0  0  0  0  0  0  0  0  0
  145.7048  136.1650  152.1741 C   0  0  0  0  0  0  0  0  0  0  0  0
  146.1862  135.0171  151.6659 N   0  0  0  0  0  0  0  0  0  0  0  0
  145.4879  133.8396  151.2767 C   0  0  0  0  0  0  0  0  0  0  0  0
  144.2366  133.8299  150.6124 C   0  0  0  0  0  0  0  0  0  0  0  0
  143.6620  132.5888  150.2718 C   0  0  0  0  0  0  0  0  0  0  0  0
  144.2428  131.4003  150.5399 N   0  0  0  0  0  0  0  0  0  0  0  0
  145.4396  131.4129  151.1634 C   0  0  0  0  0  0  0  0  0  0  0  0
  146.1007  132.5971  151.5462 C   0  0  0  0  0  0  0  0  0  0  0  0
  147.3048  132.5366  152.1648 F   0  0  0  0  0  0  0  0  0  0  0  0
  146.6918  137.0448  152.4002 N   0  0  0  0  0  0  0  0  0  0  0  0
  146.5140  138.3906  152.9384 C   0  0  1  0  0  0  0  0  0  0  0  0
  147.5411  138.6445  154.0565 C   0  0  0  0  0  0  0  0  0  0  0  0
  147.4139  140.0698  154.6237 C   0  0  0  0  0  0  0  0  0  0  0  0
  147.5118  141.1466  153.5264 C   0  0  1  0  0  0  0  0  0  0  0  0
  148.8339  141.2135  153.0294 O   0  0  0  0  0  0  0  0  0  0  0  0
  146.5276  140.8740  152.3730 C   0  0  0  0  0  0  0  0  0  0  0  0
  146.6554  139.4434  151.8209 C   0  0  0  0  0  0  0  0  0  0  0  0
  145.5164  138.4714  153.3750 H   0  0  0  0  0  0  0  0  0  0  0  0
  147.2880  142.1212  153.9616 H   0  0  0  0  0  0  0  0  0  0  0  0
  147.1906  134.9624  151.5783 H   0  0  0  0  0  0  0  0  0  0  0  0
  143.7124  134.7341  150.3475 H   0  0  0  0  0  0  0  0  0  0  0  0
  142.7095  132.5506  149.7638 H   0  0  0  0  0  0  0  0  0  0  0  0
  145.8858  130.4494  151.3615 H   0  0  0  0  0  0  0  0  0  0  0  0
  147.6363  136.7680  152.1755 H   0  0  0  0  0  0  0  0  0  0  0  0
  147.4047  137.9195  154.8597 H   0  0  0  0  0  0  0  0  0  0  0  0
  148.5518  138.4924  153.6743 H   0  0  0  0  0  0  0  0  0  0  0  0
  146.4505  140.1630  155.1264 H   0  0  0  0  0  0  0  0  0  0  0  0
  148.1721  140.2384  155.3893 H   0  0  0  0  0  0  0  0  0  0  0  0
  148.9637  140.4997  152.4239 H   0  0  0  0  0  0  0  0  0  0  0  0
  145.5089  141.0220  152.7336 H   0  0  0  0  0  0  0  0  0  0  0  0
  146.6733  141.5996  151.5718 H   0  0  0  0  0  0  0  0  0  0  0  0
  147.6209  139.3293  151.3265 H   0  0  0  0  0  0  0  0  0  0  0  0
  145.8971  139.2823  151.0539 H   0  0  0  0  0  0  0  0  0  0  0  0
  1  2  2  0  0  0  0
  2  3  1  0  0  0  0
  2 11  1  0  0  0  0
  3  4  1  0  0  0  0
  3 21  1  0  0  0  0
  4  9  1  0  0  0  0
  4  5  2  0  0  0  0
  5  6  1  0  0  0  0
  5 22  1  0  0  0  0
  6  7  2  0  0  0  0
  6 23  1  0  0  0  0
  7  8  1  0  0  0  0
  8  9  2  0  0  0  0
  8 24  1  0  0  0  0
  9 10  1  0  0  0  0
 11 12  1  0  0  0  0
 11 25  1  0  0  0  0
 12 19  1  0  0  0  0
 12 18  1  0  0  0  0
 12 13  1  0  0  0  0
 13 14  1  0  0  0  0
 13 26  1  0  0  0  0
 13 27  1  0  0  0  0
 14 15  1  0  0  0  0
 14 28  1  0  0  0  0
 14 29  1  0  0  0  0
 15 20  1  0  0  0  0
 15 16  1  0  0  0  0
 15 17  1  0  0  0  0
 16 30  1  0  0  0  0
 17 18  1  0  0  0  0
 17 31  1  0  0  0  0
 17 32  1  0  0  0  0
 18 33  1  0  0  0  0
 18 34  1  0  0  0  0
M  END
> <s_m_source_file>
AV-unprocessed.smi

> <i_m_source_file_index>
2398

> <i_lp_mmshare_version>
43012

> <i_f3d_flags>
0

> <s_epik_input>
W0NIMl0xW0NIMl1bQ0BASF0oW09IXSlbQ0gyXVtDSDJdW0NAQEhdMVtOSF1DKD1PKVtOSF1jMltjSF1bY0hdbltjSF1jMkY=

> <s_epik_cmdline>
J2VwaWtfcHl0aG9uJywgJy1waCcsICc3LjAnLCAnLXRuJywgJzgnLCAnLW1hJywgJzIwMCcsICctbWV0YWxfYmluZGluZycsICctaW1hZScsICc8aW5maWxlLm1hZT4nLCAnLW9tYWUnLCAnPG91dGZpbGUubWFlPic=

> <r_epik_Ionization_Penalty>
0.00343298

> <r_epik_Ionization_Penalty_Charging>
0

> <r_epik_Ionization_Penalty_Neutral>
0.00343298

> <r_epik_State_Penalty>
0.00240232

> <r_epik_Charging_Adjusted_Penalty>
0.00240232

> <i_epik_Tot_Q>
0

> <i_epik_Tot_abs_Q>
0

> <r_epik_Metal_State_Penalty>
-0

> <b_epik_Metal_Only>
0

> <s_lp_Force_Field>
OPLS_2005

> <r_lp_Energy>
16.4629

> <b_lp_Chiralities_Consistent>
1

> <s_lp_Variant>
AV-unprocessed.smi:2398-2

> <Gold.Version>
5.8.1

> <Gold.Id.Protein>
6NUR|6NUR_protein|mol2

> <Gold.PLP.Fitness>
42.2451

> <Gold.PLP.PLP>
-30.3519

> <Gold.PLP.part.hbond>
-5.1262

> <Gold.PLP.part.metal>
0.0000

> <Gold.PLP.part.buried>
0.7333

> <Gold.PLP.part.nonpolar>
-26.1631

> <Gold.PLP.part.repulsive>
0.8628

> <Gold.PLP.ligand.clash>
0.0000

> <Gold.PLP.ligand.torsion>
0.4676

> <Gold.PLP.Chemscore.Hbond>
3.4453

> <Gold.PLP.Chemscore.CHOScore>
0.8298

> <Gold.PLP.Chemscore.Metal>
0.0000

> <Gold.Chemscore.Hbonds>
donor molecule, donor type, donor heavy atom, donor atom, acceptor molecule, acceptor atom, score
      L1  H     3    21       P1  7948  0.60
      L1  H    11    25       P1  7948  0.78
      L1  H    16    30       P1  7957  0.83
      P1  H  8011  8017       L1    16  1.00
      P1  H 10785 10796       L1     7  0.02
      L1  C     6    23       P1 10186  0.95
      L1  C     6    23       P1 10952  0.07

> <Gold.PLP.Chemscore.Internal.Correction>
0.0032

> <Gold.Rescore>
     Score         DG    S(hbond)    S(metal)    S(lipo)     H(rot)  DE(clash)    DE(int)     intcor
     18.58     -20.44       2.79        0.00      80.33       1.47       1.43       0.44       ----

> <Gold.Chemscore.Fitness>
18.5761

> <Gold.Chemscore.DG>
-20.4424

> <Gold.Chemscore.ZeroCoef>
-5.4800

> <Gold.Chemscore.Hbond>
2.7888

> <Gold.Chemscore.Metal>
0.0000

> <Gold.Chemscore.Lipo>
80.3334

> <Gold.Chemscore.Internal_Hbond>
0.0000

> <Gold.Chemscore.DEClash>
1.4302

> <Gold.Chemscore.DEInternal>
0.4362

> <Gold.Chemscore.Rot>
1.4653

> <Gold.Chemscore.Internal.Correction>
   9.000000E+99

> <Gold.Chemscore.Hbonds>
donor molecule, donor type, donor heavy atom, donor atom, acceptor molecule, acceptor atom, score
      L1  H     3    21       P1  7948  0.49
      L1  H    11    25       P1  7948  0.77
      L1  H    16    30       P1  7957  0.77
      P1  H  8011  8017       L1    16  0.29
      P1  H 10785 10796       L1     7  0.01

> <Gold.Chemscore.Hbond.Weighted>
-9.3145

> <Gold.Chemscore.Metal.Weighted>
-0.0000

> <Gold.Chemscore.Lipo.Weighted>
-9.3990

> <Gold.Chemscore.Internal_Hbond.Weighted>
0.0000

> <Gold.Chemscore.DEClash.Weighted>
1.4302

> <Gold.Chemscore.DEInternal.Weighted>
0.4362

> <Gold.Chemscore.Rot.Weighted>
3.7511

> <Gold.Chemscore.Internal.Correction.Weighted>
   9.000000E+99

> <Gold.Protein.RotatedTorsions>
[ 6907 6896 6895 6894 ] final  135.38 input  -60.11 | X-H torsion
[ 7974 7965 7964 7962 ] final  169.68 input  175.53 | X-H torsion
[ 8008 7997 7996 7995 ] final   37.44 input   59.86 | X-H torsion
[ 10167 10162 10161 10158 ] final -123.27 input  -65.29 | X-H torsion
[ 10718 10713 10712 10709 ] final -127.88 input   66.30 | X-H torsion
[ 10763 10752 10751 10750 ] final  159.13 input  -60.55 | X-H torsion
[ 11005 11000 10999 10996 ] final -141.97 input  -57.11 | X-H torsion

> <Gold.Protein.ActiveResidues>
 VAL166  LYS551  ARG553  GLY616  TRP617  ASP618  TYR619  PRO620  LYS621  CYS622 
 ASP623  PHE694  ASN695  SER759  ASP760  ASP761  ALA762  ILE779  LEU786  VAL792 
 PHE793  MET794  SER795  GLU796  ALA797  LYS798  CYS799  TRP800  GLU811  SER814 

> <Gold.Protein.RotatedAtoms>
  152.3010  133.5656  159.5618 H   0  0  0  0  0  0  0  0  0  0  0  0  # atno 6907 bound_to 6896
  150.7278  134.0291  159.3736 H   0  0  0  0  0  0  0  0  0  0  0  0  # atno 6908 bound_to 6896
  151.8190  135.0658  160.0473 H   0  0  0  0  0  0  0  0  0  0  0  0  # atno 6909 bound_to 6896
  144.7347  139.9090  143.6414 H   0  0  0  0  0  0  0  0  0  0  0  0  # atno 7974 bound_to 7965
  155.2039  140.3318  155.4339 H   0  0  0  0  0  0  0  0  0  0  0  0  # atno 8008 bound_to 7997
  156.2396  140.1889  156.7074 H   0  0  0  0  0  0  0  0  0  0  0  0  # atno 8009 bound_to 7997
  154.6123  140.0607  156.9495 H   0  0  0  0  0  0  0  0  0  0  0  0  # atno 8010 bound_to 7997
  140.0053  143.5498  152.2286 H   0  0  0  0  0  0  0  0  0  0  0  0  # atno 10167 bound_to 10162
  156.1898  130.6788  151.0410 H   0  0  0  0  0  0  0  0  0  0  0  0  # atno 10718 bound_to 10713
  154.2270  135.2780  155.2904 H   0  0  0  0  0  0  0  0  0  0  0  0  # atno 10763 bound_to 10752
  154.5655  135.5634  153.7050 H   0  0  0  0  0  0  0  0  0  0  0  0  # atno 10764 bound_to 10752
  153.0029  135.6308  154.2411 H   0  0  0  0  0  0  0  0  0  0  0  0  # atno 10765 bound_to 10752
  140.8271  134.2561  157.4874 H   0  0  0  0  0  0  0  0  0  0  0  0  # atno 11005 bound_to 11000
  146.1015  139.4011  143.0344 LP  0  0  0  0  0  0  0  0  0  0  0  0  # atno 17320 bound_to 7965
  145.7572  140.9949  143.1219 LP  0  0  0  0  0  0  0  0  0  0  0  0  # atno 17321 bound_to 7965
  139.6243  144.7634  151.2672 LP  0  0  0  0  0  0  0  0  0  0  0  0  # atno 17342 bound_to 10162
  140.7403  143.6592  150.8179 LP  0  0  0  0  0  0  0  0  0  0  0  0  # atno 17343 bound_to 10162
  157.6922  131.0806  150.7075 LP  0  0  0  0  0  0  0  0  0  0  0  0  # atno 17370 bound_to 10713
  156.7131  130.4658  149.5542 LP  0  0  0  0  0  0  0  0  0  0  0  0  # atno 17371 bound_to 10713
  139.8706  134.9566  156.4244 LP  0  0  0  0  0  0  0  0  0  0  0  0  # atno 17394 bound_to 11000
  140.9037  133.7761  155.9710 LP  0  0  0  0  0  0  0  0  0  0  0  0  # atno 17395 bound_to 11000

$$$$
