#       Name:                AV-unprocessed.smi:203
#       Creating user name   scv26
#       Creation time:       Thu Mar 26 19:48:16 2020


#       File generated by GOLD software.
#

@<TRIPOS>MOLECULE
AV-unprocessed.smi:203
    67    71     1
SMALL
NO_CHARGES


@<TRIPOS>ATOM
      1 ****        -4.9230   0.5112  -4.4572 O.2            1 S1                 0.0000
      2 ****        -4.2357   0.8247  -3.4881 C.2            1 S1                 0.0000
      3 ****        -3.2244  -0.1062  -2.8406 C.3            1 S1                 0.0000
      4 ****        -2.8165   0.6374  -1.5532 C.3            1 S1                 0.0000
      5 ****        -3.2995  -0.0549  -0.2390 C.3            1 S1                 0.0000
      6 ****        -4.8414  -0.2216  -0.1799 C.3            1 S1                 0.0000
      7 ****        -5.2924  -0.9040   1.1181 C.3            1 S1                 0.0000
      8 ****        -4.7618  -0.1284   2.3282 C.3            1 S1                 0.0000
      9 ****        -3.2364   0.0118   2.2445 C.3            1 S1                 0.0000
     10 ****        -2.8265   0.6244   0.9810 N.3            1 S1                 0.0000
     11 ****        -1.5151   0.9496   1.0182 C.ar           1 S1                 0.0000
     12 ****        -1.2069   2.2626   1.1546 N.ar           1 S1                 0.0000
     13 ****         0.0730   2.6462   1.1933 C.ar           1 S1                 0.0000
     14 ****         1.1735   1.8941   1.1197 N.ar           1 S1                 0.0000
     15 ****         0.8634   0.5720   0.9886 C.ar           1 S1                 0.0000
     16 ****        -0.4448   0.0158   0.9279 C.ar           1 S1                 0.0000
     17 ****        -0.3684  -1.3651   0.7904 N.2            1 S1                 0.0000
     18 ****         0.9133  -1.6114   0.7723 C.2            1 S1                 0.0000
     19 ****         1.7248  -0.5059   0.8881 N.pl3          1 S1                 0.0000
     20 ****         3.1767  -0.4933   0.9028 C.3            1 S1                 0.0000
     21 ****         3.7808  -0.6032  -0.5133 C.3            1 S1                 0.0000
     22 ****         3.3291   0.4577  -1.3314 O.3            1 S1                 0.0000
     23 ****         5.3231  -0.6299  -0.5451 C.3            1 S1                 0.0000
     24 ****         5.9427  -1.9660  -0.1159 C.3            1 S1                 0.0000
     25 ****         7.2405  -1.5764   0.5803 C.3            1 S1                 0.0000
     26 ****         7.2511  -0.0497   0.5276 C.3            1 S1                 0.0000
     27 ****         5.8847   0.2961   0.3742 O.3            1 S1                 0.0000
     28 ****        -3.3508   2.0759  -1.7383 C.3            1 S1                 0.0000
     29 ****        -4.2594   2.0009  -2.8654 N.am           1 S1                 0.0000
     30 ****        -3.6438  -1.0955  -2.6583 H              1 S1                 0.0000
     31 ****        -2.3730  -0.2225  -3.5119 H              1 S1                 0.0000
     32 ****        -1.7267   0.6755  -1.5507 H              1 S1                 0.0000
     33 ****        -2.8720  -1.0580  -0.2272 H              1 S1                 0.0000
     34 ****        -5.3306   0.7499  -0.2530 H              1 S1                 0.0000
     35 ****        -5.2023  -0.8074  -1.0243 H              1 S1                 0.0000
     36 ****        -6.3806  -0.9609   1.1555 H              1 S1                 0.0000
     37 ****        -4.9226  -1.9298   1.1441 H              1 S1                 0.0000
     38 ****        -5.2207   0.8605   2.3634 H              1 S1                 0.0000
     39 ****        -5.0406  -0.6359   3.2519 H              1 S1                 0.0000
     40 ****        -2.8812   0.6128   3.0832 H              1 S1                 0.0000
     41 ****        -2.7722  -0.9710   2.3392 H              1 S1                 0.0000
     42 ****         0.2395   3.7081   1.2993 H              1 S1                 0.0000
     43 ****         1.3055  -2.6131   0.6738 H              1 S1                 0.0000
     44 ****         3.5094   0.4220   1.3939 H              1 S1                 0.0000
     45 ****         3.5133  -1.3196   1.5290 H              1 S1                 0.0000
     46 ****         3.4161  -1.5178  -0.9827 H              1 S1                 0.0000
     47 ****         3.6260   1.2718  -0.9537 H              1 S1                 0.0000
     48 ****         5.6847  -0.3906  -1.5474 H              1 S1                 0.0000
     49 ****         5.2992  -2.4998   0.5840 H              1 S1                 0.0000
     50 ****         6.1118  -2.6214  -0.9708 H              1 S1                 0.0000
     51 ****         7.2268  -1.9228   1.6144 H              1 S1                 0.0000
     52 ****         8.1196  -2.0019   0.0958 H              1 S1                 0.0000
     53 ****         7.6822   0.4006   1.4219 H              1 S1                 0.0000
     54 ****         7.8123   0.3036  -0.3390 H              1 S1                 0.0000
     55 ****        -3.8580   2.4646  -0.8552 H              1 S1                 0.0000
     56 ****        -2.5391   2.7626  -1.9814 H              1 S1                 0.0000
     57 ****        -4.8549   2.7708  -3.1343 H              1 S1                 0.0000
     58 ****        -5.5706   1.1676  -4.8443 LP             1 S1                 0.0000
     59 ****        -4.8348  -0.4003  -4.8589 LP             1 S1                 0.0000
     60 ****        -3.3250   1.4871   0.8949 LP             1 S1                 0.0000
     61 ****        -1.9360   2.9433   1.2261 LP             1 S1                 0.0000
     62 ****         2.1058   2.2538   1.1560 LP             1 S1                 0.0000
     63 ****        -1.1217  -2.0191   0.7212 LP             1 S1                 0.0000
     64 ****         2.3300   0.4496  -1.3744 LP             1 S1                 0.0000
     65 ****         3.7032   0.3565  -2.2533 LP             1 S1                 0.0000
     66 ****         5.4139   0.2348   1.2543 LP             1 S1                 0.0000
     67 ****         5.8038   1.2267   0.0170 LP             1 S1                 0.0000
@<TRIPOS>BOND
    1    1    2 2     
    2    2   29 am    
    3    2    3 1     
    4    3    4 1     
    5    3   30 1     
    6    3   31 1     
    7    4    5 1     
    8    4   28 1     
    9    4   32 1     
   10    5   10 1     
   11    5    6 1     
   12    5   33 1     
   13    6    7 1     
   14    6   34 1     
   15    6   35 1     
   16    7    8 1     
   17    7   36 1     
   18    7   37 1     
   19    8    9 1     
   20    8   38 1     
   21    8   39 1     
   22    9   10 1     
   23    9   40 1     
   24    9   41 1     
   25   10   11 1     
   26   11   16 ar    
   27   11   12 ar    
   28   12   13 ar    
   29   13   14 ar    
   30   13   42 1     
   31   14   15 ar    
   32   15   19 1     
   33   15   16 ar    
   34   16   17 1     
   35   17   18 2     
   36   18   19 1     
   37   18   43 1     
   38   19   20 1     
   39   20   21 1     
   40   20   44 1     
   41   20   45 1     
   42   21   22 1     
   43   21   23 1     
   44   21   46 1     
   45   22   47 1     
   46   23   27 1     
   47   23   24 1     
   48   23   48 1     
   49   24   25 1     
   50   24   49 1     
   51   24   50 1     
   52   25   26 1     
   53   25   51 1     
   54   25   52 1     
   55   26   27 1     
   56   26   53 1     
   57   26   54 1     
   58   28   29 1     
   59   28   55 1     
   60   28   56 1     
   61   29   57 1     
   62    1   58 1     
   63    1   59 1     
   64   10   60 1     
   65   12   61 1     
   66   14   62 1     
   67   17   63 1     
   68   22   64 1     
   69   22   65 1     
   70   27   66 1     
   71   27   67 1     
@<TRIPOS>SUBSTRUCTURE
      1 S1             1
@<TRIPOS>SET
LONE_PAIRS      STATIC     ATOMS    <user>   **** ""
10 58 59 60 61 62 63 64 65 66 67
DONOR_HYDROGENS      STATIC     ATOMS    <user>   **** ""
2 47 57
ATOM$BLUE        STATIC     ATOMS    COLORGROUP SYSTEM
10 58 59 60 61 62 63 64 65 66 67
ATOM$RED        STATIC     ATOMS    COLORGROUP SYSTEM
2 47 57
