#       Name:                AV-unprocessed.smi:3338
#       Creating user name   scv26
#       Creation time:       Fri Mar 27 19:27:49 2020


#       File generated by GOLD software.
#

@<TRIPOS>MOLECULE
AV-unprocessed.smi:3338
    47    48     1
SMALL
NO_CHARGES


@<TRIPOS>ATOM
      1 ****        -4.3715  -0.6278  -1.4982 C.3            1 S1                 0.0000
      2 ****        -4.3437   0.1801  -0.1889 C.3            1 S1                 0.0000
      3 ****        -4.7352   1.6556  -0.3891 C.3            1 S1                 0.0000
      4 ****        -3.6076   2.4415  -1.0721 C.3            1 S1                 0.0000
      5 ****        -2.2811   2.2731  -0.3145 C.3            1 S1                 0.0000
      6 ****        -1.9200   0.8387  -0.1731 N.4            1 S1                 1.0000
      7 ****        -0.5723   0.6596   0.4241 C.3            1 S1                 0.0000
      8 ****         0.0436  -0.7091   0.0916 C.3            1 S1                 0.0000
      9 ****         1.3875  -0.8093   0.6425 N.am           1 S1                 0.0000
     10 ****         2.1960  -1.8673   0.4774 C.2            1 S1                 0.0000
     11 ****         1.8538  -2.8772  -0.1389 O.2            1 S1                 0.0000
     12 ****         3.5960  -1.7606   1.1075 C.3            1 S1                 0.0000
     13 ****         4.3438  -3.1081   1.1500 C.3            1 S1                 0.0000
     14 ****         4.3859  -0.7291   0.4436 N.pl3          1 S1                 0.0000
     15 ****         4.7728   0.4981   0.9429 C.2            1 S1                 0.0000
     16 ****         5.4800   1.1354  -0.0359 C.2            1 S1                 0.0000
     17 ****         5.4731   0.2093  -1.1155 C.2            1 S1                 0.0000
     18 ****         4.8153  -0.9019  -0.8285 N.2            1 S1                 0.0000
     19 ****        -2.9843   0.0734   0.5331 C.3            1 S1                 0.0000
     20 ****        -3.6249  -0.2766  -2.2107 H              1 S1                 0.0000
     21 ****        -5.3474  -0.5600  -1.9800 H              1 S1                 0.0000
     22 ****        -4.1736  -1.6833  -1.3097 H              1 S1                 0.0000
     23 ****        -5.0954  -0.2679   0.4625 H              1 S1                 0.0000
     24 ****        -5.6567   1.7333  -0.9670 H              1 S1                 0.0000
     25 ****        -4.9454   2.1064   0.5818 H              1 S1                 0.0000
     26 ****        -3.4890   2.1054  -2.1026 H              1 S1                 0.0000
     27 ****        -3.8726   3.4980  -1.1256 H              1 S1                 0.0000
     28 ****        -1.4950   2.8017  -0.8553 H              1 S1                 0.0000
     29 ****        -2.3495   2.7307   0.6739 H              1 S1                 0.0000
     30 ****         0.0960   1.4298   0.0358 H              1 S1                 0.0000
     31 ****        -0.6233   0.8114   1.5036 H              1 S1                 0.0000
     32 ****        -0.5584  -1.5223   0.4974 H              1 S1                 0.0000
     33 ****         0.0863  -0.8460  -0.9903 H              1 S1                 0.0000
     34 ****         1.7370  -0.0175   1.1627 H              1 S1                 0.0000
     35 ****         3.4516  -1.4401   2.1406 H              1 S1                 0.0000
     36 ****         3.7751  -3.8576   1.7014 H              1 S1                 0.0000
     37 ****         5.3081  -3.0005   1.6475 H              1 S1                 0.0000
     38 ****         4.5312  -3.5029   0.1505 H              1 S1                 0.0000
     39 ****         4.5160   0.8133   1.9436 H              1 S1                 0.0000
     40 ****         5.9341   2.1142   0.0117 H              1 S1                 0.0000
     41 ****         5.9213   0.3112  -2.0929 H              1 S1                 0.0000
     42 ****        -3.0782   0.4544   1.5514 H              1 S1                 0.0000
     43 ****        -2.7103  -0.9772   0.6220 H              1 S1                 0.0000
     44 ****        -1.8671   0.4697  -1.1120 H              1 S1                 0.0000
     45 ****         0.9398  -2.9319  -0.5410 LP             1 S1                 0.0000
     46 ****         2.4899  -3.6426  -0.2372 LP             1 S1                 0.0000
     47 ****         4.6678  -1.6944  -1.4203 LP             1 S1                 0.0000
@<TRIPOS>BOND
    1    1    2 1     
    2    1   20 1     
    3    1   21 1     
    4    1   22 1     
    5    2   19 1     
    6    2    3 1     
    7    2   23 1     
    8    3    4 1     
    9    3   24 1     
   10    3   25 1     
   11    4    5 1     
   12    4   26 1     
   13    4   27 1     
   14    5    6 1     
   15    5   28 1     
   16    5   29 1     
   17    6    7 1     
   18    6   19 1     
   19    6   44 1     
   20    7    8 1     
   21    7   30 1     
   22    7   31 1     
   23    8    9 1     
   24    8   32 1     
   25    8   33 1     
   26    9   10 am    
   27    9   34 1     
   28   10   11 2     
   29   10   12 1     
   30   12   13 1     
   31   12   14 1     
   32   12   35 1     
   33   13   36 1     
   34   13   37 1     
   35   13   38 1     
   36   14   18 1     
   37   14   15 1     
   38   15   16 2     
   39   15   39 1     
   40   16   17 1     
   41   16   40 1     
   42   17   18 2     
   43   17   41 1     
   44   19   42 1     
   45   19   43 1     
   46   11   45 1     
   47   11   46 1     
   48   18   47 1     
@<TRIPOS>SUBSTRUCTURE
      1 S1             1
@<TRIPOS>SET
LONE_PAIRS      STATIC     ATOMS    <user>   **** ""
3 45 46 47
DONOR_HYDROGENS      STATIC     ATOMS    <user>   **** ""
2 44 34
ATOM$BLUE        STATIC     ATOMS    COLORGROUP SYSTEM
3 45 46 47
ATOM$RED        STATIC     ATOMS    COLORGROUP SYSTEM
2 44 34
