AV-unprocessed.smi:2924|AV-procd|sdf|11221|dock6
  -GOLD-   2272016113D 1   1.00000     0.00000
 Structure written by MMmdl.
 29 31  0  0  0  0  0  0  0  0  1 V2000
  154.4470  141.4283  161.4967 N   0  0  0  0  0  0  0  0  0  0  0  0
  153.6706  141.9898  160.8483 C   0  0  0  0  0  0  0  0  0  0  0  0
  152.6926  142.6977  160.0311 C   0  0  0  0  0  0  0  0  0  0  0  0
  152.3951  144.0429  160.3349 C   0  0  0  0  0  0  0  0  0  0  0  0
  151.4540  144.7319  159.5486 C   0  0  0  0  0  0  0  0  0  0  0  0
  150.8439  144.0434  158.4845 C   0  0  0  0  0  0  0  0  0  0  0  0
  151.1190  142.7575  158.1833 N   0  0  0  0  0  0  0  0  0  0  0  0
  152.0265  142.0868  158.9346 C   0  0  0  0  0  0  0  0  0  0  0  0
  152.2907  140.7466  158.5966 N   0  0  0  0  0  0  0  0  0  0  0  0
  151.4938  140.0391  157.5995 C   0  0  1  0  0  0  0  0  0  0  0  0
  151.3901  140.7925  156.2668 C   0  0  0  0  0  0  0  0  0  0  0  0
  151.9222  139.7532  155.2725 C   0  0  2  0  0  0  0  0  0  0  0  0
  150.9669  138.5635  155.1070 C   0  0  0  0  0  0  0  0  0  0  0  0
  151.1647  137.8186  156.4268 C   0  0  0  0  0  0  0  0  0  0  0  0
  152.1634  138.7273  157.1565 C   0  0  1  0  0  0  0  0  0  0  0  0
  152.9447  139.1636  156.0557 O   0  0  0  0  0  0  0  0  0  0  0  0
  152.8800  144.5458  161.1594 H   0  0  0  0  0  0  0  0  0  0  0  0
  151.2059  145.7623  159.7559 H   0  0  0  0  0  0  0  0  0  0  0  0
  150.1159  144.5374  157.8584 H   0  0  0  0  0  0  0  0  0  0  0  0
  153.1627  140.3292  158.8894 H   0  0  0  0  0  0  0  0  0  0  0  0
  150.5084  139.8245  158.0150 H   0  0  0  0  0  0  0  0  0  0  0  0
  150.3702  141.1035  156.0390 H   0  0  0  0  0  0  0  0  0  0  0  0
  152.0235  141.6809  156.2553 H   0  0  0  0  0  0  0  0  0  0  0  0
  152.2671  140.1797  154.3304 H   0  0  0  0  0  0  0  0  0  0  0  0
  149.9358  138.8812  154.9493 H   0  0  0  0  0  0  0  0  0  0  0  0
  151.2653  137.9367  154.2659 H   0  0  0  0  0  0  0  0  0  0  0  0
  150.2361  137.6855  156.9826 H   0  0  0  0  0  0  0  0  0  0  0  0
  151.5991  136.8344  156.2477 H   0  0  0  0  0  0  0  0  0  0  0  0
  152.7245  138.2164  157.9399 H   0  0  0  0  0  0  0  0  0  0  0  0
  1  2  3  0  0  0  0
  2  3  1  0  0  0  0
  3  8  1  0  0  0  0
  3  4  2  0  0  0  0
  4  5  1  0  0  0  0
  4 17  1  0  0  0  0
  5  6  2  0  0  0  0
  5 18  1  0  0  0  0
  6  7  1  0  0  0  0
  6 19  1  0  0  0  0
  7  8  2  0  0  0  0
  8  9  1  0  0  0  0
  9 10  1  0  0  0  0
  9 20  1  0  0  0  0
 10 15  1  0  0  0  0
 10 11  1  0  0  0  0
 10 21  1  0  0  0  0
 11 12  1  0  0  0  0
 11 22  1  0  0  0  0
 11 23  1  0  0  0  0
 12 16  1  0  0  0  0
 12 13  1  0  0  0  0
 12 24  1  0  0  0  0
 13 14  1  0  0  0  0
 13 25  1  0  0  0  0
 13 26  1  0  0  0  0
 14 15  1  0  0  0  0
 14 27  1  0  0  0  0
 14 28  1  0  0  0  0
 15 16  1  0  0  0  0
 15 29  1  0  0  0  0
M  END
> <s_m_source_file>
AV-unprocessed.smi

> <i_m_source_file_index>
2924

> <i_lp_mmshare_version>
43012

> <i_f3d_flags>
0

> <s_epik_input>
TiNDYzFbY0hdW2NIXVtjSF1uYzFbTkhdW0NASF0oW0NIMl1bQ0BASF0yMylbQ0BASF0oTzMpW0NIMl1bQ0gyXTI=

> <s_epik_cmdline>
J2VwaWtfcHl0aG9uJywgJy1waCcsICc3LjAnLCAnLXRuJywgJzgnLCAnLW1hJywgJzIwMCcsICctbWV0YWxfYmluZGluZycsICctaW1hZScsICc8aW5maWxlLm1hZT4nLCAnLW9tYWUnLCAnPG91dGZpbGUubWFlPic=

> <r_lp_tautomer_probability>
1

> <r_epik_Ionization_Penalty>
2.11559e-05

> <r_epik_Ionization_Penalty_Charging>
0

> <r_epik_Ionization_Penalty_Neutral>
2.11559e-05

> <r_epik_State_Penalty>
-0

> <r_epik_Charging_Adjusted_Penalty>
0

> <i_epik_Tot_Q>
0

> <i_epik_Tot_abs_Q>
0

> <r_epik_Metal_State_Penalty>
-0

> <b_epik_Metal_Only>
0

> <s_lp_Force_Field>
OPLS_2005

> <r_lp_Energy>
42.1946

> <b_lp_Chiralities_Consistent>
1

> <s_lp_Variant>
AV-unprocessed.smi:2924-4

> <Gold.Version>
5.8.1

> <Gold.Id.Protein>
6NUR|6NUR_protein|mol2

> <Gold.PLP.Fitness>
40.3183

> <Gold.PLP.PLP>
-34.3396

> <Gold.PLP.part.hbond>
-2.0000

> <Gold.PLP.part.metal>
0.0000

> <Gold.PLP.part.buried>
-4.2606

> <Gold.PLP.part.nonpolar>
-28.1141

> <Gold.PLP.part.repulsive>
0.1855

> <Gold.PLP.ligand.clash>
0.0000

> <Gold.PLP.ligand.torsion>
0.1228

> <Gold.PLP.Chemscore.Hbond>
1.0000

> <Gold.PLP.Chemscore.CHOScore>
1.0682

> <Gold.PLP.Chemscore.Metal>
0.0000

> <Gold.Chemscore.Hbonds>
donor molecule, donor type, donor heavy atom, donor atom, acceptor molecule, acceptor atom, score
      P1  H  7997  8009       L1    16  1.00
      L1  C     6    19       P1  8028  0.83
      L1  C     6    19       P1  8029  0.25

> <Gold.PLP.Chemscore.Internal.Correction>
0.0197

> <Gold.Rescore>
     Score         DG    S(hbond)    S(metal)    S(lipo)     H(rot)  DE(clash)    DE(int)     intcor
     13.36     -15.33       0.83        0.00      82.39       1.00       0.45       1.52       ----

> <Gold.Chemscore.Fitness>
13.3584

> <Gold.Chemscore.DG>
-15.3265

> <Gold.Chemscore.ZeroCoef>
-5.4800

> <Gold.Chemscore.Hbond>
0.8284

> <Gold.Chemscore.Metal>
0.0000

> <Gold.Chemscore.Lipo>
82.3894

> <Gold.Chemscore.Internal_Hbond>
0.0000

> <Gold.Chemscore.DEClash>
0.4522

> <Gold.Chemscore.DEInternal>
1.5160

> <Gold.Chemscore.Rot>
1.0000

> <Gold.Chemscore.Internal.Correction>
   9.000000E+99

> <Gold.Chemscore.Hbonds>
donor molecule, donor type, donor heavy atom, donor atom, acceptor molecule, acceptor atom, score
      P1  H  7997  8009       L1    16  0.82

> <Gold.Chemscore.Hbond.Weighted>
-2.7670

> <Gold.Chemscore.Metal.Weighted>
-0.0000

> <Gold.Chemscore.Lipo.Weighted>
-9.6396

> <Gold.Chemscore.Internal_Hbond.Weighted>
0.0000

> <Gold.Chemscore.DEClash.Weighted>
0.4522

> <Gold.Chemscore.DEInternal.Weighted>
1.5160

> <Gold.Chemscore.Rot.Weighted>
2.5600

> <Gold.Chemscore.Internal.Correction.Weighted>
   9.000000E+99

> <Gold.Protein.RotatedTorsions>
[ 6907 6896 6895 6894 ] final   85.88 input  -60.11 | X-H torsion
[ 7974 7965 7964 7962 ] final -138.36 input  175.53 | X-H torsion
[ 8008 7997 7996 7995 ] final -149.55 input   59.86 | X-H torsion
[ 10167 10162 10161 10158 ] final   81.44 input  -65.29 | X-H torsion
[ 10718 10713 10712 10709 ] final  -71.21 input   66.30 | X-H torsion
[ 10763 10752 10751 10750 ] final  172.30 input  -60.55 | X-H torsion
[ 11005 11000 10999 10996 ] final  -51.25 input  -57.11 | X-H torsion

> <Gold.Protein.ActiveResidues>
 VAL166  LYS551  ARG553  GLY616  TRP617  ASP618  TYR619  PRO620  LYS621  CYS622 
 ASP623  PHE694  ASN695  SER759  ASP760  ASP761  ALA762  ILE779  LEU786  VAL792 
 PHE793  MET794  SER795  GLU796  ALA797  LYS798  CYS799  TRP800  GLU811  SER814 

> <Gold.Protein.RotatedAtoms>
  152.5384  134.2517  159.8901 H   0  0  0  0  0  0  0  0  0  0  0  0  # atno 6907 bound_to 6896
  151.2480  133.4358  159.2618 H   0  0  0  0  0  0  0  0  0  0  0  0  # atno 6908 bound_to 6896
  151.0565  134.9722  159.8295 H   0  0  0  0  0  0  0  0  0  0  0  0  # atno 6909 bound_to 6896
  144.8765  140.6444  143.5233 H   0  0  0  0  0  0  0  0  0  0  0  0  # atno 7974 bound_to 7965
  155.6094  140.0670  157.2710 H   0  0  0  0  0  0  0  0  0  0  0  0  # atno 8008 bound_to 7997
  154.4257  140.1804  156.1304 H   0  0  0  0  0  0  0  0  0  0  0  0  # atno 8009 bound_to 7997
  156.0097  140.3328  155.6931 H   0  0  0  0  0  0  0  0  0  0  0  0  # atno 8010 bound_to 7997
  139.9392  144.6101  150.8268 H   0  0  0  0  0  0  0  0  0  0  0  0  # atno 10167 bound_to 10162
  156.0373  130.4347  150.2410 H   0  0  0  0  0  0  0  0  0  0  0  0  # atno 10718 bound_to 10713
  154.4242  135.2758  155.1955 H   0  0  0  0  0  0  0  0  0  0  0  0  # atno 10763 bound_to 10752
  154.3889  135.6071  153.5835 H   0  0  0  0  0  0  0  0  0  0  0  0  # atno 10764 bound_to 10752
  152.9834  135.5898  154.4543 H   0  0  0  0  0  0  0  0  0  0  0  0  # atno 10765 bound_to 10752
  141.0860  133.6642  156.3849 H   0  0  0  0  0  0  0  0  0  0  0  0  # atno 11005 bound_to 11000
  145.4033  139.1593  143.4165 LP  0  0  0  0  0  0  0  0  0  0  0  0  # atno 17320 bound_to 7965
  146.2966  140.4132  142.8719 LP  0  0  0  0  0  0  0  0  0  0  0  0  # atno 17321 bound_to 7965
  140.7616  143.3177  151.2694 LP  0  0  0  0  0  0  0  0  0  0  0  0  # atno 17342 bound_to 10162
  139.6718  144.0006  152.2757 LP  0  0  0  0  0  0  0  0  0  0  0  0  # atno 17343 bound_to 10162
  157.0508  131.0062  151.3254 LP  0  0  0  0  0  0  0  0  0  0  0  0  # atno 17370 bound_to 10713
  157.5142  130.7957  149.7737 LP  0  0  0  0  0  0  0  0  0  0  0  0  # atno 17371 bound_to 10713
  140.5361  134.6166  157.5365 LP  0  0  0  0  0  0  0  0  0  0  0  0  # atno 17394 bound_to 11000
  139.9679  134.7342  156.0101 LP  0  0  0  0  0  0  0  0  0  0  0  0  # atno 17395 bound_to 11000

$$$$
