#       Name:                AV-unprocessed.smi:1813
#       Creating user name   scv26
#       Creation time:       Fri Mar 27 09:00:33 2020


#       File generated by GOLD software.
#

@<TRIPOS>MOLECULE
AV-unprocessed.smi:1813
    45    46     1
SMALL
NO_CHARGES


@<TRIPOS>ATOM
      1 ****        -5.1974   3.5940  -0.0862 C.3            1 S1                 0.0000
      2 ****        -4.7646   2.2074  -0.2147 N.pl3          1 S1                -1.0000
      3 ****        -4.1501   1.7127  -1.3224 C.2            1 S1                 0.0000
      4 ****        -3.8509   2.2580  -2.3899 O.2            1 S1                 0.0000
      5 ****        -3.7704   0.2397  -1.1333 C.3            1 S1                 0.0000
      6 ****        -2.2963   0.1072  -1.0247 N.4            1 S1                 1.0000
      7 ****        -1.8118  -1.2240  -1.4688 C.3            1 S1                 0.0000
      8 ****        -0.2752  -1.2724  -1.4962 C.3            1 S1                 0.0000
      9 ****         0.3198  -0.9127  -0.1252 C.3            1 S1                 0.0000
     10 ****         1.7764  -0.8719  -0.2151 N.am           1 S1                 0.0000
     11 ****         2.6204  -1.0659   0.8086 C.2            1 S1                 0.0000
     12 ****         2.2495  -1.3076   1.9577 O.2            1 S1                 0.0000
     13 ****         3.9000  -0.9562   0.4107 N.am           1 S1                 0.0000
     14 ****         5.0776  -1.1167   1.1869 C.2            1 S1                 0.0000
     15 ****         5.0872  -1.4343   2.4868 N.2            1 S1                 0.0000
     16 ****         6.3859  -1.5324   2.9924 C.2            1 S1                 0.0000
     17 ****         7.3596  -1.2838   2.0573 C.2            1 S1                 0.0000
     18 ****         6.6804  -0.9154   0.4946 S.3            1 S1                 0.0000
     19 ****        -0.2351   0.4464   0.3391 C.3            1 S1                 0.0000
     20 ****        -1.7722   0.4562   0.3231 C.3            1 S1                 0.0000
     21 ****        -5.7444   3.7637   0.8409 H              1 S1                 0.0000
     22 ****        -5.8586   3.9034  -0.8961 H              1 S1                 0.0000
     23 ****        -4.3578   4.2898  -0.0807 H              1 S1                 0.0000
     24 ****        -4.2629  -0.2207  -0.2737 H              1 S1                 0.0000
     25 ****        -4.1298  -0.2939  -2.0144 H              1 S1                 0.0000
     26 ****        -2.2035  -1.9959  -0.8043 H              1 S1                 0.0000
     27 ****        -2.1924  -1.4408  -2.4676 H              1 S1                 0.0000
     28 ****         0.0567  -2.2661  -1.7992 H              1 S1                 0.0000
     29 ****         0.0926  -0.5791  -2.2543 H              1 S1                 0.0000
     30 ****         0.0226  -1.6826   0.5898 H              1 S1                 0.0000
     31 ****         2.1707  -0.6808  -1.1246 H              1 S1                 0.0000
     32 ****         4.0514  -0.7397  -0.5634 H              1 S1                 0.0000
     33 ****         6.5265  -1.7854   4.0329 H              1 S1                 0.0000
     34 ****         8.4309  -1.2963   2.1924 H              1 S1                 0.0000
     35 ****         0.1212   0.6765   1.3440 H              1 S1                 0.0000
     36 ****         0.1371   1.2414  -0.3092 H              1 S1                 0.0000
     37 ****        -2.1208   1.4448   0.6218 H              1 S1                 0.0000
     38 ****        -2.1605  -0.2492   1.0595 H              1 S1                 0.0000
     39 ****        -1.9135   0.7808  -1.6729 H              1 S1                 0.0000
     40 ****        -4.9283   1.5874   0.5525 LP             1 S1                 0.0000
     41 ****        -4.0656   3.2238  -2.5355 LP             1 S1                 0.0000
     42 ****        -3.3939   1.7336  -3.1084 LP             1 S1                 0.0000
     43 ****         1.2733  -1.3678   2.1657 LP             1 S1                 0.0000
     44 ****         2.9246  -1.4436   2.6828 LP             1 S1                 0.0000
     45 ****         4.2623  -1.5837   3.0319 LP             1 S1                 0.0000
@<TRIPOS>BOND
    1    1    2 1     
    2    1   21 1     
    3    1   22 1     
    4    1   23 1     
    5    2    3 1     
    6    3    4 2     
    7    3    5 1     
    8    5    6 1     
    9    5   24 1     
   10    5   25 1     
   11    6   20 1     
   12    6    7 1     
   13    6   39 1     
   14    7    8 1     
   15    7   26 1     
   16    7   27 1     
   17    8    9 1     
   18    8   28 1     
   19    8   29 1     
   20    9   10 1     
   21    9   19 1     
   22    9   30 1     
   23   10   11 am    
   24   10   31 1     
   25   11   12 2     
   26   11   13 am    
   27   13   14 1     
   28   13   32 1     
   29   14   18 1     
   30   14   15 2     
   31   15   16 1     
   32   16   17 2     
   33   16   33 1     
   34   17   18 1     
   35   17   34 1     
   36   19   20 1     
   37   19   35 1     
   38   19   36 1     
   39   20   37 1     
   40   20   38 1     
   41    2   40 1     
   42    4   41 1     
   43    4   42 1     
   44   12   43 1     
   45   12   44 1     
   46   15   45 1     
@<TRIPOS>SUBSTRUCTURE
      1 S1             1
@<TRIPOS>SET
LONE_PAIRS      STATIC     ATOMS    <user>   **** ""
6 40 41 42 43 44 45
DONOR_HYDROGENS      STATIC     ATOMS    <user>   **** ""
3 39 31 32
ATOM$BLUE        STATIC     ATOMS    COLORGROUP SYSTEM
6 40 41 42 43 44 45
ATOM$RED        STATIC     ATOMS    COLORGROUP SYSTEM
3 39 31 32
