AV-unprocessed.smi:1648|AV-procd|sdf|6633|dock2
  -GOLD-   22720 7333D 1   1.00000     0.00000
 Structure written by MMmdl.
 41 41  0  0  0  0  0  0  0  0  1 V2000
  154.4614  135.2620  162.2715 C   0  0  0  0  0  0  0  0  0  0  0  0
  154.0540  136.6189  162.8489 C   0  0  0  0  0  0  0  0  0  0  0  0
  152.9972  136.7188  163.4678 O   0  0  0  0  0  0  0  0  0  0  0  0
  154.8580  137.6810  162.6657 N   0  0  0  0  0  0  0  0  0  0  0  0
  154.6452  139.0527  163.1368 C   0  0  2  0  0  0  0  0  0  0  0  0
  154.7306  140.0069  161.9303 C   0  0  0  0  0  0  0  0  0  0  0  0
  155.7719  140.1027  161.2787 O   0  0  0  0  0  0  0  0  0  0  0  0
  153.6228  140.7128  161.6550 N   0  0  0  0  0  0  0  0  0  0  0  0
  153.4758  141.6691  160.5624 C   0  0  1  0  0  0  0  0  0  0  0  0
  152.7458  141.0102  159.3766 C   0  0  0  0  0  0  0  0  0  0  0  0
  152.7616  142.9281  161.0934 C   0  0  0  0  0  0  0  0  0  0  0  0
  152.3409  143.8273  160.0356 N   0  0  0  0  0  0  0  0  0  0  0  0
  151.2923  144.7373  160.0746 C   0  0  0  0  0  0  0  0  0  0  0  0
  151.2736  145.3680  158.8512 C   0  0  0  0  0  0  0  0  0  0  0  0
  152.2986  144.8689  158.0508 N   0  0  0  0  0  0  0  0  0  0  0  0
  152.8887  143.9633  158.8201 C   0  0  0  0  0  0  0  0  0  0  0  0
  155.7552  139.4061  164.1709 C   0  0  0  0  0  0  0  0  0  0  0  0
  157.1658  139.3091  163.5563 C   0  0  0  0  0  0  0  0  0  0  0  0
  155.6994  138.5294  165.4397 C   0  0  0  0  0  0  0  0  0  0  0  0
  154.5347  135.3114  161.1849 H   0  0  0  0  0  0  0  0  0  0  0  0
  153.7212  134.5011  162.5215 H   0  0  0  0  0  0  0  0  0  0  0  0
  155.4210  134.9386  162.6749 H   0  0  0  0  0  0  0  0  0  0  0  0
  155.6991  137.5269  162.1286 H   0  0  0  0  0  0  0  0  0  0  0  0
  153.6697  139.1404  163.6183 H   0  0  0  0  0  0  0  0  0  0  0  0
  152.8165  140.5730  162.2465 H   0  0  0  0  0  0  0  0  0  0  0  0
  154.4703  141.9687  160.2262 H   0  0  0  0  0  0  0  0  0  0  0  0
  152.6890  141.6809  158.5191 H   0  0  0  0  0  0  0  0  0  0  0  0
  151.7281  140.7270  159.6469 H   0  0  0  0  0  0  0  0  0  0  0  0
  153.2634  140.1099  159.0435 H   0  0  0  0  0  0  0  0  0  0  0  0
  151.8825  142.6479  161.6761 H   0  0  0  0  0  0  0  0  0  0  0  0
  153.4195  143.4800  161.7665 H   0  0  0  0  0  0  0  0  0  0  0  0
  150.6617  144.8557  160.9435 H   0  0  0  0  0  0  0  0  0  0  0  0
  150.6077  146.1371  158.4890 H   0  0  0  0  0  0  0  0  0  0  0  0
  153.7381  143.3828  158.4905 H   0  0  0  0  0  0  0  0  0  0  0  0
  155.6168  140.4416  164.4877 H   0  0  0  0  0  0  0  0  0  0  0  0
  157.3638  138.3050  163.1799 H   0  0  0  0  0  0  0  0  0  0  0  0
  157.9329  139.5425  164.2953 H   0  0  0  0  0  0  0  0  0  0  0  0
  157.3014  140.0072  162.7301 H   0  0  0  0  0  0  0  0  0  0  0  0
  155.7844  137.4710  165.1918 H   0  0  0  0  0  0  0  0  0  0  0  0
  154.7732  138.6684  165.9973 H   0  0  0  0  0  0  0  0  0  0  0  0
  156.5148  138.7745  166.1212 H   0  0  0  0  0  0  0  0  0  0  0  0
  1  2  1  0  0  0  0
  1 20  1  0  0  0  0
  1 21  1  0  0  0  0
  1 22  1  0  0  0  0
  2  3  2  0  0  0  0
  2  4  1  0  0  0  0
  4  5  1  0  0  0  0
  4 23  1  0  0  0  0
  5  6  1  0  0  0  0
  5 17  1  0  0  0  0
  5 24  1  0  0  0  0
  6  7  2  0  0  0  0
  6  8  1  0  0  0  0
  8  9  1  0  0  0  0
  8 25  1  0  0  0  0
  9 10  1  0  0  0  0
  9 11  1  0  0  0  0
  9 26  1  0  0  0  0
 10 27  1  0  0  0  0
 10 28  1  0  0  0  0
 10 29  1  0  0  0  0
 11 12  1  0  0  0  0
 11 30  1  0  0  0  0
 11 31  1  0  0  0  0
 12 16  1  0  0  0  0
 12 13  1  0  0  0  0
 13 14  2  0  0  0  0
 13 32  1  0  0  0  0
 14 15  1  0  0  0  0
 14 33  1  0  0  0  0
 15 16  2  0  0  0  0
 16 34  1  0  0  0  0
 17 18  1  0  0  0  0
 17 19  1  0  0  0  0
 17 35  1  0  0  0  0
 18 36  1  0  0  0  0
 18 37  1  0  0  0  0
 18 38  1  0  0  0  0
 19 39  1  0  0  0  0
 19 40  1  0  0  0  0
 19 41  1  0  0  0  0
M  END
> <s_m_source_file>
AV-unprocessed.smi

> <i_m_source_file_index>
1648

> <i_lp_mmshare_version>
43012

> <i_f3d_flags>
0

> <s_epik_input>
W0NIM11DKD1PKVtOSF1bQ0BASF0oW0NIXShbQ0gzXSlbQ0gzXSlDKD1PKVtOSF1bQ0BIXShbQ0gzXSlbQ0gyXW4xW2NIXVtjSF1uW2NIXTE=

> <s_epik_cmdline>
J2VwaWtfcHl0aG9uJywgJy1waCcsICc3LjAnLCAnLXRuJywgJzgnLCAnLW1hJywgJzIwMCcsICctbWV0YWxfYmluZGluZycsICctaW1hZScsICc8aW5maWxlLm1hZT4nLCAnLW9tYWUnLCAnPG91dGZpbGUubWFlPic=

> <r_lp_tautomer_probability>
1

> <r_epik_Ionization_Penalty>
0.628885

> <r_epik_Ionization_Penalty_Charging>
0.628884

> <r_epik_Ionization_Penalty_Neutral>
4.35155e-07

> <r_epik_State_Penalty>
0.64556

> <r_epik_Charging_Adjusted_Penalty>
1.27444

> <i_epik_Tot_Q>
0

> <i_epik_Tot_abs_Q>
0

> <r_epik_Metal_State_Penalty>
0.30874

> <b_epik_Metal_Only>
0

> <s_lp_Force_Field>
OPLS_2005

> <r_lp_Energy>
9.63914

> <b_lp_Chiralities_Consistent>
1

> <s_lp_Variant>
AV-unprocessed.smi:1648-7

> <Gold.Version>
5.8.1

> <Gold.Id.Protein>
6NUR|6NUR_protein|mol2

> <Gold.PLP.Fitness>
39.4207

> <Gold.PLP.PLP>
-37.9640

> <Gold.PLP.part.hbond>
-1.0000

> <Gold.PLP.part.metal>
0.0000

> <Gold.PLP.part.buried>
-5.7465

> <Gold.PLP.part.nonpolar>
-31.6891

> <Gold.PLP.part.repulsive>
0.1645

> <Gold.PLP.ligand.clash>
0.0000

> <Gold.PLP.ligand.torsion>
0.7314

> <Gold.PLP.Chemscore.Hbond>
0.0000

> <Gold.PLP.Chemscore.CHOScore>
0.9403

> <Gold.PLP.Chemscore.Metal>
0.0000

> <Gold.PLP.Chemscore.Internal.Correction>
0.0986

> <Gold.Rescore>
     Score         DG    S(hbond)    S(metal)    S(lipo)     H(rot)  DE(clash)    DE(int)     intcor
      5.56      -7.47       0.00        0.00      72.16       2.52       0.03       1.88       ----

> <Gold.Chemscore.Fitness>
5.5604

> <Gold.Chemscore.DG>
-7.4673

> <Gold.Chemscore.ZeroCoef>
-5.4800

> <Gold.Chemscore.Hbond>
0.0000

> <Gold.Chemscore.Metal>
0.0000

> <Gold.Chemscore.Lipo>
72.1590

> <Gold.Chemscore.Internal_Hbond>
0.0000

> <Gold.Chemscore.DEClash>
0.0310

> <Gold.Chemscore.DEInternal>
1.8759

> <Gold.Chemscore.Rot>
2.5216

> <Gold.Chemscore.Internal.Correction>
   9.000000E+99

> <Gold.Chemscore.Hbond.Weighted>
-0.0000

> <Gold.Chemscore.Metal.Weighted>
-0.0000

> <Gold.Chemscore.Lipo.Weighted>
-8.4426

> <Gold.Chemscore.Internal_Hbond.Weighted>
0.0000

> <Gold.Chemscore.DEClash.Weighted>
0.0310

> <Gold.Chemscore.DEInternal.Weighted>
1.8759

> <Gold.Chemscore.Rot.Weighted>
6.4553

> <Gold.Chemscore.Internal.Correction.Weighted>
   9.000000E+99

> <Gold.Protein.RotatedTorsions>
[ 6907 6896 6895 6894 ] final -156.88 input  -60.11 | X-H torsion
[ 7974 7965 7964 7962 ] final   99.61 input  175.53 | X-H torsion
[ 8008 7997 7996 7995 ] final  -87.16 input   59.86 | X-H torsion
[ 10167 10162 10161 10158 ] final  -77.95 input  -65.29 | X-H torsion
[ 10718 10713 10712 10709 ] final -171.15 input   66.30 | X-H torsion
[ 10763 10752 10751 10750 ] final  -42.35 input  -60.55 | X-H torsion
[ 11005 11000 10999 10996 ] final  129.65 input  -57.11 | X-H torsion

> <Gold.Protein.ActiveResidues>
 VAL166  LYS551  ARG553  GLY616  TRP617  ASP618  TYR619  PRO620  LYS621  CYS622 
 ASP623  PHE694  ASN695  SER759  ASP760  ASP761  ALA762  ILE779  LEU786  VAL792 
 PHE793  MET794  SER795  GLU796  ALA797  LYS798  CYS799  TRP800  GLU811  SER814 

> <Gold.Protein.RotatedAtoms>
  151.2944  133.4151  159.2635 H   0  0  0  0  0  0  0  0  0  0  0  0  # atno 6907 bound_to 6896
  151.0250  134.9497  159.8090 H   0  0  0  0  0  0  0  0  0  0  0  0  # atno 6908 bound_to 6896
  152.5333  134.2906  159.9094 H   0  0  0  0  0  0  0  0  0  0  0  0  # atno 6909 bound_to 6896
  145.3966  139.2354  143.3323 H   0  0  0  0  0  0  0  0  0  0  0  0  # atno 7974 bound_to 7965
  154.6601  140.0569  157.0052 H   0  0  0  0  0  0  0  0  0  0  0  0  # atno 8008 bound_to 7997
  155.1241  140.3250  155.4471 H   0  0  0  0  0  0  0  0  0  0  0  0  # atno 8009 bound_to 7997
  156.2614  140.1992  156.6363 H   0  0  0  0  0  0  0  0  0  0  0  0  # atno 8010 bound_to 7997
  140.4725  143.2423  151.8183 H   0  0  0  0  0  0  0  0  0  0  0  0  # atno 10167 bound_to 10162
  156.7366  130.9326  151.3108 H   0  0  0  0  0  0  0  0  0  0  0  0  # atno 10718 bound_to 10713
  153.9776  135.6721  153.4749 H   0  0  0  0  0  0  0  0  0  0  0  0  # atno 10763 bound_to 10752
  153.0763  135.4947  154.8408 H   0  0  0  0  0  0  0  0  0  0  0  0  # atno 10764 bound_to 10752
  154.7183  135.3111  154.9049 H   0  0  0  0  0  0  0  0  0  0  0  0  # atno 10765 bound_to 10752
  139.9627  134.9598  156.9179 H   0  0  0  0  0  0  0  0  0  0  0  0  # atno 11005 bound_to 11000
  146.2772  140.4657  142.8791 LP  0  0  0  0  0  0  0  0  0  0  0  0  # atno 17320 bound_to 7965
  144.8403  140.6846  143.6234 LP  0  0  0  0  0  0  0  0  0  0  0  0  # atno 17321 bound_to 7965
  139.4820  144.4874  151.9229 LP  0  0  0  0  0  0  0  0  0  0  0  0  # atno 17342 bound_to 10162
  140.3959  144.2555  150.5896 LP  0  0  0  0  0  0  0  0  0  0  0  0  # atno 17343 bound_to 10162
  157.6836  130.9164  150.0329 LP  0  0  0  0  0  0  0  0  0  0  0  0  # atno 17370 bound_to 10713
  156.1493  130.3642  149.9463 LP  0  0  0  0  0  0  0  0  0  0  0  0  # atno 17371 bound_to 10713
  140.5464  134.0670  155.7356 LP  0  0  0  0  0  0  0  0  0  0  0  0  # atno 17394 bound_to 11000
  141.1305  133.9309  157.2544 LP  0  0  0  0  0  0  0  0  0  0  0  0  # atno 17395 bound_to 11000

$$$$
