AV-unprocessed.smi:3261|AV-procd|sdf|12478|dock10
  -GOLD-   2272018383D 1   1.00000     0.00000
 Structure written by MMmdl.
 30 31  0  0  0  0  0  0  0  0  1 V2000
  144.4472  136.6427  151.9846 O   0  0  0  0  0  0  0  0  0  0  0  0
  145.6585  136.4425  151.9305 C   0  0  0  0  0  0  0  0  0  0  0  0
  146.2357  135.3432  151.4055 N   0  0  0  0  0  0  0  0  0  0  0  0
  145.6256  134.1765  150.8698 C   0  0  0  0  0  0  0  0  0  0  0  0
  146.4704  133.1050  150.5134 C   0  0  0  0  0  0  0  0  0  0  0  0
  145.8943  131.9275  149.9968 C   0  0  0  0  0  0  0  0  0  0  0  0
  144.5653  131.7641  149.8301 N   0  0  0  0  0  0  0  0  0  0  0  0
  143.7567  132.7855  150.1831 C   0  0  0  0  0  0  0  0  0  0  0  0
  144.2293  134.0048  150.7083 C   0  0  0  0  0  0  0  0  0  0  0  0
  146.5320  137.3608  152.3823 N   0  0  0  0  0  0  0  0  0  0  0  0
  146.2466  138.6549  153.0042 C   0  0  2  0  0  0  0  0  0  0  0  0
  147.5424  139.4555  153.2312 C   0  0  0  0  0  0  0  0  0  0  0  0
  147.2417  140.6167  154.1870 C   0  0  0  0  0  0  0  0  0  0  0  0
  145.8980  140.0340  155.2897 S   0  0  0  0  0  0  0  0  0  0  0  0
  146.4530  139.6903  156.6076 O   0  0  0  0  0  0  0  0  0  0  0  0
  144.7508  140.9456  155.1651 O   0  0  0  0  0  0  0  0  0  0  0  0
  145.5514  138.4910  154.3653 C   0  0  0  0  0  0  0  0  0  0  0  0
  147.2435  135.3606  151.3546 H   0  0  0  0  0  0  0  0  0  0  0  0
  147.5419  133.1803  150.6286 H   0  0  0  0  0  0  0  0  0  0  0  0
  146.5185  131.0934  149.7119 H   0  0  0  0  0  0  0  0  0  0  0  0
  142.6973  132.6248  150.0489 H   0  0  0  0  0  0  0  0  0  0  0  0
  143.5159  134.7656  150.9837 H   0  0  0  0  0  0  0  0  0  0  0  0
  147.5103  137.1451  152.2536 H   0  0  0  0  0  0  0  0  0  0  0  0
  145.6080  139.2529  152.3513 H   0  0  0  0  0  0  0  0  0  0  0  0
  148.2889  138.8082  153.6941 H   0  0  0  0  0  0  0  0  0  0  0  0
  147.9694  139.8119  152.2931 H   0  0  0  0  0  0  0  0  0  0  0  0
  148.1082  140.9196  154.7748 H   0  0  0  0  0  0  0  0  0  0  0  0
  146.8736  141.4838  153.6380 H   0  0  0  0  0  0  0  0  0  0  0  0
  144.4752  138.3362  154.2852 H   0  0  0  0  0  0  0  0  0  0  0  0
  145.9812  137.6629  154.9303 H   0  0  0  0  0  0  0  0  0  0  0  0
  1  2  2  0  0  0  0
  2  3  1  0  0  0  0
  2 10  1  0  0  0  0
  3  4  1  0  0  0  0
  3 18  1  0  0  0  0
  4  9  1  0  0  0  0
  4  5  2  0  0  0  0
  5  6  1  0  0  0  0
  5 19  1  0  0  0  0
  6  7  2  0  0  0  0
  6 20  1  0  0  0  0
  7  8  1  0  0  0  0
  8  9  2  0  0  0  0
  8 21  1  0  0  0  0
  9 22  1  0  0  0  0
 10 11  1  0  0  0  0
 10 23  1  0  0  0  0
 11 17  1  0  0  0  0
 11 12  1  0  0  0  0
 11 24  1  0  0  0  0
 12 13  1  0  0  0  0
 12 25  1  0  0  0  0
 12 26  1  0  0  0  0
 13 14  1  0  0  0  0
 13 27  1  0  0  0  0
 13 28  1  0  0  0  0
 14 15  2  0  0  0  0
 14 16  2  0  0  0  0
 14 17  1  0  0  0  0
 17 29  1  0  0  0  0
 17 30  1  0  0  0  0
M  END
> <s_m_source_file>
AV-unprocessed.smi

> <i_m_source_file_index>
3261

> <i_lp_mmshare_version>
43012

> <i_f3d_flags>
0

> <s_epik_input>
Tz1TMSg9TylbQ0gyXVtDSDJdW0NASF0oW0NIMl0xKVtOSF1DKD1PKVtOSF1jMltjSF1bY0hdbltjSF1bY0hdMg==

> <s_epik_cmdline>
J2VwaWtfcHl0aG9uJywgJy1waCcsICc3LjAnLCAnLXRuJywgJzgnLCAnLW1hJywgJzIwMCcsICctbWV0YWxfYmluZGluZycsICctaW1hZScsICc8aW5maWxlLm1hZT4nLCAnLW9tYWUnLCAnPG91dGZpbGUubWFlPic=

> <r_epik_Ionization_Penalty>
0.0999693

> <r_epik_Ionization_Penalty_Charging>
0

> <r_epik_Ionization_Penalty_Neutral>
0.0999693

> <r_epik_State_Penalty>
0.0899812

> <r_epik_Charging_Adjusted_Penalty>
0.0899812

> <i_epik_Tot_Q>
0

> <i_epik_Tot_abs_Q>
0

> <r_epik_Metal_State_Penalty>
0.0778619

> <b_epik_Metal_Only>
0

> <s_lp_Force_Field>
OPLS_2005

> <r_lp_Energy>
18.6703

> <b_lp_Chiralities_Consistent>
1

> <s_lp_Variant>
AV-unprocessed.smi:3261-1

> <Gold.Version>
5.8.1

> <Gold.Id.Protein>
6NUR|6NUR_protein|mol2

> <Gold.PLP.Fitness>
35.5121

> <Gold.PLP.PLP>
-23.9308

> <Gold.PLP.part.hbond>
-2.8880

> <Gold.PLP.part.metal>
0.0000

> <Gold.PLP.part.buried>
-2.9677

> <Gold.PLP.part.nonpolar>
-19.6785

> <Gold.PLP.part.repulsive>
1.4258

> <Gold.PLP.ligand.clash>
0.0000

> <Gold.PLP.ligand.torsion>
0.0428

> <Gold.PLP.Chemscore.Hbond>
2.0832

> <Gold.PLP.Chemscore.CHOScore>
1.8056

> <Gold.PLP.Chemscore.Metal>
0.0000

> <Gold.Chemscore.Hbonds>
donor molecule, donor type, donor heavy atom, donor atom, acceptor molecule, acceptor atom, score
      L1  H     3    18       P1  7948  1.00
      L1  H    10    23       P1  7948  1.00
      P1  H 10785 10796       L1     7  0.07
      L1  C     6    20       P1 10747  0.92
      L1  C     8    21       P1 10186  0.92

> <Gold.PLP.Chemscore.Internal.Correction>
0.0006

> <Gold.Rescore>
     Score         DG    S(hbond)    S(metal)    S(lipo)     H(rot)  DE(clash)    DE(int)     intcor
     15.10     -16.42       1.93        0.00      60.44       1.00       0.05       1.27       ----

> <Gold.Chemscore.Fitness>
15.0997

> <Gold.Chemscore.DG>
-16.4237

> <Gold.Chemscore.ZeroCoef>
-5.4800

> <Gold.Chemscore.Hbond>
1.9259

> <Gold.Chemscore.Metal>
0.0000

> <Gold.Chemscore.Lipo>
60.4387

> <Gold.Chemscore.Internal_Hbond>
0.0000

> <Gold.Chemscore.DEClash>
0.0521

> <Gold.Chemscore.DEInternal>
1.2719

> <Gold.Chemscore.Rot>
1.0000

> <Gold.Chemscore.Internal.Correction>
   9.000000E+99

> <Gold.Chemscore.Hbonds>
donor molecule, donor type, donor heavy atom, donor atom, acceptor molecule, acceptor atom, score
      L1  H     3    18       P1  7948  0.83
      L1  H    10    23       P1  7948  1.00
      P1  H 10785 10796       L1     7  0.05

> <Gold.Chemscore.Hbond.Weighted>
-6.4324

> <Gold.Chemscore.Metal.Weighted>
-0.0000

> <Gold.Chemscore.Lipo.Weighted>
-7.0713

> <Gold.Chemscore.Internal_Hbond.Weighted>
0.0000

> <Gold.Chemscore.DEClash.Weighted>
0.0521

> <Gold.Chemscore.DEInternal.Weighted>
1.2719

> <Gold.Chemscore.Rot.Weighted>
2.5600

> <Gold.Chemscore.Internal.Correction.Weighted>
   9.000000E+99

> <Gold.Protein.RotatedTorsions>
[ 6907 6896 6895 6894 ] final -142.02 input  -60.11 | X-H torsion
[ 7974 7965 7964 7962 ] final  -93.63 input  175.53 | X-H torsion
[ 8008 7997 7996 7995 ] final -144.73 input   59.86 | X-H torsion
[ 10167 10162 10161 10158 ] final   36.01 input  -65.29 | X-H torsion
[ 10718 10713 10712 10709 ] final   35.48 input   66.30 | X-H torsion
[ 10763 10752 10751 10750 ] final   95.54 input  -60.55 | X-H torsion
[ 11005 11000 10999 10996 ] final    3.78 input  -57.11 | X-H torsion

> <Gold.Protein.ActiveResidues>
 VAL166  LYS551  ARG553  GLY616  TRP617  ASP618  TYR619  PRO620  LYS621  CYS622 
 ASP623  PHE694  ASN695  SER759  ASP760  ASP761  ALA762  ILE779  LEU786  VAL792 
 PHE793  MET794  SER795  GLU796  ALA797  LYS798  CYS799  TRP800  GLU811  SER814 

> <Gold.Protein.RotatedAtoms>
  151.0815  133.5386  159.2620 H   0  0  0  0  0  0  0  0  0  0  0  0  # atno 6907 bound_to 6896
  151.2288  135.0546  159.8989 H   0  0  0  0  0  0  0  0  0  0  0  0  # atno 6908 bound_to 6896
  152.5424  134.0607  159.8204 H   0  0  0  0  0  0  0  0  0  0  0  0  # atno 6909 bound_to 6896
  145.3840  140.9521  143.2378 H   0  0  0  0  0  0  0  0  0  0  0  0  # atno 7974 bound_to 7965
  155.5317  140.0600  157.2887 H   0  0  0  0  0  0  0  0  0  0  0  0  # atno 8008 bound_to 7997
  154.4482  140.1934  156.0546 H   0  0  0  0  0  0  0  0  0  0  0  0  # atno 8009 bound_to 7997
  156.0647  140.3268  155.7508 H   0  0  0  0  0  0  0  0  0  0  0  0  # atno 8010 bound_to 7997
  140.4168  144.1516  150.6144 H   0  0  0  0  0  0  0  0  0  0  0  0  # atno 10167 bound_to 10162
  157.3232  130.7459  149.6799 H   0  0  0  0  0  0  0  0  0  0  0  0  # atno 10718 bound_to 10713
  153.2544  135.4250  155.0830 H   0  0  0  0  0  0  0  0  0  0  0  0  # atno 10763 bound_to 10752
  154.8395  135.3433  154.6467 H   0  0  0  0  0  0  0  0  0  0  0  0  # atno 10764 bound_to 10752
  153.6888  135.7035  153.5153 H   0  0  0  0  0  0  0  0  0  0  0  0  # atno 10765 bound_to 10752
  140.5893  133.9939  155.8081 H   0  0  0  0  0  0  0  0  0  0  0  0  # atno 11005 bound_to 11000
  144.8487  139.5356  143.6866 LP  0  0  0  0  0  0  0  0  0  0  0  0  # atno 17320 bound_to 7965
  146.2829  139.6925  142.9216 LP  0  0  0  0  0  0  0  0  0  0  0  0  # atno 17321 bound_to 7965
  140.4578  143.2461  151.9261 LP  0  0  0  0  0  0  0  0  0  0  0  0  # atno 17342 bound_to 10162
  139.4782  144.5498  151.8403 LP  0  0  0  0  0  0  0  0  0  0  0  0  # atno 17343 bound_to 10162
  155.9688  130.4217  150.4481 LP  0  0  0  0  0  0  0  0  0  0  0  0  # atno 17370 bound_to 10713
  157.2500  131.0544  151.2385 LP  0  0  0  0  0  0  0  0  0  0  0  0  # atno 17371 bound_to 10713
  141.0945  133.9864  157.3182 LP  0  0  0  0  0  0  0  0  0  0  0  0  # atno 17394 bound_to 11000
  139.9281  135.0201  156.8307 LP  0  0  0  0  0  0  0  0  0  0  0  0  # atno 17395 bound_to 11000

$$$$
