AV-unprocessed.smi:2813|AV-procd|sdf|10838|dock4
  -GOLD-   2272015283D 1   1.00000     0.00000
 Structure written by MMmdl.
 41 42  0  0  0  0  0  0  0  0  1 V2000
  152.2756  144.3899  160.0769 C   0  0  0  0  0  0  0  0  0  0  0  0
  151.7711  143.2154  159.2573 C   0  0  0  0  0  0  0  0  0  0  0  0
  150.8567  143.5319  158.2484 N   0  0  0  0  0  0  0  0  0  0  0  0
  150.3726  142.5955  157.4998 C   0  0  0  0  0  0  0  0  0  0  0  0
  150.7446  141.2512  157.6657 N   0  0  0  0  0  0  0  0  0  0  0  0
  150.1223  140.2835  156.7461 C   0  0  0  0  0  0  0  0  0  0  0  0
  149.6444  140.9496  155.4356 C   0  0  1  0  0  0  0  0  0  0  0  0
  149.8481  140.0284  154.3818 O   0  0  0  0  0  0  0  0  0  0  0  0
  148.1409  141.2736  155.4700 C   0  0  0  0  0  0  0  0  0  0  0  0
  147.8127  142.0502  154.3251 O   0  0  0  0  0  0  0  0  0  0  0  0
  146.9637  143.1246  154.4832 C   0  0  0  0  0  0  0  0  0  0  0  0
  146.3052  143.2400  155.7239 C   0  0  0  0  0  0  0  0  0  0  0  0
  145.4185  144.3042  155.9714 C   0  0  0  0  0  0  0  0  0  0  0  0
  145.1836  145.2710  154.9768 C   0  0  0  0  0  0  0  0  0  0  0  0
  145.8370  145.1784  153.7296 C   0  0  0  0  0  0  0  0  0  0  0  0
  145.5834  146.2151  152.6448 C   0  0  0  0  0  0  0  0  0  0  0  0
  144.3229  146.1467  152.2149 F   0  0  0  0  0  0  0  0  0  0  0  0
  145.8019  147.4320  153.1415 F   0  0  0  0  0  0  0  0  0  0  0  0
  146.3899  146.0281  151.5994 F   0  0  0  0  0  0  0  0  0  0  0  0
  146.7183  144.1022  153.4857 C   0  0  0  0  0  0  0  0  0  0  0  0
  151.6233  140.8546  158.6315 C   0  0  0  0  0  0  0  0  0  0  0  0
  151.9315  139.6703  158.7780 O   0  0  0  0  0  0  0  0  0  0  0  0
  152.1670  141.9314  159.4751 C   0  0  0  0  0  0  0  0  0  0  0  0
  153.1579  141.5269  160.5595 C   0  0  0  0  0  0  0  0  0  0  0  0
  153.3599  144.4741  159.9984 H   0  0  0  0  0  0  0  0  0  0  0  0
  152.0096  144.2640  161.1269 H   0  0  0  0  0  0  0  0  0  0  0  0
  151.8426  145.3300  159.7325 H   0  0  0  0  0  0  0  0  0  0  0  0
  149.6510  142.7888  156.7042 H   0  0  0  0  0  0  0  0  0  0  0  0
  150.7799  139.4386  156.5305 H   0  0  0  0  0  0  0  0  0  0  0  0
  149.2711  139.8314  157.2580 H   0  0  0  0  0  0  0  0  0  0  0  0
  150.2078  141.8641  155.2452 H   0  0  0  0  0  0  0  0  0  0  0  0
  149.5742  140.4310  153.5720 H   0  0  0  0  0  0  0  0  0  0  0  0
  147.5480  140.3586  155.5230 H   0  0  0  0  0  0  0  0  0  0  0  0
  147.9160  141.8690  156.3563 H   0  0  0  0  0  0  0  0  0  0  0  0
  146.4799  142.5028  156.4940 H   0  0  0  0  0  0  0  0  0  0  0  0
  144.9177  144.3777  156.9255 H   0  0  0  0  0  0  0  0  0  0  0  0
  144.4980  146.0810  155.1771 H   0  0  0  0  0  0  0  0  0  0  0  0
  147.1966  144.0447  152.5202 H   0  0  0  0  0  0  0  0  0  0  0  0
  152.6909  140.8268  161.2529 H   0  0  0  0  0  0  0  0  0  0  0  0
  153.5253  142.3699  161.1423 H   0  0  0  0  0  0  0  0  0  0  0  0
  154.0234  141.0357  160.1135 H   0  0  0  0  0  0  0  0  0  0  0  0
  1  2  1  0  0  0  0
  1 25  1  0  0  0  0
  1 26  1  0  0  0  0
  1 27  1  0  0  0  0
  2 23  2  0  0  0  0
  2  3  1  0  0  0  0
  3  4  2  0  0  0  0
  4  5  1  0  0  0  0
  4 28  1  0  0  0  0
  5  6  1  0  0  0  0
  5 21  1  0  0  0  0
  6  7  1  0  0  0  0
  6 29  1  0  0  0  0
  6 30  1  0  0  0  0
  7  8  1  0  0  0  0
  7  9  1  0  0  0  0
  7 31  1  0  0  0  0
  8 32  1  0  0  0  0
  9 10  1  0  0  0  0
  9 33  1  0  0  0  0
  9 34  1  0  0  0  0
 10 11  1  0  0  0  0
 11 20  1  0  0  0  0
 11 12  2  0  0  0  0
 12 13  1  0  0  0  0
 12 35  1  0  0  0  0
 13 14  2  0  0  0  0
 13 36  1  0  0  0  0
 14 15  1  0  0  0  0
 14 37  1  0  0  0  0
 15 16  1  0  0  0  0
 15 20  2  0  0  0  0
 16 17  1  0  0  0  0
 16 18  1  0  0  0  0
 16 19  1  0  0  0  0
 20 38  1  0  0  0  0
 21 22  2  0  0  0  0
 21 23  1  0  0  0  0
 23 24  1  0  0  0  0
 24 39  1  0  0  0  0
 24 40  1  0  0  0  0
 24 41  1  0  0  0  0
M  END
> <s_m_source_file>
AV-unprocessed.smi

> <i_m_source_file_index>
2813

> <i_lp_mmshare_version>
43012

> <i_f3d_flags>
0

> <s_epik_input>
W0NIM11jMW5bY0hdbihjKD1PKWMxW0NIM10pW0NIMl1bQ0BIXShbT0hdKVtDSDJdT2MyW2NIXVtjSF1bY0hdYyhDKEYpKEYpRilbY0hdMg==

> <s_epik_cmdline>
J2VwaWtfcHl0aG9uJywgJy1waCcsICc3LjAnLCAnLXRuJywgJzgnLCAnLW1hJywgJzIwMCcsICctbWV0YWxfYmluZGluZycsICctaW1hZScsICc8aW5maWxlLm1hZT4nLCAnLW9tYWUnLCAnPG91dGZpbGUubWFlPic=

> <r_lp_tautomer_probability>
1

> <r_epik_Ionization_Penalty>
3.72236e-05

> <r_epik_Ionization_Penalty_Charging>
8.38864e-08

> <r_epik_Ionization_Penalty_Neutral>
3.71397e-05

> <r_epik_State_Penalty>
-0

> <r_epik_Charging_Adjusted_Penalty>
8.38864e-08

> <i_epik_Tot_Q>
0

> <i_epik_Tot_abs_Q>
0

> <r_epik_Metal_State_Penalty>
-0

> <b_epik_Metal_Only>
0

> <s_lp_Force_Field>
OPLS_2005

> <r_lp_Energy>
24.625

> <b_lp_Chiralities_Consistent>
1

> <s_lp_Variant>
AV-unprocessed.smi:2813-2

> <Gold.Version>
5.8.1

> <Gold.Id.Protein>
6NUR|6NUR_protein|mol2

> <Gold.PLP.Fitness>
48.1559

> <Gold.PLP.PLP>
-45.6123

> <Gold.PLP.part.hbond>
-3.0000

> <Gold.PLP.part.metal>
0.0000

> <Gold.PLP.part.buried>
-5.8297

> <Gold.PLP.part.nonpolar>
-36.7174

> <Gold.PLP.part.repulsive>
0.2652

> <Gold.PLP.ligand.clash>
3.3757

> <Gold.PLP.ligand.torsion>
1.4099

> <Gold.PLP.Chemscore.Hbond>
1.7040

> <Gold.PLP.Chemscore.CHOScore>
0.8596

> <Gold.PLP.Chemscore.Metal>
0.0000

> <Gold.Chemscore.Hbonds>
donor molecule, donor type, donor heavy atom, donor atom, acceptor molecule, acceptor atom, score
      L1  C     4    28       P1  8028  1.00

> <Gold.PLP.Chemscore.Internal.Correction>
1.0481

> <Gold.Rescore>
     Score         DG    S(hbond)    S(metal)    S(lipo)     H(rot)  DE(clash)    DE(int)     intcor
      9.11     -10.24       0.55        0.00      84.82       2.73       0.17       0.96       ----

> <Gold.Chemscore.Fitness>
9.1127

> <Gold.Chemscore.DG>
-10.2388

> <Gold.Chemscore.ZeroCoef>
-5.4800

> <Gold.Chemscore.Hbond>
0.5461

> <Gold.Chemscore.Metal>
0.0000

> <Gold.Chemscore.Lipo>
84.8157

> <Gold.Chemscore.Internal_Hbond>
0.0000

> <Gold.Chemscore.DEClash>
0.1697

> <Gold.Chemscore.DEInternal>
0.9564

> <Gold.Chemscore.Rot>
2.7300

> <Gold.Chemscore.Internal.Correction>
   9.000000E+99

> <Gold.Chemscore.Hbonds>
donor molecule, donor type, donor heavy atom, donor atom, acceptor molecule, acceptor atom, score
      L1  H     8    32       P1  7957  0.04

> <Gold.Chemscore.Hbond.Weighted>
-1.8241

> <Gold.Chemscore.Metal.Weighted>
-0.0000

> <Gold.Chemscore.Lipo.Weighted>
-9.9234

> <Gold.Chemscore.Internal_Hbond.Weighted>
0.0000

> <Gold.Chemscore.DEClash.Weighted>
0.1697

> <Gold.Chemscore.DEInternal.Weighted>
0.9564

> <Gold.Chemscore.Rot.Weighted>
6.9888

> <Gold.Chemscore.Internal.Correction.Weighted>
   9.000000E+99

> <Gold.Protein.RotatedTorsions>
[ 6907 6896 6895 6894 ] final -148.07 input  -60.11 | X-H torsion
[ 7974 7965 7964 7962 ] final -177.02 input  175.53 | X-H torsion
[ 8008 7997 7996 7995 ] final   54.47 input   59.86 | X-H torsion
[ 10167 10162 10161 10158 ] final  126.01 input  -65.29 | X-H torsion
[ 10718 10713 10712 10709 ] final  -42.61 input   66.30 | X-H torsion
[ 10763 10752 10751 10750 ] final -173.11 input  -60.55 | X-H torsion
[ 11005 11000 10999 10996 ] final  -76.69 input  -57.11 | X-H torsion

> <Gold.Protein.ActiveResidues>
 VAL166  LYS551  ARG553  GLY616  TRP617  ASP618  TYR619  PRO620  LYS621  CYS622 
 ASP623  PHE694  ASN695  SER759  ASP760  ASP761  ALA762  ILE779  LEU786  VAL792 
 PHE793  MET794  SER795  GLU796  ALA797  LYS798  CYS799  TRP800  GLU811  SER814 

> <Gold.Protein.RotatedAtoms>
  151.1646  133.4823  159.2593 H   0  0  0  0  0  0  0  0  0  0  0  0  # atno 6907 bound_to 6896
  151.1419  135.0183  159.8639 H   0  0  0  0  0  0  0  0  0  0  0  0  # atno 6908 bound_to 6896
  152.5462  134.1538  159.8583 H   0  0  0  0  0  0  0  0  0  0  0  0  # atno 6909 bound_to 6896
  144.7127  140.1082  143.6412 H   0  0  0  0  0  0  0  0  0  0  0  0  # atno 7974 bound_to 7965
  155.4853  140.3470  155.4346 H   0  0  0  0  0  0  0  0  0  0  0  0  # atno 8008 bound_to 7997
  156.1012  140.1436  156.9493 H   0  0  0  0  0  0  0  0  0  0  0  0  # atno 8009 bound_to 7997
  154.4695  140.0906  156.7086 H   0  0  0  0  0  0  0  0  0  0  0  0  # atno 8010 bound_to 7997
  139.5654  144.6908  151.3924 H   0  0  0  0  0  0  0  0  0  0  0  0  # atno 10167 bound_to 10162
  156.2577  130.4194  149.8577 H   0  0  0  0  0  0  0  0  0  0  0  0  # atno 10718 bound_to 10713
  154.6116  135.2865  155.0425 H   0  0  0  0  0  0  0  0  0  0  0  0  # atno 10763 bound_to 10752
  154.1653  135.6481  153.4999 H   0  0  0  0  0  0  0  0  0  0  0  0  # atno 10764 bound_to 10752
  153.0197  135.5388  154.6872 H   0  0  0  0  0  0  0  0  0  0  0  0  # atno 10765 bound_to 10752
  141.1655  133.6993  156.7707 H   0  0  0  0  0  0  0  0  0  0  0  0  # atno 11005 bound_to 11000
  145.9478  139.2712  143.1230 LP  0  0  0  0  0  0  0  0  0  0  0  0  # atno 17320 bound_to 7965
  145.9355  140.9017  143.0334 LP  0  0  0  0  0  0  0  0  0  0  0  0  # atno 17321 bound_to 7965
  140.6937  143.7799  150.7294 LP  0  0  0  0  0  0  0  0  0  0  0  0  # atno 17342 bound_to 10162
  140.1289  143.4543  152.2266 LP  0  0  0  0  0  0  0  0  0  0  0  0  # atno 17343 bound_to 10162
  156.6103  130.8584  151.3452 LP  0  0  0  0  0  0  0  0  0  0  0  0  # atno 17370 bound_to 10713
  157.7239  130.9595  150.1552 LP  0  0  0  0  0  0  0  0  0  0  0  0  # atno 17371 bound_to 10713
  140.2466  134.8573  157.3626 LP  0  0  0  0  0  0  0  0  0  0  0  0  # atno 17394 bound_to 11000
  140.1743  134.4569  155.7811 LP  0  0  0  0  0  0  0  0  0  0  0  0  # atno 17395 bound_to 11000

$$$$
