AV-unprocessed.smi:1540|AV-procd|sdf|6199|dock10
  -GOLD-   22720 6363D 1   1.00000     0.00000
 Structure written by MMmdl.
 33 33  0  0  0  0  0  0  0  0  1 V2000
  153.9770  136.8332  164.1386 C   0  0  0  0  0  0  0  0  0  0  0  0
  153.9951  136.3589  162.8838 C   0  0  0  0  0  0  0  0  0  0  0  0
  153.6418  137.1686  161.6560 C   0  0  0  0  0  0  0  0  0  0  0  0
  153.6373  136.3362  160.5023 O   0  0  0  0  0  0  0  0  0  0  0  0
  154.0312  136.9680  159.2864 C   0  0  1  0  0  0  0  0  0  0  0  0
  154.3024  135.8619  158.2556 C   0  0  0  0  0  0  0  0  0  0  0  0
  152.9361  137.9330  158.8019 C   0  0  0  0  0  0  0  0  0  0  0  0
  151.8388  137.4866  158.4680 O   0  0  0  0  0  0  0  0  0  0  0  0
  153.2707  139.2385  158.8164 N   0  0  0  0  0  0  0  0  0  0  0  0
  152.5113  140.3589  158.4406 C   0  0  0  0  0  0  0  0  0  0  0  0
  152.4829  141.5398  159.1122 C   0  0  0  0  0  0  0  0  0  0  0  0
  151.6612  142.6563  158.6750 C   0  0  0  0  0  0  0  0  0  0  0  0
  151.6993  143.9992  159.3879 C   0  0  0  0  0  0  0  0  0  0  0  0
  152.4646  143.9473  160.4790 F   0  0  0  0  0  0  0  0  0  0  0  0
  152.1982  144.9289  158.5747 F   0  0  0  0  0  0  0  0  0  0  0  0
  150.4755  144.3814  159.7528 F   0  0  0  0  0  0  0  0  0  0  0  0
  150.9308  142.4638  157.5612 C   0  0  0  0  0  0  0  0  0  0  0  0
  150.9373  141.2456  156.8778 N   0  0  0  0  0  0  0  0  0  0  0  0
  151.6781  140.1746  157.2410 C   0  0  0  0  0  0  0  0  0  0  0  0
  151.6299  139.1346  156.5849 O   0  0  0  0  0  0  0  0  0  0  0  0
  150.3486  141.1745  156.0605 H   0  0  0  0  0  0  0  0  0  0  0  0
  153.6988  137.8556  164.3488 H   0  0  0  0  0  0  0  0  0  0  0  0
  154.2406  136.2015  164.9741 H   0  0  0  0  0  0  0  0  0  0  0  0
  154.2778  135.3306  162.7118 H   0  0  0  0  0  0  0  0  0  0  0  0
  152.6705  137.6435  161.8022 H   0  0  0  0  0  0  0  0  0  0  0  0
  154.3826  137.9613  161.5441 H   0  0  0  0  0  0  0  0  0  0  0  0
  154.9619  137.5154  159.4490 H   0  0  0  0  0  0  0  0  0  0  0  0
  154.5833  136.2806  157.2885 H   0  0  0  0  0  0  0  0  0  0  0  0
  153.4271  135.2283  158.1064 H   0  0  0  0  0  0  0  0  0  0  0  0
  155.1193  135.2196  158.5853 H   0  0  0  0  0  0  0  0  0  0  0  0
  154.1834  139.4580  159.1889 H   0  0  0  0  0  0  0  0  0  0  0  0
  153.0572  141.6803  160.0131 H   0  0  0  0  0  0  0  0  0  0  0  0
  150.2991  143.2150  157.1101 H   0  0  0  0  0  0  0  0  0  0  0  0
  1  2  2  0  0  0  0
  1 22  1  0  0  0  0
  1 23  1  0  0  0  0
  2  3  1  0  0  0  0
  2 24  1  0  0  0  0
  3  4  1  0  0  0  0
  3 25  1  0  0  0  0
  3 26  1  0  0  0  0
  4  5  1  0  0  0  0
  5  6  1  0  0  0  0
  5  7  1  0  0  0  0
  5 27  1  0  0  0  0
  6 28  1  0  0  0  0
  6 29  1  0  0  0  0
  6 30  1  0  0  0  0
  7  8  2  0  0  0  0
  7  9  1  0  0  0  0
  9 10  1  0  0  0  0
  9 31  1  0  0  0  0
 10 19  1  0  0  0  0
 10 11  2  0  0  0  0
 11 12  1  0  0  0  0
 11 32  1  0  0  0  0
 12 13  1  0  0  0  0
 12 17  2  0  0  0  0
 13 14  1  0  0  0  0
 13 15  1  0  0  0  0
 13 16  1  0  0  0  0
 17 18  1  0  0  0  0
 17 33  1  0  0  0  0
 18 21  1  0  0  0  0
 18 19  1  0  0  0  0
 19 20  2  0  0  0  0
M  END
> <s_m_source_file>
AV-unprocessed.smi

> <i_m_source_file_index>
1540

> <i_lp_mmshare_version>
43012

> <i_f3d_flags>
0

> <s_epik_input>
W0NIMl09W0NIXVtDSDJdT1tDQEhdKFtDSDNdKUMoPU8pW05IXWMxW2NIXWMoQyhGKShGKUYpW2NIXVtuSF1jMT1P

> <s_epik_cmdline>
J2VwaWtfcHl0aG9uJywgJy1waCcsICc3LjAnLCAnLXRuJywgJzgnLCAnLW1hJywgJzIwMCcsICctbWV0YWxfYmluZGluZycsICctaW1hZScsICc8aW5maWxlLm1hZT4nLCAnLW9tYWUnLCAnPG91dGZpbGUubWFlPic=

> <r_lp_tautomer_probability>
0.999

> <r_epik_Ionization_Penalty>
0.0086731

> <r_epik_Ionization_Penalty_Charging>
0.00867296

> <r_epik_Ionization_Penalty_Neutral>
1.3954e-07

> <r_epik_State_Penalty>
0.00654787

> <r_epik_Charging_Adjusted_Penalty>
0.0152208

> <i_epik_Tot_Q>
0

> <i_epik_Tot_abs_Q>
0

> <r_epik_Metal_State_Penalty>
0.320056

> <b_epik_Metal_Only>
0

> <s_lp_Force_Field>
OPLS_2005

> <r_lp_Energy>
18.3286

> <b_lp_Chiralities_Consistent>
1

> <s_lp_Variant>
AV-unprocessed.smi:1540-2

> <Gold.Version>
5.8.1

> <Gold.Id.Protein>
6NUR|6NUR_protein|mol2

> <Gold.PLP.Fitness>
43.6862

> <Gold.PLP.PLP>
-39.2422

> <Gold.PLP.part.hbond>
-0.9136

> <Gold.PLP.part.metal>
0.0000

> <Gold.PLP.part.buried>
-6.4947

> <Gold.PLP.part.nonpolar>
-32.8739

> <Gold.PLP.part.repulsive>
0.1581

> <Gold.PLP.ligand.clash>
0.0000

> <Gold.PLP.ligand.torsion>
0.7439

> <Gold.PLP.Chemscore.Hbond>
0.9425

> <Gold.PLP.Chemscore.CHOScore>
1.0000

> <Gold.PLP.Chemscore.Metal>
0.0000

> <Gold.Chemscore.Hbonds>
donor molecule, donor type, donor heavy atom, donor atom, acceptor molecule, acceptor atom, score
      P1  H  6896  6908       L1     4  0.98
      L1  C    17    33       P1  8028  1.00

> <Gold.PLP.Chemscore.Internal.Correction>
0.1043

> <Gold.Rescore>
     Score         DG    S(hbond)    S(metal)    S(lipo)     H(rot)  DE(clash)    DE(int)     intcor
      9.62     -13.09       0.92        0.00      78.35       1.81       0.11       3.36       ----

> <Gold.Chemscore.Fitness>
9.6206

> <Gold.Chemscore.DG>
-13.0902

> <Gold.Chemscore.ZeroCoef>
-5.4800

> <Gold.Chemscore.Hbond>
0.9200

> <Gold.Chemscore.Metal>
0.0000

> <Gold.Chemscore.Lipo>
78.3512

> <Gold.Chemscore.Internal_Hbond>
0.0000

> <Gold.Chemscore.DEClash>
0.1124

> <Gold.Chemscore.DEInternal>
3.3572

> <Gold.Chemscore.Rot>
1.8084

> <Gold.Chemscore.Internal.Correction>
   9.000000E+99

> <Gold.Chemscore.Hbonds>
donor molecule, donor type, donor heavy atom, donor atom, acceptor molecule, acceptor atom, score
      P1  H  6896  6908       L1     4  0.59

> <Gold.Chemscore.Hbond.Weighted>
-3.0727

> <Gold.Chemscore.Metal.Weighted>
-0.0000

> <Gold.Chemscore.Lipo.Weighted>
-9.1671

> <Gold.Chemscore.Internal_Hbond.Weighted>
0.0000

> <Gold.Chemscore.DEClash.Weighted>
0.1124

> <Gold.Chemscore.DEInternal.Weighted>
3.3572

> <Gold.Chemscore.Rot.Weighted>
4.6296

> <Gold.Chemscore.Internal.Correction.Weighted>
   9.000000E+99

> <Gold.Protein.RotatedTorsions>
[ 6907 6896 6895 6894 ] final  -79.80 input  -60.11 | X-H torsion
[ 7974 7965 7964 7962 ] final  -95.88 input  175.53 | X-H torsion
[ 8008 7997 7996 7995 ] final  153.74 input   59.86 | X-H torsion
[ 10167 10162 10161 10158 ] final  173.62 input  -65.29 | X-H torsion
[ 10718 10713 10712 10709 ] final   55.14 input   66.30 | X-H torsion
[ 10763 10752 10751 10750 ] final  166.55 input  -60.55 | X-H torsion
[ 11005 11000 10999 10996 ] final   90.89 input  -57.11 | X-H torsion

> <Gold.Protein.ActiveResidues>
 VAL166  LYS551  ARG553  GLY616  TRP617  ASP618  TYR619  PRO620  LYS621  CYS622 
 ASP623  PHE694  ASN695  SER759  ASP760  ASP761  ALA762  ILE779  LEU786  VAL792 
 PHE793  MET794  SER795  GLU796  ALA797  LYS798  CYS799  TRP800  GLU811  SER814 

> <Gold.Protein.RotatedAtoms>
  150.6942  134.4066  159.5142 H   0  0  0  0  0  0  0  0  0  0  0  0  # atno 6907 bound_to 6896
  152.1832  134.8734  160.0533 H   0  0  0  0  0  0  0  0  0  0  0  0  # atno 6908 bound_to 6896
  151.9717  133.3693  159.4110 H   0  0  0  0  0  0  0  0  0  0  0  0  # atno 6909 bound_to 6896
  145.3542  140.9481  143.2537 H   0  0  0  0  0  0  0  0  0  0  0  0  # atno 7974 bound_to 7965
  156.2567  140.1985  156.6537 H   0  0  0  0  0  0  0  0  0  0  0  0  # atno 8008 bound_to 7997
  154.6517  140.0571  156.9988 H   0  0  0  0  0  0  0  0  0  0  0  0  # atno 8009 bound_to 7997
  155.1408  140.3242  155.4455 H   0  0  0  0  0  0  0  0  0  0  0  0  # atno 8010 bound_to 7997
  139.5114  144.3240  152.0175 H   0  0  0  0  0  0  0  0  0  0  0  0  # atno 10167 bound_to 10162
  157.5318  130.8636  149.8698 H   0  0  0  0  0  0  0  0  0  0  0  0  # atno 10718 bound_to 10713
  154.3406  135.2754  155.2424 H   0  0  0  0  0  0  0  0  0  0  0  0  # atno 10763 bound_to 10752
  154.4697  135.5886  153.6316 H   0  0  0  0  0  0  0  0  0  0  0  0  # atno 10764 bound_to 10752
  152.9858  135.6085  154.3607 H   0  0  0  0  0  0  0  0  0  0  0  0  # atno 10765 bound_to 10752
  139.8848  134.8641  156.3349 H   0  0  0  0  0  0  0  0  0  0  0  0  # atno 11005 bound_to 11000
  144.8695  139.5059  143.6774 LP  0  0  0  0  0  0  0  0  0  0  0  0  # atno 17320 bound_to 7965
  146.2955  139.7265  142.9130 LP  0  0  0  0  0  0  0  0  0  0  0  0  # atno 17321 bound_to 7965
  140.2681  144.3994  150.6161 LP  0  0  0  0  0  0  0  0  0  0  0  0  # atno 17342 bound_to 10162
  140.6108  143.2169  151.6889 LP  0  0  0  0  0  0  0  0  0  0  0  0  # atno 17343 bound_to 10162
  156.0428  130.3735  150.1391 LP  0  0  0  0  0  0  0  0  0  0  0  0  # atno 17370 bound_to 10713
  156.9575  130.9794  151.3486 LP  0  0  0  0  0  0  0  0  0  0  0  0  # atno 17371 bound_to 10713
  140.9698  133.7335  156.0518 LP  0  0  0  0  0  0  0  0  0  0  0  0  # atno 17394 bound_to 11000
  140.7885  134.3644  157.5470 LP  0  0  0  0  0  0  0  0  0  0  0  0  # atno 17395 bound_to 11000

$$$$
