AV-unprocessed.smi:12|AV-procd|sdf|64|dock1
  -GOLD-   2262015183D 1   1.00000     0.00000
 Structure written by MMmdl.
 41 44  0  0  0  0  0  0  0  0  1 V2000
  144.5059  142.3906  157.6964 C   0  0  0  0  0  0  0  0  0  0  0  0
  145.1931  141.2912  156.9064 C   0  0  0  0  0  0  0  0  0  0  0  0
  146.3494  141.5117  156.2374 C   0  0  0  0  0  0  0  0  0  0  0  0
  146.9307  140.4860  155.5461 N   0  0  0  0  0  0  0  0  0  0  0  0
  146.3081  139.2173  155.5191 C   0  0  0  0  0  0  0  0  0  0  0  0
  145.2020  138.9287  156.1313 N   0  0  0  0  0  0  0  0  0  0  0  0
  144.5712  139.9435  156.8762 C   0  0  0  0  0  0  0  0  0  0  0  0
  143.5264  139.7134  157.4838 O   0  0  0  0  0  0  0  0  0  0  0  0
  147.0483  138.3754  154.7446 O   0  0  0  0  0  0  0  0  0  0  0  0
  148.2069  139.0681  154.2581 C   0  0  2  0  0  0  0  0  0  0  0  0
  149.5222  138.5363  154.8344 C   0  0  2  0  0  0  0  0  0  0  0  0
  149.3174  137.7281  155.9804 O   0  0  0  0  0  0  0  0  0  0  0  0
  150.2732  139.8236  155.2061 C   0  0  2  0  0  0  0  0  0  0  0  0
  151.3535  139.7099  156.2931 C   0  0  0  0  0  0  0  0  0  0  0  0
  151.4312  140.9286  157.0154 O   0  0  0  0  0  0  0  0  0  0  0  0
  152.3781  141.0906  157.9609 C   0  0  0  0  0  0  0  0  0  0  0  0
  153.3146  140.3070  158.1291 O   0  0  0  0  0  0  0  0  0  0  0  0
  152.1735  142.3161  158.7862 C   0  0  0  0  0  0  0  0  0  0  0  0
  152.7023  142.3641  160.0975 C   0  0  0  0  0  0  0  0  0  0  0  0
  152.5203  143.5045  160.9036 C   0  0  0  0  0  0  0  0  0  0  0  0
  151.8077  144.6119  160.4079 C   0  0  0  0  0  0  0  0  0  0  0  0
  151.2784  144.5777  159.1046 C   0  0  0  0  0  0  0  0  0  0  0  0
  151.4596  143.4378  158.2968 C   0  0  0  0  0  0  0  0  0  0  0  0
  149.2407  140.7125  155.6058 O   0  0  0  0  0  0  0  0  0  0  0  0
  148.1584  140.5256  154.7518 C   0  0  2  0  0  0  0  0  0  0  0  0
  145.0603  143.3278  157.6355 H   0  0  0  0  0  0  0  0  0  0  0  0
  144.4280  142.1131  158.7480 H   0  0  0  0  0  0  0  0  0  0  0  0
  143.5013  142.5670  157.3107 H   0  0  0  0  0  0  0  0  0  0  0  0
  146.8217  142.4831  156.2461 H   0  0  0  0  0  0  0  0  0  0  0  0
  148.2236  139.0711  153.1675 H   0  0  0  0  0  0  0  0  0  0  0  0
  150.0747  137.9494  154.1000 H   0  0  0  0  0  0  0  0  0  0  0  0
  148.6357  138.1177  156.5059 H   0  0  0  0  0  0  0  0  0  0  0  0
  150.7224  140.2424  154.3032 H   0  0  0  0  0  0  0  0  0  0  0  0
  151.0935  138.9045  156.9813 H   0  0  0  0  0  0  0  0  0  0  0  0
  152.3222  139.4605  155.8577 H   0  0  0  0  0  0  0  0  0  0  0  0
  153.2521  141.5258  160.5006 H   0  0  0  0  0  0  0  0  0  0  0  0
  152.9277  143.5284  161.9036 H   0  0  0  0  0  0  0  0  0  0  0  0
  151.6674  145.4859  161.0269 H   0  0  0  0  0  0  0  0  0  0  0  0
  150.7313  145.4272  158.7230 H   0  0  0  0  0  0  0  0  0  0  0  0
  151.0397  143.4444  157.3016 H   0  0  0  0  0  0  0  0  0  0  0  0
  148.0176  141.2885  153.9853 H   0  0  0  0  0  0  0  0  0  0  0  0
  1  2  1  0  0  0  0
  1 26  1  0  0  0  0
  1 27  1  0  0  0  0
  1 28  1  0  0  0  0
  2  7  1  0  0  0  0
  2  3  2  0  0  0  0
  3  4  1  0  0  0  0
  3 29  1  0  0  0  0
  4 25  1  0  0  0  0
  4  5  1  0  0  0  0
  5  6  2  0  0  0  0
  5  9  1  0  0  0  0
  6  7  1  0  0  0  0
  7  8  2  0  0  0  0
  9 10  1  0  0  0  0
 10 25  1  0  0  0  0
 10 11  1  0  0  0  0
 10 30  1  0  0  0  0
 11 12  1  0  0  0  0
 11 13  1  0  0  0  0
 11 31  1  0  0  0  0
 12 32  1  0  0  0  0
 13 14  1  0  0  0  0
 13 24  1  0  0  0  0
 13 33  1  0  0  0  0
 14 15  1  0  0  0  0
 14 34  1  0  0  0  0
 14 35  1  0  0  0  0
 15 16  1  0  0  0  0
 16 17  2  0  0  0  0
 16 18  1  0  0  0  0
 18 23  1  0  0  0  0
 18 19  2  0  0  0  0
 19 20  1  0  0  0  0
 19 36  1  0  0  0  0
 20 21  2  0  0  0  0
 20 37  1  0  0  0  0
 21 22  1  0  0  0  0
 21 38  1  0  0  0  0
 22 23  2  0  0  0  0
 22 39  1  0  0  0  0
 23 40  1  0  0  0  0
 24 25  1  0  0  0  0
 25 41  1  0  0  0  0
M  END
> <s_m_source_file>
AV-unprocessed.smi

> <i_m_source_file_index>
12

> <i_lp_mmshare_version>
43012

> <i_f3d_flags>
0

> <s_epik_input>
W0NIM11jKFtjSF0xKWMoPU8pbmMobjEyKU9bQ0BIXTNbQ0BASF0yT1tDQEBIXShbQ0BASF0zW09IXSlbQ0gyXU9DKD1PKWM0W2NIXVtjSF1bY0hdW2NIXVtjSF00

> <s_epik_cmdline>
J2VwaWtfcHl0aG9uJywgJy1waCcsICc3LjAnLCAnLXRuJywgJzgnLCAnLW1hJywgJzIwMCcsICctbWV0YWxfYmluZGluZycsICctaW1hZScsICc8aW5maWxlLm1hZT4nLCAnLW9tYWUnLCAnPG91dGZpbGUubWFlPic=

> <r_lp_tautomer_probability>
0.933681

> <r_epik_Ionization_Penalty>
0.00399549

> <r_epik_Ionization_Penalty_Charging>
3.09373e-09

> <r_epik_Ionization_Penalty_Neutral>
0.00399549

> <r_epik_State_Penalty>
0.00284953

> <r_epik_Charging_Adjusted_Penalty>
0.00284953

> <i_epik_Tot_Q>
0

> <i_epik_Tot_abs_Q>
0

> <r_epik_Metal_State_Penalty>
-0

> <b_epik_Metal_Only>
0

> <s_epik_Chemistry_Notes>
This compound has an ester and may undergo hydrolysis at high or low pH. This compound contains an acetal/aminal-like group ( X-CH(R)-Y where X, Y are N, S, or O) that may be acid/base labile, releasing an aldehyde.

> <s_lp_Force_Field>
OPLS_2005

> <r_lp_Energy>
52.4355

> <b_lp_Chiralities_Consistent>
1

> <s_lp_Variant>
AV-unprocessed.smi:12-4

> <Gold.Version>
5.8.1

> <Gold.Id.Protein>
6NUR|6NUR_protein|mol2

> <Gold.PLP.Fitness>
46.4864

> <Gold.PLP.PLP>
-41.9695

> <Gold.PLP.part.hbond>
-1.0000

> <Gold.PLP.part.metal>
0.0000

> <Gold.PLP.part.buried>
-1.5574

> <Gold.PLP.part.nonpolar>
-39.5623

> <Gold.PLP.part.repulsive>
0.8796

> <Gold.PLP.ligand.clash>
0.0000

> <Gold.PLP.ligand.torsion>
0.7581

> <Gold.PLP.Chemscore.Hbond>
1.0000

> <Gold.PLP.Chemscore.CHOScore>
1.0000

> <Gold.PLP.Chemscore.Metal>
0.0000

> <Gold.Chemscore.Hbonds>
donor molecule, donor type, donor heavy atom, donor atom, acceptor molecule, acceptor atom, score
      P1  H  7997  8009       L1    17  0.88

> <Gold.PLP.Chemscore.Internal.Correction>
0.0331

> <Gold.Rescore>
     Score         DG    S(hbond)    S(metal)    S(lipo)     H(rot)  DE(clash)    DE(int)     intcor
     13.55     -14.79       0.82        0.00     103.75       2.18       0.49       0.76       ----

> <Gold.Chemscore.Fitness>
13.5456

> <Gold.Chemscore.DG>
-14.7907

> <Gold.Chemscore.ZeroCoef>
-5.4800

> <Gold.Chemscore.Hbond>
0.8240

> <Gold.Chemscore.Metal>
0.0000

> <Gold.Chemscore.Lipo>
103.7548

> <Gold.Chemscore.Internal_Hbond>
0.0000

> <Gold.Chemscore.DEClash>
0.4900

> <Gold.Chemscore.DEInternal>
0.7551

> <Gold.Chemscore.Rot>
2.1800

> <Gold.Chemscore.Internal.Correction>
   9.000000E+99

> <Gold.Chemscore.Hbonds>
donor molecule, donor type, donor heavy atom, donor atom, acceptor molecule, acceptor atom, score
      P1  H  7997  8009       L1    17  0.86

> <Gold.Chemscore.Hbond.Weighted>
-2.7521

> <Gold.Chemscore.Metal.Weighted>
-0.0000

> <Gold.Chemscore.Lipo.Weighted>
-12.1393

> <Gold.Chemscore.Internal_Hbond.Weighted>
0.0000

> <Gold.Chemscore.DEClash.Weighted>
0.4900

> <Gold.Chemscore.DEInternal.Weighted>
0.7551

> <Gold.Chemscore.Rot.Weighted>
5.5807

> <Gold.Chemscore.Internal.Correction.Weighted>
   9.000000E+99

> <Gold.Protein.RotatedTorsions>
[ 6907 6896 6895 6894 ] final -107.68 input  -60.11 | X-H torsion
[ 7974 7965 7964 7962 ] final  147.05 input  175.53 | X-H torsion
[ 8008 7997 7996 7995 ] final  159.77 input   59.86 | X-H torsion
[ 10167 10162 10161 10158 ] final  122.31 input  -65.29 | X-H torsion
[ 10718 10713 10712 10709 ] final   -4.32 input   66.30 | X-H torsion
[ 10763 10752 10751 10750 ] final  -56.07 input  -60.55 | X-H torsion
[ 11005 11000 10999 10996 ] final -173.77 input  -57.11 | X-H torsion

> <Gold.Protein.ActiveResidues>
 VAL166  LYS551  ARG553  GLY616  TRP617  ASP618  TYR619  PRO620  LYS621  CYS622 
 ASP623  PHE694  ASN695  SER759  ASP760  ASP761  ALA762  ILE779  LEU786  VAL792 
 PHE793  MET794  SER795  GLU796  ALA797  LYS798  CYS799  TRP800  GLU811  SER814 

> <Gold.Protein.RotatedAtoms>
  150.7458  133.9790  159.3569 H   0  0  0  0  0  0  0  0  0  0  0  0  # atno 6907 bound_to 6896
  151.7729  135.0779  160.0372 H   0  0  0  0  0  0  0  0  0  0  0  0  # atno 6908 bound_to 6896
  152.3326  133.5939  159.5856 H   0  0  0  0  0  0  0  0  0  0  0  0  # atno 6909 bound_to 6896
  144.8622  139.5981  143.5925 H   0  0  0  0  0  0  0  0  0  0  0  0  # atno 7974 bound_to 7965
  156.2217  140.1822  156.7462 H   0  0  0  0  0  0  0  0  0  0  0  0  # atno 8008 bound_to 7997
  154.5875  140.0656  156.9221 H   0  0  0  0  0  0  0  0  0  0  0  0  # atno 8009 bound_to 7997
  155.2394  140.3321  155.4296 H   0  0  0  0  0  0  0  0  0  0  0  0  # atno 8010 bound_to 7997
  139.5866  144.7009  151.3392 H   0  0  0  0  0  0  0  0  0  0  0  0  # atno 10167 bound_to 10162
  156.7630  130.5275  149.5781 H   0  0  0  0  0  0  0  0  0  0  0  0  # atno 10718 bound_to 10713
  154.2008  135.6411  153.5086 H   0  0  0  0  0  0  0  0  0  0  0  0  # atno 10763 bound_to 10752
  153.0012  135.5451  154.6317 H   0  0  0  0  0  0  0  0  0  0  0  0  # atno 10764 bound_to 10752
  154.5730  135.2918  155.0782 H   0  0  0  0  0  0  0  0  0  0  0  0  # atno 10765 bound_to 10752
  140.4820  134.6066  157.4923 H   0  0  0  0  0  0  0  0  0  0  0  0  # atno 11005 bound_to 11000
  146.2869  139.7029  142.9189 LP  0  0  0  0  0  0  0  0  0  0  0  0  # atno 17320 bound_to 7965
  145.4290  141.0413  143.2921 LP  0  0  0  0  0  0  0  0  0  0  0  0  # atno 17321 bound_to 7965
  140.7137  143.7323  150.7615 LP  0  0  0  0  0  0  0  0  0  0  0  0  # atno 17342 bound_to 10162
  140.0869  143.4915  152.2500 LP  0  0  0  0  0  0  0  0  0  0  0  0  # atno 17343 bound_to 10162
  156.1327  130.6189  151.0356 LP  0  0  0  0  0  0  0  0  0  0  0  0  # atno 17370 bound_to 10713
  157.6726  131.0858  150.7575 LP  0  0  0  0  0  0  0  0  0  0  0  0  # atno 17371 bound_to 10713
  139.9820  134.7121  155.9842 LP  0  0  0  0  0  0  0  0  0  0  0  0  # atno 17394 bound_to 11000
  141.1526  133.6546  156.4061 LP  0  0  0  0  0  0  0  0  0  0  0  0  # atno 17395 bound_to 11000

$$$$
