AV-unprocessed.smi:3156|AV-procd|sdf|12033|dock4
  -GOLD-   2272017453D 1   1.00000     0.00000
 Structure written by MMmdl.
 41 42  0  0  0  0  0  0  0  0  2 V2000
  151.8365  140.7908  157.0936 C   0  0  0  0  0  0  0  0  0  0  0  0
  150.8897  141.6650  156.2438 C   0  0  2  0  0  0  0  0  0  0  0  0
  150.5194  142.8890  156.9911 N   0  3  0  0  0  0  0  0  0  0  0  0
  151.5119  143.9837  156.9481 C   0  0  0  0  0  0  0  0  0  0  0  0
  152.0922  144.2532  158.3435 C   0  0  2  0  0  0  0  0  0  0  0  0
  152.3649  142.9459  159.1131 C   0  0  0  0  0  0  0  0  0  0  0  0
  152.8451  143.2478  160.5374 C   0  0  0  0  0  0  0  0  0  0  0  0
  151.8515  144.1866  161.2291 C   0  0  0  0  0  0  0  0  0  0  0  0
  151.5966  145.4274  160.3594 C   0  0  0  0  0  0  0  0  0  0  0  0
  151.1412  145.0301  159.0695 O   0  0  0  0  0  0  0  0  0  0  0  0
  149.6046  140.9125  155.8038 C   0  0  1  0  0  0  0  0  0  0  0  0
  148.8214  141.6693  154.7131 C   0  0  0  0  0  0  0  0  0  0  0  0
  149.8829  139.5508  155.3633 N   0  0  0  0  0  0  0  0  0  0  0  0
  149.3453  138.3726  155.8397 C   0  0  0  0  0  0  0  0  0  0  0  0
  149.9060  137.3505  155.1289 C   0  0  0  0  0  0  0  0  0  0  0  0
  150.7833  138.0093  154.2235 C   0  0  0  0  0  0  0  0  0  0  0  0
  150.7677  139.3248  154.3654 N   0  0  0  0  0  0  0  0  0  0  0  0
  152.1815  139.9143  156.5451 H   0  0  0  0  0  0  0  0  0  0  0  0
  151.3424  140.4397  158.0001 H   0  0  0  0  0  0  0  0  0  0  0  0
  152.7306  141.3352  157.3953 H   0  0  0  0  0  0  0  0  0  0  0  0
  151.4248  141.9671  155.3418 H   0  0  0  0  0  0  0  0  0  0  0  0
  149.6649  143.2462  156.5883 H   0  0  0  0  0  0  0  0  0  0  0  0
  152.3170  143.7449  156.2533 H   0  0  0  0  0  0  0  0  0  0  0  0
  151.0205  144.8827  156.5739 H   0  0  0  0  0  0  0  0  0  0  0  0
  153.0230  144.8151  158.2430 H   0  0  0  0  0  0  0  0  0  0  0  0
  151.4542  142.3466  159.1561 H   0  0  0  0  0  0  0  0  0  0  0  0
  153.1095  142.3454  158.5894 H   0  0  0  0  0  0  0  0  0  0  0  0
  152.9562  142.3243  161.1062 H   0  0  0  0  0  0  0  0  0  0  0  0
  153.8298  143.7159  160.5027 H   0  0  0  0  0  0  0  0  0  0  0  0
  150.9100  143.6630  161.4005 H   0  0  0  0  0  0  0  0  0  0  0  0
  152.2286  144.4814  162.2089 H   0  0  0  0  0  0  0  0  0  0  0  0
  150.8376  146.0589  160.8216 H   0  0  0  0  0  0  0  0  0  0  0  0
  152.4999  146.0320  160.2678 H   0  0  0  0  0  0  0  0  0  0  0  0
  148.9526  140.8271  156.6749 H   0  0  0  0  0  0  0  0  0  0  0  0
  148.4844  142.6447  155.0639 H   0  0  0  0  0  0  0  0  0  0  0  0
  147.9344  141.1114  154.4112 H   0  0  0  0  0  0  0  0  0  0  0  0
  149.4294  141.8305  153.8221 H   0  0  0  0  0  0  0  0  0  0  0  0
  148.6181  138.3582  156.6383 H   0  0  0  0  0  0  0  0  0  0  0  0
  149.7173  136.2929  155.2383 H   0  0  0  0  0  0  0  0  0  0  0  0
  151.4273  137.5737  153.4734 H   0  0  0  0  0  0  0  0  0  0  0  0
  150.3392  142.6423  157.9540 H   0  0  0  0  0  0  0  0  0  0  0  0
  1  2  1  0  0  0  0
  1 18  1  0  0  0  0
  1 19  1  0  0  0  0
  1 20  1  0  0  0  0
  2  3  1  0  0  0  0
  2 11  1  0  0  0  0
  2 21  1  0  0  0  0
  3  4  1  0  0  0  0
  3 22  1  0  0  0  0
  3 41  1  0  0  0  0
  4  5  1  0  0  0  0
  4 23  1  0  0  0  0
  4 24  1  0  0  0  0
  5 10  1  0  0  0  0
  5  6  1  0  0  0  0
  5 25  1  0  0  0  0
  6  7  1  0  0  0  0
  6 26  1  0  0  0  0
  6 27  1  0  0  0  0
  7  8  1  0  0  0  0
  7 28  1  0  0  0  0
  7 29  1  0  0  0  0
  8  9  1  0  0  0  0
  8 30  1  0  0  0  0
  8 31  1  0  0  0  0
  9 10  1  0  0  0  0
  9 32  1  0  0  0  0
  9 33  1  0  0  0  0
 11 12  1  0  0  0  0
 11 13  1  0  0  0  0
 11 34  1  0  0  0  0
 12 35  1  0  0  0  0
 12 36  1  0  0  0  0
 12 37  1  0  0  0  0
 13 17  1  0  0  0  0
 13 14  1  0  0  0  0
 14 15  2  0  0  0  0
 14 38  1  0  0  0  0
 15 16  1  0  0  0  0
 15 39  1  0  0  0  0
 16 17  2  0  0  0  0
 16 40  1  0  0  0  0
M  CHG  1   3   1
M  END
> <s_m_source_file>
AV-unprocessed.smi

> <i_m_source_file_index>
3156

> <i_lp_mmshare_version>
43012

> <i_f3d_flags>
0

> <s_epik_input>
bjFbY0hdW2NIXVtjSF1uMVtDQEBIXShbQ0gzXSlbQ0BIXShbQ0gzXSlbTkhdW0NIMl1bQ0BASF0yW0NIMl1bQ0gyXVtDSDJdW0NIMl1PMg==

> <s_epik_cmdline>
J2VwaWtfcHl0aG9uJywgJy1waCcsICc3LjAnLCAnLXRuJywgJzgnLCAnLW1hJywgJzIwMCcsICctbWV0YWxfYmluZGluZycsICctaW1hZScsICc8aW5maWxlLm1hZT4nLCAnLW9tYWUnLCAnPG91dGZpbGUubWFlPic=

> <r_lp_tautomer_probability>
1

> <r_epik_Ionization_Penalty>
0.00658015

> <r_epik_Ionization_Penalty_Charging>
0.00656881

> <r_epik_Ionization_Penalty_Neutral>
1.13431e-05

> <r_epik_State_Penalty>
0.0048654

> <r_epik_Charging_Adjusted_Penalty>
0.0114342

> <i_epik_Tot_Q>
1

> <i_epik_Tot_abs_Q>
1

> <r_epik_Metal_State_Penalty>
-0

> <b_epik_Metal_Only>
0

> <s_lp_Force_Field>
OPLS_2005

> <r_lp_Energy>
17.6132

> <b_lp_Chiralities_Consistent>
1

> <s_lp_Variant>
AV-unprocessed.smi:3156-5

> <Gold.Version>
5.8.1

> <Gold.Id.Protein>
6NUR|6NUR_protein|mol2

> <Gold.PLP.Fitness>
49.5424

> <Gold.PLP.PLP>
-39.6479

> <Gold.PLP.part.hbond>
-2.0000

> <Gold.PLP.part.metal>
0.0000

> <Gold.PLP.part.buried>
-3.1842

> <Gold.PLP.part.nonpolar>
-34.4278

> <Gold.PLP.part.repulsive>
0.2983

> <Gold.PLP.ligand.clash>
0.0000

> <Gold.PLP.ligand.torsion>
1.0906

> <Gold.PLP.Chemscore.Hbond>
3.0000

> <Gold.PLP.Chemscore.CHOScore>
1.0000

> <Gold.PLP.Chemscore.Metal>
0.0000

> <Gold.Chemscore.Hbonds>
donor molecule, donor type, donor heavy atom, donor atom, acceptor molecule, acceptor atom, score
      L1  H     3    22       P1  8028  1.76
      P1  H  7989  7998       L1    17  1.00
      L1  C    16    40       P1  7949  0.95

> <Gold.PLP.Chemscore.Internal.Correction>
0.0756

> <Gold.Rescore>
     Score         DG    S(hbond)    S(metal)    S(lipo)     H(rot)  DE(clash)    DE(int)     intcor
     19.70     -21.13       1.86        0.00     115.59       1.59       0.35       1.09       ----

> <Gold.Chemscore.Fitness>
19.6955

> <Gold.Chemscore.DG>
-21.1343

> <Gold.Chemscore.ZeroCoef>
-5.4800

> <Gold.Chemscore.Hbond>
1.8593

> <Gold.Chemscore.Metal>
0.0000

> <Gold.Chemscore.Lipo>
115.5936

> <Gold.Chemscore.Internal_Hbond>
0.0000

> <Gold.Chemscore.DEClash>
0.3524

> <Gold.Chemscore.DEInternal>
1.0864

> <Gold.Chemscore.Rot>
1.5938

> <Gold.Chemscore.Internal.Correction>
   9.000000E+99

> <Gold.Chemscore.Hbonds>
donor molecule, donor type, donor heavy atom, donor atom, acceptor molecule, acceptor atom, score
      L1  H     3    22       P1  8028  0.86
      P1  H  7989  7998       L1    17  0.95

> <Gold.Chemscore.Hbond.Weighted>
-6.2101

> <Gold.Chemscore.Metal.Weighted>
-0.0000

> <Gold.Chemscore.Lipo.Weighted>
-13.5245

> <Gold.Chemscore.Internal_Hbond.Weighted>
0.0000

> <Gold.Chemscore.DEClash.Weighted>
0.3524

> <Gold.Chemscore.DEInternal.Weighted>
1.0864

> <Gold.Chemscore.Rot.Weighted>
4.0802

> <Gold.Chemscore.Internal.Correction.Weighted>
   9.000000E+99

> <Gold.Protein.RotatedTorsions>
[ 6907 6896 6895 6894 ] final -163.86 input  -60.11 | X-H torsion
[ 7974 7965 7964 7962 ] final  134.65 input  175.53 | X-H torsion
[ 8008 7997 7996 7995 ] final  -27.80 input   59.86 | X-H torsion
[ 10167 10162 10161 10158 ] final    1.24 input  -65.29 | X-H torsion
[ 10718 10713 10712 10709 ] final -159.65 input   66.30 | X-H torsion
[ 10763 10752 10751 10750 ] final  148.47 input  -60.55 | X-H torsion
[ 11005 11000 10999 10996 ] final   68.74 input  -57.11 | X-H torsion

> <Gold.Protein.ActiveResidues>
 VAL166  LYS551  ARG553  GLY616  TRP617  ASP618  TYR619  PRO620  LYS621  CYS622 
 ASP623  PHE694  ASN695  SER759  ASP760  ASP761  ALA762  ILE779  LEU786  VAL792 
 PHE793  MET794  SER795  GLU796  ALA797  LYS798  CYS799  TRP800  GLU811  SER814 

> <Gold.Protein.RotatedAtoms>
  151.4027  133.3752  159.2733 H   0  0  0  0  0  0  0  0  0  0  0  0  # atno 6907 bound_to 6896
  150.9422  134.8831  159.7630 H   0  0  0  0  0  0  0  0  0  0  0  0  # atno 6908 bound_to 6896
  152.5076  134.3978  159.9458 H   0  0  0  0  0  0  0  0  0  0  0  0  # atno 6909 bound_to 6896
  144.9742  139.4573  143.5418 H   0  0  0  0  0  0  0  0  0  0  0  0  # atno 7974 bound_to 7965
  154.4361  140.1862  156.0989 H   0  0  0  0  0  0  0  0  0  0  0  0  # atno 8008 bound_to 7997
  156.0307  140.3331  155.7111 H   0  0  0  0  0  0  0  0  0  0  0  0  # atno 8009 bound_to 7997
  155.5843  140.0624  157.2766 H   0  0  0  0  0  0  0  0  0  0  0  0  # atno 8010 bound_to 7997
  140.6692  143.7097  150.7887 H   0  0  0  0  0  0  0  0  0  0  0  0  # atno 10167 bound_to 10162
  156.5710  130.8688  151.2838 H   0  0  0  0  0  0  0  0  0  0  0  0  # atno 10718 bound_to 10713
  154.0553  135.2878  155.3334 H   0  0  0  0  0  0  0  0  0  0  0  0  # atno 10763 bound_to 10752
  154.6843  135.5251  153.8308 H   0  0  0  0  0  0  0  0  0  0  0  0  # atno 10764 bound_to 10752
  153.0544  135.6589  154.0746 H   0  0  0  0  0  0  0  0  0  0  0  0  # atno 10765 bound_to 10752
  139.9694  134.6926  156.0478 H   0  0  0  0  0  0  0  0  0  0  0  0  # atno 11005 bound_to 11000
  146.3391  139.8974  142.8799 LP  0  0  0  0  0  0  0  0  0  0  0  0  # atno 17320 bound_to 7965
  145.2514  141.0045  143.3879 LP  0  0  0  0  0  0  0  0  0  0  0  0  # atno 17321 bound_to 7965
  140.0779  143.4997  152.2546 LP  0  0  0  0  0  0  0  0  0  0  0  0  # atno 17342 bound_to 10162
  139.5952  144.7564  151.3303 LP  0  0  0  0  0  0  0  0  0  0  0  0  # atno 17343 bound_to 10162
  157.7348  130.9752  150.2048 LP  0  0  0  0  0  0  0  0  0  0  0  0  # atno 17370 bound_to 10713
  156.2714  130.3722  149.8027 LP  0  0  0  0  0  0  0  0  0  0  0  0  # atno 17371 bound_to 10713
  141.1374  133.6572  156.3632 LP  0  0  0  0  0  0  0  0  0  0  0  0  # atno 17394 bound_to 11000
  140.5326  134.6198  157.5355 LP  0  0  0  0  0  0  0  0  0  0  0  0  # atno 17395 bound_to 11000

$$$$
