AV-unprocessed.smi:371|AV-procd|sdf|2442|dock5
  -GOLD-   2262022383D 1   1.00000     0.00000
 Structure written by MMmdl.
 39 40  0  0  0  0  0  0  0  0  1 V2000
  146.9028  139.5132  152.9814 C   0  0  0  0  0  0  0  0  0  0  0  0
  148.1279  139.9013  153.8002 C   0  0  0  0  0  0  0  0  0  0  0  0
  149.2587  139.0024  153.7965 C   0  0  0  0  0  0  0  0  0  0  0  0
  150.3296  139.2312  154.5737 C   0  0  0  0  0  0  0  0  0  0  0  0
  151.5208  138.2799  154.5587 C   0  0  0  0  0  0  0  0  0  0  0  0
  150.3907  140.3894  155.3966 N   0  0  0  0  0  0  0  0  0  0  0  0
  151.5372  140.5621  156.3241 C   0  0  0  0  0  0  0  0  0  0  0  0
  151.1990  140.1638  157.7837 C   0  0  1  0  0  0  0  0  0  0  0  0
  151.2563  138.7544  157.8801 O   0  0  0  0  0  0  0  0  0  0  0  0
  152.0794  140.8537  158.8216 C   0  0  0  0  0  0  0  0  0  0  0  0
  152.9002  140.0885  159.6802 C   0  0  0  0  0  0  0  0  0  0  0  0
  153.7421  140.7230  160.6138 C   0  0  0  0  0  0  0  0  0  0  0  0
  153.7703  142.1277  160.6959 C   0  0  0  0  0  0  0  0  0  0  0  0
  152.9552  142.8973  159.8445 C   0  0  0  0  0  0  0  0  0  0  0  0
  152.1119  142.2649  158.9103 C   0  0  0  0  0  0  0  0  0  0  0  0
  151.3485  143.0230  158.0869 F   0  0  0  0  0  0  0  0  0  0  0  0
  149.4144  141.3538  155.3612 C   0  0  0  0  0  0  0  0  0  0  0  0
  149.5618  142.4167  155.9730 O   0  0  0  0  0  0  0  0  0  0  0  0
  148.2020  141.0238  154.5644 C   0  0  0  0  0  0  0  0  0  0  0  0
  147.0851  141.9857  154.6360 C   0  0  0  0  0  0  0  0  0  0  0  0
  146.9210  142.5780  155.8275 N   0  0  0  0  0  0  0  0  0  0  0  0
  146.2850  142.2031  153.7275 O   0  0  0  0  0  0  0  0  0  0  0  0
  146.9912  138.4963  152.5980 H   0  0  0  0  0  0  0  0  0  0  0  0
  146.7870  140.1801  152.1269 H   0  0  0  0  0  0  0  0  0  0  0  0
  145.9963  139.5558  153.5860 H   0  0  0  0  0  0  0  0  0  0  0  0
  149.2376  138.1280  153.1623 H   0  0  0  0  0  0  0  0  0  0  0  0
  151.3019  137.3959  153.9592 H   0  0  0  0  0  0  0  0  0  0  0  0
  151.7788  137.9275  155.5559 H   0  0  0  0  0  0  0  0  0  0  0  0
  152.3919  138.7623  154.1144 H   0  0  0  0  0  0  0  0  0  0  0  0
  152.4054  140.0024  155.9804 H   0  0  0  0  0  0  0  0  0  0  0  0
  151.9052  141.5893  156.3157 H   0  0  0  0  0  0  0  0  0  0  0  0
  150.1637  140.4273  157.9951 H   0  0  0  0  0  0  0  0  0  0  0  0
  150.7640  138.4861  158.6409 H   0  0  0  0  0  0  0  0  0  0  0  0
  152.8978  139.0101  159.6166 H   0  0  0  0  0  0  0  0  0  0  0  0
  154.3701  140.1310  161.2634 H   0  0  0  0  0  0  0  0  0  0  0  0
  154.4181  142.6148  161.4096 H   0  0  0  0  0  0  0  0  0  0  0  0
  152.9802  143.9754  159.9045 H   0  0  0  0  0  0  0  0  0  0  0  0
  146.1702  143.2396  155.9640 H   0  0  0  0  0  0  0  0  0  0  0  0
  147.5423  142.3492  156.5898 H   0  0  0  0  0  0  0  0  0  0  0  0
  1  2  1  0  0  0  0
  1 23  1  0  0  0  0
  1 24  1  0  0  0  0
  1 25  1  0  0  0  0
  2 19  2  0  0  0  0
  2  3  1  0  0  0  0
  3  4  2  0  0  0  0
  3 26  1  0  0  0  0
  4  5  1  0  0  0  0
  4  6  1  0  0  0  0
  5 27  1  0  0  0  0
  5 28  1  0  0  0  0
  5 29  1  0  0  0  0
  6  7  1  0  0  0  0
  6 17  1  0  0  0  0
  7  8  1  0  0  0  0
  7 30  1  0  0  0  0
  7 31  1  0  0  0  0
  8  9  1  0  0  0  0
  8 10  1  0  0  0  0
  8 32  1  0  0  0  0
  9 33  1  0  0  0  0
 10 15  1  0  0  0  0
 10 11  2  0  0  0  0
 11 12  1  0  0  0  0
 11 34  1  0  0  0  0
 12 13  2  0  0  0  0
 12 35  1  0  0  0  0
 13 14  1  0  0  0  0
 13 36  1  0  0  0  0
 14 15  2  0  0  0  0
 14 37  1  0  0  0  0
 15 16  1  0  0  0  0
 17 18  2  0  0  0  0
 17 19  1  0  0  0  0
 19 20  1  0  0  0  0
 20 21  1  0  0  0  0
 20 22  2  0  0  0  0
 21 38  1  0  0  0  0
 21 39  1  0  0  0  0
M  END
> <s_m_source_file>
AV-unprocessed.smi

> <i_m_source_file_index>
371

> <i_lp_mmshare_version>
43012

> <i_f3d_flags>
0

> <s_epik_input>
W0NIM11jMVtjSF1jKFtDSDNdKW4oYyg9TyljMUMoPU8pW05IMl0pW0NIMl1bQ0BIXShbT0hdKWMyW2NIXVtjSF1bY0hdW2NIXWMyRg==

> <s_epik_cmdline>
J2VwaWtfcHl0aG9uJywgJy1waCcsICc3LjAnLCAnLXRuJywgJzgnLCAnLW1hJywgJzIwMCcsICctbWV0YWxfYmluZGluZycsICctaW1hZScsICc8aW5maWxlLm1hZT4nLCAnLW9tYWUnLCAnPG91dGZpbGUubWFlPic=

> <r_lp_tautomer_probability>
1

> <r_epik_Ionization_Penalty>
3.46512e-07

> <r_epik_Ionization_Penalty_Charging>
1.35363e-07

> <r_epik_Ionization_Penalty_Neutral>
2.11149e-07

> <r_epik_State_Penalty>
-0

> <r_epik_Charging_Adjusted_Penalty>
1.35363e-07

> <i_epik_Tot_Q>
0

> <i_epik_Tot_abs_Q>
0

> <r_epik_Metal_State_Penalty>
-0

> <b_epik_Metal_Only>
0

> <s_lp_Force_Field>
OPLS_2005

> <r_lp_Energy>
37.7279

> <b_lp_Chiralities_Consistent>
1

> <s_lp_Variant>
AV-unprocessed.smi:371-2

> <Gold.Version>
5.8.1

> <Gold.Id.Protein>
6NUR|6NUR_protein|mol2

> <Gold.PLP.Fitness>
39.9044

> <Gold.PLP.PLP>
-41.4099

> <Gold.PLP.part.hbond>
-1.0000

> <Gold.PLP.part.metal>
0.0000

> <Gold.PLP.part.buried>
-2.0110

> <Gold.PLP.part.nonpolar>
-43.2126

> <Gold.PLP.part.repulsive>
5.1645

> <Gold.PLP.ligand.clash>
0.0000

> <Gold.PLP.ligand.torsion>
0.9560

> <Gold.PLP.Chemscore.Hbond>
0.0000

> <Gold.PLP.Chemscore.CHOScore>
0.0000

> <Gold.PLP.Chemscore.Metal>
0.0000

> <Gold.PLP.Chemscore.Internal.Correction>
0.4066

> <Gold.Rescore>
     Score         DG    S(hbond)    S(metal)    S(lipo)     H(rot)  DE(clash)    DE(int)     intcor
      8.55     -12.72       0.00        0.00     106.52       2.04       1.88       2.30       ----

> <Gold.Chemscore.Fitness>
8.5456

> <Gold.Chemscore.DG>
-12.7215

> <Gold.Chemscore.ZeroCoef>
-5.4800

> <Gold.Chemscore.Hbond>
0.0000

> <Gold.Chemscore.Metal>
0.0000

> <Gold.Chemscore.Lipo>
106.5199

> <Gold.Chemscore.Internal_Hbond>
0.0000

> <Gold.Chemscore.DEClash>
1.8770

> <Gold.Chemscore.DEInternal>
2.2989

> <Gold.Chemscore.Rot>
2.0396

> <Gold.Chemscore.Internal.Correction>
   9.000000E+99

> <Gold.Chemscore.Hbond.Weighted>
-0.0000

> <Gold.Chemscore.Metal.Weighted>
-0.0000

> <Gold.Chemscore.Lipo.Weighted>
-12.4628

> <Gold.Chemscore.Internal_Hbond.Weighted>
0.0000

> <Gold.Chemscore.DEClash.Weighted>
1.8770

> <Gold.Chemscore.DEInternal.Weighted>
2.2989

> <Gold.Chemscore.Rot.Weighted>
5.2214

> <Gold.Chemscore.Internal.Correction.Weighted>
   9.000000E+99

> <Gold.Protein.RotatedTorsions>
[ 6907 6896 6895 6894 ] final  105.72 input  -60.11 | X-H torsion
[ 7974 7965 7964 7962 ] final   41.28 input  175.53 | X-H torsion
[ 8008 7997 7996 7995 ] final  -42.17 input   59.86 | X-H torsion
[ 10167 10162 10161 10158 ] final   86.55 input  -65.29 | X-H torsion
[ 10718 10713 10712 10709 ] final -107.73 input   66.30 | X-H torsion
[ 10763 10752 10751 10750 ] final  144.67 input  -60.55 | X-H torsion
[ 11005 11000 10999 10996 ] final -176.26 input  -57.11 | X-H torsion

> <Gold.Protein.ActiveResidues>
 VAL166  LYS551  ARG553  GLY616  TRP617  ASP618  TYR619  PRO620  LYS621  CYS622 
 ASP623  PHE694  ASN695  SER759  ASP760  ASP761  ALA762  ILE779  LEU786  VAL792 
 PHE793  MET794  SER795  GLU796  ALA797  LYS798  CYS799  TRP800  GLU811  SER814 

> <Gold.Protein.RotatedAtoms>
  152.5220  133.9487  159.7661 H   0  0  0  0  0  0  0  0  0  0  0  0  # atno 6907 bound_to 6896
  150.9801  133.6245  159.2731 H   0  0  0  0  0  0  0  0  0  0  0  0  # atno 6908 bound_to 6896
  151.3426  135.0873  159.9429 H   0  0  0  0  0  0  0  0  0  0  0  0  # atno 6909 bound_to 6896
  146.0836  139.5434  142.9521 H   0  0  0  0  0  0  0  0  0  0  0  0  # atno 7974 bound_to 7965
  154.4000  140.1480  156.3312 H   0  0  0  0  0  0  0  0  0  0  0  0  # atno 8008 bound_to 7997
  155.8442  140.3460  155.5630 H   0  0  0  0  0  0  0  0  0  0  0  0  # atno 8009 bound_to 7997
  155.8054  140.0876  157.1924 H   0  0  0  0  0  0  0  0  0  0  0  0  # atno 8010 bound_to 7997
  139.8864  144.6411  150.8786 H   0  0  0  0  0  0  0  0  0  0  0  0  # atno 10167 bound_to 10162
  156.0451  130.5677  150.7863 H   0  0  0  0  0  0  0  0  0  0  0  0  # atno 10718 bound_to 10713
  153.9927  135.2930  155.3410 H   0  0  0  0  0  0  0  0  0  0  0  0  # atno 10763 bound_to 10752
  154.7205  135.5111  153.8807 H   0  0  0  0  0  0  0  0  0  0  0  0  # atno 10764 bound_to 10752
  153.0802  135.6676  154.0178 H   0  0  0  0  0  0  0  0  0  0  0  0  # atno 10765 bound_to 10752
  140.4541  134.6316  157.4814 H   0  0  0  0  0  0  0  0  0  0  0  0  # atno 11005 bound_to 11000
  145.6172  141.0329  143.1934 LP  0  0  0  0  0  0  0  0  0  0  0  0  # atno 17320 bound_to 7965
  144.7310  139.7726  143.7347 LP  0  0  0  0  0  0  0  0  0  0  0  0  # atno 17321 bound_to 7965
  140.7735  143.3545  151.1949 LP  0  0  0  0  0  0  0  0  0  0  0  0  # atno 17342 bound_to 10162
  139.7149  143.9316  152.2962 LP  0  0  0  0  0  0  0  0  0  0  0  0  # atno 17343 bound_to 10162
  157.5316  131.0937  150.9947 LP  0  0  0  0  0  0  0  0  0  0  0  0  # atno 17370 bound_to 10713
  157.0252  130.5689  149.5336 LP  0  0  0  0  0  0  0  0  0  0  0  0  # atno 17371 bound_to 10713
  139.9988  134.6869  155.9565 LP  0  0  0  0  0  0  0  0  0  0  0  0  # atno 17394 bound_to 11000
  141.1651  133.6537  156.4452 LP  0  0  0  0  0  0  0  0  0  0  0  0  # atno 17395 bound_to 11000

$$$$
