AV-unprocessed.smi:360|AV-procd|sdf|2419|dock6
  -GOLD-   2262022353D 1   1.00000     0.00000
 Structure written by MMmdl.
 37 38  0  0  0  0  0  0  0  0  1 V2000
  143.7493  136.1242  152.4176 C   0  0  0  0  0  0  0  0  0  0  0  0
  144.5189  137.0312  153.0373 C   0  0  0  0  0  0  0  0  0  0  0  0
  145.7846  137.6171  152.4524 C   0  0  0  0  0  0  0  0  0  0  0  0
  146.1004  138.9145  153.0251 N   0  0  0  0  0  0  0  0  0  0  0  0
  147.2860  139.3156  153.6269 C   0  0  0  0  0  0  0  0  0  0  0  0
  148.4302  138.4291  153.7688 C   0  0  0  0  0  0  0  0  0  0  0  0
  149.5334  138.7966  154.3228 N   0  0  0  0  0  0  0  0  0  0  0  0
  149.6564  140.0826  154.8096 N   0  0  0  0  0  0  0  0  0  0  0  0
  150.9607  140.3650  155.4206 C   0  0  0  0  0  0  0  0  0  0  0  0
  151.1672  139.5708  156.7205 C   0  0  0  0  0  0  0  0  0  0  0  0
  152.1320  140.2283  157.5309 O   0  0  0  0  0  0  0  0  0  0  0  0
  151.7623  141.3854  158.1810 C   0  0  0  0  0  0  0  0  0  0  0  0
  152.4861  141.7239  159.3430 C   0  0  0  0  0  0  0  0  0  0  0  0
  152.1760  142.8878  160.0724 C   0  0  0  0  0  0  0  0  0  0  0  0
  151.1332  143.7295  159.6430 C   0  0  0  0  0  0  0  0  0  0  0  0
  150.7508  145.1565  160.5343 Cl  0  0  0  0  0  0  0  0  0  0  0  0
  150.4026  143.4041  158.4848 C   0  0  0  0  0  0  0  0  0  0  0  0
  150.7126  142.2391  157.7560 C   0  0  0  0  0  0  0  0  0  0  0  0
  148.6731  141.0301  154.7600 C   0  0  0  0  0  0  0  0  0  0  0  0
  148.8236  142.1642  155.2160 O   0  0  0  0  0  0  0  0  0  0  0  0
  147.4304  140.5749  154.1195 C   0  0  0  0  0  0  0  0  0  0  0  0
  146.1286  141.7122  154.0065 Cl  0  0  0  0  0  0  0  0  0  0  0  0
  143.9987  135.7547  151.4335 H   0  0  0  0  0  0  0  0  0  0  0  0
  142.8570  135.7391  152.8891 H   0  0  0  0  0  0  0  0  0  0  0  0
  144.2399  137.3759  154.0225 H   0  0  0  0  0  0  0  0  0  0  0  0
  146.6103  136.9321  152.6461 H   0  0  0  0  0  0  0  0  0  0  0  0
  145.6794  137.7079  151.3709 H   0  0  0  0  0  0  0  0  0  0  0  0
  145.3480  139.5884  153.0019 H   0  0  0  0  0  0  0  0  0  0  0  0
  148.3062  137.4202  153.3764 H   0  0  0  0  0  0  0  0  0  0  0  0
  151.7480  140.0969  154.7140 H   0  0  0  0  0  0  0  0  0  0  0  0
  151.0959  141.4320  155.6049 H   0  0  0  0  0  0  0  0  0  0  0  0
  150.2188  139.4694  157.2509 H   0  0  0  0  0  0  0  0  0  0  0  0
  151.5221  138.5695  156.4726 H   0  0  0  0  0  0  0  0  0  0  0  0
  153.2887  141.0835  159.6786 H   0  0  0  0  0  0  0  0  0  0  0  0
  152.7399  143.1323  160.9607 H   0  0  0  0  0  0  0  0  0  0  0  0
  149.6008  144.0474  158.1531 H   0  0  0  0  0  0  0  0  0  0  0  0
  150.1289  142.0221  156.8746 H   0  0  0  0  0  0  0  0  0  0  0  0
  1  2  2  0  0  0  0
  1 23  1  0  0  0  0
  1 24  1  0  0  0  0
  2  3  1  0  0  0  0
  2 25  1  0  0  0  0
  3  4  1  0  0  0  0
  3 26  1  0  0  0  0
  3 27  1  0  0  0  0
  4  5  1  0  0  0  0
  4 28  1  0  0  0  0
  5 21  2  0  0  0  0
  5  6  1  0  0  0  0
  6  7  2  0  0  0  0
  6 29  1  0  0  0  0
  7  8  1  0  0  0  0
  8  9  1  0  0  0  0
  8 19  1  0  0  0  0
  9 10  1  0  0  0  0
  9 30  1  0  0  0  0
  9 31  1  0  0  0  0
 10 11  1  0  0  0  0
 10 32  1  0  0  0  0
 10 33  1  0  0  0  0
 11 12  1  0  0  0  0
 12 18  1  0  0  0  0
 12 13  2  0  0  0  0
 13 14  1  0  0  0  0
 13 34  1  0  0  0  0
 14 15  2  0  0  0  0
 14 35  1  0  0  0  0
 15 16  1  0  0  0  0
 15 17  1  0  0  0  0
 17 18  2  0  0  0  0
 17 36  1  0  0  0  0
 18 37  1  0  0  0  0
 19 20  2  0  0  0  0
 19 21  1  0  0  0  0
 21 22  1  0  0  0  0
M  END
> <s_m_source_file>
AV-unprocessed.smi

> <i_m_source_file_index>
360

> <i_lp_mmshare_version>
43012

> <i_f3d_flags>
0

> <s_epik_input>
W0NIMl09W0NIXVtDSDJdW05IXWMxW2NIXW5uKGMoPU8pYzFDbClbQ0gyXVtDSDJdT2MyW2NIXVtjSF1jKENsKVtjSF1bY0hdMg==

> <s_epik_cmdline>
J2VwaWtfcHl0aG9uJywgJy1waCcsICc3LjAnLCAnLXRuJywgJzgnLCAnLW1hJywgJzIwMCcsICctbWV0YWxfYmluZGluZycsICctaW1hZScsICc8aW5maWxlLm1hZT4nLCAnLW9tYWUnLCAnPG91dGZpbGUubWFlPic=

> <r_lp_tautomer_probability>
1

> <r_epik_Ionization_Penalty>
1.57681e-05

> <r_epik_Ionization_Penalty_Charging>
9.79356e-10

> <r_epik_Ionization_Penalty_Neutral>
1.57671e-05

> <r_epik_State_Penalty>
-0

> <r_epik_Charging_Adjusted_Penalty>
9.79356e-10

> <i_epik_Tot_Q>
0

> <i_epik_Tot_abs_Q>
0

> <r_epik_Metal_State_Penalty>
-0

> <b_epik_Metal_Only>
0

> <s_lp_Force_Field>
OPLS_2005

> <r_lp_Energy>
29.545

> <b_lp_Chiralities_Consistent>
1

> <s_lp_Variant>
AV-unprocessed.smi:360-1

> <Gold.Version>
5.8.1

> <Gold.Id.Protein>
6NUR|6NUR_protein|mol2

> <Gold.PLP.Fitness>
48.2711

> <Gold.PLP.PLP>
-41.1509

> <Gold.PLP.part.hbond>
-2.5346

> <Gold.PLP.part.metal>
0.0000

> <Gold.PLP.part.buried>
-1.1839

> <Gold.PLP.part.nonpolar>
-40.7535

> <Gold.PLP.part.repulsive>
3.3050

> <Gold.PLP.ligand.clash>
0.0000

> <Gold.PLP.ligand.torsion>
0.7612

> <Gold.PLP.Chemscore.Hbond>
1.8451

> <Gold.PLP.Chemscore.CHOScore>
1.0000

> <Gold.PLP.Chemscore.Metal>
0.0000

> <Gold.Chemscore.Hbonds>
donor molecule, donor type, donor heavy atom, donor atom, acceptor molecule, acceptor atom, score
      L1  H     4    28       P1 10175  1.00
      P1  H  7997  8010       L1    11  0.05
      L1  C     6    29       P1  7948  0.98

> <Gold.PLP.Chemscore.Internal.Correction>
0.1073

> <Gold.Rescore>
     Score         DG    S(hbond)    S(metal)    S(lipo)     H(rot)  DE(clash)    DE(int)     intcor
     15.74     -18.33       1.29        0.00     110.78       1.73       2.01       0.58       ----

> <Gold.Chemscore.Fitness>
15.7419

> <Gold.Chemscore.DG>
-18.3251

> <Gold.Chemscore.ZeroCoef>
-5.4800

> <Gold.Chemscore.Hbond>
1.2947

> <Gold.Chemscore.Metal>
0.0000

> <Gold.Chemscore.Lipo>
110.7833

> <Gold.Chemscore.Internal_Hbond>
0.0000

> <Gold.Chemscore.DEClash>
2.0068

> <Gold.Chemscore.DEInternal>
0.5764

> <Gold.Chemscore.Rot>
1.7348

> <Gold.Chemscore.Internal.Correction>
   9.000000E+99

> <Gold.Chemscore.Hbonds>
donor molecule, donor type, donor heavy atom, donor atom, acceptor molecule, acceptor atom, score
      L1  H     4    28       P1 10175  0.98
      P1  H  7997  8010       L1    11  0.08

> <Gold.Chemscore.Hbond.Weighted>
-4.3244

> <Gold.Chemscore.Metal.Weighted>
-0.0000

> <Gold.Chemscore.Lipo.Weighted>
-12.9616

> <Gold.Chemscore.Internal_Hbond.Weighted>
0.0000

> <Gold.Chemscore.DEClash.Weighted>
2.0068

> <Gold.Chemscore.DEInternal.Weighted>
0.5764

> <Gold.Chemscore.Rot.Weighted>
4.4410

> <Gold.Chemscore.Internal.Correction.Weighted>
   9.000000E+99

> <Gold.Protein.RotatedTorsions>
[ 6907 6896 6895 6894 ] final   24.95 input  -60.11 | X-H torsion
[ 7974 7965 7964 7962 ] final -130.92 input  175.53 | X-H torsion
[ 8008 7997 7996 7995 ] final   60.25 input   59.86 | X-H torsion
[ 10167 10162 10161 10158 ] final -124.90 input  -65.29 | X-H torsion
[ 10718 10713 10712 10709 ] final   69.81 input   66.30 | X-H torsion
[ 10763 10752 10751 10750 ] final   97.14 input  -60.55 | X-H torsion
[ 11005 11000 10999 10996 ] final  -54.00 input  -57.11 | X-H torsion

> <Gold.Protein.ActiveResidues>
 VAL166  LYS551  ARG553  GLY616  TRP617  ASP618  TYR619  PRO620  LYS621  CYS622 
 ASP623  PHE694  ASN695  SER759  ASP760  ASP761  ALA762  ILE779  LEU786  VAL792 
 PHE793  MET794  SER795  GLU796  ALA797  LYS798  CYS799  TRP800  GLU811  SER814 

> <Gold.Protein.RotatedAtoms>
  151.9652  135.0104  160.0549 H   0  0  0  0  0  0  0  0  0  0  0  0  # atno 6907 bound_to 6896
  152.1833  133.4717  159.4978 H   0  0  0  0  0  0  0  0  0  0  0  0  # atno 6908 bound_to 6896
  150.6921  134.1723  159.4260 H   0  0  0  0  0  0  0  0  0  0  0  0  # atno 6909 bound_to 6896
  144.9428  140.7258  143.4836 H   0  0  0  0  0  0  0  0  0  0  0  0  # atno 7974 bound_to 7965
  155.5793  140.3491  155.4536 H   0  0  0  0  0  0  0  0  0  0  0  0  # atno 8008 bound_to 7997
  156.0385  140.1290  157.0206 H   0  0  0  0  0  0  0  0  0  0  0  0  # atno 8009 bound_to 7997
  154.4382  140.1029  156.6188 H   0  0  0  0  0  0  0  0  0  0  0  0  # atno 8010 bound_to 7997
  139.9878  143.5673  152.2353 H   0  0  0  0  0  0  0  0  0  0  0  0  # atno 10167 bound_to 10162
  157.6366  130.9445  150.0564 H   0  0  0  0  0  0  0  0  0  0  0  0  # atno 10718 bound_to 10713
  153.2734  135.4193  155.1009 H   0  0  0  0  0  0  0  0  0  0  0  0  # atno 10763 bound_to 10752
  154.8464  135.3477  154.6213 H   0  0  0  0  0  0  0  0  0  0  0  0  # atno 10764 bound_to 10752
  153.6633  135.7047  153.5228 H   0  0  0  0  0  0  0  0  0  0  0  0  # atno 10765 bound_to 10752
  141.1004  133.6619  156.4255 H   0  0  0  0  0  0  0  0  0  0  0  0  # atno 11005 bound_to 11000
  145.2964  139.1865  143.4713 LP  0  0  0  0  0  0  0  0  0  0  0  0  # atno 17320 bound_to 7965
  146.3292  140.2949  142.8617 LP  0  0  0  0  0  0  0  0  0  0  0  0  # atno 17321 bound_to 7965
  139.6362  144.7650  151.2433 LP  0  0  0  0  0  0  0  0  0  0  0  0  # atno 17342 bound_to 10162
  140.7466  143.6395  150.8348 LP  0  0  0  0  0  0  0  0  0  0  0  0  # atno 17343 bound_to 10162
  156.1610  130.3644  149.9299 LP  0  0  0  0  0  0  0  0  0  0  0  0  # atno 17370 bound_to 10713
  156.7297  130.9038  151.3625 LP  0  0  0  0  0  0  0  0  0  0  0  0  # atno 17371 bound_to 10713
  140.5037  134.6462  157.5258 LP  0  0  0  0  0  0  0  0  0  0  0  0  # atno 17394 bound_to 11000
  139.9853  134.7071  155.9785 LP  0  0  0  0  0  0  0  0  0  0  0  0  # atno 17395 bound_to 11000

$$$$
