AV-unprocessed.smi:735|AV-procd|sdf|3533|dock8
  -GOLD-   22720 0523D 1   1.00000     0.00000
 Structure written by MMmdl.
 17 17  0  0  0  0  0  0  0  0  2 V2000
  152.3413  140.2253  156.6762 O   0  0  0  0  0  0  0  0  0  0  0  0
  151.5963  139.9943  155.6977 C   0  0  0  0  0  0  0  0  0  0  0  0
  151.9606  139.4254  154.6434 O   0  5  0  0  0  0  0  0  0  0  0  0
  150.1333  140.4573  155.8128 C   0  0  0  0  0  0  0  0  0  0  0  0
  149.6302  139.9136  156.9240 F   0  0  0  0  0  0  0  0  0  0  0  0
  150.1361  141.7791  156.0008 F   0  0  0  0  0  0  0  0  0  0  0  0
  149.2743  140.0476  154.6073 C   0  0  0  0  0  0  0  0  0  0  0  0
  149.2520  138.7594  154.1692 C   0  0  0  0  0  0  0  0  0  0  0  0
  148.4750  138.3308  153.1140 N   0  0  0  0  0  0  0  0  0  0  0  0
  147.6427  139.2142  152.4300 C   0  0  0  0  0  0  0  0  0  0  0  0
  146.9429  138.8467  151.4895 O   0  0  0  0  0  0  0  0  0  0  0  0
  147.6461  140.5361  152.8700 N   0  0  0  0  0  0  0  0  0  0  0  0
  148.4137  141.0368  153.9295 C   0  0  0  0  0  0  0  0  0  0  0  0
  148.3303  142.2334  154.2013 O   0  0  0  0  0  0  0  0  0  0  0  0
  148.4935  137.3659  152.8168 H   0  0  0  0  0  0  0  0  0  0  0  0
  147.0516  141.1895  152.3816 H   0  0  0  0  0  0  0  0  0  0  0  0
  149.8689  138.0189  154.6573 H   0  0  0  0  0  0  0  0  0  0  0  0
  1  2  2  0  0  0  0
  2  3  1  0  0  0  0
  2  4  1  0  0  0  0
  4  5  1  0  0  0  0
  4  6  1  0  0  0  0
  4  7  1  0  0  0  0
  7 13  1  0  0  0  0
  7  8  2  0  0  0  0
  8  9  1  0  0  0  0
  8 17  1  0  0  0  0
  9 15  1  0  0  0  0
  9 10  1  0  0  0  0
 10 11  2  0  0  0  0
 10 12  1  0  0  0  0
 12 16  1  0  0  0  0
 12 13  1  0  0  0  0
 13 14  2  0  0  0  0
M  CHG  1   3  -1
M  END
> <s_m_source_file>
AV-unprocessed.smi

> <i_m_source_file_index>
735

> <i_lp_mmshare_version>
43012

> <i_f3d_flags>
0

> <s_epik_input>
Tz1DKFtPSF0pQyhGKShGKWMxW2NIXVtuSF1jKD1PKVtuSF1jMT1P

> <s_epik_cmdline>
J2VwaWtfcHl0aG9uJywgJy1waCcsICc3LjAnLCAnLXRuJywgJzgnLCAnLW1hJywgJzIwMCcsICctbWV0YWxfYmluZGluZycsICctaW1hZScsICc8aW5maWxlLm1hZT4nLCAnLW9tYWUnLCAnPG91dGZpbGUubWFlPic=

> <r_lp_tautomer_probability>
0.999514

> <r_epik_Ionization_Penalty>
0.138461

> <r_epik_Ionization_Penalty_Charging>
0.138461

> <r_epik_Ionization_Penalty_Neutral>
0

> <r_epik_State_Penalty>
0.812948

> <r_epik_Charging_Adjusted_Penalty>
0.951409

> <i_epik_Tot_Q>
-1

> <i_epik_Tot_abs_Q>
1

> <r_epik_Metal_State_Penalty>
4.31017

> <b_epik_Metal_Only>
0

> <s_lp_Force_Field>
OPLS_2005

> <r_lp_Energy>
7.04955

> <b_lp_Chiralities_Consistent>
1

> <s_lp_Variant>
AV-unprocessed.smi:735-2

> <Gold.Version>
5.8.1

> <Gold.Id.Protein>
6NUR|6NUR_protein|mol2

> <Gold.PLP.Fitness>
33.0681

> <Gold.PLP.PLP>
-20.4235

> <Gold.PLP.part.hbond>
-6.4532

> <Gold.PLP.part.metal>
0.0000

> <Gold.PLP.part.buried>
2.2021

> <Gold.PLP.part.nonpolar>
-18.6495

> <Gold.PLP.part.repulsive>
3.6847

> <Gold.PLP.ligand.clash>
0.0000

> <Gold.PLP.ligand.torsion>
0.2844

> <Gold.PLP.Chemscore.Hbond>
4.3882

> <Gold.PLP.Chemscore.CHOScore>
0.0000

> <Gold.PLP.Chemscore.Metal>
0.0000

> <Gold.Chemscore.Hbonds>
donor molecule, donor type, donor heavy atom, donor atom, acceptor molecule, acceptor atom, score
      L1  H     9    15       P1  7948  1.00
      P1  H  7954  7966       L1    11  0.50
      P1  H  7989  7998       L1     3  0.79
      P1  H  7997  8009       L1     1  2.00
      P1  H  8011  8017       L1    14  0.01

> <Gold.PLP.Chemscore.Internal.Correction>
0.0489

> <Gold.Rescore>
     Score         DG    S(hbond)    S(metal)    S(lipo)     H(rot)  DE(clash)    DE(int)     intcor
      5.77     -12.41       2.84        0.00      18.06       1.82       3.58       3.07       ----

> <Gold.Chemscore.Fitness>
5.7682

> <Gold.Chemscore.DG>
-12.4126

> <Gold.Chemscore.ZeroCoef>
-5.4800

> <Gold.Chemscore.Hbond>
2.8368

> <Gold.Chemscore.Metal>
0.0000

> <Gold.Chemscore.Lipo>
18.0642

> <Gold.Chemscore.Internal_Hbond>
0.0000

> <Gold.Chemscore.DEClash>
3.5791

> <Gold.Chemscore.DEInternal>
3.0653

> <Gold.Chemscore.Rot>
1.8187

> <Gold.Chemscore.Internal.Correction>
   9.000000E+99

> <Gold.Chemscore.Hbonds>
donor molecule, donor type, donor heavy atom, donor atom, acceptor molecule, acceptor atom, score
      L1  H     9    15       P1  7948  0.90
      P1  H  7954  7966       L1    11  0.37
      P1  H  7989  7998       L1     3  0.13
      P1  H  7997  8009       L1     1  0.90

> <Gold.Chemscore.Hbond.Weighted>
-9.4751

> <Gold.Chemscore.Metal.Weighted>
-0.0000

> <Gold.Chemscore.Lipo.Weighted>
-2.1135

> <Gold.Chemscore.Internal_Hbond.Weighted>
0.0000

> <Gold.Chemscore.DEClash.Weighted>
3.5791

> <Gold.Chemscore.DEInternal.Weighted>
3.0653

> <Gold.Chemscore.Rot.Weighted>
4.6559

> <Gold.Chemscore.Internal.Correction.Weighted>
   9.000000E+99

> <Gold.Protein.RotatedTorsions>
[ 6907 6896 6895 6894 ] final  -38.24 input  -60.11 | X-H torsion
[ 7974 7965 7964 7962 ] final  -89.49 input  175.53 | X-H torsion
[ 8008 7997 7996 7995 ] final -167.68 input   59.86 | X-H torsion
[ 10167 10162 10161 10158 ] final    8.74 input  -65.29 | X-H torsion
[ 10718 10713 10712 10709 ] final  -29.78 input   66.30 | X-H torsion
[ 10763 10752 10751 10750 ] final  -20.37 input  -60.55 | X-H torsion
[ 11005 11000 10999 10996 ] final   37.32 input  -57.11 | X-H torsion

> <Gold.Protein.ActiveResidues>
 VAL166  LYS551  ARG553  GLY616  TRP617  ASP618  TYR619  PRO620  LYS621  CYS622 
 ASP623  PHE694  ASN695  SER759  ASP760  ASP761  ALA762  ILE779  LEU786  VAL792 
 PHE793  MET794  SER795  GLU796  ALA797  LYS798  CYS799  TRP800  GLU811  SER814 

> <Gold.Protein.RotatedAtoms>
  151.0049  134.9351  159.7974 H   0  0  0  0  0  0  0  0  0  0  0  0  # atno 6907 bound_to 6896
  152.5287  134.3105  159.9122 H   0  0  0  0  0  0  0  0  0  0  0  0  # atno 6908 bound_to 6896
  151.3111  133.4039  159.2681 H   0  0  0  0  0  0  0  0  0  0  0  0  # atno 6909 bound_to 6896
  145.4391  140.9558  143.2085 H   0  0  0  0  0  0  0  0  0  0  0  0  # atno 7974 bound_to 7965
  155.8811  140.1009  157.1485 H   0  0  0  0  0  0  0  0  0  0  0  0  # atno 8008 bound_to 7997
  154.4005  140.1329  156.4261 H   0  0  0  0  0  0  0  0  0  0  0  0  # atno 8009 bound_to 7997
  155.7642  140.3462  155.5216 H   0  0  0  0  0  0  0  0  0  0  0  0  # atno 8010 bound_to 7997
  140.6297  143.8022  150.7279 H   0  0  0  0  0  0  0  0  0  0  0  0  # atno 10167 bound_to 10162
  156.4081  130.4403  149.7272 H   0  0  0  0  0  0  0  0  0  0  0  0  # atno 10718 bound_to 10713
  153.6193  135.6993  153.5316 H   0  0  0  0  0  0  0  0  0  0  0  0  # atno 10763 bound_to 10752
  153.2951  135.4145  155.1201 H   0  0  0  0  0  0  0  0  0  0  0  0  # atno 10764 bound_to 10752
  154.8546  135.3635  154.5734 H   0  0  0  0  0  0  0  0  0  0  0  0  # atno 10765 bound_to 10752
  140.2238  134.3609  155.7993 H   0  0  0  0  0  0  0  0  0  0  0  0  # atno 11005 bound_to 11000
  144.8133  139.5923  143.7020 LP  0  0  0  0  0  0  0  0  0  0  0  0  # atno 17320 bound_to 7965
  146.2566  139.6315  142.9391 LP  0  0  0  0  0  0  0  0  0  0  0  0  # atno 17321 bound_to 7965
  140.1631  143.4259  152.2053 LP  0  0  0  0  0  0  0  0  0  0  0  0  # atno 17342 bound_to 10162
  139.5512  144.7339  151.4429 LP  0  0  0  0  0  0  0  0  0  0  0  0  # atno 17343 bound_to 10162
  156.4262  130.7793  151.2811 LP  0  0  0  0  0  0  0  0  0  0  0  0  # atno 17370 bound_to 10713
  157.7506  131.0168  150.3559 LP  0  0  0  0  0  0  0  0  0  0  0  0  # atno 17371 bound_to 10713
  141.2221  133.7208  156.8619 LP  0  0  0  0  0  0  0  0  0  0  0  0  # atno 17394 bound_to 11000
  140.1822  134.9025  157.2962 LP  0  0  0  0  0  0  0  0  0  0  0  0  # atno 17395 bound_to 11000

$$$$
