AV-unprocessed.smi:223|AV-procd|sdf|1704|dock8
  -GOLD-   2262020163D 1   1.00000     0.00000
 Structure written by MMmdl.
 47 50  0  0  0  0  0  0  0  0  1 V2000
  151.7169  144.2382  159.0346 C   0  0  0  0  0  0  0  0  0  0  0  0
  152.2771  142.8310  158.7983 C   0  0  1  0  0  0  0  0  0  0  0  0
  153.0690  142.3919  159.9592 C   0  0  0  0  0  0  0  0  0  0  0  0
  153.6913  142.0486  160.8723 N   0  0  0  0  0  0  0  0  0  0  0  0
  151.1498  141.8387  158.4428 C   0  0  0  0  0  0  0  0  0  0  0  0
  151.6045  140.6622  157.7012 N   0  0  0  0  0  0  0  0  0  0  0  0
  151.7350  139.5051  158.4050 C   0  0  0  0  0  0  0  0  0  0  0  0
  152.9507  139.1719  158.9164 N   0  0  0  0  0  0  0  0  0  0  0  0
  153.1154  138.0297  159.5882 C   0  0  0  0  0  0  0  0  0  0  0  0
  152.2128  137.0880  159.8643 N   0  0  0  0  0  0  0  0  0  0  0  0
  150.9866  137.4177  159.3679 C   0  0  0  0  0  0  0  0  0  0  0  0
  150.6629  138.5924  158.6296 C   0  0  0  0  0  0  0  0  0  0  0  0
  149.3144  138.5743  158.2916 N   0  0  0  0  0  0  0  0  0  0  0  0
  148.8710  137.4538  158.7911 C   0  0  0  0  0  0  0  0  0  0  0  0
  149.8053  136.7021  159.4660 N   0  0  0  0  0  0  0  0  0  0  0  0
  149.5877  135.4184  160.1171 C   0  0  0  0  0  0  0  0  0  0  0  0
  148.5750  135.4614  161.2905 C   0  0  1  0  0  0  0  0  0  0  0  0
  148.7606  136.6556  162.0275 O   0  0  0  0  0  0  0  0  0  0  0  0
  147.1096  135.3639  160.8590 C   0  0  0  0  0  0  0  0  0  0  0  0
  146.7741  133.9001  161.1066 C   0  0  0  0  0  0  0  0  0  0  0  0
  147.4644  133.6324  162.3134 O   0  0  0  0  0  0  0  0  0  0  0  0
  148.7440  134.2471  162.2266 C   0  0  0  0  0  0  0  0  0  0  0  0
  151.2369  140.5711  156.2899 C   0  0  0  0  0  0  0  0  0  0  0  0
  150.0870  141.4074  155.7741 C   0  0  0  0  0  0  0  0  0  0  0  0
  149.9271  139.9130  155.9247 C   0  0  0  0  0  0  0  0  0  0  0  0
  152.5174  144.9452  159.2543 H   0  0  0  0  0  0  0  0  0  0  0  0
  151.0218  144.2505  159.8745 H   0  0  0  0  0  0  0  0  0  0  0  0
  151.1866  144.6027  158.1543 H   0  0  0  0  0  0  0  0  0  0  0  0
  152.9764  142.8948  157.9647 H   0  0  0  0  0  0  0  0  0  0  0  0
  150.6708  141.5027  159.3632 H   0  0  0  0  0  0  0  0  0  0  0  0
  150.3652  142.3422  157.8802 H   0  0  0  0  0  0  0  0  0  0  0  0
  154.1138  137.8433  159.9555 H   0  0  0  0  0  0  0  0  0  0  0  0
  147.8409  137.1462  158.6846 H   0  0  0  0  0  0  0  0  0  0  0  0
  149.2525  134.7083  159.3599 H   0  0  0  0  0  0  0  0  0  0  0  0
  150.5526  135.0518  160.4701 H   0  0  0  0  0  0  0  0  0  0  0  0
  148.6068  136.4710  162.9413 H   0  0  0  0  0  0  0  0  0  0  0  0
  146.4759  135.9784  161.5008 H   0  0  0  0  0  0  0  0  0  0  0  0
  146.9182  135.6672  159.8313 H   0  0  0  0  0  0  0  0  0  0  0  0
  145.7030  133.7223  161.2052 H   0  0  0  0  0  0  0  0  0  0  0  0
  147.1610  133.2659  160.3075 H   0  0  0  0  0  0  0  0  0  0  0  0
  149.4449  133.5219  161.8104 H   0  0  0  0  0  0  0  0  0  0  0  0
  149.1054  134.5136  163.2208 H   0  0  0  0  0  0  0  0  0  0  0  0
  152.0584  140.4177  155.5935 H   0  0  0  0  0  0  0  0  0  0  0  0
  149.5610  142.0428  156.4842 H   0  0  0  0  0  0  0  0  0  0  0  0
  150.1723  141.8064  154.7656 H   0  0  0  0  0  0  0  0  0  0  0  0
  149.9028  139.3152  155.0159 H   0  0  0  0  0  0  0  0  0  0  0  0
  149.2931  139.5565  156.7343 H   0  0  0  0  0  0  0  0  0  0  0  0
  1  2  1  0  0  0  0
  1 26  1  0  0  0  0
  1 27  1  0  0  0  0
  1 28  1  0  0  0  0
  2  3  1  0  0  0  0
  2  5  1  0  0  0  0
  2 29  1  0  0  0  0
  3  4  3  0  0  0  0
  5  6  1  0  0  0  0
  5 30  1  0  0  0  0
  5 31  1  0  0  0  0
  6  7  1  0  0  0  0
  6 23  1  0  0  0  0
  7 12  1  0  0  0  0
  7  8  2  0  0  0  0
  8  9  1  0  0  0  0
  9 10  2  0  0  0  0
  9 32  1  0  0  0  0
 10 11  1  0  0  0  0
 11 15  1  0  0  0  0
 11 12  2  0  0  0  0
 12 13  1  0  0  0  0
 13 14  2  0  0  0  0
 14 15  1  0  0  0  0
 14 33  1  0  0  0  0
 15 16  1  0  0  0  0
 16 17  1  0  0  0  0
 16 34  1  0  0  0  0
 16 35  1  0  0  0  0
 17 22  1  0  0  0  0
 17 18  1  0  0  0  0
 17 19  1  0  0  0  0
 18 36  1  0  0  0  0
 19 20  1  0  0  0  0
 19 37  1  0  0  0  0
 19 38  1  0  0  0  0
 20 21  1  0  0  0  0
 20 39  1  0  0  0  0
 20 40  1  0  0  0  0
 21 22  1  0  0  0  0
 22 41  1  0  0  0  0
 22 42  1  0  0  0  0
 23 25  1  0  0  0  0
 23 24  1  0  0  0  0
 23 43  1  0  0  0  0
 24 25  1  0  0  0  0
 24 44  1  0  0  0  0
 24 45  1  0  0  0  0
 25 46  1  0  0  0  0
 25 47  1  0  0  0  0
M  END
> <s_m_source_file>
AV-unprocessed.smi

> <i_m_source_file_index>
223

> <i_lp_mmshare_version>
43012

> <i_f3d_flags>
0

> <s_epik_input>
TiNDW0NAQEhdKFtDSDNdKVtDSDJdTihbQ0hdMVtDSDJdW0NIMl0xKWMobltjSF1uMiljKGMyMyluW2NIXW4zW0NIMl1bQ0BAXTQoW09IXSlbQ0gyXVtDSDJdT1tDSDJdNA==

> <s_epik_cmdline>
J2VwaWtfcHl0aG9uJywgJy1waCcsICc3LjAnLCAnLXRuJywgJzgnLCAnLW1hJywgJzIwMCcsICctbWV0YWxfYmluZGluZycsICctaW1hZScsICc8aW5maWxlLm1hZT4nLCAnLW9tYWUnLCAnPG91dGZpbGUubWFlPic=

> <r_lp_tautomer_probability>
1

> <r_epik_Ionization_Penalty>
0.000756152

> <r_epik_Ionization_Penalty_Charging>
0

> <r_epik_Ionization_Penalty_Neutral>
0.000756152

> <r_epik_State_Penalty>
0.00038036

> <r_epik_Charging_Adjusted_Penalty>
0.00038036

> <i_epik_Tot_Q>
0

> <i_epik_Tot_abs_Q>
0

> <r_epik_Metal_State_Penalty>
-0

> <b_epik_Metal_Only>
0

> <s_lp_Force_Field>
OPLS_2005

> <r_lp_Energy>
37.1098

> <b_lp_Chiralities_Consistent>
1

> <s_lp_Variant>
AV-unprocessed.smi:223-2

> <Gold.Version>
5.8.1

> <Gold.Id.Protein>
6NUR|6NUR_protein|mol2

> <Gold.PLP.Fitness>
47.2185

> <Gold.PLP.PLP>
-42.7480

> <Gold.PLP.part.hbond>
-3.0000

> <Gold.PLP.part.metal>
0.0000

> <Gold.PLP.part.buried>
-6.0689

> <Gold.PLP.part.nonpolar>
-33.6251

> <Gold.PLP.part.repulsive>
0.0000

> <Gold.PLP.ligand.clash>
0.0000

> <Gold.PLP.ligand.torsion>
2.4103

> <Gold.PLP.Chemscore.Hbond>
2.6552

> <Gold.PLP.Chemscore.CHOScore>
0.0000

> <Gold.PLP.Chemscore.Metal>
0.0000

> <Gold.Chemscore.Hbonds>
donor molecule, donor type, donor heavy atom, donor atom, acceptor molecule, acceptor atom, score
      P1  H  6896  6907       L1    10  0.65
      P1  H  6931  6943       L1    18  1.00

> <Gold.PLP.Chemscore.Internal.Correction>
1.3256

> <Gold.Rescore>
     Score         DG    S(hbond)    S(metal)    S(lipo)     H(rot)  DE(clash)    DE(int)     intcor
     11.28     -14.51       2.13        0.00      75.67       2.72       0.02       3.21       ----

> <Gold.Chemscore.Fitness>
11.2791

> <Gold.Chemscore.DG>
-14.5063

> <Gold.Chemscore.ZeroCoef>
-5.4800

> <Gold.Chemscore.Hbond>
2.1345

> <Gold.Chemscore.Metal>
0.0000

> <Gold.Chemscore.Lipo>
75.6651

> <Gold.Chemscore.Internal_Hbond>
0.0000

> <Gold.Chemscore.DEClash>
0.0152

> <Gold.Chemscore.DEInternal>
3.2120

> <Gold.Chemscore.Rot>
2.7171

> <Gold.Chemscore.Internal.Correction>
   9.000000E+99

> <Gold.Chemscore.Hbonds>
donor molecule, donor type, donor heavy atom, donor atom, acceptor molecule, acceptor atom, score
      P1  H  6896  6907       L1    10  0.05
      P1  H  6931  6943       L1    18  0.55

> <Gold.Chemscore.Hbond.Weighted>
-7.1293

> <Gold.Chemscore.Metal.Weighted>
-0.0000

> <Gold.Chemscore.Lipo.Weighted>
-8.8528

> <Gold.Chemscore.Internal_Hbond.Weighted>
0.0000

> <Gold.Chemscore.DEClash.Weighted>
0.0152

> <Gold.Chemscore.DEInternal.Weighted>
3.2120

> <Gold.Chemscore.Rot.Weighted>
6.9558

> <Gold.Chemscore.Internal.Correction.Weighted>
   9.000000E+99

> <Gold.Protein.RotatedTorsions>
[ 6907 6896 6895 6894 ] final    9.55 input  -60.11 | X-H torsion
[ 7974 7965 7964 7962 ] final  103.01 input  175.53 | X-H torsion
[ 8008 7997 7996 7995 ] final   98.85 input   59.86 | X-H torsion
[ 10167 10162 10161 10158 ] final  -60.27 input  -65.29 | X-H torsion
[ 10718 10713 10712 10709 ] final   62.02 input   66.30 | X-H torsion
[ 10763 10752 10751 10750 ] final -144.43 input  -60.55 | X-H torsion
[ 11005 11000 10999 10996 ] final  146.58 input  -57.11 | X-H torsion

> <Gold.Protein.ActiveResidues>
 VAL166  LYS551  ARG553  GLY616  TRP617  ASP618  TYR619  PRO620  LYS621  CYS622 
 ASP623  PHE694  ASN695  SER759  ASP760  ASP761  ALA762  ILE779  LEU786  VAL792 
 PHE793  MET794  SER795  GLU796  ALA797  LYS798  CYS799  TRP800  GLU811  SER814 

> <Gold.Protein.RotatedAtoms>
  151.7239  135.0888  160.0288 H   0  0  0  0  0  0  0  0  0  0  0  0  # atno 6907 bound_to 6896
  152.3584  133.6262  159.6005 H   0  0  0  0  0  0  0  0  0  0  0  0  # atno 6908 bound_to 6896
  150.7587  133.9379  159.3488 H   0  0  0  0  0  0  0  0  0  0  0  0  # atno 6909 bound_to 6896
  145.3515  139.2438  143.3555 H   0  0  0  0  0  0  0  0  0  0  0  0  # atno 7974 bound_to 7965
  156.1046  140.3237  155.7988 H   0  0  0  0  0  0  0  0  0  0  0  0  # atno 8008 bound_to 7997
  155.4778  140.0551  157.2988 H   0  0  0  0  0  0  0  0  0  0  0  0  # atno 8009 bound_to 7997
  154.4719  140.2015  155.9989 H   0  0  0  0  0  0  0  0  0  0  0  0  # atno 8010 bound_to 7997
  140.6082  143.2379  151.5772 H   0  0  0  0  0  0  0  0  0  0  0  0  # atno 10167 bound_to 10162
  157.5871  130.9027  149.9535 H   0  0  0  0  0  0  0  0  0  0  0  0  # atno 10718 bound_to 10713
  154.8428  135.3440  154.6345 H   0  0  0  0  0  0  0  0  0  0  0  0  # atno 10763 bound_to 10752
  153.6955  135.6972  153.5082 H   0  0  0  0  0  0  0  0  0  0  0  0  # atno 10764 bound_to 10752
  153.2562  135.4337  155.0803 H   0  0  0  0  0  0  0  0  0  0  0  0  # atno 10765 bound_to 10752
  140.0805  134.9100  157.1492 H   0  0  0  0  0  0  0  0  0  0  0  0  # atno 11005 bound_to 11000
  146.2966  140.4132  142.8719 LP  0  0  0  0  0  0  0  0  0  0  0  0  # atno 17320 bound_to 7965
  144.8714  140.7277  143.6044 LP  0  0  0  0  0  0  0  0  0  0  0  0  # atno 17321 bound_to 7965
  139.5341  144.2832  152.1212 LP  0  0  0  0  0  0  0  0  0  0  0  0  # atno 17342 bound_to 10162
  140.2026  144.4643  150.6424 LP  0  0  0  0  0  0  0  0  0  0  0  0  # atno 17343 bound_to 10162
  156.0921  130.3662  150.0375 LP  0  0  0  0  0  0  0  0  0  0  0  0  # atno 17370 bound_to 10713
  156.8505  130.9457  151.3626 LP  0  0  0  0  0  0  0  0  0  0  0  0  # atno 17371 bound_to 10713
  140.3495  134.2614  155.7200 LP  0  0  0  0  0  0  0  0  0  0  0  0  # atno 17394 bound_to 11000
  141.2045  133.7885  157.0285 LP  0  0  0  0  0  0  0  0  0  0  0  0  # atno 17395 bound_to 11000

$$$$
