AV-unprocessed.smi:2329|AV-procd|sdf|9305|dock5
  -GOLD-   2272012523D 1   1.00000     0.00000
 Structure written by MMmdl.
 45 48  0  0  0  0  0  0  0  0  1 V2000
  155.3155  139.9448  162.3526 C   0  0  0  0  0  0  0  0  0  0  0  0
  154.2904  141.0354  162.1244 C   0  0  0  0  0  0  0  0  0  0  0  0
  154.0193  141.9959  163.1187 C   0  0  0  0  0  0  0  0  0  0  0  0
  153.0573  142.9834  162.8415 C   0  0  0  0  0  0  0  0  0  0  0  0
  152.4105  142.9699  161.5908 C   0  0  0  0  0  0  0  0  0  0  0  0
  152.7399  141.9693  160.6492 C   0  0  0  0  0  0  0  0  0  0  0  0
  152.0305  142.0434  159.4227 N   0  0  0  0  0  0  0  0  0  0  0  0
  152.1275  141.2382  158.3467 C   0  0  0  0  0  0  0  0  0  0  0  0
  152.8794  140.2689  158.2595 O   0  0  0  0  0  0  0  0  0  0  0  0
  151.3001  141.5713  157.3403 N   0  0  0  0  0  0  0  0  0  0  0  0
  151.1606  140.9047  156.0442 C   0  0  1  0  0  0  0  0  0  0  0  0
  151.2895  139.3777  156.1662 C   0  0  2  0  0  0  0  0  0  0  0  0
  152.4527  138.6714  155.5251 C   0  0  0  0  0  0  0  0  0  0  0  0
  151.8759  138.2152  154.1822 C   0  0  0  0  0  0  0  0  0  0  0  0
  150.7677  139.0827  153.9544 O   0  0  0  0  0  0  0  0  0  0  0  0
  150.1144  139.2821  155.2057 C   0  0  2  0  0  0  0  0  0  0  0  0
  149.7022  140.7286  155.5527 C   0  0  0  0  0  0  0  0  0  0  0  0
  148.5472  140.8568  156.5487 C   0  0  0  0  0  0  0  0  0  0  0  0
  147.2659  140.8755  155.7166 C   0  0  0  0  0  0  0  0  0  0  0  0
  147.6688  141.4928  154.3743 C   0  0  0  0  0  0  0  0  0  0  0  0
  149.1985  141.5996  154.4019 C   0  0  0  0  0  0  0  0  0  0  0  0
  153.6700  141.0217  160.9251 N   0  0  0  0  0  0  0  0  0  0  0  0
  155.6998  139.9699  163.3726 H   0  0  0  0  0  0  0  0  0  0  0  0
  156.1559  140.0664  161.6685 H   0  0  0  0  0  0  0  0  0  0  0  0
  154.8712  138.9638  162.1807 H   0  0  0  0  0  0  0  0  0  0  0  0
  154.5329  141.9791  164.0687 H   0  0  0  0  0  0  0  0  0  0  0  0
  152.8187  143.7389  163.5754 H   0  0  0  0  0  0  0  0  0  0  0  0
  151.6681  143.7208  161.3621 H   0  0  0  0  0  0  0  0  0  0  0  0
  151.3579  142.7930  159.3556 H   0  0  0  0  0  0  0  0  0  0  0  0
  150.6823  142.3533  157.5035 H   0  0  0  0  0  0  0  0  0  0  0  0
  151.8139  141.3006  155.2631 H   0  0  0  0  0  0  0  0  0  0  0  0
  151.0233  139.0103  157.1590 H   0  0  0  0  0  0  0  0  0  0  0  0
  153.2894  139.3550  155.3768 H   0  0  0  0  0  0  0  0  0  0  0  0
  152.8100  137.8281  156.1166 H   0  0  0  0  0  0  0  0  0  0  0  0
  152.6024  138.2691  153.3711 H   0  0  0  0  0  0  0  0  0  0  0  0
  151.5136  137.1883  154.2499 H   0  0  0  0  0  0  0  0  0  0  0  0
  149.3957  138.5000  155.4552 H   0  0  0  0  0  0  0  0  0  0  0  0
  148.5347  140.0529  157.2854 H   0  0  0  0  0  0  0  0  0  0  0  0
  148.6182  141.7941  157.1014 H   0  0  0  0  0  0  0  0  0  0  0  0
  146.9157  139.8548  155.5589 H   0  0  0  0  0  0  0  0  0  0  0  0
  146.4641  141.4277  156.2075 H   0  0  0  0  0  0  0  0  0  0  0  0
  147.3366  140.8586  153.5515 H   0  0  0  0  0  0  0  0  0  0  0  0
  147.2162  142.4751  154.2345 H   0  0  0  0  0  0  0  0  0  0  0  0
  149.4802  142.6393  154.5691 H   0  0  0  0  0  0  0  0  0  0  0  0
  149.6286  141.3164  153.4411 H   0  0  0  0  0  0  0  0  0  0  0  0
  1  2  1  0  0  0  0
  1 23  1  0  0  0  0
  1 24  1  0  0  0  0
  1 25  1  0  0  0  0
  2 22  1  0  0  0  0
  2  3  2  0  0  0  0
  3  4  1  0  0  0  0
  3 26  1  0  0  0  0
  4  5  2  0  0  0  0
  4 27  1  0  0  0  0
  5  6  1  0  0  0  0
  5 28  1  0  0  0  0
  6  7  1  0  0  0  0
  6 22  2  0  0  0  0
  7  8  1  0  0  0  0
  7 29  1  0  0  0  0
  8  9  2  0  0  0  0
  8 10  1  0  0  0  0
 10 11  1  0  0  0  0
 10 30  1  0  0  0  0
 11 17  1  0  0  0  0
 11 12  1  0  0  0  0
 11 31  1  0  0  0  0
 12 16  1  0  0  0  0
 12 13  1  0  0  0  0
 12 32  1  0  0  0  0
 13 14  1  0  0  0  0
 13 33  1  0  0  0  0
 13 34  1  0  0  0  0
 14 15  1  0  0  0  0
 14 35  1  0  0  0  0
 14 36  1  0  0  0  0
 15 16  1  0  0  0  0
 16 17  1  0  0  0  0
 16 37  1  0  0  0  0
 17 21  1  0  0  0  0
 17 18  1  0  0  0  0
 18 19  1  0  0  0  0
 18 38  1  0  0  0  0
 18 39  1  0  0  0  0
 19 20  1  0  0  0  0
 19 40  1  0  0  0  0
 19 41  1  0  0  0  0
 20 21  1  0  0  0  0
 20 42  1  0  0  0  0
 20 43  1  0  0  0  0
 21 44  1  0  0  0  0
 21 45  1  0  0  0  0
M  END
> <s_m_source_file>
AV-unprocessed.smi

> <i_m_source_file_index>
2329

> <i_lp_mmshare_version>
43012

> <i_f3d_flags>
0

> <s_epik_input>
W0NIM11jMVtjSF1bY0hdW2NIXWMobjEpW05IXUMoPU8pW05IXVtDQEBIXTJbQ0BASF0oW0NIMl1bQ0gyXU8zKVtDQEhdM0MyNFtDSDJdW0NIMl1bQ0gyXVtDSDJdNA==

> <s_epik_cmdline>
J2VwaWtfcHl0aG9uJywgJy1waCcsICc3LjAnLCAnLXRuJywgJzgnLCAnLW1hJywgJzIwMCcsICctbWV0YWxfYmluZGluZycsICctaW1hZScsICc8aW5maWxlLm1hZT4nLCAnLW9tYWUnLCAnPG91dGZpbGUubWFlPic=

> <r_lp_tautomer_probability>
1

> <r_epik_Ionization_Penalty>
8.97002e-05

> <r_epik_Ionization_Penalty_Charging>
0

> <r_epik_Ionization_Penalty_Neutral>
8.97002e-05

> <r_epik_State_Penalty>
-0

> <r_epik_Charging_Adjusted_Penalty>
0

> <i_epik_Tot_Q>
0

> <i_epik_Tot_abs_Q>
0

> <r_epik_Metal_State_Penalty>
-0

> <b_epik_Metal_Only>
0

> <s_lp_Force_Field>
OPLS_2005

> <r_lp_Energy>
64.4638

> <b_lp_Chiralities_Consistent>
1

> <s_lp_Variant>
AV-unprocessed.smi:2329-4

> <Gold.Version>
5.8.1

> <Gold.Id.Protein>
6NUR|6NUR_protein|mol2

> <Gold.PLP.Fitness>
48.2307

> <Gold.PLP.PLP>
-43.2094

> <Gold.PLP.part.hbond>
-2.0000

> <Gold.PLP.part.metal>
0.0000

> <Gold.PLP.part.buried>
-0.6799

> <Gold.PLP.part.nonpolar>
-39.8535

> <Gold.PLP.part.repulsive>
0.3879

> <Gold.PLP.ligand.clash>
0.0000

> <Gold.PLP.ligand.torsion>
0.2801

> <Gold.PLP.Chemscore.Hbond>
1.7992

> <Gold.PLP.Chemscore.CHOScore>
0.0000

> <Gold.PLP.Chemscore.Metal>
0.0000

> <Gold.Chemscore.Hbonds>
donor molecule, donor type, donor heavy atom, donor atom, acceptor molecule, acceptor atom, score
      P1  H  7989  7998       L1    15  1.00
      P1  H  7997  8010       L1     9  0.75

> <Gold.PLP.Chemscore.Internal.Correction>
0.1838

> <Gold.Rescore>
     Score         DG    S(hbond)    S(metal)    S(lipo)     H(rot)  DE(clash)    DE(int)     intcor
     15.76     -19.43       1.00        0.00     112.68       1.00       0.68       2.99       ----

> <Gold.Chemscore.Fitness>
15.7554

> <Gold.Chemscore.DG>
-19.4331

> <Gold.Chemscore.ZeroCoef>
-5.4800

> <Gold.Chemscore.Hbond>
0.9970

> <Gold.Chemscore.Metal>
0.0000

> <Gold.Chemscore.Lipo>
112.6764

> <Gold.Chemscore.Internal_Hbond>
0.0000

> <Gold.Chemscore.DEClash>
0.6831

> <Gold.Chemscore.DEInternal>
2.9945

> <Gold.Chemscore.Rot>
1.0000

> <Gold.Chemscore.Internal.Correction>
   9.000000E+99

> <Gold.Chemscore.Hbonds>
donor molecule, donor type, donor heavy atom, donor atom, acceptor molecule, acceptor atom, score
      P1  H  7989  7998       L1    15  0.25
      P1  H  7997  8010       L1     9  0.71

> <Gold.Chemscore.Hbond.Weighted>
-3.3299

> <Gold.Chemscore.Metal.Weighted>
-0.0000

> <Gold.Chemscore.Lipo.Weighted>
-13.1831

> <Gold.Chemscore.Internal_Hbond.Weighted>
0.0000

> <Gold.Chemscore.DEClash.Weighted>
0.6831

> <Gold.Chemscore.DEInternal.Weighted>
2.9945

> <Gold.Chemscore.Rot.Weighted>
2.5600

> <Gold.Chemscore.Internal.Correction.Weighted>
   9.000000E+99

> <Gold.Protein.RotatedTorsions>
[ 6907 6896 6895 6894 ] final  -52.16 input  -60.11 | X-H torsion
[ 7974 7965 7964 7962 ] final -113.68 input  175.53 | X-H torsion
[ 8008 7997 7996 7995 ] final   37.31 input   59.86 | X-H torsion
[ 10167 10162 10161 10158 ] final   96.33 input  -65.29 | X-H torsion
[ 10718 10713 10712 10709 ] final  -25.72 input   66.30 | X-H torsion
[ 10763 10752 10751 10750 ] final  101.55 input  -60.55 | X-H torsion
[ 11005 11000 10999 10996 ] final  127.77 input  -57.11 | X-H torsion

> <Gold.Protein.ActiveResidues>
 VAL166  LYS551  ARG553  GLY616  TRP617  ASP618  TYR619  PRO620  LYS621  CYS622 
 ASP623  PHE694  ASN695  SER759  ASP760  ASP761  ALA762  ILE779  LEU786  VAL792 
 PHE793  MET794  SER795  GLU796  ALA797  LYS798  CYS799  TRP800  GLU811  SER814 

> <Gold.Protein.RotatedAtoms>
  150.8543  134.7878  159.7033 H   0  0  0  0  0  0  0  0  0  0  0  0  # atno 6907 bound_to 6896
  152.4599  134.5204  159.9790 H   0  0  0  0  0  0  0  0  0  0  0  0  # atno 6908 bound_to 6896
  151.5319  133.3409  159.2955 H   0  0  0  0  0  0  0  0  0  0  0  0  # atno 6909 bound_to 6896
  145.1292  140.8714  143.3768 H   0  0  0  0  0  0  0  0  0  0  0  0  # atno 7974 bound_to 7965
  155.2016  140.3316  155.4342 H   0  0  0  0  0  0  0  0  0  0  0  0  # atno 8008 bound_to 7997
  156.2404  140.1892  156.7053 H   0  0  0  0  0  0  0  0  0  0  0  0  # atno 8009 bound_to 7997
  154.6137  140.0605  156.9513 H   0  0  0  0  0  0  0  0  0  0  0  0  # atno 8010 bound_to 7997
  139.7904  144.6854  150.9900 H   0  0  0  0  0  0  0  0  0  0  0  0  # atno 10167 bound_to 10162
  156.4607  130.4503  149.6931 H   0  0  0  0  0  0  0  0  0  0  0  0  # atno 10718 bound_to 10713
  153.3282  135.4040  155.1473 H   0  0  0  0  0  0  0  0  0  0  0  0  # atno 10763 bound_to 10752
  154.8617  135.3604  154.5506 H   0  0  0  0  0  0  0  0  0  0  0  0  # atno 10764 bound_to 10752
  153.5943  135.7073  153.5469 H   0  0  0  0  0  0  0  0  0  0  0  0  # atno 10765 bound_to 10752
  139.9525  134.9619  156.8904 H   0  0  0  0  0  0  0  0  0  0  0  0  # atno 11005 bound_to 11000
  145.0654  139.3072  143.5859 LP  0  0  0  0  0  0  0  0  0  0  0  0  # atno 17320 bound_to 7965
  146.3515  140.0111  142.8667 LP  0  0  0  0  0  0  0  0  0  0  0  0  # atno 17321 bound_to 7965
  140.7820  143.4387  151.0584 LP  0  0  0  0  0  0  0  0  0  0  0  0  # atno 17342 bound_to 10162
  139.8064  143.8012  152.3167 LP  0  0  0  0  0  0  0  0  0  0  0  0  # atno 17343 bound_to 10162
  156.3720  130.7535  151.2519 LP  0  0  0  0  0  0  0  0  0  0  0  0  # atno 17370 bound_to 10713
  157.7498  131.0320  150.4208 LP  0  0  0  0  0  0  0  0  0  0  0  0  # atno 17371 bound_to 10713
  140.5685  134.0466  155.7422 LP  0  0  0  0  0  0  0  0  0  0  0  0  # atno 17394 bound_to 11000
  141.1191  133.9491  157.2765 LP  0  0  0  0  0  0  0  0  0  0  0  0  # atno 17395 bound_to 11000

$$$$
