AV-unprocessed.smi:565|AV-procd|sdf|2952|dock7
  -GOLD-   2262023453D 1   1.00000     0.00000
 Structure written by MMmdl.
 50 51  0  0  0  0  0  0  0  0  2 V2000
  153.0742  138.4222  155.1460 C   0  0  0  0  0  0  0  0  0  0  0  0
  152.1326  139.4492  155.7076 C   0  0  0  0  0  0  0  0  0  0  0  0
  152.5194  140.1849  156.7359 N   0  0  0  0  0  0  0  0  0  0  0  0
  151.4678  140.9849  157.0024 N   0  0  0  0  0  0  0  0  0  0  0  0
  151.5579  141.9388  158.0910 C   0  0  0  0  0  0  0  0  0  0  0  0
  150.4105  140.7485  156.1455 C   0  0  0  0  0  0  0  0  0  0  0  0
  149.1219  141.5002  156.2433 C   0  0  0  0  0  0  0  0  0  0  0  0
  150.8056  139.7590  155.2850 C   0  0  0  0  0  0  0  0  0  0  0  0
  150.0283  139.1277  154.1579 C   0  0  0  0  0  0  0  0  0  0  0  0
  148.9118  138.2619  154.7392 C   0  0  0  0  0  0  0  0  0  0  0  0
  148.1630  138.7182  155.6033 O   0  0  0  0  0  0  0  0  0  0  0  0
  148.8258  137.0054  154.2762 N   0  0  0  0  0  0  0  0  0  0  0  0
  147.8819  136.0038  154.7545 C   0  0  0  0  0  0  0  0  0  0  0  0
  146.4603  136.2869  154.2314 C   0  0  0  0  0  0  0  0  0  0  0  0
  146.2083  135.6698  152.9053 N   0  3  2  0  0  0  0  0  0  0  0  0
  145.4360  136.5669  152.0072 C   0  0  0  0  0  0  0  0  0  0  0  0
  145.3303  135.9774  150.5918 C   0  0  0  0  0  0  0  0  0  0  0  0
  144.7182  134.5698  150.6248 C   0  0  0  0  0  0  0  0  0  0  0  0
  145.4759  133.6535  151.6031 C   0  0  1  0  0  0  0  0  0  0  0  0
  146.8446  133.2037  151.0616 C   0  0  0  0  0  0  0  0  0  0  0  0
  145.5891  134.3189  152.9904 C   0  0  0  0  0  0  0  0  0  0  0  0
  152.9961  138.3679  154.0603 H   0  0  0  0  0  0  0  0  0  0  0  0
  152.8504  137.4330  155.5454 H   0  0  0  0  0  0  0  0  0  0  0  0
  154.1123  138.6521  155.3891 H   0  0  0  0  0  0  0  0  0  0  0  0
  151.3351  142.9397  157.7208 H   0  0  0  0  0  0  0  0  0  0  0  0
  152.5598  141.9384  158.5225 H   0  0  0  0  0  0  0  0  0  0  0  0
  150.8387  141.6773  158.8673 H   0  0  0  0  0  0  0  0  0  0  0  0
  148.3394  141.0222  155.6540 H   0  0  0  0  0  0  0  0  0  0  0  0
  149.2420  142.5206  155.8791 H   0  0  0  0  0  0  0  0  0  0  0  0
  148.7740  141.5469  157.2754 H   0  0  0  0  0  0  0  0  0  0  0  0
  149.5856  139.8793  153.5037 H   0  0  0  0  0  0  0  0  0  0  0  0
  150.6721  138.5205  153.5206 H   0  0  0  0  0  0  0  0  0  0  0  0
  149.4802  136.7170  153.5629 H   0  0  0  0  0  0  0  0  0  0  0  0
  148.2096  135.0061  154.4572 H   0  0  0  0  0  0  0  0  0  0  0  0
  147.9107  136.0290  155.8430 H   0  0  0  0  0  0  0  0  0  0  0  0
  145.7085  135.9496  154.9471 H   0  0  0  0  0  0  0  0  0  0  0  0
  146.3376  137.3676  154.1456 H   0  0  0  0  0  0  0  0  0  0  0  0
  144.4411  136.7321  152.4242 H   0  0  0  0  0  0  0  0  0  0  0  0
  145.9214  137.5419  151.9493 H   0  0  0  0  0  0  0  0  0  0  0  0
  144.7240  136.6298  149.9629 H   0  0  0  0  0  0  0  0  0  0  0  0
  146.3185  135.9443  150.1320 H   0  0  0  0  0  0  0  0  0  0  0  0
  143.6756  134.6432  150.9369 H   0  0  0  0  0  0  0  0  0  0  0  0
  144.7067  134.1375  149.6236 H   0  0  0  0  0  0  0  0  0  0  0  0
  144.8817  132.7466  151.7234 H   0  0  0  0  0  0  0  0  0  0  0  0
  147.5270  134.0432  150.9287 H   0  0  0  0  0  0  0  0  0  0  0  0
  146.7401  132.7058  150.0973 H   0  0  0  0  0  0  0  0  0  0  0  0
  147.3216  132.4984  151.7428 H   0  0  0  0  0  0  0  0  0  0  0  0
  146.1644  133.6704  153.6498 H   0  0  0  0  0  0  0  0  0  0  0  0
  144.5977  134.4104  153.4372 H   0  0  0  0  0  0  0  0  0  0  0  0
  147.1128  135.5523  152.4712 H   0  0  0  0  0  0  0  0  0  0  0  0
  1  2  1  0  0  0  0
  1 22  1  0  0  0  0
  1 23  1  0  0  0  0
  1 24  1  0  0  0  0
  2  8  1  0  0  0  0
  2  3  2  0  0  0  0
  3  4  1  0  0  0  0
  4  5  1  0  0  0  0
  4  6  1  0  0  0  0
  5 25  1  0  0  0  0
  5 26  1  0  0  0  0
  5 27  1  0  0  0  0
  6  7  1  0  0  0  0
  6  8  2  0  0  0  0
  7 28  1  0  0  0  0
  7 29  1  0  0  0  0
  7 30  1  0  0  0  0
  8  9  1  0  0  0  0
  9 10  1  0  0  0  0
  9 31  1  0  0  0  0
  9 32  1  0  0  0  0
 10 11  2  0  0  0  0
 10 12  1  0  0  0  0
 12 13  1  0  0  0  0
 12 33  1  0  0  0  0
 13 14  1  0  0  0  0
 13 34  1  0  0  0  0
 13 35  1  0  0  0  0
 14 15  1  0  0  0  0
 14 36  1  0  0  0  0
 14 37  1  0  0  0  0
 15 21  1  0  0  0  0
 15 16  1  0  0  0  0
 15 50  1  0  0  0  0
 16 17  1  0  0  0  0
 16 38  1  0  0  0  0
 16 39  1  0  0  0  0
 17 18  1  0  0  0  0
 17 40  1  0  0  0  0
 17 41  1  0  0  0  0
 18 19  1  0  0  0  0
 18 42  1  0  0  0  0
 18 43  1  0  0  0  0
 19 20  1  0  0  0  0
 19 21  1  0  0  0  0
 19 44  1  0  0  0  0
 20 45  1  0  0  0  0
 20 46  1  0  0  0  0
 20 47  1  0  0  0  0
 21 48  1  0  0  0  0
 21 49  1  0  0  0  0
M  CHG  1  15   1
M  END
> <s_m_source_file>
AV-unprocessed.smi

> <i_m_source_file_index>
565

> <i_lp_mmshare_version>
43012

> <i_f3d_flags>
0

> <s_epik_input>
W0NIM11jMW5uKFtDSDNdKWMoW0NIM10pYzFbQ0gyXUMoPU8pW05IXVtDSDJdW0NIMl1OMltDSDJdW0NIMl1bQ0gyXVtDQEBIXShbQ0gzXSlbQ0gyXTI=

> <s_epik_cmdline>
J2VwaWtfcHl0aG9uJywgJy1waCcsICc3LjAnLCAnLXRuJywgJzgnLCAnLW1hJywgJzIwMCcsICctbWV0YWxfYmluZGluZycsICctaW1hZScsICc8aW5maWxlLm1hZT4nLCAnLW9tYWUnLCAnPG91dGZpbGUubWFlPic=

> <r_lp_tautomer_probability>
1

> <r_epik_Ionization_Penalty>
0.00411138

> <r_epik_Ionization_Penalty_Charging>
0.0019503

> <r_epik_Ionization_Penalty_Neutral>
0.00216107

> <r_epik_State_Penalty>
-0

> <r_epik_Charging_Adjusted_Penalty>
0.0019503

> <i_epik_Tot_Q>
1

> <i_epik_Tot_abs_Q>
1

> <r_epik_Metal_State_Penalty>
-0

> <b_epik_Metal_Only>
0

> <s_lp_Force_Field>
OPLS_2005

> <r_lp_Energy>
12.6128

> <b_lp_Chiralities_Consistent>
1

> <s_lp_Variant>
AV-unprocessed.smi:565-2

> <Gold.Version>
5.8.1

> <Gold.Id.Protein>
6NUR|6NUR_protein|mol2

> <Gold.PLP.Fitness>
41.9961

> <Gold.PLP.PLP>
-33.3745

> <Gold.PLP.part.hbond>
-2.9023

> <Gold.PLP.part.metal>
0.0000

> <Gold.PLP.part.buried>
1.4224

> <Gold.PLP.part.nonpolar>
-31.3672

> <Gold.PLP.part.repulsive>
0.0235

> <Gold.PLP.ligand.clash>
0.0000

> <Gold.PLP.ligand.torsion>
0.9560

> <Gold.PLP.Chemscore.Hbond>
3.4960

> <Gold.PLP.Chemscore.CHOScore>
0.0000

> <Gold.PLP.Chemscore.Metal>
0.0000

> <Gold.Chemscore.Hbonds>
donor molecule, donor type, donor heavy atom, donor atom, acceptor molecule, acceptor atom, score
      L1  H    12    33       P1  7948  0.50
      L1  H    15    50       P1  7948  1.98
      P1  H  7997  8010       L1     3  1.00

> <Gold.PLP.Chemscore.Internal.Correction>
0.0456

> <Gold.Rescore>
     Score         DG    S(hbond)    S(metal)    S(lipo)     H(rot)  DE(clash)    DE(int)     intcor
     18.40     -19.46       2.35        0.00      87.64       1.61       0.15       0.92       ----

> <Gold.Chemscore.Fitness>
18.4007

> <Gold.Chemscore.DG>
-19.4636

> <Gold.Chemscore.ZeroCoef>
-5.4800

> <Gold.Chemscore.Hbond>
2.3538

> <Gold.Chemscore.Metal>
0.0000

> <Gold.Chemscore.Lipo>
87.6435

> <Gold.Chemscore.Internal_Hbond>
0.0000

> <Gold.Chemscore.DEClash>
0.1471

> <Gold.Chemscore.DEInternal>
0.9158

> <Gold.Chemscore.Rot>
1.6142

> <Gold.Chemscore.Internal.Correction>
   9.000000E+99

> <Gold.Chemscore.Hbonds>
donor molecule, donor type, donor heavy atom, donor atom, acceptor molecule, acceptor atom, score
      L1  H    12    33       P1  7948  0.39
      L1  H    15    50       P1  7948  0.90
      P1  H  7997  8010       L1     3  0.25

> <Gold.Chemscore.Hbond.Weighted>
-7.8617

> <Gold.Chemscore.Metal.Weighted>
-0.0000

> <Gold.Chemscore.Lipo.Weighted>
-10.2543

> <Gold.Chemscore.Internal_Hbond.Weighted>
0.0000

> <Gold.Chemscore.DEClash.Weighted>
0.1471

> <Gold.Chemscore.DEInternal.Weighted>
0.9158

> <Gold.Chemscore.Rot.Weighted>
4.1324

> <Gold.Chemscore.Internal.Correction.Weighted>
   9.000000E+99

> <Gold.Protein.RotatedTorsions>
[ 6907 6896 6895 6894 ] final  136.10 input  -60.11 | X-H torsion
[ 7974 7965 7964 7962 ] final   37.01 input  175.53 | X-H torsion
[ 8008 7997 7996 7995 ] final   68.26 input   59.86 | X-H torsion
[ 10167 10162 10161 10158 ] final  -66.83 input  -65.29 | X-H torsion
[ 10718 10713 10712 10709 ] final -163.10 input   66.30 | X-H torsion
[ 10763 10752 10751 10750 ] final  -27.05 input  -60.55 | X-H torsion
[ 11005 11000 10999 10996 ] final -108.00 input  -57.11 | X-H torsion

> <Gold.Protein.ActiveResidues>
 VAL166  LYS551  ARG553  GLY616  TRP617  ASP618  TYR619  PRO620  LYS621  CYS622 
 ASP623  PHE694  ASN695  SER759  ASP760  ASP761  ALA762  ILE779  LEU786  VAL792 
 PHE793  MET794  SER795  GLU796  ALA797  LYS798  CYS799  TRP800  GLU811  SER814 

> <Gold.Protein.RotatedAtoms>
  152.2932  133.5581  159.5570 H   0  0  0  0  0  0  0  0  0  0  0  0  # atno 6907 bound_to 6896
  150.7244  134.0399  159.3771 H   0  0  0  0  0  0  0  0  0  0  0  0  # atno 6908 bound_to 6896
  151.8304  135.0623  160.0487 H   0  0  0  0  0  0  0  0  0  0  0  0  # atno 6909 bound_to 6896
  146.1169  139.5947  142.9315 H   0  0  0  0  0  0  0  0  0  0  0  0  # atno 7974 bound_to 7965
  155.7055  140.3495  155.4951 H   0  0  0  0  0  0  0  0  0  0  0  0  # atno 8008 bound_to 7997
  155.9402  140.1100  157.1084 H   0  0  0  0  0  0  0  0  0  0  0  0  # atno 8009 bound_to 7997
  154.4101  140.1214  156.4904 H   0  0  0  0  0  0  0  0  0  0  0  0  # atno 8010 bound_to 7997
  140.5628  143.2313  151.6694 H   0  0  0  0  0  0  0  0  0  0  0  0  # atno 10167 bound_to 10162
  156.6198  130.8885  151.2955 H   0  0  0  0  0  0  0  0  0  0  0  0  # atno 10718 bound_to 10713
  153.7258  135.6942  153.5001 H   0  0  0  0  0  0  0  0  0  0  0  0  # atno 10763 bound_to 10752
  153.2171  135.4383  155.0445 H   0  0  0  0  0  0  0  0  0  0  0  0  # atno 10764 bound_to 10752
  154.8269  135.3451  154.6790 H   0  0  0  0  0  0  0  0  0  0  0  0  # atno 10765 bound_to 10752
  141.0925  133.9030  157.2042 H   0  0  0  0  0  0  0  0  0  0  0  0  # atno 11005 bound_to 11000
  145.5547  141.0410  143.2259 LP  0  0  0  0  0  0  0  0  0  0  0  0  # atno 17320 bound_to 7965
  144.7561  139.7070  143.7253 LP  0  0  0  0  0  0  0  0  0  0  0  0  # atno 17321 bound_to 7965
  139.5078  144.3632  152.0542 LP  0  0  0  0  0  0  0  0  0  0  0  0  # atno 17342 bound_to 10162
  140.2761  144.3911  150.6135 LP  0  0  0  0  0  0  0  0  0  0  0  0  # atno 17343 bound_to 10162
  157.7231  130.9585  150.1519 LP  0  0  0  0  0  0  0  0  0  0  0  0  # atno 17370 bound_to 10713
  156.2321  130.3683  149.8433 LP  0  0  0  0  0  0  0  0  0  0  0  0  # atno 17371 bound_to 10713
  139.9754  135.0115  156.9617 LP  0  0  0  0  0  0  0  0  0  0  0  0  # atno 17394 bound_to 11000
  140.5219  134.0899  155.7294 LP  0  0  0  0  0  0  0  0  0  0  0  0  # atno 17395 bound_to 11000

$$$$
