AV-unprocessed.smi:1866|AV-procd|sdf|7556|dock6
  -GOLD-   22720 9273D 1   1.00000     0.00000
 Structure written by MMmdl.
 30 31  0  0  0  0  0  0  0  0  1 V2000
  152.4690  144.0832  161.9096 C   0  0  0  0  0  0  0  0  0  0  0  0
  151.8786  143.4843  160.6789 C   0  0  0  0  0  0  0  0  0  0  0  0
  151.6278  142.1748  160.5578 N   0  0  0  0  0  0  0  0  0  0  0  0
  151.0811  141.8559  159.3227 N   0  0  0  0  0  0  0  0  0  0  0  0
  150.9355  142.9384  158.5460 C   0  0  0  0  0  0  0  0  0  0  0  0
  150.4012  142.8999  157.2309 N   0  0  0  0  0  0  0  0  0  0  0  0
  149.9605  141.8327  156.5416 C   0  0  0  0  0  0  0  0  0  0  0  0
  149.9453  140.6734  156.9564 O   0  0  0  0  0  0  0  0  0  0  0  0
  149.5308  142.1874  155.3219 N   0  0  0  0  0  0  0  0  0  0  0  0
  148.9592  141.2810  154.3278 C   0  0  2  0  0  0  0  0  0  0  0  0
  147.4341  141.1559  154.5060 C   0  0  0  0  0  0  0  0  0  0  0  0
  146.8802  140.0613  153.5894 C   0  0  0  0  0  0  0  0  0  0  0  0
  147.5635  138.7162  153.8846 C   0  0  0  0  0  0  0  0  0  0  0  0
  149.0176  138.8221  154.0136 N   0  0  0  0  0  0  0  0  0  0  0  0
  149.7132  139.9397  154.2891 C   0  0  0  0  0  0  0  0  0  0  0  0
  150.9298  139.9081  154.4684 O   0  0  0  0  0  0  0  0  0  0  0  0
  151.4615  144.4494  159.2682 S   0  0  0  0  0  0  0  0  0  0  0  0
  152.4267  143.3770  162.7397 H   0  0  0  0  0  0  0  0  0  0  0  0
  151.9192  144.9821  162.1888 H   0  0  0  0  0  0  0  0  0  0  0  0
  153.5105  144.3504  161.7300 H   0  0  0  0  0  0  0  0  0  0  0  0
  150.3466  143.7909  156.7601 H   0  0  0  0  0  0  0  0  0  0  0  0
  149.5748  143.1629  155.0665 H   0  0  0  0  0  0  0  0  0  0  0  0
  149.1354  141.7136  153.3409 H   0  0  0  0  0  0  0  0  0  0  0  0
  147.1956  140.9168  155.5437 H   0  0  0  0  0  0  0  0  0  0  0  0
  146.9466  142.1062  154.2852 H   0  0  0  0  0  0  0  0  0  0  0  0
  145.8007  139.9704  153.7124 H   0  0  0  0  0  0  0  0  0  0  0  0
  147.0519  140.3396  152.5487 H   0  0  0  0  0  0  0  0  0  0  0  0
  147.1775  138.3074  154.8191 H   0  0  0  0  0  0  0  0  0  0  0  0
  147.3245  137.9930  153.1046 H   0  0  0  0  0  0  0  0  0  0  0  0
  149.5372  137.9583  153.9521 H   0  0  0  0  0  0  0  0  0  0  0  0
  1  2  1  0  0  0  0
  1 18  1  0  0  0  0
  1 19  1  0  0  0  0
  1 20  1  0  0  0  0
  2 17  1  0  0  0  0
  2  3  2  0  0  0  0
  3  4  1  0  0  0  0
  4  5  2  0  0  0  0
  5  6  1  0  0  0  0
  5 17  1  0  0  0  0
  6  7  1  0  0  0  0
  6 21  1  0  0  0  0
  7  8  2  0  0  0  0
  7  9  1  0  0  0  0
  9 10  1  0  0  0  0
  9 22  1  0  0  0  0
 10 15  1  0  0  0  0
 10 11  1  0  0  0  0
 10 23  1  0  0  0  0
 11 12  1  0  0  0  0
 11 24  1  0  0  0  0
 11 25  1  0  0  0  0
 12 13  1  0  0  0  0
 12 26  1  0  0  0  0
 12 27  1  0  0  0  0
 13 14  1  0  0  0  0
 13 28  1  0  0  0  0
 13 29  1  0  0  0  0
 14 15  1  0  0  0  0
 14 30  1  0  0  0  0
 15 16  2  0  0  0  0
M  END
> <s_m_source_file>
AV-unprocessed.smi

> <i_m_source_file_index>
1866

> <i_lp_mmshare_version>
43012

> <i_f3d_flags>
0

> <s_epik_input>
W0NIM11jMW5uYyhzMSlbTkhdQyg9TylbTkhdW0NAQEhdMltDSDJdW0NIMl1bQ0gyXVtOSF1DMj1P

> <s_epik_cmdline>
J2VwaWtfcHl0aG9uJywgJy1waCcsICc3LjAnLCAnLXRuJywgJzgnLCAnLW1hJywgJzIwMCcsICctbWV0YWxfYmluZGluZycsICctaW1hZScsICc8aW5maWxlLm1hZT4nLCAnLW9tYWUnLCAnPG91dGZpbGUubWFlPic=

> <r_lp_tautomer_probability>
1

> <r_epik_Ionization_Penalty>
0.00093002

> <r_epik_Ionization_Penalty_Charging>
0

> <r_epik_Ionization_Penalty_Neutral>
0.00093002

> <r_epik_State_Penalty>
-0

> <r_epik_Charging_Adjusted_Penalty>
0

> <i_epik_Tot_Q>
0

> <i_epik_Tot_abs_Q>
0

> <r_epik_Metal_State_Penalty>
0.280775

> <b_epik_Metal_Only>
0

> <s_lp_Force_Field>
OPLS_2005

> <r_lp_Energy>
8.18213

> <b_lp_Chiralities_Consistent>
1

> <s_lp_Variant>
AV-unprocessed.smi:1866-1

> <Gold.Version>
5.8.1

> <Gold.Id.Protein>
6NUR|6NUR_protein|mol2

> <Gold.PLP.Fitness>
38.5128

> <Gold.PLP.PLP>
-31.7396

> <Gold.PLP.part.hbond>
-5.2660

> <Gold.PLP.part.metal>
0.0000

> <Gold.PLP.part.buried>
-4.1377

> <Gold.PLP.part.nonpolar>
-22.2932

> <Gold.PLP.part.repulsive>
0.4112

> <Gold.PLP.ligand.clash>
0.0000

> <Gold.PLP.ligand.torsion>
0.3228

> <Gold.PLP.Chemscore.Hbond>
2.4588

> <Gold.PLP.Chemscore.CHOScore>
0.0000

> <Gold.PLP.Chemscore.Metal>
0.0000

> <Gold.Chemscore.Hbonds>
donor molecule, donor type, donor heavy atom, donor atom, acceptor molecule, acceptor atom, score
      L1  H     6    21       P1  8028  0.68
      L1  H     9    22       P1  8028  0.77
      P1  H  6933  6945       L1     3  0.04
      P1  H  7989  7998       L1    16  1.00

> <Gold.PLP.Chemscore.Internal.Correction>
0.0424

> <Gold.Rescore>
     Score         DG    S(hbond)    S(metal)    S(lipo)     H(rot)  DE(clash)    DE(int)     intcor
     13.19     -19.07       2.83        0.00      57.20       1.00       0.37       5.51       ----

> <Gold.Chemscore.Fitness>
13.1909

> <Gold.Chemscore.DG>
-19.0743

> <Gold.Chemscore.ZeroCoef>
-5.4800

> <Gold.Chemscore.Hbond>
2.8330

> <Gold.Chemscore.Metal>
0.0000

> <Gold.Chemscore.Lipo>
57.1957

> <Gold.Chemscore.Internal_Hbond>
0.0000

> <Gold.Chemscore.DEClash>
0.3717

> <Gold.Chemscore.DEInternal>
5.5117

> <Gold.Chemscore.Rot>
1.0000

> <Gold.Chemscore.Internal.Correction>
   9.000000E+99

> <Gold.Chemscore.Hbonds>
donor molecule, donor type, donor heavy atom, donor atom, acceptor molecule, acceptor atom, score
      L1  H     6    21       P1  8028  0.65
      L1  H     9    22       P1  8028  0.76
      P1  H  6933  6945       L1     3  0.01
      P1  H  7989  7998       L1    16  0.70

> <Gold.Chemscore.Hbond.Weighted>
-9.4624

> <Gold.Chemscore.Metal.Weighted>
-0.0000

> <Gold.Chemscore.Lipo.Weighted>
-6.6919

> <Gold.Chemscore.Internal_Hbond.Weighted>
0.0000

> <Gold.Chemscore.DEClash.Weighted>
0.3717

> <Gold.Chemscore.DEInternal.Weighted>
5.5117

> <Gold.Chemscore.Rot.Weighted>
2.5600

> <Gold.Chemscore.Internal.Correction.Weighted>
   9.000000E+99

> <Gold.Protein.RotatedTorsions>
[ 6907 6896 6895 6894 ] final -110.68 input  -60.11 | X-H torsion
[ 7974 7965 7964 7962 ] final  152.42 input  175.53 | X-H torsion
[ 8008 7997 7996 7995 ] final   77.05 input   59.86 | X-H torsion
[ 10167 10162 10161 10158 ] final  -10.24 input  -65.29 | X-H torsion
[ 10718 10713 10712 10709 ] final  -89.69 input   66.30 | X-H torsion
[ 10763 10752 10751 10750 ] final  -27.23 input  -60.55 | X-H torsion
[ 11005 11000 10999 10996 ] final -108.23 input  -57.11 | X-H torsion

> <Gold.Protein.ActiveResidues>
 VAL166  LYS551  ARG553  GLY616  TRP617  ASP618  TYR619  PRO620  LYS621  CYS622 
 ASP623  PHE694  ASN695  SER759  ASP760  ASP761  ALA762  ILE779  LEU786  VAL792 
 PHE793  MET794  SER795  GLU796  ALA797  LYS798  CYS799  TRP800  GLU811  SER814 

> <Gold.Protein.RotatedAtoms>
  150.7640  133.9347  159.3437 H   0  0  0  0  0  0  0  0  0  0  0  0  # atno 6907 bound_to 6896
  151.7249  135.0885  160.0300 H   0  0  0  0  0  0  0  0  0  0  0  0  # atno 6908 bound_to 6896
  152.3627  133.6279  159.6063 H   0  0  0  0  0  0  0  0  0  0  0  0  # atno 6909 bound_to 6896
  144.8223  139.6667  143.6095 H   0  0  0  0  0  0  0  0  0  0  0  0  # atno 7974 bound_to 7965
  155.8361  140.3464  155.5602 H   0  0  0  0  0  0  0  0  0  0  0  0  # atno 8008 bound_to 7997
  155.8190  140.0910  157.1880 H   0  0  0  0  0  0  0  0  0  0  0  0  # atno 8009 bound_to 7997
  154.4004  140.1433  156.3465 H   0  0  0  0  0  0  0  0  0  0  0  0  # atno 8010 bound_to 7997
  140.7108  143.5770  150.9032 H   0  0  0  0  0  0  0  0  0  0  0  0  # atno 10167 bound_to 10162
  155.9985  130.4882  150.5210 H   0  0  0  0  0  0  0  0  0  0  0  0  # atno 10718 bound_to 10713
  153.7287  135.6940  153.4994 H   0  0  0  0  0  0  0  0  0  0  0  0  # atno 10763 bound_to 10752
  153.2151  135.4389  155.0424 H   0  0  0  0  0  0  0  0  0  0  0  0  # atno 10764 bound_to 10752
  154.8260  135.3446  154.6818 H   0  0  0  0  0  0  0  0  0  0  0  0  # atno 10765 bound_to 10752
  141.0912  133.9051  157.2070 H   0  0  0  0  0  0  0  0  0  0  0  0  # atno 11005 bound_to 11000
  146.2529  139.6238  142.9415 LP  0  0  0  0  0  0  0  0  0  0  0  0  # atno 17320 bound_to 7965
  145.5077  141.0436  143.2505 LP  0  0  0  0  0  0  0  0  0  0  0  0  # atno 17321 bound_to 7965
  139.9496  143.6288  152.3032 LP  0  0  0  0  0  0  0  0  0  0  0  0  # atno 17342 bound_to 10162
  139.6801  144.7656  151.1623 LP  0  0  0  0  0  0  0  0  0  0  0  0  # atno 17343 bound_to 10162
  157.3171  131.0675  151.1959 LP  0  0  0  0  0  0  0  0  0  0  0  0  # atno 17370 bound_to 10713
  157.2885  130.6784  149.6102 LP  0  0  0  0  0  0  0  0  0  0  0  0  # atno 17371 bound_to 10713
  139.9739  135.0120  156.9581 LP  0  0  0  0  0  0  0  0  0  0  0  0  # atno 17394 bound_to 11000
  140.5247  134.0873  155.7300 LP  0  0  0  0  0  0  0  0  0  0  0  0  # atno 17395 bound_to 11000

$$$$
