AV-unprocessed.smi:2725|AV-procd|sdf|10518|dock1
  -GOLD-   2272014563D 1   1.00000     0.00000
 Structure written by MMmdl.
 45 46  0  0  0  0  0  0  0  0  2 V2000
  153.0037  139.1905  156.4582 O   0  0  0  0  0  0  0  0  0  0  0  0
  151.8734  139.2697  156.9395 C   0  0  0  0  0  0  0  0  0  0  0  0
  151.6062  140.1618  158.1555 C   0  0  0  0  0  0  0  0  0  0  0  0
  151.8491  141.6556  157.8677 C   0  0  0  0  0  0  0  0  0  0  0  0
  151.5824  142.5577  159.0856 C   0  0  0  0  0  0  0  0  0  0  0  0
  151.7819  144.0545  158.8231 C   0  0  0  0  0  0  0  0  0  0  0  0
  152.0259  144.6848  160.2003 C   0  0  0  0  0  0  0  0  0  0  0  0
  152.4162  143.5348  161.1412 C   0  0  0  0  0  0  0  0  0  0  0  0
  152.5217  142.2859  160.2621 C   0  0  0  0  0  0  0  0  0  0  0  0
  150.8173  138.6023  156.4477 N   0  0  0  0  0  0  0  0  0  0  0  0
  150.8420  137.7087  155.2909 C   0  0  1  0  0  0  0  0  0  0  0  0
  149.6180  136.7650  155.3337 C   0  0  0  0  0  0  0  0  0  0  0  0
  149.8453  135.6008  154.5677 O   0  0  0  0  0  0  0  0  0  0  0  0
  150.9326  138.5645  154.0088 C   0  0  0  0  0  0  0  0  0  0  0  0
  149.7123  139.4327  153.7577 C   0  0  0  0  0  0  0  0  0  0  0  0
  149.6208  140.7512  154.2541 C   0  0  0  0  0  0  0  0  0  0  0  0
  148.4678  141.5146  153.9761 C   0  0  0  0  0  0  0  0  0  0  0  0
  147.4316  140.9450  153.2078 C   0  0  0  0  0  0  0  0  0  0  0  0
  147.5753  139.6244  152.7357 C   0  0  0  0  0  0  0  0  0  0  0  0
  148.6950  138.9252  153.0236 N   0  3  0  0  0  0  0  0  0  0  0  0
  150.5752  140.0021  158.4719 H   0  0  0  0  0  0  0  0  0  0  0  0
  152.2408  139.8431  158.9838 H   0  0  0  0  0  0  0  0  0  0  0  0
  152.8836  141.7934  157.5491 H   0  0  0  0  0  0  0  0  0  0  0  0
  151.2280  141.9819  157.0322 H   0  0  0  0  0  0  0  0  0  0  0  0
  150.5588  142.4003  159.4297 H   0  0  0  0  0  0  0  0  0  0  0  0
  152.6617  144.2074  158.1965 H   0  0  0  0  0  0  0  0  0  0  0  0
  150.9318  144.5037  158.3087 H   0  0  0  0  0  0  0  0  0  0  0  0
  152.8064  145.4445  160.1475 H   0  0  0  0  0  0  0  0  0  0  0  0
  151.1210  145.1726  160.5646 H   0  0  0  0  0  0  0  0  0  0  0  0
  153.3465  143.7340  161.6745 H   0  0  0  0  0  0  0  0  0  0  0  0
  151.6352  143.3944  161.8893 H   0  0  0  0  0  0  0  0  0  0  0  0
  152.2637  141.3744  160.8022 H   0  0  0  0  0  0  0  0  0  0  0  0
  153.5468  142.1786  159.9040 H   0  0  0  0  0  0  0  0  0  0  0  0
  149.9271  138.7276  156.9075 H   0  0  0  0  0  0  0  0  0  0  0  0
  151.7537  137.1110  155.3602 H   0  0  0  0  0  0  0  0  0  0  0  0
  149.4236  136.4322  156.3541 H   0  0  0  0  0  0  0  0  0  0  0  0
  148.7148  137.2696  154.9899 H   0  0  0  0  0  0  0  0  0  0  0  0
  149.6678  135.7986  153.6606 H   0  0  0  0  0  0  0  0  0  0  0  0
  151.8213  139.1968  154.0424 H   0  0  0  0  0  0  0  0  0  0  0  0
  151.0609  137.9139  153.1422 H   0  0  0  0  0  0  0  0  0  0  0  0
  150.4256  141.1754  154.8370 H   0  0  0  0  0  0  0  0  0  0  0  0
  148.3803  142.5255  154.3467 H   0  0  0  0  0  0  0  0  0  0  0  0
  146.5409  141.5134  152.9827 H   0  0  0  0  0  0  0  0  0  0  0  0
  146.8353  139.1109  152.1395 H   0  0  0  0  0  0  0  0  0  0  0  0
  148.7794  137.9732  152.6668 H   0  0  0  0  0  0  0  0  0  0  0  0
  1  2  2  0  0  0  0
  2  3  1  0  0  0  0
  2 10  1  0  0  0  0
  3  4  1  0  0  0  0
  3 21  1  0  0  0  0
  3 22  1  0  0  0  0
  4  5  1  0  0  0  0
  4 23  1  0  0  0  0
  4 24  1  0  0  0  0
  5  9  1  0  0  0  0
  5  6  1  0  0  0  0
  5 25  1  0  0  0  0
  6  7  1  0  0  0  0
  6 26  1  0  0  0  0
  6 27  1  0  0  0  0
  7  8  1  0  0  0  0
  7 28  1  0  0  0  0
  7 29  1  0  0  0  0
  8  9  1  0  0  0  0
  8 30  1  0  0  0  0
  8 31  1  0  0  0  0
  9 32  1  0  0  0  0
  9 33  1  0  0  0  0
 10 11  1  0  0  0  0
 10 34  1  0  0  0  0
 11 12  1  0  0  0  0
 11 14  1  0  0  0  0
 11 35  1  0  0  0  0
 12 13  1  0  0  0  0
 12 36  1  0  0  0  0
 12 37  1  0  0  0  0
 13 38  1  0  0  0  0
 14 15  1  0  0  0  0
 14 39  1  0  0  0  0
 14 40  1  0  0  0  0
 15 20  1  0  0  0  0
 15 16  2  0  0  0  0
 16 17  1  0  0  0  0
 16 41  1  0  0  0  0
 17 18  2  0  0  0  0
 17 42  1  0  0  0  0
 18 19  1  0  0  0  0
 18 43  1  0  0  0  0
 19 20  2  0  0  0  0
 19 44  1  0  0  0  0
 20 45  1  0  0  0  0
M  CHG  1  20   1
M  END
> <s_m_source_file>
AV-unprocessed.smi

> <i_m_source_file_index>
2725

> <i_lp_mmshare_version>
43012

> <i_f3d_flags>
0

> <s_epik_input>
W0NIMl0xW0NIMl1bQ0gyXVtDSDJdW0NIXTFbQ0gyXVtDSDJdQyg9TylbTkhdW0NASF0oW0NIMl1bT0hdKVtDSDJdYzJbY0hdW2NIXVtjSF1bY0hdbjI=

> <s_epik_cmdline>
J2VwaWtfcHl0aG9uJywgJy1waCcsICc3LjAnLCAnLXRuJywgJzgnLCAnLW1hJywgJzIwMCcsICctbWV0YWxfYmluZGluZycsICctaW1hZScsICc8aW5maWxlLm1hZT4nLCAnLW9tYWUnLCAnPG91dGZpbGUubWFlPic=

> <r_epik_Ionization_Penalty>
1.87189

> <r_epik_Ionization_Penalty_Charging>
1.87189

> <r_epik_Ionization_Penalty_Neutral>
6.79411e-08

> <r_epik_State_Penalty>
1.99097

> <r_epik_Charging_Adjusted_Penalty>
3.86287

> <i_epik_Tot_Q>
1

> <i_epik_Tot_abs_Q>
1

> <r_epik_Metal_State_Penalty>
2.01578

> <b_epik_Metal_Only>
0

> <s_lp_Force_Field>
OPLS_2005

> <r_lp_Energy>
28.0453

> <b_lp_Chiralities_Consistent>
1

> <s_lp_Variant>
AV-unprocessed.smi:2725-4

> <Gold.Version>
5.8.1

> <Gold.Id.Protein>
6NUR|6NUR_protein|mol2

> <Gold.PLP.Fitness>
54.2376

> <Gold.PLP.PLP>
-43.7942

> <Gold.PLP.part.hbond>
-4.0000

> <Gold.PLP.part.metal>
0.0000

> <Gold.PLP.part.buried>
-2.3070

> <Gold.PLP.part.nonpolar>
-37.4903

> <Gold.PLP.part.repulsive>
0.0700

> <Gold.PLP.ligand.clash>
0.0000

> <Gold.PLP.ligand.torsion>
0.8354

> <Gold.PLP.Chemscore.Hbond>
4.0000

> <Gold.PLP.Chemscore.CHOScore>
0.0000

> <Gold.PLP.Chemscore.Metal>
0.0000

> <Gold.Chemscore.Hbonds>
donor molecule, donor type, donor heavy atom, donor atom, acceptor molecule, acceptor atom, score
      L1  H    13    38       P1  7948  0.90
      L1  H    20    45       P1  7948  2.00
      P1  H  7997  8010       L1     1  1.00

> <Gold.PLP.Chemscore.Internal.Correction>
0.1141

> <Gold.Rescore>
     Score         DG    S(hbond)    S(metal)    S(lipo)     H(rot)  DE(clash)    DE(int)     intcor
     21.38     -23.65       2.93        0.00     128.10       2.58       1.50       0.78       ----

> <Gold.Chemscore.Fitness>
21.3754

> <Gold.Chemscore.DG>
-23.6482

> <Gold.Chemscore.ZeroCoef>
-5.4800

> <Gold.Chemscore.Hbond>
2.9278

> <Gold.Chemscore.Metal>
0.0000

> <Gold.Chemscore.Lipo>
128.0956

> <Gold.Chemscore.Internal_Hbond>
0.0000

> <Gold.Chemscore.DEClash>
1.4964

> <Gold.Chemscore.DEInternal>
0.7764

> <Gold.Chemscore.Rot>
2.5773

> <Gold.Chemscore.Internal.Correction>
   9.000000E+99

> <Gold.Chemscore.Hbonds>
donor molecule, donor type, donor heavy atom, donor atom, acceptor molecule, acceptor atom, score
      L1  H    13    38       P1  7948  0.18
      L1  H    20    45       P1  7948  1.00
      P1  H  7997  8010       L1     1  0.99

> <Gold.Chemscore.Hbond.Weighted>
-9.7788

> <Gold.Chemscore.Metal.Weighted>
-0.0000

> <Gold.Chemscore.Lipo.Weighted>
-14.9872

> <Gold.Chemscore.Internal_Hbond.Weighted>
0.0000

> <Gold.Chemscore.DEClash.Weighted>
1.4964

> <Gold.Chemscore.DEInternal.Weighted>
0.7764

> <Gold.Chemscore.Rot.Weighted>
6.5978

> <Gold.Chemscore.Internal.Correction.Weighted>
   9.000000E+99

> <Gold.Protein.RotatedTorsions>
[ 6907 6896 6895 6894 ] final -149.29 input  -60.11 | X-H torsion
[ 7974 7965 7964 7962 ] final   87.38 input  175.53 | X-H torsion
[ 8008 7997 7996 7995 ] final   77.74 input   59.86 | X-H torsion
[ 10167 10162 10161 10158 ] final  169.44 input  -65.29 | X-H torsion
[ 10718 10713 10712 10709 ] final   71.44 input   66.30 | X-H torsion
[ 10763 10752 10751 10750 ] final   34.13 input  -60.55 | X-H torsion
[ 11005 11000 10999 10996 ] final   58.69 input  -57.11 | X-H torsion

> <Gold.Protein.ActiveResidues>
 VAL166  LYS551  ARG553  GLY616  TRP617  ASP618  TYR619  PRO620  LYS621  CYS622 
 ASP623  PHE694  ASN695  SER759  ASP760  ASP761  ALA762  ILE779  LEU786  VAL792 
 PHE793  MET794  SER795  GLU796  ALA797  LYS798  CYS799  TRP800  GLU811  SER814 

> <Gold.Protein.RotatedAtoms>
  151.1820  133.4719  159.2593 H   0  0  0  0  0  0  0  0  0  0  0  0  # atno 6907 bound_to 6896
  151.1249  135.0099  159.8566 H   0  0  0  0  0  0  0  0  0  0  0  0  # atno 6908 bound_to 6896
  152.5457  134.1728  159.8657 H   0  0  0  0  0  0  0  0  0  0  0  0  # atno 6909 bound_to 6896
  145.5598  139.2303  143.2466 H   0  0  0  0  0  0  0  0  0  0  0  0  # atno 7974 bound_to 7965
  155.8458  140.3460  155.5661 H   0  0  0  0  0  0  0  0  0  0  0  0  # atno 8008 bound_to 7997
  155.8091  140.0896  157.1934 H   0  0  0  0  0  0  0  0  0  0  0  0  # atno 8009 bound_to 7997
  154.4006  140.1451  156.3353 H   0  0  0  0  0  0  0  0  0  0  0  0  # atno 8010 bound_to 7997
  139.4992  144.3706  151.9729 H   0  0  0  0  0  0  0  0  0  0  0  0  # atno 10167 bound_to 10162
  157.6452  130.9528  150.0790 H   0  0  0  0  0  0  0  0  0  0  0  0  # atno 10718 bound_to 10713
  153.0178  135.6368  154.1620 H   0  0  0  0  0  0  0  0  0  0  0  0  # atno 10763 bound_to 10752
  154.1358  135.2837  155.3175 H   0  0  0  0  0  0  0  0  0  0  0  0  # atno 10764 bound_to 10752
  154.6161  135.5540  153.7586 H   0  0  0  0  0  0  0  0  0  0  0  0  # atno 10765 bound_to 10752
  140.0359  134.5944  155.9445 H   0  0  0  0  0  0  0  0  0  0  0  0  # atno 11005 bound_to 11000
  146.1859  140.6423  142.9168 LP  0  0  0  0  0  0  0  0  0  0  0  0  # atno 17320 bound_to 7965
  144.7488  140.5138  143.6816 LP  0  0  0  0  0  0  0  0  0  0  0  0  # atno 17321 bound_to 7965
  140.3142  144.3503  150.6026 LP  0  0  0  0  0  0  0  0  0  0  0  0  # atno 17342 bound_to 10162
  140.5775  143.2175  151.7489 LP  0  0  0  0  0  0  0  0  0  0  0  0  # atno 17343 bound_to 10162
  156.1772  130.3648  149.9084 LP  0  0  0  0  0  0  0  0  0  0  0  0  # atno 17370 bound_to 10713
  156.7045  130.8946  151.3603 LP  0  0  0  0  0  0  0  0  0  0  0  0  # atno 17371 bound_to 10713
  141.1857  133.6555  156.5208 LP  0  0  0  0  0  0  0  0  0  0  0  0  # atno 17394 bound_to 11000
  140.4149  134.7239  157.4857 LP  0  0  0  0  0  0  0  0  0  0  0  0  # atno 17395 bound_to 11000

$$$$
