AV-unprocessed.smi:2504|AV-procd|sdf|9851|dock4
  -GOLD-   2272013483D 1   1.00000     0.00000
 Structure written by MMmdl.
 45 47  0  0  0  0  0  0  0  0  2 V2000
  152.6572  139.8588  156.4356 O   0  0  0  0  0  0  0  0  0  0  0  0
  151.5218  139.5972  156.8360 C   0  0  0  0  0  0  0  0  0  0  0  0
  150.9142  140.3302  158.0543 C   0  0  0  0  0  0  0  0  0  0  0  0
  149.6569  141.1519  157.7218 C   0  0  0  0  0  0  0  0  0  0  0  0
  150.1634  142.5184  157.2409 C   0  0  0  0  0  0  0  0  0  0  0  0
  151.5853  142.6705  157.8026 C   0  0  0  0  0  0  0  0  0  0  0  0
  151.8653  141.3991  158.6146 C   0  0  0  0  0  0  0  0  0  0  0  0
  150.7079  138.6831  156.1599 N   0  0  0  0  0  0  0  0  0  0  0  0
  151.2370  137.4486  155.5983 C   0  0  0  0  0  0  0  0  0  0  0  0
  149.8358  136.8735  155.8328 C   0  0  0  0  0  0  0  0  0  0  0  0
  149.8703  135.1830  156.5808 S   0  0  0  0  0  0  0  0  0  0  0  0
  151.2576  134.7098  156.4485 O   0  0  0  0  0  0  0  0  0  0  0  0
  149.3476  135.3200  157.9508 O   0  0  0  0  0  0  0  0  0  0  0  0
  148.8608  134.4008  155.5797 N   0  5  0  0  0  0  0  0  0  0  0  0
  149.3922  133.4499  154.6157 C   0  0  0  0  0  0  0  0  0  0  0  0
  148.4091  132.2733  154.4125 C   0  0  0  0  0  0  0  0  0  0  0  0
  147.3510  132.4902  153.3357 C   0  0  0  0  0  0  0  0  0  0  0  0
  146.4436  131.4676  152.9819 C   0  0  0  0  0  0  0  0  0  0  0  0
  145.4806  131.7261  151.9876 C   0  0  0  0  0  0  0  0  0  0  0  0
  145.4671  132.9984  151.3823 C   0  0  0  0  0  0  0  0  0  0  0  0
  146.3360  133.9814  151.7005 N   0  0  0  0  0  0  0  0  0  0  0  0
  147.2541  133.7259  152.6570 C   0  0  0  0  0  0  0  0  0  0  0  0
  149.6024  138.0167  156.8321 C   0  0  0  0  0  0  0  0  0  0  0  0
  150.6713  139.5899  158.8167 H   0  0  0  0  0  0  0  0  0  0  0  0
  148.9967  140.6750  156.9959 H   0  0  0  0  0  0  0  0  0  0  0  0
  149.0717  141.2852  158.6327 H   0  0  0  0  0  0  0  0  0  0  0  0
  150.1917  142.5479  156.1508 H   0  0  0  0  0  0  0  0  0  0  0  0
  149.5059  143.3231  157.5712 H   0  0  0  0  0  0  0  0  0  0  0  0
  152.2975  142.7536  156.9805 H   0  0  0  0  0  0  0  0  0  0  0  0
  151.6897  143.5660  158.4159 H   0  0  0  0  0  0  0  0  0  0  0  0
  151.6255  141.5755  159.6639 H   0  0  0  0  0  0  0  0  0  0  0  0
  152.9179  141.1153  158.5745 H   0  0  0  0  0  0  0  0  0  0  0  0
  151.5270  137.5219  154.5500 H   0  0  0  0  0  0  0  0  0  0  0  0
  152.0045  136.9798  156.2173 H   0  0  0  0  0  0  0  0  0  0  0  0
  149.2013  136.9126  154.9460 H   0  0  0  0  0  0  0  0  0  0  0  0
  149.5557  133.9298  153.6503 H   0  0  0  0  0  0  0  0  0  0  0  0
  150.3659  133.0568  154.9110 H   0  0  0  0  0  0  0  0  0  0  0  0
  148.9671  131.3651  154.1805 H   0  0  0  0  0  0  0  0  0  0  0  0
  147.8969  132.0718  155.3541 H   0  0  0  0  0  0  0  0  0  0  0  0
  146.4788  130.5048  153.4705 H   0  0  0  0  0  0  0  0  0  0  0  0
  144.7665  130.9693  151.6991 H   0  0  0  0  0  0  0  0  0  0  0  0
  144.7411  133.2313  150.6175 H   0  0  0  0  0  0  0  0  0  0  0  0
  147.9270  134.5367  152.8954 H   0  0  0  0  0  0  0  0  0  0  0  0
  149.8188  137.7677  157.8720 H   0  0  0  0  0  0  0  0  0  0  0  0
  148.6451  138.5256  156.7186 H   0  0  0  0  0  0  0  0  0  0  0  0
  1  2  2  0  0  0  0
  2  3  1  0  0  0  0
  2  8  1  0  0  0  0
  3  7  1  0  0  0  0
  3  4  1  0  0  0  0
  3 24  1  0  0  0  0
  4  5  1  0  0  0  0
  4 25  1  0  0  0  0
  4 26  1  0  0  0  0
  5  6  1  0  0  0  0
  5 27  1  0  0  0  0
  5 28  1  0  0  0  0
  6  7  1  0  0  0  0
  6 29  1  0  0  0  0
  6 30  1  0  0  0  0
  7 31  1  0  0  0  0
  7 32  1  0  0  0  0
  8 23  1  0  0  0  0
  8  9  1  0  0  0  0
  9 10  1  0  0  0  0
  9 33  1  0  0  0  0
  9 34  1  0  0  0  0
 10 11  1  0  0  0  0
 10 23  1  0  0  0  0
 10 35  1  0  0  0  0
 11 12  2  0  0  0  0
 11 13  2  0  0  0  0
 11 14  1  0  0  0  0
 14 15  1  0  0  0  0
 15 16  1  0  0  0  0
 15 36  1  0  0  0  0
 15 37  1  0  0  0  0
 16 17  1  0  0  0  0
 16 38  1  0  0  0  0
 16 39  1  0  0  0  0
 17 22  1  0  0  0  0
 17 18  2  0  0  0  0
 18 19  1  0  0  0  0
 18 40  1  0  0  0  0
 19 20  2  0  0  0  0
 19 41  1  0  0  0  0
 20 21  1  0  0  0  0
 20 42  1  0  0  0  0
 21 22  2  0  0  0  0
 22 43  1  0  0  0  0
 23 44  1  0  0  0  0
 23 45  1  0  0  0  0
M  CHG  1  14  -1
M  END
> <s_m_source_file>
AV-unprocessed.smi

> <i_m_source_file_index>
2504

> <i_lp_mmshare_version>
43012

> <i_f3d_flags>
0

> <s_epik_input>
W0NIMl0xW0NIMl1bQ0gyXVtDSDJdW0NIXTFDKD1PKU4yW0NIMl1bQ0hdKFtDSDJdMilTKD1PKSg9TylbTkhdW0NIMl1bQ0gyXWMzW2NIXVtjSF1bY0hdbltjSF0z

> <s_epik_cmdline>
J2VwaWtfcHl0aG9uJywgJy1waCcsICc3LjAnLCAnLXRuJywgJzgnLCAnLW1hJywgJzIwMCcsICctbWV0YWxfYmluZGluZycsICctaW1hZScsICc8aW5maWxlLm1hZT4nLCAnLW9tYWUnLCAnPG91dGZpbGUubWFlPic=

> <r_epik_Ionization_Penalty>
5.82897

> <r_epik_Ionization_Penalty_Charging>
5.8024

> <r_epik_Ionization_Penalty_Neutral>
0.0265674

> <r_epik_State_Penalty>
5.81059

> <r_epik_Charging_Adjusted_Penalty>
11.613

> <i_epik_Tot_Q>
-1

> <i_epik_Tot_abs_Q>
1

> <r_epik_Metal_State_Penalty>
1.79017

> <b_epik_Metal_Only>
1

> <s_lp_Force_Field>
OPLS_2005

> <r_lp_Energy>
30.9789

> <b_lp_Chiralities_Consistent>
1

> <s_lp_Variant>
AV-unprocessed.smi:2504-3

> <Gold.Version>
5.8.1

> <Gold.Id.Protein>
6NUR|6NUR_protein|mol2

> <Gold.PLP.Fitness>
42.5204

> <Gold.PLP.PLP>
-32.0561

> <Gold.PLP.part.hbond>
-3.0000

> <Gold.PLP.part.metal>
0.0000

> <Gold.PLP.part.buried>
-2.8493

> <Gold.PLP.part.nonpolar>
-26.1999

> <Gold.PLP.part.repulsive>
0.2272

> <Gold.PLP.ligand.clash>
0.0000

> <Gold.PLP.ligand.torsion>
1.6243

> <Gold.PLP.Chemscore.Hbond>
2.6960

> <Gold.PLP.Chemscore.CHOScore>
1.0000

> <Gold.PLP.Chemscore.Metal>
0.0000

> <Gold.Chemscore.Hbonds>
donor molecule, donor type, donor heavy atom, donor atom, acceptor molecule, acceptor atom, score
      P1  H  6896  6907       L1    13  0.54
      P1  H  7997  8010       L1     1  1.00
      L1  C    22    43       P1  7948  1.00

> <Gold.PLP.Chemscore.Internal.Correction>
2.6249

> <Gold.Rescore>
     Score         DG    S(hbond)    S(metal)    S(lipo)     H(rot)  DE(clash)    DE(int)     intcor
     16.48     -18.52       2.32        0.00      80.57       1.61       0.41       1.63       ----

> <Gold.Chemscore.Fitness>
16.4788

> <Gold.Chemscore.DG>
-18.5191

> <Gold.Chemscore.ZeroCoef>
-5.4800

> <Gold.Chemscore.Hbond>
2.3165

> <Gold.Chemscore.Metal>
0.0000

> <Gold.Chemscore.Lipo>
80.5656

> <Gold.Chemscore.Internal_Hbond>
0.0000

> <Gold.Chemscore.DEClash>
0.4115

> <Gold.Chemscore.DEInternal>
1.6288

> <Gold.Chemscore.Rot>
1.6110

> <Gold.Chemscore.Internal.Correction>
   9.000000E+99

> <Gold.Chemscore.Hbonds>
donor molecule, donor type, donor heavy atom, donor atom, acceptor molecule, acceptor atom, score
      P1  H  6896  6907       L1    13  0.41
      P1  H  7997  8010       L1     1  1.00
      P1  H 10752 10765       L1    12  0.04

> <Gold.Chemscore.Hbond.Weighted>
-7.7372

> <Gold.Chemscore.Metal.Weighted>
-0.0000

> <Gold.Chemscore.Lipo.Weighted>
-9.4262

> <Gold.Chemscore.Internal_Hbond.Weighted>
0.0000

> <Gold.Chemscore.DEClash.Weighted>
0.4115

> <Gold.Chemscore.DEInternal.Weighted>
1.6288

> <Gold.Chemscore.Rot.Weighted>
4.1243

> <Gold.Chemscore.Internal.Correction.Weighted>
   9.000000E+99

> <Gold.Protein.RotatedTorsions>
[ 6907 6896 6895 6894 ] final  -91.91 input  -60.11 | X-H torsion
[ 7974 7965 7964 7962 ] final  147.42 input  175.53 | X-H torsion
[ 8008 7997 7996 7995 ] final   72.45 input   59.86 | X-H torsion
[ 10167 10162 10161 10158 ] final  -63.11 input  -65.29 | X-H torsion
[ 10718 10713 10712 10709 ] final   82.92 input   66.30 | X-H torsion
[ 10763 10752 10751 10750 ] final -148.57 input  -60.55 | X-H torsion
[ 11005 11000 10999 10996 ] final  -20.13 input  -57.11 | X-H torsion

> <Gold.Protein.ActiveResidues>
 VAL166  LYS551  ARG553  GLY616  TRP617  ASP618  TYR619  PRO620  LYS621  CYS622 
 ASP623  PHE694  ASN695  SER759  ASP760  ASP761  ALA762  ILE779  LEU786  VAL792 
 PHE793  MET794  SER795  GLU796  ALA797  LYS798  CYS799  TRP800  GLU811  SER814 

> <Gold.Protein.RotatedAtoms>
  150.6899  134.2203  159.4393 H   0  0  0  0  0  0  0  0  0  0  0  0  # atno 6907 bound_to 6896
  152.0160  134.9847  160.0578 H   0  0  0  0  0  0  0  0  0  0  0  0  # atno 6908 bound_to 6896
  152.1443  133.4448  159.4819 H   0  0  0  0  0  0  0  0  0  0  0  0  # atno 6909 bound_to 6896
  144.8593  139.6026  143.5938 H   0  0  0  0  0  0  0  0  0  0  0  0  # atno 7974 bound_to 7965
  155.7691  140.3485  155.5237 H   0  0  0  0  0  0  0  0  0  0  0  0  # atno 8008 bound_to 7997
  155.8839  140.1006  157.1486 H   0  0  0  0  0  0  0  0  0  0  0  0  # atno 8009 bound_to 7997
  154.4027  140.1317  156.4219 H   0  0  0  0  0  0  0  0  0  0  0  0  # atno 8010 bound_to 7997
  140.5893  143.2339  151.6174 H   0  0  0  0  0  0  0  0  0  0  0  0  # atno 10167 bound_to 10162
  157.6868  131.0068  150.2446 H   0  0  0  0  0  0  0  0  0  0  0  0  # atno 10718 bound_to 10713
  154.8226  135.3331  154.6994 H   0  0  0  0  0  0  0  0  0  0  0  0  # atno 10763 bound_to 10752
  153.7625  135.6931  153.4927 H   0  0  0  0  0  0  0  0  0  0  0  0  # atno 10764 bound_to 10752
  153.2100  135.4485  155.0318 H   0  0  0  0  0  0  0  0  0  0  0  0  # atno 10765 bound_to 10752
  140.8435  133.7909  155.9886 H   0  0  0  0  0  0  0  0  0  0  0  0  # atno 11005 bound_to 11000
  146.2848  139.6974  142.9203 LP  0  0  0  0  0  0  0  0  0  0  0  0  # atno 17320 bound_to 7965
  145.4343  141.0417  143.2893 LP  0  0  0  0  0  0  0  0  0  0  0  0  # atno 17321 bound_to 7965
  139.5217  144.3184  152.0932 LP  0  0  0  0  0  0  0  0  0  0  0  0  # atno 17342 bound_to 10162
  140.2346  144.4333  150.6285 LP  0  0  0  0  0  0  0  0  0  0  0  0  # atno 17343 bound_to 10162
  156.3054  130.3764  149.7711 LP  0  0  0  0  0  0  0  0  0  0  0  0  # atno 17370 bound_to 10713
  156.5328  130.8265  151.3243 LP  0  0  0  0  0  0  0  0  0  0  0  0  # atno 17371 bound_to 10713
  140.8869  134.2542  157.5115 LP  0  0  0  0  0  0  0  0  0  0  0  0  # atno 17394 bound_to 11000
  139.8703  134.9643  156.4489 LP  0  0  0  0  0  0  0  0  0  0  0  0  # atno 17395 bound_to 11000

$$$$
