AV-unprocessed.smi:2386|AV-procd|sdf|9467|dock1
  -GOLD-   2272013 93D 1   1.00000     0.00000
 Structure written by MMmdl.
 43 44  0  0  0  0  0  0  0  0  2 V2000
  153.2372  141.4515  160.5619 C   0  0  0  0  0  0  0  0  0  0  0  0
  152.6120  142.5833  159.7739 C   0  0  0  0  0  0  0  0  0  0  0  0
  152.7968  143.9250  160.1611 C   0  0  0  0  0  0  0  0  0  0  0  0
  152.1902  144.9285  159.3849 C   0  0  0  0  0  0  0  0  0  0  0  0
  151.4305  144.5516  158.2606 C   0  0  0  0  0  0  0  0  0  0  0  0
  151.2949  143.1821  157.9405 C   0  0  0  0  0  0  0  0  0  0  0  0
  150.5119  142.9087  156.7876 N   0  0  0  0  0  0  0  0  0  0  0  0
  150.3733  141.7419  156.1338 C   0  0  0  0  0  0  0  0  0  0  0  0
  150.9127  140.6799  156.4458 O   0  0  0  0  0  0  0  0  0  0  0  0
  149.5530  141.8709  155.0810 N   0  0  0  0  0  0  0  0  0  0  0  0
  149.1945  140.7996  154.1565 C   0  0  0  0  0  0  0  0  0  0  0  0
  148.0492  139.9101  154.6783 C   0  0  0  0  0  0  0  0  0  0  0  0
  146.7773  139.9636  153.8107 C   0  0  0  0  0  0  0  0  0  0  0  0
  145.9358  141.1465  154.1198 N   0  3  0  0  0  0  0  0  0  0  0  0
  145.5139  141.1875  155.5405 C   0  0  0  0  0  0  0  0  0  0  0  0
  144.6059  142.4014  155.7991 C   0  0  0  0  0  0  0  0  0  0  0  0
  145.2878  143.5936  155.4315 O   0  0  0  0  0  0  0  0  0  0  0  0
  145.6210  143.6098  154.0492 C   0  0  0  0  0  0  0  0  0  0  0  0
  146.5604  142.4348  153.7285 C   0  0  0  0  0  0  0  0  0  0  0  0
  151.8820  142.2214  158.6967 N   0  0  0  0  0  0  0  0  0  0  0  0
  153.7940  141.8273  161.4207 H   0  0  0  0  0  0  0  0  0  0  0  0
  153.9244  140.8861  159.9320 H   0  0  0  0  0  0  0  0  0  0  0  0
  152.4664  140.7723  160.9269 H   0  0  0  0  0  0  0  0  0  0  0  0
  153.3871  144.1818  161.0285 H   0  0  0  0  0  0  0  0  0  0  0  0
  152.3054  145.9702  159.6459 H   0  0  0  0  0  0  0  0  0  0  0  0
  150.9593  145.3104  157.6531 H   0  0  0  0  0  0  0  0  0  0  0  0
  150.0026  143.6958  156.4145 H   0  0  0  0  0  0  0  0  0  0  0  0
  149.1586  142.7816  154.8954 H   0  0  0  0  0  0  0  0  0  0  0  0
  148.9035  141.2555  153.2098 H   0  0  0  0  0  0  0  0  0  0  0  0
  150.0748  140.1904  153.9449 H   0  0  0  0  0  0  0  0  0  0  0  0
  148.4204  138.8873  154.7351 H   0  0  0  0  0  0  0  0  0  0  0  0
  147.8019  140.1944  155.7019 H   0  0  0  0  0  0  0  0  0  0  0  0
  147.0772  140.0126  152.7632 H   0  0  0  0  0  0  0  0  0  0  0  0
  146.1924  139.0491  153.9199 H   0  0  0  0  0  0  0  0  0  0  0  0
  144.9786  140.2721  155.7955 H   0  0  0  0  0  0  0  0  0  0  0  0
  146.3944  141.2352  156.1829 H   0  0  0  0  0  0  0  0  0  0  0  0
  143.6712  142.3154  155.2427 H   0  0  0  0  0  0  0  0  0  0  0  0
  144.3437  142.4562  156.8556 H   0  0  0  0  0  0  0  0  0  0  0  0
  144.7152  143.5617  153.4429 H   0  0  0  0  0  0  0  0  0  0  0  0
  146.1100  144.5555  153.8156 H   0  0  0  0  0  0  0  0  0  0  0  0
  147.5046  142.5606  154.2608 H   0  0  0  0  0  0  0  0  0  0  0  0
  146.7918  142.4400  152.6639 H   0  0  0  0  0  0  0  0  0  0  0  0
  145.0889  141.0490  153.5778 H   0  0  0  0  0  0  0  0  0  0  0  0
  1  2  1  0  0  0  0
  1 21  1  0  0  0  0
  1 22  1  0  0  0  0
  1 23  1  0  0  0  0
  2 20  1  0  0  0  0
  2  3  2  0  0  0  0
  3  4  1  0  0  0  0
  3 24  1  0  0  0  0
  4  5  2  0  0  0  0
  4 25  1  0  0  0  0
  5  6  1  0  0  0  0
  5 26  1  0  0  0  0
  6  7  1  0  0  0  0
  6 20  2  0  0  0  0
  7  8  1  0  0  0  0
  7 27  1  0  0  0  0
  8  9  2  0  0  0  0
  8 10  1  0  0  0  0
 10 11  1  0  0  0  0
 10 28  1  0  0  0  0
 11 12  1  0  0  0  0
 11 29  1  0  0  0  0
 11 30  1  0  0  0  0
 12 13  1  0  0  0  0
 12 31  1  0  0  0  0
 12 32  1  0  0  0  0
 13 14  1  0  0  0  0
 13 33  1  0  0  0  0
 13 34  1  0  0  0  0
 14 19  1  0  0  0  0
 14 15  1  0  0  0  0
 14 43  1  0  0  0  0
 15 16  1  0  0  0  0
 15 35  1  0  0  0  0
 15 36  1  0  0  0  0
 16 17  1  0  0  0  0
 16 37  1  0  0  0  0
 16 38  1  0  0  0  0
 17 18  1  0  0  0  0
 18 19  1  0  0  0  0
 18 39  1  0  0  0  0
 18 40  1  0  0  0  0
 19 41  1  0  0  0  0
 19 42  1  0  0  0  0
M  CHG  1  14   1
M  END
> <s_m_source_file>
AV-unprocessed.smi

> <i_m_source_file_index>
2386

> <i_lp_mmshare_version>
43012

> <i_f3d_flags>
0

> <s_epik_input>
W0NIM11jMVtjSF1bY0hdW2NIXWMobjEpW05IXUMoPU8pW05IXVtDSDJdW0NIMl1bQ0gyXU4yW0NIMl1bQ0gyXU9bQ0gyXVtDSDJdMg==

> <s_epik_cmdline>
J2VwaWtfcHl0aG9uJywgJy1waCcsICc3LjAnLCAnLXRuJywgJzgnLCAnLW1hJywgJzIwMCcsICctbWV0YWxfYmluZGluZycsICctaW1hZScsICc8aW5maWxlLm1hZT4nLCAnLW9tYWUnLCAnPG91dGZpbGUubWFlPic=

> <r_epik_Ionization_Penalty>
0.270568

> <r_epik_Ionization_Penalty_Charging>
0.270496

> <r_epik_Ionization_Penalty_Neutral>
7.21828e-05

> <r_epik_State_Penalty>
0.262618

> <r_epik_Charging_Adjusted_Penalty>
0.533114

> <i_epik_Tot_Q>
1

> <i_epik_Tot_abs_Q>
1

> <r_epik_Metal_State_Penalty>
0.26262

> <b_epik_Metal_Only>
0

> <s_lp_Force_Field>
OPLS_2005

> <r_lp_Energy>
18.5564

> <b_lp_Chiralities_Consistent>
1

> <s_lp_Variant>
AV-unprocessed.smi:2386-1

> <Gold.Version>
5.8.1

> <Gold.Id.Protein>
6NUR|6NUR_protein|mol2

> <Gold.PLP.Fitness>
53.2391

> <Gold.PLP.PLP>
-42.7545

> <Gold.PLP.part.hbond>
-3.0000

> <Gold.PLP.part.metal>
0.0000

> <Gold.PLP.part.buried>
-5.8143

> <Gold.PLP.part.nonpolar>
-33.7282

> <Gold.PLP.part.repulsive>
0.4430

> <Gold.PLP.ligand.clash>
0.0000

> <Gold.PLP.ligand.torsion>
0.6875

> <Gold.PLP.Chemscore.Hbond>
3.9280

> <Gold.PLP.Chemscore.CHOScore>
0.0000

> <Gold.PLP.Chemscore.Metal>
0.0000

> <Gold.Chemscore.Hbonds>
donor molecule, donor type, donor heavy atom, donor atom, acceptor molecule, acceptor atom, score
      L1  H     7    27       P1  8028  1.00
      L1  H    10    28       P1  8028  0.79
      L1  H    14    43       P1 10175  2.00

> <Gold.PLP.Chemscore.Internal.Correction>
0.0756

> <Gold.Rescore>
     Score         DG    S(hbond)    S(metal)    S(lipo)     H(rot)  DE(clash)    DE(int)     intcor
     19.53     -21.70       2.79        0.00      97.45       1.76       0.18       1.98       ----

> <Gold.Chemscore.Fitness>
19.5341

> <Gold.Chemscore.DG>
-21.6963

> <Gold.Chemscore.ZeroCoef>
-5.4800

> <Gold.Chemscore.Hbond>
2.7900

> <Gold.Chemscore.Metal>
0.0000

> <Gold.Chemscore.Lipo>
97.4507

> <Gold.Chemscore.Internal_Hbond>
0.0000

> <Gold.Chemscore.DEClash>
0.1812

> <Gold.Chemscore.DEInternal>
1.9810

> <Gold.Chemscore.Rot>
1.7593

> <Gold.Chemscore.Internal.Correction>
   9.000000E+99

> <Gold.Chemscore.Hbonds>
donor molecule, donor type, donor heavy atom, donor atom, acceptor molecule, acceptor atom, score
      L1  H     7    27       P1  8028  1.00
      L1  H    10    28       P1  8028  0.75
      L1  H    14    43       P1 10175  0.65

> <Gold.Chemscore.Hbond.Weighted>
-9.3185

> <Gold.Chemscore.Metal.Weighted>
-0.0000

> <Gold.Chemscore.Lipo.Weighted>
-11.4017

> <Gold.Chemscore.Internal_Hbond.Weighted>
0.0000

> <Gold.Chemscore.DEClash.Weighted>
0.1812

> <Gold.Chemscore.DEInternal.Weighted>
1.9810

> <Gold.Chemscore.Rot.Weighted>
4.5039

> <Gold.Chemscore.Internal.Correction.Weighted>
   9.000000E+99

> <Gold.Protein.RotatedTorsions>
[ 6907 6896 6895 6894 ] final  173.16 input  -60.11 | X-H torsion
[ 7974 7965 7964 7962 ] final  -34.71 input  175.53 | X-H torsion
[ 8008 7997 7996 7995 ] final -163.09 input   59.86 | X-H torsion
[ 10167 10162 10161 10158 ] final -146.28 input  -65.29 | X-H torsion
[ 10718 10713 10712 10709 ] final -110.88 input   66.30 | X-H torsion
[ 10763 10752 10751 10750 ] final  114.24 input  -60.55 | X-H torsion
[ 11005 11000 10999 10996 ] final -139.43 input  -57.11 | X-H torsion

> <Gold.Protein.ActiveResidues>
 VAL166  LYS551  ARG553  GLY616  TRP617  ASP618  TYR619  PRO620  LYS621  CYS622 
 ASP623  PHE694  ASN695  SER759  ASP760  ASP761  ALA762  ILE779  LEU786  VAL792 
 PHE793  MET794  SER795  GLU796  ALA797  LYS798  CYS799  TRP800  GLU811  SER814 

> <Gold.Protein.RotatedAtoms>
  151.7727  133.3342  159.3448 H   0  0  0  0  0  0  0  0  0  0  0  0  # atno 6907 bound_to 6896
  150.7455  134.6003  159.6043 H   0  0  0  0  0  0  0  0  0  0  0  0  # atno 6908 bound_to 6896
  152.3330  134.7236  160.0336 H   0  0  0  0  0  0  0  0  0  0  0  0  # atno 6909 bound_to 6896
  146.0807  140.6071  142.8909 H   0  0  0  0  0  0  0  0  0  0  0  0  # atno 7974 bound_to 7965
  155.8162  140.0913  157.1875 H   0  0  0  0  0  0  0  0  0  0  0  0  # atno 8008 bound_to 7997
  154.3979  140.1445  156.3505 H   0  0  0  0  0  0  0  0  0  0  0  0  # atno 8009 bound_to 7997
  155.8314  140.3442  155.5577 H   0  0  0  0  0  0  0  0  0  0  0  0  # atno 8010 bound_to 7997
  139.7728  143.8213  152.2627 H   0  0  0  0  0  0  0  0  0  0  0  0  # atno 10167 bound_to 10162
  156.0616  130.5838  150.8298 H   0  0  0  0  0  0  0  0  0  0  0  0  # atno 10718 bound_to 10713
  153.5044  135.3631  155.2556 H   0  0  0  0  0  0  0  0  0  0  0  0  # atno 10763 bound_to 10752
  154.8746  135.4007  154.3441 H   0  0  0  0  0  0  0  0  0  0  0  0  # atno 10764 bound_to 10752
  153.4083  135.7077  153.6443 H   0  0  0  0  0  0  0  0  0  0  0  0  # atno 10765 bound_to 10752
  140.8520  134.2274  157.4755 H   0  0  0  0  0  0  0  0  0  0  0  0  # atno 11005 bound_to 11000
  144.7291  140.4617  143.6951 LP  0  0  0  0  0  0  0  0  0  0  0  0  # atno 17320 bound_to 7965
  145.6223  139.1525  143.3015 LP  0  0  0  0  0  0  0  0  0  0  0  0  # atno 17321 bound_to 7965
  139.8253  144.7278  150.9520 LP  0  0  0  0  0  0  0  0  0  0  0  0  # atno 17342 bound_to 10162
  140.7815  143.4121  151.0976 LP  0  0  0  0  0  0  0  0  0  0  0  0  # atno 17343 bound_to 10162
  157.5628  131.0946  150.9534 LP  0  0  0  0  0  0  0  0  0  0  0  0  # atno 17370 bound_to 10713
  156.9768  130.5512  149.5294 LP  0  0  0  0  0  0  0  0  0  0  0  0  # atno 17371 bound_to 10713
  139.8704  134.9688  156.4643 LP  0  0  0  0  0  0  0  0  0  0  0  0  # atno 17394 bound_to 11000
  140.8779  133.7939  155.9435 LP  0  0  0  0  0  0  0  0  0  0  0  0  # atno 17395 bound_to 11000

$$$$
