#       Name:                AV-unprocessed.smi:1668
#       Creating user name   scv26
#       Creation time:       Fri Mar 27 07:39:53 2020


#       File generated by GOLD software.
#

@<TRIPOS>MOLECULE
AV-unprocessed.smi:1668
    52    54     1
SMALL
NO_CHARGES


@<TRIPOS>ATOM
      1 ****        -3.7873  -3.4271  -1.3441 C.3            1 S1                 0.0000
      2 ****        -2.3680  -3.4283  -1.2977 O.3            1 S1                 0.0000
      3 ****        -1.7139  -2.2226  -1.4317 C.ar           1 S1                 0.0000
      4 ****        -2.3638  -0.9802  -1.6183 C.ar           1 S1                 0.0000
      5 ****        -1.6153   0.2051  -1.7360 C.ar           1 S1                 0.0000
      6 ****        -0.2005   0.1808  -1.6712 C.ar           1 S1                 0.0000
      7 ****         0.5775   1.3170  -1.7599 O.3            1 S1                 0.0000
      8 ****        -0.0634   2.5816  -1.6882 C.3            1 S1                 0.0000
      9 ****         0.4546  -1.0629  -1.4925 C.ar           1 S1                 0.0000
     10 ****         1.9776  -1.1358  -1.3732 C.3            1 S1                 0.0000
     11 ****         2.5209  -2.2673  -2.0235 O.3            1 S1                 0.0000
     12 ****         2.4587  -1.1482   0.0953 C.3            1 S1                 0.0000
     13 ****         2.0168   0.0345   0.8355 N.am           1 S1                 0.0000
     14 ****         2.5821   1.2642   0.7855 C.2            1 S1                 0.0000
     15 ****         3.5864   1.5710   0.1433 O.2            1 S1                 0.0000
     16 ****         1.8288   2.1033   1.5333 N.am           1 S1                 0.0000
     17 ****         2.0407   3.5332   1.7219 C.3            1 S1                 0.0000
     18 ****         0.7425   1.3966   2.0644 C.ar           1 S1                 0.0000
     19 ****        -0.3274   1.8200   2.8714 C.ar           1 S1                 0.0000
     20 ****        -1.2904   0.8478   3.2295 C.ar           1 S1                 0.0000
     21 ****        -1.1687  -0.4942   2.7846 C.ar           1 S1                 0.0000
     22 ****        -0.0806  -0.8929   1.9740 C.ar           1 S1                 0.0000
     23 ****         0.8624   0.0926   1.6322 C.ar           1 S1                 0.0000
     24 ****        -0.3078  -2.2461  -1.3723 C.ar           1 S1                 0.0000
     25 ****        -4.1520  -4.4470  -1.2229 H              1 S1                 0.0000
     26 ****        -4.1544  -3.0574  -2.3024 H              1 S1                 0.0000
     27 ****        -4.2123  -2.8274  -0.5379 H              1 S1                 0.0000
     28 ****        -3.4393  -0.9075  -1.6713 H              1 S1                 0.0000
     29 ****        -2.1565   1.1282  -1.8752 H              1 S1                 0.0000
     30 ****         0.6946   3.3643  -1.6611 H              1 S1                 0.0000
     31 ****        -0.6619   2.6737  -0.7805 H              1 S1                 0.0000
     32 ****        -0.6934   2.7614  -2.5600 H              1 S1                 0.0000
     33 ****         2.4175  -0.2760  -1.8788 H              1 S1                 0.0000
     34 ****         2.3269  -2.2031  -2.9462 H              1 S1                 0.0000
     35 ****         2.1061  -2.0482   0.5998 H              1 S1                 0.0000
     36 ****         3.5485  -1.1970   0.1287 H              1 S1                 0.0000
     37 ****         1.8689   3.8122   2.7619 H              1 S1                 0.0000
     38 ****         1.3502   4.0990   1.0960 H              1 S1                 0.0000
     39 ****         3.0575   3.8303   1.4614 H              1 S1                 0.0000
     40 ****        -0.4158   2.8441   3.2021 H              1 S1                 0.0000
     41 ****        -2.1297   1.1309   3.8474 H              1 S1                 0.0000
     42 ****        -1.9173  -1.2201   3.0661 H              1 S1                 0.0000
     43 ****         0.0110  -1.9115   1.6276 H              1 S1                 0.0000
     44 ****         0.1900  -3.1921  -1.2163 H              1 S1                 0.0000
     45 ****        -2.0472  -4.0238  -2.0342 LP             1 S1                 0.0000
     46 ****        -2.0999  -3.8152  -0.4155 LP             1 S1                 0.0000
     47 ****         1.0582   1.2784  -2.6360 LP             1 S1                 0.0000
     48 ****         1.2417   1.2794  -1.0133 LP             1 S1                 0.0000
     49 ****         2.1125  -3.1000  -1.6497 LP             1 S1                 0.0000
     50 ****         3.5113  -2.2916  -1.8876 LP             1 S1                 0.0000
     51 ****         4.0593   0.8812  -0.4050 LP             1 S1                 0.0000
     52 ****         3.9293   2.5099   0.1698 LP             1 S1                 0.0000
@<TRIPOS>BOND
    1    1    2 1     
    2    1   25 1     
    3    1   26 1     
    4    1   27 1     
    5    2    3 1     
    6    3   24 ar    
    7    3    4 ar    
    8    4    5 ar    
    9    4   28 1     
   10    5    6 ar    
   11    5   29 1     
   12    6    7 1     
   13    6    9 ar    
   14    7    8 1     
   15    8   30 1     
   16    8   31 1     
   17    8   32 1     
   18    9   10 1     
   19    9   24 ar    
   20   10   11 1     
   21   10   12 1     
   22   10   33 1     
   23   11   34 1     
   24   12   13 1     
   25   12   35 1     
   26   12   36 1     
   27   13   23 1     
   28   13   14 am    
   29   14   15 2     
   30   14   16 am    
   31   16   17 1     
   32   16   18 1     
   33   17   37 1     
   34   17   38 1     
   35   17   39 1     
   36   18   23 ar    
   37   18   19 ar    
   38   19   20 ar    
   39   19   40 1     
   40   20   21 ar    
   41   20   41 1     
   42   21   22 ar    
   43   21   42 1     
   44   22   23 ar    
   45   22   43 1     
   46   24   44 1     
   47    2   45 1     
   48    2   46 1     
   49    7   47 1     
   50    7   48 1     
   51   11   49 1     
   52   11   50 1     
   53   15   51 1     
   54   15   52 1     
@<TRIPOS>SUBSTRUCTURE
      1 S1             1
@<TRIPOS>SET
LONE_PAIRS      STATIC     ATOMS    <user>   **** ""
8 45 46 47 48 49 50 51 52
DONOR_HYDROGENS      STATIC     ATOMS    <user>   **** ""
1 34
ATOM$BLUE        STATIC     ATOMS    COLORGROUP SYSTEM
8 45 46 47 48 49 50 51 52
ATOM$RED        STATIC     ATOMS    COLORGROUP SYSTEM
1 34
