AV-unprocessed.smi:2988|AV-procd|sdf|11388|dock2
  -GOLD-   2272016313D 1   1.00000     0.00000
 Structure written by MMmdl.
 37 38  0  0  0  0  0  0  0  0  1 V2000
  152.0074  144.3595  157.1339 C   0  0  0  0  0  0  0  0  0  0  0  0
  152.7467  143.9331  158.4142 C   0  0  1  0  0  0  0  0  0  0  0  0
  151.9863  144.3840  159.6802 C   0  0  0  0  0  0  0  0  0  0  0  0
  152.7431  144.0017  160.9624 C   0  0  0  0  0  0  0  0  0  0  0  0
  153.0451  142.4963  161.0091 C   0  0  0  0  0  0  0  0  0  0  0  0
  153.8025  142.0411  159.7491 C   0  0  0  0  0  0  0  0  0  0  0  0
  153.0494  142.4145  158.4537 C   0  0  1  0  0  0  0  0  0  0  0  0
  151.8132  141.6463  158.3409 N   0  0  0  0  0  0  0  0  0  0  0  0
  151.5479  140.6702  157.4577 C   0  0  0  0  0  0  0  0  0  0  0  0
  152.3387  140.3279  156.5796 O   0  0  0  0  0  0  0  0  0  0  0  0
  150.1916  139.9516  157.5774 C   0  0  0  0  0  0  0  0  0  0  0  0
  149.1610  140.4347  156.6412 N   0  0  0  0  0  0  0  0  0  0  0  0
  149.4740  140.2357  155.3077 N   0  0  0  0  0  0  0  0  0  0  0  0
  148.6753  140.6736  154.3964 C   0  0  0  0  0  0  0  0  0  0  0  0
  147.4490  141.3702  154.7169 C   0  0  0  0  0  0  0  0  0  0  0  0
  146.4214  141.9433  153.4509 Cl  0  0  0  0  0  0  0  0  0  0  0  0
  147.1452  141.5491  156.0270 C   0  0  0  0  0  0  0  0  0  0  0  0
  145.6989  142.3787  156.4891 Cl  0  0  0  0  0  0  0  0  0  0  0  0
  148.0293  141.0591  157.0930 C   0  0  0  0  0  0  0  0  0  0  0  0
  147.7938  141.2097  158.2924 O   0  0  0  0  0  0  0  0  0  0  0  0
  151.0093  143.9236  157.0778 H   0  0  0  0  0  0  0  0  0  0  0  0
  152.5565  144.0520  156.2436 H   0  0  0  0  0  0  0  0  0  0  0  0
  151.8945  145.4432  157.0918 H   0  0  0  0  0  0  0  0  0  0  0  0
  153.7063  144.4521  158.4106 H   0  0  0  0  0  0  0  0  0  0  0  0
  151.8347  145.4636  159.6581 H   0  0  0  0  0  0  0  0  0  0  0  0
  150.9910  143.9375  159.6984 H   0  0  0  0  0  0  0  0  0  0  0  0
  153.6776  144.5621  161.0146 H   0  0  0  0  0  0  0  0  0  0  0  0
  152.1606  144.2907  161.8376 H   0  0  0  0  0  0  0  0  0  0  0  0
  153.6314  142.2633  161.8983 H   0  0  0  0  0  0  0  0  0  0  0  0
  152.1126  141.9382  161.1034 H   0  0  0  0  0  0  0  0  0  0  0  0
  154.7880  142.5080  159.7370 H   0  0  0  0  0  0  0  0  0  0  0  0
  153.9804  140.9659  159.7910 H   0  0  0  0  0  0  0  0  0  0  0  0
  153.6847  142.1702  157.6001 H   0  0  0  0  0  0  0  0  0  0  0  0
  151.0975  141.8580  159.0208 H   0  0  0  0  0  0  0  0  0  0  0  0
  150.3633  138.8846  157.4245 H   0  0  0  0  0  0  0  0  0  0  0  0
  149.8367  140.0416  158.6055 H   0  0  0  0  0  0  0  0  0  0  0  0
  148.8823  140.5442  153.3338 H   0  0  0  0  0  0  0  0  0  0  0  0
  1  2  1  0  0  0  0
  1 21  1  0  0  0  0
  1 22  1  0  0  0  0
  1 23  1  0  0  0  0
  2  7  1  0  0  0  0
  2  3  1  0  0  0  0
  2 24  1  0  0  0  0
  3  4  1  0  0  0  0
  3 25  1  0  0  0  0
  3 26  1  0  0  0  0
  4  5  1  0  0  0  0
  4 27  1  0  0  0  0
  4 28  1  0  0  0  0
  5  6  1  0  0  0  0
  5 29  1  0  0  0  0
  5 30  1  0  0  0  0
  6  7  1  0  0  0  0
  6 31  1  0  0  0  0
  6 32  1  0  0  0  0
  7  8  1  0  0  0  0
  7 33  1  0  0  0  0
  8  9  1  0  0  0  0
  8 34  1  0  0  0  0
  9 10  2  0  0  0  0
  9 11  1  0  0  0  0
 11 12  1  0  0  0  0
 11 35  1  0  0  0  0
 11 36  1  0  0  0  0
 12 19  1  0  0  0  0
 12 13  1  0  0  0  0
 13 14  2  0  0  0  0
 14 15  1  0  0  0  0
 14 37  1  0  0  0  0
 15 16  1  0  0  0  0
 15 17  2  0  0  0  0
 17 18  1  0  0  0  0
 17 19  1  0  0  0  0
 19 20  2  0  0  0  0
M  END
> <s_m_source_file>
AV-unprocessed.smi

> <i_m_source_file_index>
2988

> <i_lp_mmshare_version>
43012

> <i_f3d_flags>
0

> <s_epik_input>
W0NIM11bQ0BASF0xW0NIMl1bQ0gyXVtDSDJdW0NIMl1bQ0BIXTFbTkhdQyg9TylbQ0gyXW4ybltjSF1jKENsKWMoQ2wpYzI9Tw==

> <s_epik_cmdline>
J2VwaWtfcHl0aG9uJywgJy1waCcsICc3LjAnLCAnLXRuJywgJzgnLCAnLW1hJywgJzIwMCcsICctbWV0YWxfYmluZGluZycsICctaW1hZScsICc8aW5maWxlLm1hZT4nLCAnLW9tYWUnLCAnPG91dGZpbGUubWFlPic=

> <r_lp_tautomer_probability>
1

> <r_epik_Ionization_Penalty>
1.90782e-08

> <r_epik_Ionization_Penalty_Charging>
3.13143e-11

> <r_epik_Ionization_Penalty_Neutral>
1.90469e-08

> <r_epik_State_Penalty>
-0

> <r_epik_Charging_Adjusted_Penalty>
3.13143e-11

> <i_epik_Tot_Q>
0

> <i_epik_Tot_abs_Q>
0

> <r_epik_Metal_State_Penalty>
-0

> <b_epik_Metal_Only>
0

> <s_lp_Force_Field>
OPLS_2005

> <r_lp_Energy>
22.2561

> <b_lp_Chiralities_Consistent>
1

> <s_lp_Variant>
AV-unprocessed.smi:2988-2

> <Gold.Version>
5.8.1

> <Gold.Id.Protein>
6NUR|6NUR_protein|mol2

> <Gold.PLP.Fitness>
48.2355

> <Gold.PLP.PLP>
-43.1928

> <Gold.PLP.part.hbond>
-2.0000

> <Gold.PLP.part.metal>
0.0000

> <Gold.PLP.part.buried>
-4.6277

> <Gold.PLP.part.nonpolar>
-35.4760

> <Gold.PLP.part.repulsive>
0.1978

> <Gold.PLP.ligand.clash>
0.0000

> <Gold.PLP.ligand.torsion>
0.3862

> <Gold.PLP.Chemscore.Hbond>
0.9357

> <Gold.PLP.Chemscore.CHOScore>
1.0000

> <Gold.PLP.Chemscore.Metal>
0.0000

> <Gold.Chemscore.Hbonds>
donor molecule, donor type, donor heavy atom, donor atom, acceptor molecule, acceptor atom, score
      P1  H  7997  8008       L1    10  0.96
      L1  C    14    37       P1  7957  1.00

> <Gold.PLP.Chemscore.Internal.Correction>
0.0080

> <Gold.Rescore>
     Score         DG    S(hbond)    S(metal)    S(lipo)     H(rot)  DE(clash)    DE(int)     intcor
     15.42     -17.41       0.62        0.00     117.00       1.50       1.56       0.43       ----

> <Gold.Chemscore.Fitness>
15.4158

> <Gold.Chemscore.DG>
-17.4066

> <Gold.Chemscore.ZeroCoef>
-5.4800

> <Gold.Chemscore.Hbond>
0.6203

> <Gold.Chemscore.Metal>
0.0000

> <Gold.Chemscore.Lipo>
116.9993

> <Gold.Chemscore.Internal_Hbond>
0.0000

> <Gold.Chemscore.DEClash>
1.5578

> <Gold.Chemscore.DEInternal>
0.4330

> <Gold.Chemscore.Rot>
1.4977

> <Gold.Chemscore.Internal.Correction>
   9.000000E+99

> <Gold.Chemscore.Hbonds>
donor molecule, donor type, donor heavy atom, donor atom, acceptor molecule, acceptor atom, score
      P1  H  7997  8008       L1    10  0.86

> <Gold.Chemscore.Hbond.Weighted>
-2.0717

> <Gold.Chemscore.Metal.Weighted>
-0.0000

> <Gold.Chemscore.Lipo.Weighted>
-13.6889

> <Gold.Chemscore.Internal_Hbond.Weighted>
0.0000

> <Gold.Chemscore.DEClash.Weighted>
1.5578

> <Gold.Chemscore.DEInternal.Weighted>
0.4330

> <Gold.Chemscore.Rot.Weighted>
3.8341

> <Gold.Chemscore.Internal.Correction.Weighted>
   9.000000E+99

> <Gold.Protein.RotatedTorsions>
[ 6907 6896 6895 6894 ] final -179.30 input  -60.11 | X-H torsion
[ 7974 7965 7964 7962 ] final  -44.71 input  175.53 | X-H torsion
[ 8008 7997 7996 7995 ] final  -57.23 input   59.86 | X-H torsion
[ 10167 10162 10161 10158 ] final   54.94 input  -65.29 | X-H torsion
[ 10718 10713 10712 10709 ] final  -69.15 input   66.30 | X-H torsion
[ 10763 10752 10751 10750 ] final   89.19 input  -60.55 | X-H torsion
[ 11005 11000 10999 10996 ] final  -96.96 input  -57.11 | X-H torsion

> <Gold.Protein.ActiveResidues>
 VAL166  LYS551  ARG553  GLY616  TRP617  ASP618  TYR619  PRO620  LYS621  CYS622 
 ASP623  PHE694  ASN695  SER759  ASP760  ASP761  ALA762  ILE779  LEU786  VAL792 
 PHE793  MET794  SER795  GLU796  ALA797  LYS798  CYS799  TRP800  GLU811  SER814 

> <Gold.Protein.RotatedAtoms>
  151.6512  133.3321  159.3152 H   0  0  0  0  0  0  0  0  0  0  0  0  # atno 6907 bound_to 6896
  150.7959  134.7022  159.6566 H   0  0  0  0  0  0  0  0  0  0  0  0  # atno 6908 bound_to 6896
  152.4046  134.6233  160.0108 H   0  0  0  0  0  0  0  0  0  0  0  0  # atno 6909 bound_to 6896
  145.9893  140.7198  142.9325 H   0  0  0  0  0  0  0  0  0  0  0  0  # atno 7974 bound_to 7965
  154.4260  140.1111  156.5764 H   0  0  0  0  0  0  0  0  0  0  0  0  # atno 8008 bound_to 7997
  155.6158  140.3494  155.4617 H   0  0  0  0  0  0  0  0  0  0  0  0  # atno 8009 bound_to 7997
  156.0063  140.1209  157.0487 H   0  0  0  0  0  0  0  0  0  0  0  0  # atno 8010 bound_to 7997
  140.2248  144.3750  150.6437 H   0  0  0  0  0  0  0  0  0  0  0  0  # atno 10167 bound_to 10162
  156.0469  130.4307  150.2105 H   0  0  0  0  0  0  0  0  0  0  0  0  # atno 10718 bound_to 10713
  153.1846  135.4479  155.0072 H   0  0  0  0  0  0  0  0  0  0  0  0  # atno 10763 bound_to 10752
  154.8052  135.3271  154.7452 H   0  0  0  0  0  0  0  0  0  0  0  0  # atno 10764 bound_to 10752
  153.7913  135.6970  153.4926 H   0  0  0  0  0  0  0  0  0  0  0  0  # atno 10765 bound_to 10752
  141.1394  133.8136  157.0642 H   0  0  0  0  0  0  0  0  0  0  0  0  # atno 11005 bound_to 11000
  144.6884  140.3042  143.7258 LP  0  0  0  0  0  0  0  0  0  0  0  0  # atno 17320 bound_to 7965
  145.7654  139.1839  143.2243 LP  0  0  0  0  0  0  0  0  0  0  0  0  # atno 17321 bound_to 7965
  140.6229  143.2178  151.6657 LP  0  0  0  0  0  0  0  0  0  0  0  0  # atno 17342 bound_to 10162
  139.5131  144.3454  152.0702 LP  0  0  0  0  0  0  0  0  0  0  0  0  # atno 17343 bound_to 10162
  157.0194  130.9975  151.3344 LP  0  0  0  0  0  0  0  0  0  0  0  0  # atno 17370 bound_to 10713
  157.5355  130.8086  149.7967 LP  0  0  0  0  0  0  0  0  0  0  0  0  # atno 17371 bound_to 10713
  140.0552  134.9784  157.1207 LP  0  0  0  0  0  0  0  0  0  0  0  0  # atno 17394 bound_to 11000
  140.3930  134.2164  155.7165 LP  0  0  0  0  0  0  0  0  0  0  0  0  # atno 17395 bound_to 11000

$$$$
