AV-unprocessed.smi:99|AV-procd|sdf|871|dock1
  -GOLD-   2262017333D 1   1.00000     0.00000
 Structure written by MMmdl.
 53 56  0  0  0  0  0  0  0  0  1 V2000
  148.7405  130.8907  159.7480 O   0  0  0  0  0  0  0  0  0  0  0  0
  149.0307  132.0792  159.5960 C   0  0  0  0  0  0  0  0  0  0  0  0
  149.6387  132.5630  158.4950 O   0  0  0  0  0  0  0  0  0  0  0  0
  149.9484  131.6943  157.4180 C   0  0  0  0  0  0  0  0  0  0  0  0
  150.4620  132.5187  156.2335 C   0  0  2  0  0  0  0  0  0  0  0  0
  151.2478  133.6024  156.7023 O   0  0  0  0  0  0  0  0  0  0  0  0
  151.2559  134.6105  155.7422 C   0  0  2  0  0  0  0  0  0  0  0  0
  151.2506  135.9374  156.4698 N   0  0  0  0  0  0  0  0  0  0  0  0
  150.9227  135.9979  157.8174 C   0  0  0  0  0  0  0  0  0  0  0  0
  150.9119  137.1524  158.5246 C   0  0  0  0  0  0  0  0  0  0  0  0
  151.2557  138.4165  157.8814 C   0  0  0  0  0  0  0  0  0  0  0  0
  151.2770  139.5122  158.4379 O   0  0  0  0  0  0  0  0  0  0  0  0
  151.5756  138.3090  156.5245 N   0  0  0  0  0  0  0  0  0  0  0  0
  151.5871  137.1254  155.7840 C   0  0  0  0  0  0  0  0  0  0  0  0
  151.8735  137.1533  154.5877 O   0  0  0  0  0  0  0  0  0  0  0  0
  150.0298  134.4071  154.8231 C   0  0  2  0  0  0  0  0  0  0  0  0
  149.1416  135.5087  154.7603 O   0  0  0  0  0  0  0  0  0  0  0  0
  149.3409  133.1972  155.4455 C   0  0  1  0  0  0  0  0  0  0  0  0
  148.8674  132.3117  154.4379 O   0  0  0  0  0  0  0  0  0  0  0  0
  147.9033  132.7004  153.5760 C   0  0  0  0  0  0  0  0  0  0  0  0
  147.5312  133.8684  153.4489 O   0  0  0  0  0  0  0  0  0  0  0  0
  147.3388  131.5677  152.7875 C   0  0  0  0  0  0  0  0  0  0  0  0
  147.8299  130.2594  153.0059 C   0  0  0  0  0  0  0  0  0  0  0  0
  147.3121  129.1684  152.2812 C   0  0  0  0  0  0  0  0  0  0  0  0
  146.2958  129.3722  151.3299 C   0  0  0  0  0  0  0  0  0  0  0  0
  145.7984  130.6689  151.1033 C   0  0  0  0  0  0  0  0  0  0  0  0
  146.3161  131.7616  151.8262 C   0  0  0  0  0  0  0  0  0  0  0  0
  148.7458  133.1327  160.6129 C   0  0  0  0  0  0  0  0  0  0  0  0
  148.7476  134.4919  160.2213 C   0  0  0  0  0  0  0  0  0  0  0  0
  148.4832  135.5091  161.1591 C   0  0  0  0  0  0  0  0  0  0  0  0
  148.2145  135.1795  162.5003 C   0  0  0  0  0  0  0  0  0  0  0  0
  148.2103  133.8312  162.9027 C   0  0  0  0  0  0  0  0  0  0  0  0
  148.4743  132.8126  161.9662 C   0  0  0  0  0  0  0  0  0  0  0  0
  151.8153  139.1606  156.0379 H   0  0  0  0  0  0  0  0  0  0  0  0
  150.7171  130.9913  157.7417 H   0  0  0  0  0  0  0  0  0  0  0  0
  149.0720  131.1141  157.1257 H   0  0  0  0  0  0  0  0  0  0  0  0
  151.0720  131.9078  155.5651 H   0  0  0  0  0  0  0  0  0  0  0  0
  152.1972  134.5327  155.1962 H   0  0  0  0  0  0  0  0  0  0  0  0
  150.6549  135.0857  158.3317 H   0  0  0  0  0  0  0  0  0  0  0  0
  150.6466  137.1410  159.5720 H   0  0  0  0  0  0  0  0  0  0  0  0
  150.3980  134.1772  153.8222 H   0  0  0  0  0  0  0  0  0  0  0  0
  148.9336  135.6765  153.8535 H   0  0  0  0  0  0  0  0  0  0  0  0
  148.5563  133.5103  156.1369 H   0  0  0  0  0  0  0  0  0  0  0  0
  148.6094  130.0774  153.7319 H   0  0  0  0  0  0  0  0  0  0  0  0
  147.6953  128.1739  152.4567 H   0  0  0  0  0  0  0  0  0  0  0  0
  145.8977  128.5350  150.7754 H   0  0  0  0  0  0  0  0  0  0  0  0
  145.0173  130.8261  150.3741 H   0  0  0  0  0  0  0  0  0  0  0  0
  145.9099  132.7429  151.6296 H   0  0  0  0  0  0  0  0  0  0  0  0
  148.9514  134.7699  159.1971 H   0  0  0  0  0  0  0  0  0  0  0  0
  148.4868  136.5435  160.8484 H   0  0  0  0  0  0  0  0  0  0  0  0
  148.0120  135.9595  163.2194 H   0  0  0  0  0  0  0  0  0  0  0  0
  148.0045  133.5773  163.9321 H   0  0  0  0  0  0  0  0  0  0  0  0
  148.4641  131.7883  162.3089 H   0  0  0  0  0  0  0  0  0  0  0  0
  1  2  2  0  0  0  0
  2  3  1  0  0  0  0
  2 28  1  0  0  0  0
  3  4  1  0  0  0  0
  4  5  1  0  0  0  0
  4 35  1  0  0  0  0
  4 36  1  0  0  0  0
  5 18  1  0  0  0  0
  5  6  1  0  0  0  0
  5 37  1  0  0  0  0
  6  7  1  0  0  0  0
  7  8  1  0  0  0  0
  7 16  1  0  0  0  0
  7 38  1  0  0  0  0
  8 14  1  0  0  0  0
  8  9  1  0  0  0  0
  9 10  2  0  0  0  0
  9 39  1  0  0  0  0
 10 11  1  0  0  0  0
 10 40  1  0  0  0  0
 11 12  2  0  0  0  0
 11 13  1  0  0  0  0
 13 34  1  0  0  0  0
 13 14  1  0  0  0  0
 14 15  2  0  0  0  0
 16 17  1  0  0  0  0
 16 18  1  0  0  0  0
 16 41  1  0  0  0  0
 17 42  1  0  0  0  0
 18 19  1  0  0  0  0
 18 43  1  0  0  0  0
 19 20  1  0  0  0  0
 20 21  2  0  0  0  0
 20 22  1  0  0  0  0
 22 27  1  0  0  0  0
 22 23  2  0  0  0  0
 23 24  1  0  0  0  0
 23 44  1  0  0  0  0
 24 25  2  0  0  0  0
 24 45  1  0  0  0  0
 25 26  1  0  0  0  0
 25 46  1  0  0  0  0
 26 27  2  0  0  0  0
 26 47  1  0  0  0  0
 27 48  1  0  0  0  0
 28 33  1  0  0  0  0
 28 29  2  0  0  0  0
 29 30  1  0  0  0  0
 29 49  1  0  0  0  0
 30 31  2  0  0  0  0
 30 50  1  0  0  0  0
 31 32  1  0  0  0  0
 31 51  1  0  0  0  0
 32 33  2  0  0  0  0
 32 52  1  0  0  0  0
 33 53  1  0  0  0  0
M  END
> <s_m_source_file>
AV-unprocessed.smi

> <i_m_source_file_index>
99

> <i_lp_mmshare_version>
43012

> <i_f3d_flags>
0

> <s_epik_input>
W2NIXTFbY0hdW2NIXVtjSF1bY0hdYzFDKD1PKU9bQ0gyXVtDQEBIXTJPW0NAQEhdKG4zW2NIXVtjSF1jKD1PKVtuSF1jMz1PKVtDQEBIXShbT0hdKVtDQEhdMk9DKD1PKWM0W2NIXVtjSF1bY0hdW2NIXVtjSF00

> <s_epik_cmdline>
J2VwaWtfcHl0aG9uJywgJy1waCcsICc3LjAnLCAnLXRuJywgJzgnLCAnLW1hJywgJzIwMCcsICctbWV0YWxfYmluZGluZycsICctaW1hZScsICc8aW5maWxlLm1hZT4nLCAnLW9tYWUnLCAnPG91dGZpbGUubWFlPic=

> <r_lp_tautomer_probability>
1

> <r_epik_Ionization_Penalty>
0.00454555

> <r_epik_Ionization_Penalty_Charging>
0.0045191

> <r_epik_Ionization_Penalty_Neutral>
2.64449e-05

> <r_epik_State_Penalty>
-0

> <r_epik_Charging_Adjusted_Penalty>
0.0045191

> <i_epik_Tot_Q>
0

> <i_epik_Tot_abs_Q>
0

> <r_epik_Metal_State_Penalty>
1.27877

> <b_epik_Metal_Only>
0

> <s_epik_Chemistry_Notes>
This compound has an ester and may undergo hydrolysis at high or low pH. This compound contains an acetal/aminal-like group ( X-CH(R)-Y where X, Y are N, S, or O) that may be acid/base labile, releasing an aldehyde.

> <s_lp_Force_Field>
OPLS_2005

> <r_lp_Energy>
38.4241

> <b_lp_Chiralities_Consistent>
1

> <s_lp_Variant>
AV-unprocessed.smi:99-7

> <Gold.Version>
5.8.1

> <Gold.Id.Protein>
6NUR|6NUR_protein|mol2

> <Gold.PLP.Fitness>
55.2018

> <Gold.PLP.PLP>
-49.4322

> <Gold.PLP.part.hbond>
-4.0000

> <Gold.PLP.part.metal>
0.0000

> <Gold.PLP.part.buried>
-8.4018

> <Gold.PLP.part.nonpolar>
-39.4695

> <Gold.PLP.part.repulsive>
0.8437

> <Gold.PLP.ligand.clash>
0.0000

> <Gold.PLP.ligand.torsion>
0.9106

> <Gold.PLP.Chemscore.Hbond>
2.3754

> <Gold.PLP.Chemscore.CHOScore>
0.0000

> <Gold.PLP.Chemscore.Metal>
0.0000

> <Gold.Chemscore.Hbonds>
donor molecule, donor type, donor heavy atom, donor atom, acceptor molecule, acceptor atom, score
      L1  H    17    42       P1  7948  0.96
      P1  H 10752 10765       L1    15  1.00

> <Gold.PLP.Chemscore.Internal.Correction>
0.4644

> <Gold.Rescore>
     Score         DG    S(hbond)    S(metal)    S(lipo)     H(rot)  DE(clash)    DE(int)     intcor
     16.27     -20.00       2.55        0.00     121.04       3.19       0.12       3.60       ----

> <Gold.Chemscore.Fitness>
16.2677

> <Gold.Chemscore.DG>
-19.9954

> <Gold.Chemscore.ZeroCoef>
-5.4800

> <Gold.Chemscore.Hbond>
2.5513

> <Gold.Chemscore.Metal>
0.0000

> <Gold.Chemscore.Lipo>
121.0361

> <Gold.Chemscore.Internal_Hbond>
0.0000

> <Gold.Chemscore.DEClash>
0.1229

> <Gold.Chemscore.DEInternal>
3.6048

> <Gold.Chemscore.Rot>
3.1903

> <Gold.Chemscore.Internal.Correction>
   9.000000E+99

> <Gold.Chemscore.Hbonds>
donor molecule, donor type, donor heavy atom, donor atom, acceptor molecule, acceptor atom, score
      L1  H    17    42       P1  7948  0.84
      P1  H 10752 10765       L1    15  0.48

> <Gold.Chemscore.Hbond.Weighted>
-8.5212

> <Gold.Chemscore.Metal.Weighted>
-0.0000

> <Gold.Chemscore.Lipo.Weighted>
-14.1612

> <Gold.Chemscore.Internal_Hbond.Weighted>
0.0000

> <Gold.Chemscore.DEClash.Weighted>
0.1229

> <Gold.Chemscore.DEInternal.Weighted>
3.6048

> <Gold.Chemscore.Rot.Weighted>
8.1671

> <Gold.Chemscore.Internal.Correction.Weighted>
   9.000000E+99

> <Gold.Protein.RotatedTorsions>
[ 6907 6896 6895 6894 ] final  122.15 input  -60.11 | X-H torsion
[ 7974 7965 7964 7962 ] final  129.21 input  175.53 | X-H torsion
[ 8008 7997 7996 7995 ] final   -1.44 input   59.86 | X-H torsion
[ 10167 10162 10161 10158 ] final -139.19 input  -65.29 | X-H torsion
[ 10718 10713 10712 10709 ] final  -54.81 input   66.30 | X-H torsion
[ 10763 10752 10751 10750 ] final  164.25 input  -60.55 | X-H torsion
[ 11005 11000 10999 10996 ] final  179.12 input  -57.11 | X-H torsion

> <Gold.Protein.ActiveResidues>
 VAL166  LYS551  ARG553  GLY616  TRP617  ASP618  TYR619  PRO620  LYS621  CYS622 
 ASP623  PHE694  ASN695  SER759  ASP760  ASP761  ALA762  ILE779  LEU786  VAL792 
 PHE793  MET794  SER795  GLU796  ALA797  LYS798  CYS799  TRP800  GLU811  SER814 

> <Gold.Protein.RotatedAtoms>
  152.4265  133.7204  159.6529 H   0  0  0  0  0  0  0  0  0  0  0  0  # atno 6907 bound_to 6896
  150.8142  133.8356  159.3174 H   0  0  0  0  0  0  0  0  0  0  0  0  # atno 6908 bound_to 6896
  151.6057  135.1046  160.0122 H   0  0  0  0  0  0  0  0  0  0  0  0  # atno 6909 bound_to 6896
  145.0312  139.4045  143.5149 H   0  0  0  0  0  0  0  0  0  0  0  0  # atno 7974 bound_to 7965
  154.6467  140.2559  155.7260 H   0  0  0  0  0  0  0  0  0  0  0  0  # atno 8008 bound_to 7997
  156.2555  140.2876  156.0805 H   0  0  0  0  0  0  0  0  0  0  0  0  # atno 8009 bound_to 7997
  155.1513  140.0382  157.2812 H   0  0  0  0  0  0  0  0  0  0  0  0  # atno 8010 bound_to 7997
  139.8404  143.7329  152.2663 H   0  0  0  0  0  0  0  0  0  0  0  0  # atno 10167 bound_to 10162
  156.1419  130.4154  150.0088 H   0  0  0  0  0  0  0  0  0  0  0  0  # atno 10718 bound_to 10713
  154.3061  135.2758  155.2588 H   0  0  0  0  0  0  0  0  0  0  0  0  # atno 10763 bound_to 10752
  154.5004  135.5810  153.6530 H   0  0  0  0  0  0  0  0  0  0  0  0  # atno 10764 bound_to 10752
  152.9894  135.6156  154.3235 H   0  0  0  0  0  0  0  0  0  0  0  0  # atno 10765 bound_to 10752
  140.4027  134.6763  157.4571 H   0  0  0  0  0  0  0  0  0  0  0  0  # atno 11005 bound_to 11000
  146.3498  139.9862  142.8690 LP  0  0  0  0  0  0  0  0  0  0  0  0  # atno 17320 bound_to 7965
  145.1768  140.9748  143.4289 LP  0  0  0  0  0  0  0  0  0  0  0  0  # atno 17321 bound_to 7965
  139.7564  144.7519  151.0428 LP  0  0  0  0  0  0  0  0  0  0  0  0  # atno 17342 bound_to 10162
  140.7798  143.4800  151.0030 LP  0  0  0  0  0  0  0  0  0  0  0  0  # atno 17343 bound_to 10162
  156.7971  130.9277  151.3646 LP  0  0  0  0  0  0  0  0  0  0  0  0  # atno 17370 bound_to 10713
  157.6583  130.8944  149.9776 LP  0  0  0  0  0  0  0  0  0  0  0  0  # atno 17371 bound_to 10713
  140.0325  134.6386  155.9088 LP  0  0  0  0  0  0  0  0  0  0  0  0  # atno 17394 bound_to 11000
  141.1851  133.6554  156.5183 LP  0  0  0  0  0  0  0  0  0  0  0  0  # atno 17395 bound_to 11000

$$$$
