AV-unprocessed.smi:497|AV-procd|sdf|2725|dock9
  -GOLD-   2262023173D 1   1.00000     0.00000
 Structure written by MMmdl.
 40 42  0  0  0  0  0  0  0  0  2 V2000
  147.8459  141.7164  153.8397 C   0  0  0  0  0  0  0  0  0  0  0  0
  149.2320  141.4342  153.9142 O   0  0  0  0  0  0  0  0  0  0  0  0
  149.5648  140.6344  155.0377 C   0  0  0  0  0  0  0  0  0  0  0  0
  149.2335  141.3969  156.3280 C   0  0  0  0  0  0  0  0  0  0  0  0
  150.0290  140.9262  157.4721 N   0  0  0  0  0  0  0  0  0  0  0  0
  150.0256  139.7271  158.1252 C   0  0  0  0  0  0  0  0  0  0  0  0
  149.1746  138.5317  157.8274 C   0  0  0  0  0  0  0  0  0  0  0  0
  148.4309  138.0623  158.9899 N   0  0  0  0  0  0  0  0  0  0  0  0
  148.4168  136.7972  159.4383 C   0  0  0  0  0  0  0  0  0  0  0  0
  149.0478  135.8831  158.9083 O   0  0  0  0  0  0  0  0  0  0  0  0
  147.5767  136.5453  160.6245 C   0  0  0  0  0  0  0  0  0  0  0  0
  147.1235  135.3790  161.1839 C   0  0  0  0  0  0  0  0  0  0  0  0
  146.3447  135.7461  162.3162 C   0  0  0  0  0  0  0  0  0  0  0  0
  146.3755  137.1102  162.3669 C   0  0  0  0  0  0  0  0  0  0  0  0
  147.1182  137.6116  161.3429 O   0  0  0  0  0  0  0  0  0  0  0  0
  150.9532  139.8092  159.1210 N   0  3  0  0  0  0  0  0  0  0  0  0
  151.5488  141.0706  159.1107 C   0  0  0  0  0  0  0  0  0  0  0  0
  152.5339  141.6201  159.9255 C   0  0  0  0  0  0  0  0  0  0  0  0
  152.9156  142.9492  159.6481 C   0  0  0  0  0  0  0  0  0  0  0  0
  152.3243  143.6786  158.5961 C   0  0  0  0  0  0  0  0  0  0  0  0
  151.3275  143.1099  157.7759 C   0  0  0  0  0  0  0  0  0  0  0  0
  150.9573  141.7949  158.0559 C   0  0  0  0  0  0  0  0  0  0  0  0
  147.6434  142.3270  152.9596 H   0  0  0  0  0  0  0  0  0  0  0  0
  147.5084  142.2688  154.7177 H   0  0  0  0  0  0  0  0  0  0  0  0
  147.2604  140.7999  153.7555 H   0  0  0  0  0  0  0  0  0  0  0  0
  149.0073  139.6969  155.0100 H   0  0  0  0  0  0  0  0  0  0  0  0
  150.6264  140.3830  155.0134 H   0  0  0  0  0  0  0  0  0  0  0  0
  149.4297  142.4603  156.1948 H   0  0  0  0  0  0  0  0  0  0  0  0
  148.1742  141.3139  156.5723 H   0  0  0  0  0  0  0  0  0  0  0  0
  148.4604  138.7988  157.0484 H   0  0  0  0  0  0  0  0  0  0  0  0
  149.7816  137.7229  157.4199 H   0  0  0  0  0  0  0  0  0  0  0  0
  147.8749  138.7450  159.4841 H   0  0  0  0  0  0  0  0  0  0  0  0
  147.3259  134.3806  160.8248 H   0  0  0  0  0  0  0  0  0  0  0  0
  145.8276  135.0952  163.0056 H   0  0  0  0  0  0  0  0  0  0  0  0
  145.9449  137.8470  163.0291 H   0  0  0  0  0  0  0  0  0  0  0  0
  152.9872  141.0637  160.7329 H   0  0  0  0  0  0  0  0  0  0  0  0
  153.6763  143.4191  160.2549 H   0  0  0  0  0  0  0  0  0  0  0  0
  152.6413  144.6954  158.4144 H   0  0  0  0  0  0  0  0  0  0  0  0
  150.8797  143.6777  156.9738 H   0  0  0  0  0  0  0  0  0  0  0  0
  151.1599  139.0542  159.7620 H   0  0  0  0  0  0  0  0  0  0  0  0
  1  2  1  0  0  0  0
  1 23  1  0  0  0  0
  1 24  1  0  0  0  0
  1 25  1  0  0  0  0
  2  3  1  0  0  0  0
  3  4  1  0  0  0  0
  3 26  1  0  0  0  0
  3 27  1  0  0  0  0
  4  5  1  0  0  0  0
  4 28  1  0  0  0  0
  4 29  1  0  0  0  0
  5 22  1  0  0  0  0
  5  6  1  0  0  0  0
  6  7  1  0  0  0  0
  6 16  2  0  0  0  0
  7  8  1  0  0  0  0
  7 30  1  0  0  0  0
  7 31  1  0  0  0  0
  8  9  1  0  0  0  0
  8 32  1  0  0  0  0
  9 10  2  0  0  0  0
  9 11  1  0  0  0  0
 11 15  1  0  0  0  0
 11 12  2  0  0  0  0
 12 13  1  0  0  0  0
 12 33  1  0  0  0  0
 13 14  2  0  0  0  0
 13 34  1  0  0  0  0
 14 15  1  0  0  0  0
 14 35  1  0  0  0  0
 16 17  1  0  0  0  0
 16 40  1  0  0  0  0
 17 22  2  0  0  0  0
 17 18  1  0  0  0  0
 18 19  2  0  0  0  0
 18 36  1  0  0  0  0
 19 20  1  0  0  0  0
 19 37  1  0  0  0  0
 20 21  2  0  0  0  0
 20 38  1  0  0  0  0
 21 22  1  0  0  0  0
 21 39  1  0  0  0  0
M  CHG  1  16   1
M  END
> <s_m_source_file>
AV-unprocessed.smi

> <i_m_source_file_index>
497

> <i_lp_mmshare_version>
43012

> <i_f3d_flags>
0

> <s_epik_input>
W2NIXTFbY0hdW2NIXVtjSF1jKGMxMiluKFtDSDJdW0NIMl1PW0NIM10pYyhuMilbQ0gyXVtOSF1DKD1PKWMzW2NIXVtjSF1bY0hdbzM=

> <s_epik_cmdline>
J2VwaWtfcHl0aG9uJywgJy1waCcsICc3LjAnLCAnLXRuJywgJzgnLCAnLW1hJywgJzIwMCcsICctbWV0YWxfYmluZGluZycsICctaW1hZScsICc8aW5maWxlLm1hZT4nLCAnLW9tYWUnLCAnPG91dGZpbGUubWFlPic=

> <r_epik_Ionization_Penalty>
1.26486

> <r_epik_Ionization_Penalty_Charging>
1.26483

> <r_epik_Ionization_Penalty_Neutral>
2.77772e-05

> <r_epik_State_Penalty>
1.33577

> <r_epik_Charging_Adjusted_Penalty>
2.6006

> <i_epik_Tot_Q>
1

> <i_epik_Tot_abs_Q>
1

> <r_epik_Metal_State_Penalty>
1.44158

> <b_epik_Metal_Only>
0

> <s_lp_Force_Field>
OPLS_2005

> <r_lp_Energy>
9.51778

> <b_lp_Chiralities_Consistent>
1

> <s_lp_Variant>
AV-unprocessed.smi:497-2

> <Gold.Version>
5.8.1

> <Gold.Id.Protein>
6NUR|6NUR_protein|mol2

> <Gold.PLP.Fitness>
57.2160

> <Gold.PLP.PLP>
-47.3867

> <Gold.PLP.part.hbond>
-5.0000

> <Gold.PLP.part.metal>
0.0000

> <Gold.PLP.part.buried>
-6.3856

> <Gold.PLP.part.nonpolar>
-37.2091

> <Gold.PLP.part.repulsive>
0.5831

> <Gold.PLP.ligand.clash>
0.0000

> <Gold.PLP.ligand.torsion>
0.3264

> <Gold.PLP.Chemscore.Hbond>
3.4800

> <Gold.PLP.Chemscore.CHOScore>
0.0000

> <Gold.PLP.Chemscore.Metal>
0.0000

> <Gold.Chemscore.Hbonds>
donor molecule, donor type, donor heavy atom, donor atom, acceptor molecule, acceptor atom, score
      P1  H  6896  6909       L1    10  0.67
      P1  H  6931  6943       L1    15  0.40
      P1  H  6934  6947       L1    15  0.84
      P1  H  8011  8017       L1     2  0.66

> <Gold.PLP.Chemscore.Internal.Correction>
0.0420

> <Gold.Rescore>
     Score         DG    S(hbond)    S(metal)    S(lipo)     H(rot)  DE(clash)    DE(int)     intcor
     21.66     -22.16       2.71        0.00     107.96       1.96       0.01       0.49       ----

> <Gold.Chemscore.Fitness>
21.6616

> <Gold.Chemscore.DG>
-22.1587

> <Gold.Chemscore.ZeroCoef>
-5.4800

> <Gold.Chemscore.Hbond>
2.7119

> <Gold.Chemscore.Metal>
0.0000

> <Gold.Chemscore.Lipo>
107.9620

> <Gold.Chemscore.Internal_Hbond>
0.0000

> <Gold.Chemscore.DEClash>
0.0073

> <Gold.Chemscore.DEInternal>
0.4898

> <Gold.Chemscore.Rot>
1.9573

> <Gold.Chemscore.Internal.Correction>
   9.000000E+99

> <Gold.Chemscore.Hbonds>
donor molecule, donor type, donor heavy atom, donor atom, acceptor molecule, acceptor atom, score
      P1  H  6896  6909       L1    10  0.67
      P1  H  6931  6943       L1    15  0.04
      P1  H  6934  6947       L1    15  0.79
      P1  H  8011  8017       L1     2  0.13

> <Gold.Chemscore.Hbond.Weighted>
-9.0578

> <Gold.Chemscore.Metal.Weighted>
-0.0000

> <Gold.Chemscore.Lipo.Weighted>
-12.6316

> <Gold.Chemscore.Internal_Hbond.Weighted>
0.0000

> <Gold.Chemscore.DEClash.Weighted>
0.0073

> <Gold.Chemscore.DEInternal.Weighted>
0.4898

> <Gold.Chemscore.Rot.Weighted>
5.0107

> <Gold.Chemscore.Internal.Correction.Weighted>
   9.000000E+99

> <Gold.Protein.RotatedTorsions>
[ 6907 6896 6895 6894 ] final   57.72 input  -60.11 | X-H torsion
[ 7974 7965 7964 7962 ] final  141.72 input  175.53 | X-H torsion
[ 8008 7997 7996 7995 ] final   95.06 input   59.86 | X-H torsion
[ 10167 10162 10161 10158 ] final -115.57 input  -65.29 | X-H torsion
[ 10718 10713 10712 10709 ] final  178.82 input   66.30 | X-H torsion
[ 10763 10752 10751 10750 ] final -152.12 input  -60.55 | X-H torsion
[ 11005 11000 10999 10996 ] final  -98.01 input  -57.11 | X-H torsion

> <Gold.Protein.ActiveResidues>
 VAL166  LYS551  ARG553  GLY616  TRP617  ASP618  TYR619  PRO620  LYS621  CYS622 
 ASP623  PHE694  ASN695  SER759  ASP760  ASP761  ALA762  ILE779  LEU786  VAL792 
 PHE793  MET794  SER795  GLU796  ALA797  LYS798  CYS799  TRP800  GLU811  SER814 

> <Gold.Protein.RotatedAtoms>
  152.3757  134.6666  160.0160 H   0  0  0  0  0  0  0  0  0  0  0  0  # atno 6907 bound_to 6896
  151.6945  133.3305  159.3259 H   0  0  0  0  0  0  0  0  0  0  0  0  # atno 6908 bound_to 6896
  150.7708  134.6605  159.6381 H   0  0  0  0  0  0  0  0  0  0  0  0  # atno 6909 bound_to 6896
  144.9071  139.5344  143.5726 H   0  0  0  0  0  0  0  0  0  0  0  0  # atno 7974 bound_to 7965
  156.0647  140.3291  155.7503 H   0  0  0  0  0  0  0  0  0  0  0  0  # atno 8008 bound_to 7997
  155.5400  140.0601  157.2889 H   0  0  0  0  0  0  0  0  0  0  0  0  # atno 8009 bound_to 7997
  154.4499  140.1912  156.0569 H   0  0  0  0  0  0  0  0  0  0  0  0  # atno 8010 bound_to 7997
  140.0886  143.4721  152.1883 H   0  0  0  0  0  0  0  0  0  0  0  0  # atno 10167 bound_to 10162
  156.8849  130.9828  151.3057 H   0  0  0  0  0  0  0  0  0  0  0  0  # atno 10718 bound_to 10713
  154.8014  135.3243  154.7539 H   0  0  0  0  0  0  0  0  0  0  0  0  # atno 10763 bound_to 10752
  153.8207  135.6888  153.4832 H   0  0  0  0  0  0  0  0  0  0  0  0  # atno 10764 bound_to 10752
  153.1734  135.4614  154.9876 H   0  0  0  0  0  0  0  0  0  0  0  0  # atno 10765 bound_to 10752
  141.1359  133.8213  157.0782 H   0  0  0  0  0  0  0  0  0  0  0  0  # atno 11005 bound_to 11000
  146.3139  139.7847  142.8998 LP  0  0  0  0  0  0  0  0  0  0  0  0  # atno 17320 bound_to 7965
  145.3518  141.0309  143.3334 LP  0  0  0  0  0  0  0  0  0  0  0  0  # atno 17321 bound_to 7965
  139.5738  144.7476  151.3820 LP  0  0  0  0  0  0  0  0  0  0  0  0  # atno 17342 bound_to 10162
  140.7040  143.7560  150.7451 LP  0  0  0  0  0  0  0  0  0  0  0  0  # atno 17343 bound_to 10162
  157.6118  130.8589  149.8965 LP  0  0  0  0  0  0  0  0  0  0  0  0  # atno 17370 bound_to 10713
  156.0658  130.3692  150.0881 LP  0  0  0  0  0  0  0  0  0  0  0  0  # atno 17371 bound_to 10713
  140.0468  134.9826  157.1063 LP  0  0  0  0  0  0  0  0  0  0  0  0  # atno 17394 bound_to 11000
  140.4051  134.2041  155.7163 LP  0  0  0  0  0  0  0  0  0  0  0  0  # atno 17395 bound_to 11000

$$$$
