#       Name:                AV-unprocessed.smi:3056
#       Creating user name   scv26
#       Creation time:       Fri Mar 27 17:05:59 2020


#       File generated by GOLD software.
#

@<TRIPOS>MOLECULE
AV-unprocessed.smi:3056
    53    54     1
SMALL
NO_CHARGES


@<TRIPOS>ATOM
      1 ****        -4.4475  -2.7196  -4.8058 C.3            1 S1                 0.0000
      2 ****        -3.4799  -1.7096  -4.2600 C.2            1 S1                 0.0000
      3 ****        -2.4292  -1.0427  -4.9510 C.2            1 S1                 0.0000
      4 ****        -1.7562  -0.2061  -4.1788 N.2            1 S1                 0.0000
      5 ****        -2.3474  -0.3103  -2.9672 N.pl3          1 S1                 0.0000
      6 ****        -1.8672   0.4830  -1.8422 C.3            1 S1                 0.0000
      7 ****        -2.0705   1.9830  -2.1346 C.3            1 S1                 0.0000
      8 ****        -0.3996   0.1416  -1.4647 C.3            1 S1                 0.0000
      9 ****        -0.1417  -1.3758  -1.3371 C.3            1 S1                 0.0000
     10 ****        -0.0992   0.7831  -0.1874 N.3            1 S1                 0.0000
     11 ****         1.3335   1.0621  -0.0187 C.3            1 S1                 0.0000
     12 ****         1.6284   1.6804   1.3527 C.2            1 S1                 0.0000
     13 ****         1.8685   2.8873   1.3960 O.2            1 S1                 0.0000
     14 ****         1.6203   0.9008   2.4617 N.am           1 S1                 0.0000
     15 ****         1.3928  -0.5467   2.5056 C.3            1 S1                 0.0000
     16 ****         2.6862  -1.2207   2.9945 C.3            1 S1                 0.0000
     17 ****         3.0418  -0.7011   4.2739 O.3            1 S1                 0.0000
     18 ****         3.2395   0.7123   4.2779 C.3            1 S1                 0.0000
     19 ****         3.6324   1.1378   5.6970 C.3            1 S1                 0.0000
     20 ****         1.9481   1.4055   3.7978 C.3            1 S1                 0.0000
     21 ****        -3.3916  -1.2114  -2.9911 C.2            1 S1                 0.0000
     22 ****        -4.4932  -2.6894  -5.8946 H              1 S1                 0.0000
     23 ****        -5.4596  -2.5489  -4.4381 H              1 S1                 0.0000
     24 ****        -4.1688  -3.7349  -4.5237 H              1 S1                 0.0000
     25 ****        -2.1386  -1.1404  -5.9866 H              1 S1                 0.0000
     26 ****        -2.5025   0.2251  -0.9927 H              1 S1                 0.0000
     27 ****        -1.8375   2.5973  -1.2649 H              1 S1                 0.0000
     28 ****        -3.1056   2.1901  -2.4078 H              1 S1                 0.0000
     29 ****        -1.4372   2.3206  -2.9558 H              1 S1                 0.0000
     30 ****         0.2516   0.5470  -2.2415 H              1 S1                 0.0000
     31 ****        -0.3151  -1.8937  -2.2803 H              1 S1                 0.0000
     32 ****        -0.7957  -1.8253  -0.5892 H              1 S1                 0.0000
     33 ****         0.8862  -1.5958  -1.0514 H              1 S1                 0.0000
     34 ****        -0.6327   1.6389  -0.1280 H              1 S1                 0.0000
     35 ****         1.9357   0.1644  -0.1540 H              1 S1                 0.0000
     36 ****         1.6541   1.7608  -0.7932 H              1 S1                 0.0000
     37 ****         0.5766  -0.7607   3.1967 H              1 S1                 0.0000
     38 ****         1.0910  -0.9775   1.5532 H              1 S1                 0.0000
     39 ****         2.5426  -2.2978   3.0784 H              1 S1                 0.0000
     40 ****         3.5004  -1.0604   2.2860 H              1 S1                 0.0000
     41 ****         4.0602   0.9561   3.6008 H              1 S1                 0.0000
     42 ****         3.8090   2.2124   5.7498 H              1 S1                 0.0000
     43 ****         4.5459   0.6355   6.0156 H              1 S1                 0.0000
     44 ****         2.8492   0.8914   6.4142 H              1 S1                 0.0000
     45 ****         2.0789   2.4882   3.8201 H              1 S1                 0.0000
     46 ****         1.1232   1.1876   4.4779 H              1 S1                 0.0000
     47 ****        -3.9809  -1.4224  -2.1106 H              1 S1                 0.0000
     48 ****        -0.9827   0.3740  -4.4340 LP             1 S1                 0.0000
     49 ****        -0.3526   0.1553   0.5486 LP             1 S1                 0.0000
     50 ****         1.8665   3.4280   0.5548 LP             1 S1                 0.0000
     51 ****         2.0656   3.3267   2.2724 LP             1 S1                 0.0000
     52 ****         3.8901  -1.1405   4.5697 LP             1 S1                 0.0000
     53 ****         2.3102  -0.9205   4.9194 LP             1 S1                 0.0000
@<TRIPOS>BOND
    1    1    2 1     
    2    1   22 1     
    3    1   23 1     
    4    1   24 1     
    5    2   21 2     
    6    2    3 1     
    7    3    4 2     
    8    3   25 1     
    9    4    5 1     
   10    5    6 1     
   11    5   21 1     
   12    6    7 1     
   13    6    8 1     
   14    6   26 1     
   15    7   27 1     
   16    7   28 1     
   17    7   29 1     
   18    8    9 1     
   19    8   10 1     
   20    8   30 1     
   21    9   31 1     
   22    9   32 1     
   23    9   33 1     
   24   10   11 1     
   25   10   34 1     
   26   11   12 1     
   27   11   35 1     
   28   11   36 1     
   29   12   13 2     
   30   12   14 am    
   31   14   20 1     
   32   14   15 1     
   33   15   16 1     
   34   15   37 1     
   35   15   38 1     
   36   16   17 1     
   37   16   39 1     
   38   16   40 1     
   39   17   18 1     
   40   18   19 1     
   41   18   20 1     
   42   18   41 1     
   43   19   42 1     
   44   19   43 1     
   45   19   44 1     
   46   20   45 1     
   47   20   46 1     
   48   21   47 1     
   49    4   48 1     
   50   10   49 1     
   51   13   50 1     
   52   13   51 1     
   53   17   52 1     
   54   17   53 1     
@<TRIPOS>SUBSTRUCTURE
      1 S1             1
@<TRIPOS>SET
LONE_PAIRS      STATIC     ATOMS    <user>   **** ""
6 48 49 50 51 52 53
DONOR_HYDROGENS      STATIC     ATOMS    <user>   **** ""
1 34
ATOM$BLUE        STATIC     ATOMS    COLORGROUP SYSTEM
6 48 49 50 51 52 53
ATOM$RED        STATIC     ATOMS    COLORGROUP SYSTEM
1 34
