#       Name:                AV-unprocessed.smi:20
#       Creating user name   scv26
#       Creation time:       Thu Mar 26 15:28:02 2020


#       File generated by GOLD software.
#

@<TRIPOS>MOLECULE
AV-unprocessed.smi:20
    67    71     1
SMALL
NO_CHARGES


@<TRIPOS>ATOM
      1 ****        -1.2293   3.7363  -3.7720 O.2            1 S1                 0.0000
      2 ****        -1.0934   4.2190  -2.6504 C.2            1 S1                 0.0000
      3 ****        -2.1143   4.0667  -1.5356 C.3            1 S1                 0.0000
      4 ****        -1.3251   4.4869  -0.2732 C.3            1 S1                 0.0000
      5 ****        -2.1854   5.2497   0.7605 C.3            1 S1                 0.0000
      6 ****        -3.2114   4.3235   1.4348 C.3            1 S1                 0.0000
      7 ****        -2.5260   3.0959   2.0542 C.3            1 S1                 0.0000
      8 ****        -1.6994   2.4157   1.0585 N.3            1 S1                 0.0000
      9 ****        -1.3280   1.1328   1.2952 C.ar           1 S1                 0.0000
     10 ****        -1.2995   0.6590   2.5696 N.ar           1 S1                 0.0000
     11 ****        -0.9232  -0.6001   2.8130 C.ar           1 S1                 0.0000
     12 ****        -0.5426  -1.5401   1.9458 N.ar           1 S1                 0.0000
     13 ****        -0.5782  -1.0731   0.6653 C.ar           1 S1                 0.0000
     14 ****        -0.9570   0.2356   0.2540 C.ar           1 S1                 0.0000
     15 ****        -0.8833   0.3352  -1.1310 N.2            1 S1                 0.0000
     16 ****        -0.4725  -0.8426  -1.5149 C.2            1 S1                 0.0000
     17 ****        -0.2571  -1.7463  -0.4992 N.pl3          1 S1                 0.0000
     18 ****         0.2040  -3.1164  -0.6325 C.3            1 S1                 0.0000
     19 ****         1.6794  -3.3045  -0.1995 C.3            1 S1                 0.0000
     20 ****         2.6391  -2.3186  -0.9094 C.3            1 S1                 0.0000
     21 ****         2.6399  -2.5149  -2.3088 O.3            1 S1                 0.0000
     22 ****         2.1354  -4.7784  -0.3436 C.3            1 S1                 0.0000
     23 ****         1.3302  -5.7752   0.4719 C.3            1 S1                 0.0000
     24 ****         2.2589  -6.9833   0.5126 C.3            1 S1                 0.0000
     25 ****         3.5784  -6.4513   0.5163 O.3            1 S1                 0.0000
     26 ****         3.5465  -5.0674   0.1808 C.3            1 S1                 0.0000
     27 ****        -0.6877   3.2516   0.4121 C.3            1 S1                 0.0000
     28 ****        -0.2079   5.3832  -0.8555 C.3            1 S1                 0.0000
     29 ****        -0.0572   4.9406  -2.2287 N.am           1 S1                 0.0000
     30 ****        -2.9483   4.7407  -1.7349 H              1 S1                 0.0000
     31 ****        -2.5031   3.0492  -1.4849 H              1 S1                 0.0000
     32 ****        -1.5371   5.6783   1.5261 H              1 S1                 0.0000
     33 ****        -2.6965   6.0895   0.2885 H              1 S1                 0.0000
     34 ****        -3.7608   4.8694   2.2020 H              1 S1                 0.0000
     35 ****        -3.9493   3.9969   0.7010 H              1 S1                 0.0000
     36 ****        -1.8993   3.4004   2.8933 H              1 S1                 0.0000
     37 ****        -3.2846   2.4167   2.4457 H              1 S1                 0.0000
     38 ****        -0.9262  -0.8961   3.8516 H              1 S1                 0.0000
     39 ****        -0.3073  -1.0840  -2.5550 H              1 S1                 0.0000
     40 ****        -0.4568  -3.7444  -0.0349 H              1 S1                 0.0000
     41 ****         0.0708  -3.4275  -1.6694 H              1 S1                 0.0000
     42 ****         1.7283  -3.0608   0.8628 H              1 S1                 0.0000
     43 ****         2.3620  -1.2849  -0.7018 H              1 S1                 0.0000
     44 ****         3.6579  -2.4327  -0.5399 H              1 S1                 0.0000
     45 ****         3.2343  -1.8923  -2.6990 H              1 S1                 0.0000
     46 ****         2.0871  -5.0763  -1.3924 H              1 S1                 0.0000
     47 ****         1.1642  -5.3975   1.4819 H              1 S1                 0.0000
     48 ****         0.3610  -6.0115   0.0318 H              1 S1                 0.0000
     49 ****         2.0809  -7.6181   1.3806 H              1 S1                 0.0000
     50 ****         2.1321  -7.5909  -0.3842 H              1 S1                 0.0000
     51 ****         4.3191  -4.8254  -0.5493 H              1 S1                 0.0000
     52 ****         3.7483  -4.4941   1.0866 H              1 S1                 0.0000
     53 ****        -0.0997   2.6863  -0.3102 H              1 S1                 0.0000
     54 ****         0.0142   3.5776   1.1810 H              1 S1                 0.0000
     55 ****        -0.5008   6.4342  -0.8641 H              1 S1                 0.0000
     56 ****         0.7313   5.3033  -0.3072 H              1 S1                 0.0000
     57 ****         0.7452   5.1730  -2.7960 H              1 S1                 0.0000
     58 ****        -0.5207   3.8729  -4.4643 LP             1 S1                 0.0000
     59 ****        -2.0485   3.2069  -3.9926 LP             1 S1                 0.0000
     60 ****        -2.3860   2.2598   0.3484 LP             1 S1                 0.0000
     61 ****        -1.5614   1.2556   3.3282 LP             1 S1                 0.0000
     62 ****        -0.2671  -2.4667   2.2018 LP             1 S1                 0.0000
     63 ****        -1.0963   1.1279  -1.7022 LP             1 S1                 0.0000
     64 ****         1.7182  -2.3730  -2.6698 LP             1 S1                 0.0000
     65 ****         2.9405  -3.4453  -2.5186 LP             1 S1                 0.0000
     66 ****         4.1351  -6.9418  -0.1541 LP             1 S1                 0.0000
     67 ****         3.9777  -6.5623   1.4264 LP             1 S1                 0.0000
@<TRIPOS>BOND
    1    1    2 2     
    2    2   29 am    
    3    2    3 1     
    4    3    4 1     
    5    3   30 1     
    6    3   31 1     
    7    4   27 1     
    8    4    5 1     
    9    4   28 1     
   10    5    6 1     
   11    5   32 1     
   12    5   33 1     
   13    6    7 1     
   14    6   34 1     
   15    6   35 1     
   16    7    8 1     
   17    7   36 1     
   18    7   37 1     
   19    8    9 1     
   20    8   27 1     
   21    9   14 ar    
   22    9   10 ar    
   23   10   11 ar    
   24   11   12 ar    
   25   11   38 1     
   26   12   13 ar    
   27   13   17 1     
   28   13   14 ar    
   29   14   15 1     
   30   15   16 2     
   31   16   17 1     
   32   16   39 1     
   33   17   18 1     
   34   18   19 1     
   35   18   40 1     
   36   18   41 1     
   37   19   20 1     
   38   19   22 1     
   39   19   42 1     
   40   20   21 1     
   41   20   43 1     
   42   20   44 1     
   43   21   45 1     
   44   22   26 1     
   45   22   23 1     
   46   22   46 1     
   47   23   24 1     
   48   23   47 1     
   49   23   48 1     
   50   24   25 1     
   51   24   49 1     
   52   24   50 1     
   53   25   26 1     
   54   26   51 1     
   55   26   52 1     
   56   27   53 1     
   57   27   54 1     
   58   28   29 1     
   59   28   55 1     
   60   28   56 1     
   61   29   57 1     
   62    1   58 1     
   63    1   59 1     
   64    8   60 1     
   65   10   61 1     
   66   12   62 1     
   67   15   63 1     
   68   21   64 1     
   69   21   65 1     
   70   25   66 1     
   71   25   67 1     
@<TRIPOS>SUBSTRUCTURE
      1 S1             1
@<TRIPOS>SET
LONE_PAIRS      STATIC     ATOMS    <user>   **** ""
10 58 59 60 61 62 63 64 65 66 67
DONOR_HYDROGENS      STATIC     ATOMS    <user>   **** ""
2 45 57
ATOM$BLUE        STATIC     ATOMS    COLORGROUP SYSTEM
10 58 59 60 61 62 63 64 65 66 67
ATOM$RED        STATIC     ATOMS    COLORGROUP SYSTEM
2 45 57
