AV-unprocessed.smi:1703|AV-procd|sdf|6862|dock1
  -GOLD-   22720 8 53D 1   1.00000     0.00000
 Structure written by MMmdl.
 49 51  0  0  0  0  0  0  0  0  2 V2000
  146.7486  142.4495  153.9617 C   0  0  0  0  0  0  0  0  0  0  0  0
  147.4737  141.1069  153.8171 C   0  0  1  0  0  0  0  0  0  0  0  0
  147.8628  140.5105  155.1875 C   0  0  0  0  0  0  0  0  0  0  0  0
  148.4439  139.1500  155.0517 N   0  3  2  0  0  0  0  0  0  0  0  0
  149.8647  139.1181  154.6114 C   0  0  0  0  0  0  0  0  0  0  0  0
  150.8502  139.2166  155.7920 C   0  0  1  0  0  0  0  0  0  0  0  0
  152.0733  139.7491  155.3204 O   0  0  0  0  0  0  0  0  0  0  0  0
  150.2940  140.1101  156.9187 C   0  0  0  0  0  0  0  0  0  0  0  0
  151.1632  140.1606  158.0868 N   0  0  0  0  0  0  0  0  0  0  0  0
  151.6361  139.1259  158.8271 C   0  0  0  0  0  0  0  0  0  0  0  0
  151.2991  137.6988  158.5192 C   0  0  0  0  0  0  0  0  0  0  0  0
  151.8454  136.7939  159.4547 O   0  0  0  0  0  0  0  0  0  0  0  0
  152.4187  139.4576  159.8544 N   0  0  0  0  0  0  0  0  0  0  0  0
  152.4532  140.8361  159.7784 C   0  0  0  0  0  0  0  0  0  0  0  0
  153.1143  141.7844  160.5914 C   0  0  0  0  0  0  0  0  0  0  0  0
  153.0012  143.1630  160.3164 C   0  0  0  0  0  0  0  0  0  0  0  0
  152.2277  143.6122  159.2267 C   0  0  0  0  0  0  0  0  0  0  0  0
  151.5606  142.6844  158.4041 C   0  0  0  0  0  0  0  0  0  0  0  0
  151.6763  141.3091  158.6830 C   0  0  0  0  0  0  0  0  0  0  0  0
  147.5509  138.2826  154.2458 C   0  0  0  0  0  0  0  0  0  0  0  0
  147.2051  138.9382  152.8939 C   0  0  1  0  0  0  0  0  0  0  0  0
  146.2206  138.0926  152.0791 C   0  0  0  0  0  0  0  0  0  0  0  0
  146.6046  140.2053  153.1398 O   0  0  0  0  0  0  0  0  0  0  0  0
  147.3777  143.1828  154.4671 H   0  0  0  0  0  0  0  0  0  0  0  0
  145.8292  142.3429  154.5382 H   0  0  0  0  0  0  0  0  0  0  0  0
  146.4838  142.8569  152.9857 H   0  0  0  0  0  0  0  0  0  0  0  0
  148.3638  141.2685  153.2081 H   0  0  0  0  0  0  0  0  0  0  0  0
  148.5433  141.1770  155.7162 H   0  0  0  0  0  0  0  0  0  0  0  0
  146.9717  140.4312  155.8119 H   0  0  0  0  0  0  0  0  0  0  0  0
  150.0639  138.1886  154.0756 H   0  0  0  0  0  0  0  0  0  0  0  0
  150.0509  139.9192  153.8963 H   0  0  0  0  0  0  0  0  0  0  0  0
  151.0530  138.2267  156.1980 H   0  0  0  0  0  0  0  0  0  0  0  0
  152.5037  140.1993  156.0314 H   0  0  0  0  0  0  0  0  0  0  0  0
  150.1455  141.1276  156.5550 H   0  0  0  0  0  0  0  0  0  0  0  0
  149.3095  139.7587  157.2275 H   0  0  0  0  0  0  0  0  0  0  0  0
  150.2177  137.5721  158.4808 H   0  0  0  0  0  0  0  0  0  0  0  0
  151.6795  137.4450  157.5291 H   0  0  0  0  0  0  0  0  0  0  0  0
  152.4625  137.2595  159.9979 H   0  0  0  0  0  0  0  0  0  0  0  0
  153.7094  141.4505  161.4286 H   0  0  0  0  0  0  0  0  0  0  0  0
  153.5105  143.8789  160.9447 H   0  0  0  0  0  0  0  0  0  0  0  0
  152.1466  144.6699  159.0229 H   0  0  0  0  0  0  0  0  0  0  0  0
  150.9686  143.0275  157.5690 H   0  0  0  0  0  0  0  0  0  0  0  0
  148.0012  137.2999  154.1007 H   0  0  0  0  0  0  0  0  0  0  0  0
  146.6348  138.1160  154.8143 H   0  0  0  0  0  0  0  0  0  0  0  0
  148.1110  139.0766  152.3012 H   0  0  0  0  0  0  0  0  0  0  0  0
  146.6373  137.1099  151.8570 H   0  0  0  0  0  0  0  0  0  0  0  0
  145.9850  138.5751  151.1304 H   0  0  0  0  0  0  0  0  0  0  0  0
  145.2847  137.9449  152.6189 H   0  0  0  0  0  0  0  0  0  0  0  0
  148.4539  138.7467  155.9783 H   0  0  0  0  0  0  0  0  0  0  0  0
  1  2  1  0  0  0  0
  1 24  1  0  0  0  0
  1 25  1  0  0  0  0
  1 26  1  0  0  0  0
  2 23  1  0  0  0  0
  2  3  1  0  0  0  0
  2 27  1  0  0  0  0
  3  4  1  0  0  0  0
  3 28  1  0  0  0  0
  3 29  1  0  0  0  0
  4  5  1  0  0  0  0
  4 20  1  0  0  0  0
  4 49  1  0  0  0  0
  5  6  1  0  0  0  0
  5 30  1  0  0  0  0
  5 31  1  0  0  0  0
  6  7  1  0  0  0  0
  6  8  1  0  0  0  0
  6 32  1  0  0  0  0
  7 33  1  0  0  0  0
  8  9  1  0  0  0  0
  8 34  1  0  0  0  0
  8 35  1  0  0  0  0
  9 19  1  0  0  0  0
  9 10  1  0  0  0  0
 10 11  1  0  0  0  0
 10 13  2  0  0  0  0
 11 12  1  0  0  0  0
 11 36  1  0  0  0  0
 11 37  1  0  0  0  0
 12 38  1  0  0  0  0
 13 14  1  0  0  0  0
 14 19  2  0  0  0  0
 14 15  1  0  0  0  0
 15 16  2  0  0  0  0
 15 39  1  0  0  0  0
 16 17  1  0  0  0  0
 16 40  1  0  0  0  0
 17 18  2  0  0  0  0
 17 41  1  0  0  0  0
 18 19  1  0  0  0  0
 18 42  1  0  0  0  0
 20 21  1  0  0  0  0
 20 43  1  0  0  0  0
 20 44  1  0  0  0  0
 21 22  1  0  0  0  0
 21 23  1  0  0  0  0
 21 45  1  0  0  0  0
 22 46  1  0  0  0  0
 22 47  1  0  0  0  0
 22 48  1  0  0  0  0
M  CHG  1   4   1
M  END
> <s_m_source_file>
AV-unprocessed.smi

> <i_m_source_file_index>
1703

> <i_lp_mmshare_version>
43012

> <i_f3d_flags>
0

> <s_epik_input>
W0NIM11bQ0BASF0xW0NIMl1OKFtDSDJdW0NASF0oTzEpW0NIM10pW0NIMl1bQ0BIXShbT0hdKVtDSDJdbihjKG4yKVtDSDJdW09IXSljKGMyMylbY0hdW2NIXVtjSF1bY0hdMw==

> <s_epik_cmdline>
J2VwaWtfcHl0aG9uJywgJy1waCcsICc3LjAnLCAnLXRuJywgJzgnLCAnLW1hJywgJzIwMCcsICctbWV0YWxfYmluZGluZycsICctaW1hZScsICc8aW5maWxlLm1hZT4nLCAnLW9tYWUnLCAnPG91dGZpbGUubWFlPic=

> <r_epik_Ionization_Penalty>
0.655661

> <r_epik_Ionization_Penalty_Charging>
0.608065

> <r_epik_Ionization_Penalty_Neutral>
0.0475963

> <r_epik_State_Penalty>
0.695267

> <r_epik_Charging_Adjusted_Penalty>
1.30333

> <i_epik_Tot_Q>
1

> <i_epik_Tot_abs_Q>
1

> <r_epik_Metal_State_Penalty>
0.653591

> <b_epik_Metal_Only>
0

> <s_lp_Force_Field>
OPLS_2005

> <r_lp_Energy>
23.9002

> <b_lp_Chiralities_Consistent>
1

> <s_lp_Variant>
AV-unprocessed.smi:1703-10

> <Gold.Version>
5.8.1

> <Gold.Id.Protein>
6NUR|6NUR_protein|mol2

> <Gold.PLP.Fitness>
47.3715

> <Gold.PLP.PLP>
-43.3907

> <Gold.PLP.part.hbond>
-2.0000

> <Gold.PLP.part.metal>
0.0000

> <Gold.PLP.part.buried>
-6.1831

> <Gold.PLP.part.nonpolar>
-38.8128

> <Gold.PLP.part.repulsive>
1.3440

> <Gold.PLP.ligand.clash>
0.0000

> <Gold.PLP.ligand.torsion>
0.7321

> <Gold.PLP.Chemscore.Hbond>
1.7840

> <Gold.PLP.Chemscore.CHOScore>
0.0000

> <Gold.PLP.Chemscore.Metal>
0.0000

> <Gold.Chemscore.Hbonds>
donor molecule, donor type, donor heavy atom, donor atom, acceptor molecule, acceptor atom, score
      P1  H  6896  6907       L1    12  1.00
      P1  H  7989  7998       L1     7  0.55

> <Gold.PLP.Chemscore.Internal.Correction>
0.0930

> <Gold.Rescore>
     Score         DG    S(hbond)    S(metal)    S(lipo)     H(rot)  DE(clash)    DE(int)     intcor
     15.12     -16.75       1.45        0.00     119.63       2.96       0.78       0.85       ----

> <Gold.Chemscore.Fitness>
15.1222

> <Gold.Chemscore.DG>
-16.7505

> <Gold.Chemscore.ZeroCoef>
-5.4800

> <Gold.Chemscore.Hbond>
1.4535

> <Gold.Chemscore.Metal>
0.0000

> <Gold.Chemscore.Lipo>
119.6251

> <Gold.Chemscore.Internal_Hbond>
0.0000

> <Gold.Chemscore.DEClash>
0.7831

> <Gold.Chemscore.DEInternal>
0.8452

> <Gold.Chemscore.Rot>
2.9611

> <Gold.Chemscore.Internal.Correction>
   9.000000E+99

> <Gold.Chemscore.Hbonds>
donor molecule, donor type, donor heavy atom, donor atom, acceptor molecule, acceptor atom, score
      P1  H  6896  6907       L1    12  0.82
      P1  H  7989  7998       L1     7  0.34

> <Gold.Chemscore.Hbond.Weighted>
-4.8547

> <Gold.Chemscore.Metal.Weighted>
-0.0000

> <Gold.Chemscore.Lipo.Weighted>
-13.9961

> <Gold.Chemscore.Internal_Hbond.Weighted>
0.0000

> <Gold.Chemscore.DEClash.Weighted>
0.7831

> <Gold.Chemscore.DEInternal.Weighted>
0.8452

> <Gold.Chemscore.Rot.Weighted>
7.5803

> <Gold.Chemscore.Internal.Correction.Weighted>
   9.000000E+99

> <Gold.Protein.RotatedTorsions>
[ 6907 6896 6895 6894 ] final    2.33 input  -60.11 | X-H torsion
[ 7974 7965 7964 7962 ] final -175.20 input  175.53 | X-H torsion
[ 8008 7997 7996 7995 ] final  144.83 input   59.86 | X-H torsion
[ 10167 10162 10161 10158 ] final  -96.69 input  -65.29 | X-H torsion
[ 10718 10713 10712 10709 ] final  -44.81 input   66.30 | X-H torsion
[ 10763 10752 10751 10750 ] final  -72.51 input  -60.55 | X-H torsion
[ 11005 11000 10999 10996 ] final  -51.88 input  -57.11 | X-H torsion

> <Gold.Protein.ActiveResidues>
 VAL166  LYS551  ARG553  GLY616  TRP617  ASP618  TYR619  PRO620  LYS621  CYS622 
 ASP623  PHE694  ASN695  SER759  ASP760  ASP761  ALA762  ILE779  LEU786  VAL792 
 PHE793  MET794  SER795  GLU796  ALA797  LYS798  CYS799  TRP800  GLU811  SER814 

> <Gold.Protein.RotatedAtoms>
  151.6071  135.1043  160.0072 H   0  0  0  0  0  0  0  0  0  0  0  0  # atno 6907 bound_to 6896
  152.4228  133.7140  159.6506 H   0  0  0  0  0  0  0  0  0  0  0  0  # atno 6908 bound_to 6896
  150.8116  133.8339  159.3202 H   0  0  0  0  0  0  0  0  0  0  0  0  # atno 6909 bound_to 6896
  144.7129  140.1357  143.6395 H   0  0  0  0  0  0  0  0  0  0  0  0  # atno 7974 bound_to 7965
  156.2898  140.2225  156.5117 H   0  0  0  0  0  0  0  0  0  0  0  0  # atno 8008 bound_to 7997
  154.7603  140.0474  157.0990 H   0  0  0  0  0  0  0  0  0  0  0  0  # atno 8009 bound_to 7997
  154.9999  140.3100  155.4875 H   0  0  0  0  0  0  0  0  0  0  0  0  # atno 8010 bound_to 7997
  140.2912  143.3220  152.0344 H   0  0  0  0  0  0  0  0  0  0  0  0  # atno 10167 bound_to 10162
  156.2348  130.4175  149.8831 H   0  0  0  0  0  0  0  0  0  0  0  0  # atno 10718 bound_to 10713
  154.4467  135.5927  153.6164 H   0  0  0  0  0  0  0  0  0  0  0  0  # atno 10763 bound_to 10752
  152.9810  135.6011  154.3655 H   0  0  0  0  0  0  0  0  0  0  0  0  # atno 10764 bound_to 10752
  154.3512  135.2841  155.2350 H   0  0  0  0  0  0  0  0  0  0  0  0  # atno 10765 bound_to 10752
  141.0895  133.6635  156.3943 H   0  0  0  0  0  0  0  0  0  0  0  0  # atno 11005 bound_to 11000
  145.9247  139.2568  143.1360 LP  0  0  0  0  0  0  0  0  0  0  0  0  # atno 17320 bound_to 7965
  145.9584  140.8854  143.0223 LP  0  0  0  0  0  0  0  0  0  0  0  0  # atno 17321 bound_to 7965
  139.4937  144.6523  151.6648 LP  0  0  0  0  0  0  0  0  0  0  0  0  # atno 17342 bound_to 10162
  140.5730  144.0076  150.6227 LP  0  0  0  0  0  0  0  0  0  0  0  0  # atno 17343 bound_to 10162
  156.6433  130.8714  151.3518 LP  0  0  0  0  0  0  0  0  0  0  0  0  # atno 17370 bound_to 10713
  157.7149  130.9485  150.1220 LP  0  0  0  0  0  0  0  0  0  0  0  0  # atno 17371 bound_to 10713
  140.5285  134.6235  157.5342 LP  0  0  0  0  0  0  0  0  0  0  0  0  # atno 17394 bound_to 11000
  139.9718  134.7280  156.0026 LP  0  0  0  0  0  0  0  0  0  0  0  0  # atno 17395 bound_to 11000

$$$$
