AV-unprocessed.smi:3046|AV-procd|sdf|11613|dock1
  -GOLD-   2272016593D 1   1.00000     0.00000
 Structure written by MMmdl.
 38 38  0  0  0  0  0  0  0  0  2 V2000
  141.9173  135.5136  153.2531 C   0  0  0  0  0  0  0  0  0  0  0  0
  142.8093  136.4772  152.9786 C   0  0  0  0  0  0  0  0  0  0  0  0
  143.7237  137.1158  154.0016 C   0  0  0  0  0  0  0  0  0  0  0  0
  144.6774  138.0017  153.3507 N   0  0  0  0  0  0  0  0  0  0  0  0
  146.0081  137.8382  153.3837 C   0  0  0  0  0  0  0  0  0  0  0  0
  146.5568  136.9054  153.9720 O   0  0  0  0  0  0  0  0  0  0  0  0
  146.8426  138.8803  152.6294 C   0  0  2  0  0  0  0  0  0  0  0  0
  146.4322  138.9127  151.1462 C   0  0  0  0  0  0  0  0  0  0  0  0
  148.2883  138.5851  152.7724 N   0  3  0  0  0  0  0  0  0  0  0  0
  148.8623  138.7647  154.1253 C   0  0  2  0  0  0  0  0  0  0  0  0
  148.6195  140.2100  154.5906 C   0  0  0  0  0  0  0  0  0  0  0  0
  150.3621  138.3867  154.1370 C   0  0  0  0  0  0  0  0  0  0  0  0
  151.0806  138.9377  155.2719 N   0  0  0  0  0  0  0  0  0  0  0  0
  151.6058  138.2735  156.3607 C   0  0  0  0  0  0  0  0  0  0  0  0
  152.1759  139.2119  157.1722 C   0  0  0  0  0  0  0  0  0  0  0  0
  151.9384  140.4381  156.4906 C   0  0  0  0  0  0  0  0  0  0  0  0
  151.2782  140.2710  155.3556 N   0  0  0  0  0  0  0  0  0  0  0  0
  141.8003  135.1238  154.2539 H   0  0  0  0  0  0  0  0  0  0  0  0
  141.2901  135.1013  152.4764 H   0  0  0  0  0  0  0  0  0  0  0  0
  142.8927  136.8430  151.9655 H   0  0  0  0  0  0  0  0  0  0  0  0
  143.1158  137.6836  154.7071 H   0  0  0  0  0  0  0  0  0  0  0  0
  144.2542  136.3480  154.5673 H   0  0  0  0  0  0  0  0  0  0  0  0
  144.2996  138.7868  152.8397 H   0  0  0  0  0  0  0  0  0  0  0  0
  146.6313  139.8522  153.0762 H   0  0  0  0  0  0  0  0  0  0  0  0
  145.3653  139.1103  151.0345 H   0  0  0  0  0  0  0  0  0  0  0  0
  146.6462  137.9641  150.6517 H   0  0  0  0  0  0  0  0  0  0  0  0
  146.9594  139.6950  150.6004 H   0  0  0  0  0  0  0  0  0  0  0  0
  148.4462  137.6268  152.4949 H   0  0  0  0  0  0  0  0  0  0  0  0
  148.3275  138.1117  154.8154 H   0  0  0  0  0  0  0  0  0  0  0  0
  148.9538  140.3639  155.6169 H   0  0  0  0  0  0  0  0  0  0  0  0
  147.5580  140.4577  154.5590 H   0  0  0  0  0  0  0  0  0  0  0  0
  149.1471  140.9249  153.9581 H   0  0  0  0  0  0  0  0  0  0  0  0
  150.4949  137.3050  154.1556 H   0  0  0  0  0  0  0  0  0  0  0  0
  150.8429  138.7403  153.2239 H   0  0  0  0  0  0  0  0  0  0  0  0
  151.5327  137.2009  156.4662 H   0  0  0  0  0  0  0  0  0  0  0  0
  152.6826  139.0479  158.1118 H   0  0  0  0  0  0  0  0  0  0  0  0
  152.2220  141.4377  156.7857 H   0  0  0  0  0  0  0  0  0  0  0  0
  148.7833  139.1832  152.1263 H   0  0  0  0  0  0  0  0  0  0  0  0
  1  2  2  0  0  0  0
  1 18  1  0  0  0  0
  1 19  1  0  0  0  0
  2  3  1  0  0  0  0
  2 20  1  0  0  0  0
  3  4  1  0  0  0  0
  3 21  1  0  0  0  0
  3 22  1  0  0  0  0
  4  5  1  0  0  0  0
  4 23  1  0  0  0  0
  5  6  2  0  0  0  0
  5  7  1  0  0  0  0
  7  8  1  0  0  0  0
  7  9  1  0  0  0  0
  7 24  1  0  0  0  0
  8 25  1  0  0  0  0
  8 26  1  0  0  0  0
  8 27  1  0  0  0  0
  9 10  1  0  0  0  0
  9 28  1  0  0  0  0
  9 38  1  0  0  0  0
 10 11  1  0  0  0  0
 10 12  1  0  0  0  0
 10 29  1  0  0  0  0
 11 30  1  0  0  0  0
 11 31  1  0  0  0  0
 11 32  1  0  0  0  0
 12 13  1  0  0  0  0
 12 33  1  0  0  0  0
 12 34  1  0  0  0  0
 13 17  1  0  0  0  0
 13 14  1  0  0  0  0
 14 15  2  0  0  0  0
 14 35  1  0  0  0  0
 15 16  1  0  0  0  0
 15 36  1  0  0  0  0
 16 17  2  0  0  0  0
 16 37  1  0  0  0  0
M  CHG  1   9   1
M  END
> <s_m_source_file>
AV-unprocessed.smi

> <i_m_source_file_index>
3046

> <i_lp_mmshare_version>
43012

> <i_f3d_flags>
0

> <s_epik_input>
W0NIMl09W0NIXVtDSDJdW05IXUMoPU8pW0NASF0oW0NIM10pW05IXVtDQEhdKFtDSDNdKVtDSDJdbjFbY0hdW2NIXVtjSF1uMQ==

> <s_epik_cmdline>
J2VwaWtfcHl0aG9uJywgJy1waCcsICc3LjAnLCAnLXRuJywgJzgnLCAnLW1hJywgJzIwMCcsICctbWV0YWxfYmluZGluZycsICctaW1hZScsICc8aW5maWxlLm1hZT4nLCAnLW9tYWUnLCAnPG91dGZpbGUubWFlPic=

> <r_lp_tautomer_probability>
1

> <r_epik_Ionization_Penalty>
0.132961

> <r_epik_Ionization_Penalty_Charging>
0.132956

> <r_epik_Ionization_Penalty_Neutral>
5.00268e-06

> <r_epik_State_Penalty>
0.122332

> <r_epik_Charging_Adjusted_Penalty>
0.255288

> <i_epik_Tot_Q>
1

> <i_epik_Tot_abs_Q>
1

> <r_epik_Metal_State_Penalty>
0.122338

> <b_epik_Metal_Only>
0

> <s_lp_Force_Field>
OPLS_2005

> <r_lp_Energy>
6.28532

> <b_lp_Chiralities_Consistent>
1

> <s_lp_Variant>
AV-unprocessed.smi:3046-1

> <Gold.Version>
5.8.1

> <Gold.Id.Protein>
6NUR|6NUR_protein|mol2

> <Gold.PLP.Fitness>
43.1315

> <Gold.PLP.PLP>
-29.0041

> <Gold.PLP.part.hbond>
-3.9219

> <Gold.PLP.part.metal>
0.0000

> <Gold.PLP.part.buried>
-2.4670

> <Gold.PLP.part.nonpolar>
-23.7994

> <Gold.PLP.part.repulsive>
0.2016

> <Gold.PLP.ligand.clash>
0.0000

> <Gold.PLP.ligand.torsion>
0.3510

> <Gold.PLP.Chemscore.Hbond>
4.9262

> <Gold.PLP.Chemscore.CHOScore>
0.0000

> <Gold.PLP.Chemscore.Metal>
0.0000

> <Gold.Chemscore.Hbonds>
donor molecule, donor type, donor heavy atom, donor atom, acceptor molecule, acceptor atom, score
      L1  H     4    23       P1 10175  1.00
      L1  H     9    28       P1  7948  2.00
      L1  H     9    38       P1  7957  0.96
      P1  H  7989  7998       L1    17  1.00

> <Gold.PLP.Chemscore.Internal.Correction>
0.0507

> <Gold.Rescore>
     Score         DG    S(hbond)    S(metal)    S(lipo)     H(rot)  DE(clash)    DE(int)     intcor
     17.65     -20.44       3.89        0.00      66.35       2.26       0.82       1.97       ----

> <Gold.Chemscore.Fitness>
17.6507

> <Gold.Chemscore.DG>
-20.4448

> <Gold.Chemscore.ZeroCoef>
-5.4800

> <Gold.Chemscore.Hbond>
3.8904

> <Gold.Chemscore.Metal>
0.0000

> <Gold.Chemscore.Lipo>
66.3519

> <Gold.Chemscore.Internal_Hbond>
0.0000

> <Gold.Chemscore.DEClash>
0.8192

> <Gold.Chemscore.DEInternal>
1.9749

> <Gold.Chemscore.Rot>
2.2626

> <Gold.Chemscore.Internal.Correction>
   9.000000E+99

> <Gold.Chemscore.Hbonds>
donor molecule, donor type, donor heavy atom, donor atom, acceptor molecule, acceptor atom, score
      L1  H     4    23       P1 10175  1.00
      L1  H     9    28       P1  7948  0.98
      L1  H     9    38       P1  7957  0.91
      P1  H  7989  7998       L1    17  0.51

> <Gold.Chemscore.Hbond.Weighted>
-12.9938

> <Gold.Chemscore.Metal.Weighted>
-0.0000

> <Gold.Chemscore.Lipo.Weighted>
-7.7632

> <Gold.Chemscore.Internal_Hbond.Weighted>
0.0000

> <Gold.Chemscore.DEClash.Weighted>
0.8192

> <Gold.Chemscore.DEInternal.Weighted>
1.9749

> <Gold.Chemscore.Rot.Weighted>
5.7922

> <Gold.Chemscore.Internal.Correction.Weighted>
   9.000000E+99

> <Gold.Protein.RotatedTorsions>
[ 6907 6896 6895 6894 ] final  -40.46 input  -60.11 | X-H torsion
[ 7974 7965 7964 7962 ] final -170.53 input  175.53 | X-H torsion
[ 8008 7997 7996 7995 ] final  162.34 input   59.86 | X-H torsion
[ 10167 10162 10161 10158 ] final -109.66 input  -65.29 | X-H torsion
[ 10718 10713 10712 10709 ] final -154.62 input   66.30 | X-H torsion
[ 10763 10752 10751 10750 ] final  -54.79 input  -60.55 | X-H torsion
[ 11005 11000 10999 10996 ] final  122.10 input  -57.11 | X-H torsion

> <Gold.Protein.ActiveResidues>
 VAL166  LYS551  ARG553  GLY616  TRP617  ASP618  TYR619  PRO620  LYS621  CYS622 
 ASP623  PHE694  ASN695  SER759  ASP760  ASP761  ALA762  ILE779  LEU786  VAL792 
 PHE793  MET794  SER795  GLU796  ALA797  LYS798  CYS799  TRP800  GLU811  SER814 

> <Gold.Protein.RotatedAtoms>
  150.9782  134.9143  159.7828 H   0  0  0  0  0  0  0  0  0  0  0  0  # atno 6907 bound_to 6896
  152.5213  134.3446  159.9239 H   0  0  0  0  0  0  0  0  0  0  0  0  # atno 6908 bound_to 6896
  151.3454  133.3905  159.2709 H   0  0  0  0  0  0  0  0  0  0  0  0  # atno 6909 bound_to 6896
  144.7169  140.2058  143.6333 H   0  0  0  0  0  0  0  0  0  0  0  0  # atno 7974 bound_to 7965
  156.2039  140.1753  156.7842 H   0  0  0  0  0  0  0  0  0  0  0  0  # atno 8008 bound_to 7997
  154.5628  140.0696  156.8876 H   0  0  0  0  0  0  0  0  0  0  0  0  # atno 8009 bound_to 7997
  155.2817  140.3349  155.4260 H   0  0  0  0  0  0  0  0  0  0  0  0  # atno 8010 bound_to 7997
  140.1529  143.4184  152.1481 H   0  0  0  0  0  0  0  0  0  0  0  0  # atno 10167 bound_to 10162
  156.5018  130.8394  151.2612 H   0  0  0  0  0  0  0  0  0  0  0  0  # atno 10718 bound_to 10713
  154.1804  135.6444  153.5032 H   0  0  0  0  0  0  0  0  0  0  0  0  # atno 10763 bound_to 10752
  153.0061  135.5404  154.6520 H   0  0  0  0  0  0  0  0  0  0  0  0  # atno 10764 bound_to 10752
  154.5883  135.2931  155.0635 H   0  0  0  0  0  0  0  0  0  0  0  0  # atno 10765 bound_to 10752
  139.9254  134.9640  156.8058 H   0  0  0  0  0  0  0  0  0  0  0  0  # atno 11005 bound_to 11000
  145.8637  139.2236  143.1702 LP  0  0  0  0  0  0  0  0  0  0  0  0  # atno 17320 bound_to 7965
  146.0150  140.8401  142.9952 LP  0  0  0  0  0  0  0  0  0  0  0  0  # atno 17321 bound_to 7965
  139.5417  144.7262  151.4713 LP  0  0  0  0  0  0  0  0  0  0  0  0  # atno 17342 bound_to 10162
  140.6691  143.8333  150.6977 LP  0  0  0  0  0  0  0  0  0  0  0  0  # atno 17343 bound_to 10162
  157.7462  130.9979  150.2834 LP  0  0  0  0  0  0  0  0  0  0  0  0  # atno 17370 bound_to 10713
  156.3326  130.3802  149.7478 LP  0  0  0  0  0  0  0  0  0  0  0  0  # atno 17371 bound_to 10713
  140.6352  133.9868  155.7681 LP  0  0  0  0  0  0  0  0  0  0  0  0  # atno 17394 bound_to 11000
  141.0807  134.0067  157.3390 LP  0  0  0  0  0  0  0  0  0  0  0  0  # atno 17395 bound_to 11000

$$$$
