AV-unprocessed.smi:951|AV-procd|sdf|4251|dock3
  -GOLD-   22720 2153D 1   1.00000     0.00000
 Structure written by MMmdl.
 51 53  0  0  0  0  0  0  0  0  1 V2000
  150.5364  140.2043  154.8014 O   0  0  0  0  0  0  0  0  0  0  0  0
  149.4411  140.6431  155.1509 C   0  0  0  0  0  0  0  0  0  0  0  0
  149.2379  141.2005  156.3560 N   0  0  0  0  0  0  0  0  0  0  0  0
  150.2503  141.3498  157.3897 C   0  0  0  0  0  0  0  0  0  0  0  0
  151.1192  142.5832  157.1082 C   0  0  0  0  0  0  0  0  0  0  0  0
  151.4895  143.3272  158.3770 C   0  0  0  0  0  0  0  0  0  0  0  0
  152.1863  142.6765  159.4178 C   0  0  0  0  0  0  0  0  0  0  0  0
  152.5126  143.4159  160.5712 C   0  0  0  0  0  0  0  0  0  0  0  0
  152.1321  144.7700  160.6390 C   0  0  0  0  0  0  0  0  0  0  0  0
  151.4398  145.3274  159.5453 C   0  0  0  0  0  0  0  0  0  0  0  0
  151.1216  144.6272  158.4352 N   0  0  0  0  0  0  0  0  0  0  0  0
  148.2413  140.5420  154.1803 C   0  0  2  0  0  0  0  0  0  0  0  0
  147.6956  141.9389  153.8481 C   0  0  0  0  0  0  0  0  0  0  0  0
  146.6104  142.1711  154.8871 C   0  0  0  0  0  0  0  0  0  0  0  0
  146.0307  140.7769  155.1298 C   0  0  0  0  0  0  0  0  0  0  0  0
  147.0788  139.8283  154.7389 N   0  0  0  0  0  0  0  0  0  0  0  0
  147.0072  138.4793  154.8451 C   0  0  0  0  0  0  0  0  0  0  0  0
  147.9183  137.7578  154.4389 O   0  0  0  0  0  0  0  0  0  0  0  0
  145.7670  137.8380  155.5120 C   0  0  0  0  0  0  0  0  0  0  0  0
  145.9444  136.3105  155.6826 C   0  0  0  0  0  0  0  0  0  0  0  0
  145.7639  135.5335  154.3672 C   0  0  0  0  0  0  0  0  0  0  0  0
  144.3916  135.8269  153.7441 C   0  0  0  0  0  0  0  0  0  0  0  0
  144.2034  137.3310  153.4986 C   0  0  0  0  0  0  0  0  0  0  0  0
  144.4340  138.1529  154.7844 C   0  0  0  0  0  0  0  0  0  0  0  0
  148.3103  141.5354  156.5723 H   0  0  0  0  0  0  0  0  0  0  0  0
  149.7667  141.4476  158.3631 H   0  0  0  0  0  0  0  0  0  0  0  0
  150.8665  140.4499  157.4211 H   0  0  0  0  0  0  0  0  0  0  0  0
  152.0345  142.2867  156.5933 H   0  0  0  0  0  0  0  0  0  0  0  0
  150.5955  143.2624  156.4338 H   0  0  0  0  0  0  0  0  0  0  0  0
  152.4671  141.6368  159.3349 H   0  0  0  0  0  0  0  0  0  0  0  0
  153.0460  142.9535  161.3885 H   0  0  0  0  0  0  0  0  0  0  0  0
  152.3657  145.3679  161.5075 H   0  0  0  0  0  0  0  0  0  0  0  0
  151.1335  146.3630  159.5623 H   0  0  0  0  0  0  0  0  0  0  0  0
  148.5844  140.0585  153.2637 H   0  0  0  0  0  0  0  0  0  0  0  0
  148.4524  142.7250  153.8515 H   0  0  0  0  0  0  0  0  0  0  0  0
  147.2486  141.9259  152.8530 H   0  0  0  0  0  0  0  0  0  0  0  0
  147.0602  142.5474  155.8069 H   0  0  0  0  0  0  0  0  0  0  0  0
  145.8591  142.8922  154.5642 H   0  0  0  0  0  0  0  0  0  0  0  0
  145.7274  140.6538  156.1699 H   0  0  0  0  0  0  0  0  0  0  0  0
  145.1560  140.6251  154.4960 H   0  0  0  0  0  0  0  0  0  0  0  0
  145.6617  138.2729  156.5048 H   0  0  0  0  0  0  0  0  0  0  0  0
  146.9247  136.0830  156.1031 H   0  0  0  0  0  0  0  0  0  0  0  0
  145.2188  135.9485  156.4120 H   0  0  0  0  0  0  0  0  0  0  0  0
  146.5550  135.7951  153.6632 H   0  0  0  0  0  0  0  0  0  0  0  0
  145.8630  134.4641  154.5546 H   0  0  0  0  0  0  0  0  0  0  0  0
  144.2837  135.2812  152.8063 H   0  0  0  0  0  0  0  0  0  0  0  0
  143.6046  135.4633  154.4061 H   0  0  0  0  0  0  0  0  0  0  0  0
  144.8790  137.6569  152.7087 H   0  0  0  0  0  0  0  0  0  0  0  0
  143.1971  137.5174  153.1224 H   0  0  0  0  0  0  0  0  0  0  0  0
  143.6112  137.9532  155.4719 H   0  0  0  0  0  0  0  0  0  0  0  0
  144.3717  139.2174  154.5545 H   0  0  0  0  0  0  0  0  0  0  0  0
  1  2  2  0  0  0  0
  2  3  1  0  0  0  0
  2 12  1  0  0  0  0
  3  4  1  0  0  0  0
  3 25  1  0  0  0  0
  4  5  1  0  0  0  0
  4 26  1  0  0  0  0
  4 27  1  0  0  0  0
  5  6  1  0  0  0  0
  5 28  1  0  0  0  0
  5 29  1  0  0  0  0
  6 11  1  0  0  0  0
  6  7  2  0  0  0  0
  7  8  1  0  0  0  0
  7 30  1  0  0  0  0
  8  9  2  0  0  0  0
  8 31  1  0  0  0  0
  9 10  1  0  0  0  0
  9 32  1  0  0  0  0
 10 11  2  0  0  0  0
 10 33  1  0  0  0  0
 12 16  1  0  0  0  0
 12 13  1  0  0  0  0
 12 34  1  0  0  0  0
 13 14  1  0  0  0  0
 13 35  1  0  0  0  0
 13 36  1  0  0  0  0
 14 15  1  0  0  0  0
 14 37  1  0  0  0  0
 14 38  1  0  0  0  0
 15 16  1  0  0  0  0
 15 39  1  0  0  0  0
 15 40  1  0  0  0  0
 16 17  1  0  0  0  0
 17 18  2  0  0  0  0
 17 19  1  0  0  0  0
 19 24  1  0  0  0  0
 19 20  1  0  0  0  0
 19 41  1  0  0  0  0
 20 21  1  0  0  0  0
 20 42  1  0  0  0  0
 20 43  1  0  0  0  0
 21 22  1  0  0  0  0
 21 44  1  0  0  0  0
 21 45  1  0  0  0  0
 22 23  1  0  0  0  0
 22 46  1  0  0  0  0
 22 47  1  0  0  0  0
 23 24  1  0  0  0  0
 23 48  1  0  0  0  0
 23 49  1  0  0  0  0
 24 50  1  0  0  0  0
 24 51  1  0  0  0  0
M  END
> <s_m_source_file>
AV-unprocessed.smi

> <i_m_source_file_index>
951

> <i_lp_mmshare_version>
43012

> <i_f3d_flags>
0

> <s_epik_input>
bjFbY0hdW2NIXVtjSF1bY0hdYzFbQ0gyXVtDSDJdW05IXUMoPU8pW0NAQEhdMltDSDJdW0NIMl1bQ0gyXU4yQyg9TylbQ0hdM1tDSDJdW0NIMl1bQ0gyXVtDSDJdW0NIMl0z

> <s_epik_cmdline>
J2VwaWtfcHl0aG9uJywgJy1waCcsICc3LjAnLCAnLXRuJywgJzgnLCAnLW1hJywgJzIwMCcsICctbWV0YWxfYmluZGluZycsICctaW1hZScsICc8aW5maWxlLm1hZT4nLCAnLW9tYWUnLCAnPG91dGZpbGUubWFlPic=

> <r_epik_Ionization_Penalty>
0.0265505

> <r_epik_Ionization_Penalty_Charging>
0

> <r_epik_Ionization_Penalty_Neutral>
0.0265505

> <r_epik_State_Penalty>
0.02168

> <r_epik_Charging_Adjusted_Penalty>
0.02168

> <i_epik_Tot_Q>
0

> <i_epik_Tot_abs_Q>
0

> <r_epik_Metal_State_Penalty>
0.020746

> <b_epik_Metal_Only>
0

> <s_lp_Force_Field>
OPLS_2005

> <r_lp_Energy>
18.972

> <b_lp_Chiralities_Consistent>
1

> <s_lp_Variant>
AV-unprocessed.smi:951-1

> <Gold.Version>
5.8.1

> <Gold.Id.Protein>
6NUR|6NUR_protein|mol2

> <Gold.PLP.Fitness>
39.7171

> <Gold.PLP.PLP>
-37.5790

> <Gold.PLP.part.hbond>
-1.0000

> <Gold.PLP.part.metal>
0.0000

> <Gold.PLP.part.buried>
-7.5138

> <Gold.PLP.part.nonpolar>
-30.3207

> <Gold.PLP.part.repulsive>
1.0120

> <Gold.PLP.ligand.clash>
0.0000

> <Gold.PLP.ligand.torsion>
0.4748

> <Gold.PLP.Chemscore.Hbond>
1.0000

> <Gold.PLP.Chemscore.CHOScore>
0.0000

> <Gold.PLP.Chemscore.Metal>
0.0000

> <Gold.Chemscore.Hbonds>
donor molecule, donor type, donor heavy atom, donor atom, acceptor molecule, acceptor atom, score
      P1  H  7989  7998       L1     1  1.00

> <Gold.PLP.Chemscore.Internal.Correction>
0.0878

> <Gold.Rescore>
     Score         DG    S(hbond)    S(metal)    S(lipo)     H(rot)  DE(clash)    DE(int)     intcor
     15.67     -17.13       0.97        0.00     105.79       1.55       0.41       1.04       ----

> <Gold.Chemscore.Fitness>
15.6720

> <Gold.Chemscore.DG>
-17.1262

> <Gold.Chemscore.ZeroCoef>
-5.4800

> <Gold.Chemscore.Hbond>
0.9694

> <Gold.Chemscore.Metal>
0.0000

> <Gold.Chemscore.Lipo>
105.7942

> <Gold.Chemscore.Internal_Hbond>
0.0000

> <Gold.Chemscore.DEClash>
0.4130

> <Gold.Chemscore.DEInternal>
1.0411

> <Gold.Chemscore.Rot>
1.5506

> <Gold.Chemscore.Internal.Correction>
   9.000000E+99

> <Gold.Chemscore.Hbonds>
donor molecule, donor type, donor heavy atom, donor atom, acceptor molecule, acceptor atom, score
      P1  H  7989  7998       L1     1  0.99

> <Gold.Chemscore.Hbond.Weighted>
-3.2377

> <Gold.Chemscore.Metal.Weighted>
-0.0000

> <Gold.Chemscore.Lipo.Weighted>
-12.3779

> <Gold.Chemscore.Internal_Hbond.Weighted>
0.0000

> <Gold.Chemscore.DEClash.Weighted>
0.4130

> <Gold.Chemscore.DEInternal.Weighted>
1.0411

> <Gold.Chemscore.Rot.Weighted>
3.9695

> <Gold.Chemscore.Internal.Correction.Weighted>
   9.000000E+99

> <Gold.Protein.RotatedTorsions>
[ 6907 6896 6895 6894 ] final   20.59 input  -60.11 | X-H torsion
[ 7974 7965 7964 7962 ] final   83.58 input  175.53 | X-H torsion
[ 8008 7997 7996 7995 ] final   89.15 input   59.86 | X-H torsion
[ 10167 10162 10161 10158 ] final  -35.73 input  -65.29 | X-H torsion
[ 10718 10713 10712 10709 ] final  -31.85 input   66.30 | X-H torsion
[ 10763 10752 10751 10750 ] final  152.88 input  -60.55 | X-H torsion
[ 11005 11000 10999 10996 ] final  114.28 input  -57.11 | X-H torsion

> <Gold.Protein.ActiveResidues>
 VAL166  LYS551  ARG553  GLY616  TRP617  ASP618  TYR619  PRO620  LYS621  CYS622 
 ASP623  PHE694  ASN695  SER759  ASP760  ASP761  ALA762  ILE779  LEU786  VAL792 
 PHE793  MET794  SER795  GLU796  ALA797  LYS798  CYS799  TRP800  GLU811  SER814 

> <Gold.Protein.RotatedAtoms>
  151.8987  135.0387  160.0504 H   0  0  0  0  0  0  0  0  0  0  0  0  # atno 6907 bound_to 6896
  152.2376  133.5104  159.5260 H   0  0  0  0  0  0  0  0  0  0  0  0  # atno 6908 bound_to 6896
  150.7044  134.1049  159.4021 H   0  0  0  0  0  0  0  0  0  0  0  0  # atno 6909 bound_to 6896
  145.6100  139.2367  143.2197 H   0  0  0  0  0  0  0  0  0  0  0  0  # atno 7974 bound_to 7965
  155.9965  140.3364  155.6804 H   0  0  0  0  0  0  0  0  0  0  0  0  # atno 8008 bound_to 7997
  155.6349  140.0689  157.2655 H   0  0  0  0  0  0  0  0  0  0  0  0  # atno 8009 bound_to 7997
  154.4235  140.1753  156.1499 H   0  0  0  0  0  0  0  0  0  0  0  0  # atno 8010 bound_to 7997
  140.7158  143.3457  151.2262 H   0  0  0  0  0  0  0  0  0  0  0  0  # atno 10167 bound_to 10162
  156.3822  130.4358  149.7460 H   0  0  0  0  0  0  0  0  0  0  0  0  # atno 10718 bound_to 10713
  154.1272  135.2829  155.3194 H   0  0  0  0  0  0  0  0  0  0  0  0  # atno 10763 bound_to 10752
  154.6381  135.5412  153.7760 H   0  0  0  0  0  0  0  0  0  0  0  0  # atno 10764 bound_to 10752
  153.0293  135.6479  154.1424 H   0  0  0  0  0  0  0  0  0  0  0  0  # atno 10765 bound_to 10752
  139.8976  134.9565  156.6868 H   0  0  0  0  0  0  0  0  0  0  0  0  # atno 11005 bound_to 11000
  146.1511  140.6924  142.9321 LP  0  0  0  0  0  0  0  0  0  0  0  0  # atno 17320 bound_to 7965
  144.7274  140.4566  143.6963 LP  0  0  0  0  0  0  0  0  0  0  0  0  # atno 17321 bound_to 7965
  139.6975  143.9588  152.2890 LP  0  0  0  0  0  0  0  0  0  0  0  0  # atno 17342 bound_to 10162
  139.9270  144.6765  150.8402 LP  0  0  0  0  0  0  0  0  0  0  0  0  # atno 17343 bound_to 10162
  156.4546  130.7923  151.2944 LP  0  0  0  0  0  0  0  0  0  0  0  0  # atno 17370 bound_to 10713
  157.7493  131.0085  150.3230 LP  0  0  0  0  0  0  0  0  0  0  0  0  # atno 17371 bound_to 10713
  140.7256  133.9103  155.8176 LP  0  0  0  0  0  0  0  0  0  0  0  0  # atno 17394 bound_to 11000
  141.0193  134.0911  157.4138 LP  0  0  0  0  0  0  0  0  0  0  0  0  # atno 17395 bound_to 11000

$$$$
