AV-unprocessed.smi:3241|AV-procd|sdf|12386|dock2
  -GOLD-   2272018253D 1   1.00000     0.00000
 Structure written by MMmdl.
 44 45  0  0  0  0  0  0  0  0  2 V2000
  148.4336  138.5214  154.1877 C   0  0  0  0  0  0  0  0  0  0  0  0
  149.8115  138.3169  154.8360 C   0  0  1  0  0  0  0  0  0  0  0  0
  150.9147  138.1254  153.7764 C   0  0  0  0  0  0  0  0  0  0  0  0
  152.2810  137.8601  154.4275 C   0  0  0  0  0  0  0  0  0  0  0  0
  152.6571  138.9782  155.4111 C   0  0  0  0  0  0  0  0  0  0  0  0
  151.5589  139.1879  156.4677 C   0  0  0  0  0  0  0  0  0  0  0  0
  150.1828  139.4468  155.8262 C   0  0  1  0  0  0  0  0  0  0  0  0
  150.2500  140.6879  155.1340 O   0  0  0  0  0  0  0  0  0  0  0  0
  150.0349  141.8335  155.9437 C   0  0  0  0  0  0  0  0  0  0  0  0
  151.4053  142.3828  156.3496 C   0  0  0  0  0  0  0  0  0  0  0  0
  151.2415  143.5353  157.2555 N   0  3  0  0  0  0  0  0  0  0  0  0
  152.4948  144.2320  157.6041 C   0  0  0  0  0  0  0  0  0  0  0  0
  152.4229  144.8355  159.0163 C   0  0  0  0  0  0  0  0  0  0  0  0
  152.6325  143.8366  160.0501 N   0  0  0  0  0  0  0  0  0  0  0  0
  152.4095  143.9474  161.4064 C   0  0  0  0  0  0  0  0  0  0  0  0
  152.7368  142.7479  161.9709 C   0  0  0  0  0  0  0  0  0  0  0  0
  153.1567  141.9563  160.8657 C   0  0  0  0  0  0  0  0  0  0  0  0
  153.0915  142.6100  159.7169 N   0  0  0  0  0  0  0  0  0  0  0  0
  148.4174  139.4058  153.5512 H   0  0  0  0  0  0  0  0  0  0  0  0
  147.6563  138.6363  154.9434 H   0  0  0  0  0  0  0  0  0  0  0  0
  148.1642  137.6666  153.5667 H   0  0  0  0  0  0  0  0  0  0  0  0
  149.7510  137.3921  155.4121 H   0  0  0  0  0  0  0  0  0  0  0  0
  150.6589  137.2957  153.1165 H   0  0  0  0  0  0  0  0  0  0  0  0
  150.9797  139.0121  153.1447 H   0  0  0  0  0  0  0  0  0  0  0  0
  152.2554  136.9048  154.9532 H   0  0  0  0  0  0  0  0  0  0  0  0
  153.0479  137.7682  153.6579 H   0  0  0  0  0  0  0  0  0  0  0  0
  153.6015  138.7387  155.9006 H   0  0  0  0  0  0  0  0  0  0  0  0
  152.8221  139.9066  154.8630 H   0  0  0  0  0  0  0  0  0  0  0  0
  151.4990  138.3031  157.1025 H   0  0  0  0  0  0  0  0  0  0  0  0
  151.8273  140.0162  157.1240 H   0  0  0  0  0  0  0  0  0  0  0  0
  149.4406  139.4866  156.6263 H   0  0  0  0  0  0  0  0  0  0  0  0
  149.4679  142.5980  155.4101 H   0  0  0  0  0  0  0  0  0  0  0  0
  149.4585  141.5507  156.8255 H   0  0  0  0  0  0  0  0  0  0  0  0
  151.9864  141.6113  156.8564 H   0  0  0  0  0  0  0  0  0  0  0  0
  151.9646  142.6810  155.4619 H   0  0  0  0  0  0  0  0  0  0  0  0
  150.6348  144.2033  156.8004 H   0  0  0  0  0  0  0  0  0  0  0  0
  153.3219  143.5237  157.5450 H   0  0  0  0  0  0  0  0  0  0  0  0
  152.6924  145.0184  156.8743 H   0  0  0  0  0  0  0  0  0  0  0  0
  153.1592  145.6323  159.1341 H   0  0  0  0  0  0  0  0  0  0  0  0
  151.4442  145.2898  159.1752 H   0  0  0  0  0  0  0  0  0  0  0  0
  152.0382  144.8589  161.8519 H   0  0  0  0  0  0  0  0  0  0  0  0
  152.6843  142.4771  163.0150 H   0  0  0  0  0  0  0  0  0  0  0  0
  153.5005  140.9322  160.8636 H   0  0  0  0  0  0  0  0  0  0  0  0
  150.7915  143.2248  158.1047 H   0  0  0  0  0  0  0  0  0  0  0  0
  1  2  1  0  0  0  0
  1 19  1  0  0  0  0
  1 20  1  0  0  0  0
  1 21  1  0  0  0  0
  2  7  1  0  0  0  0
  2  3  1  0  0  0  0
  2 22  1  0  0  0  0
  3  4  1  0  0  0  0
  3 23  1  0  0  0  0
  3 24  1  0  0  0  0
  4  5  1  0  0  0  0
  4 25  1  0  0  0  0
  4 26  1  0  0  0  0
  5  6  1  0  0  0  0
  5 27  1  0  0  0  0
  5 28  1  0  0  0  0
  6  7  1  0  0  0  0
  6 29  1  0  0  0  0
  6 30  1  0  0  0  0
  7  8  1  0  0  0  0
  7 31  1  0  0  0  0
  8  9  1  0  0  0  0
  9 10  1  0  0  0  0
  9 32  1  0  0  0  0
  9 33  1  0  0  0  0
 10 11  1  0  0  0  0
 10 34  1  0  0  0  0
 10 35  1  0  0  0  0
 11 12  1  0  0  0  0
 11 36  1  0  0  0  0
 11 44  1  0  0  0  0
 12 13  1  0  0  0  0
 12 37  1  0  0  0  0
 12 38  1  0  0  0  0
 13 14  1  0  0  0  0
 13 39  1  0  0  0  0
 13 40  1  0  0  0  0
 14 18  1  0  0  0  0
 14 15  1  0  0  0  0
 15 16  2  0  0  0  0
 15 41  1  0  0  0  0
 16 17  1  0  0  0  0
 16 42  1  0  0  0  0
 17 18  2  0  0  0  0
 17 43  1  0  0  0  0
M  CHG  1  11   1
M  END
> <s_m_source_file>
AV-unprocessed.smi

> <i_m_source_file_index>
3241

> <i_lp_mmshare_version>
43012

> <i_f3d_flags>
0

> <s_epik_input>
W0NIM11bQ0BASF0xW0NIMl1bQ0gyXVtDSDJdW0NIMl1bQ0BIXTFPW0NIMl1bQ0gyXVtOSF1bQ0gyXVtDSDJdbjJbY0hdW2NIXVtjSF1uMg==

> <s_epik_cmdline>
J2VwaWtfcHl0aG9uJywgJy1waCcsICc3LjAnLCAnLXRuJywgJzgnLCAnLW1hJywgJzIwMCcsICctbWV0YWxfYmluZGluZycsICctaW1hZScsICc8aW5maWxlLm1hZT4nLCAnLW9tYWUnLCAnPG91dGZpbGUubWFlPic=

> <r_lp_tautomer_probability>
1

> <r_epik_Ionization_Penalty>
0.00924946

> <r_epik_Ionization_Penalty_Charging>
0.00924645

> <r_epik_Ionization_Penalty_Neutral>
3.00629e-06

> <r_epik_State_Penalty>
0.0070118

> <r_epik_Charging_Adjusted_Penalty>
0.0162583

> <i_epik_Tot_Q>
1

> <i_epik_Tot_abs_Q>
1

> <r_epik_Metal_State_Penalty>
0.00702523

> <b_epik_Metal_Only>
0

> <s_lp_Force_Field>
OPLS_2005

> <r_lp_Energy>
14.1188

> <b_lp_Chiralities_Consistent>
1

> <s_lp_Variant>
AV-unprocessed.smi:3241-2

> <Gold.Version>
5.8.1

> <Gold.Id.Protein>
6NUR|6NUR_protein|mol2

> <Gold.PLP.Fitness>
49.3601

> <Gold.PLP.PLP>
-44.9890

> <Gold.PLP.part.hbond>
-1.0000

> <Gold.PLP.part.metal>
0.0000

> <Gold.PLP.part.buried>
-4.5027

> <Gold.PLP.part.nonpolar>
-39.4439

> <Gold.PLP.part.repulsive>
0.0799

> <Gold.PLP.ligand.clash>
0.0000

> <Gold.PLP.ligand.torsion>
0.9354

> <Gold.PLP.Chemscore.Hbond>
2.0000

> <Gold.PLP.Chemscore.CHOScore>
0.0000

> <Gold.PLP.Chemscore.Metal>
0.0000

> <Gold.Chemscore.Hbonds>
donor molecule, donor type, donor heavy atom, donor atom, acceptor molecule, acceptor atom, score
      L1  H    11    36       P1  8028  1.53
      P1  H  7989  7998       L1     8  0.63

> <Gold.PLP.Chemscore.Internal.Correction>
0.2418

> <Gold.Rescore>
     Score         DG    S(hbond)    S(metal)    S(lipo)     H(rot)  DE(clash)    DE(int)     intcor
     17.55     -20.58       1.62        0.00     124.29       1.89       2.05       0.98       ----

> <Gold.Chemscore.Fitness>
17.5538

> <Gold.Chemscore.DG>
-20.5783

> <Gold.Chemscore.ZeroCoef>
-5.4800

> <Gold.Chemscore.Hbond>
1.6155

> <Gold.Chemscore.Metal>
0.0000

> <Gold.Chemscore.Lipo>
124.2946

> <Gold.Chemscore.Internal_Hbond>
0.0000

> <Gold.Chemscore.DEClash>
2.0494

> <Gold.Chemscore.DEInternal>
0.9751

> <Gold.Chemscore.Rot>
1.8906

> <Gold.Chemscore.Internal.Correction>
   9.000000E+99

> <Gold.Chemscore.Hbonds>
donor molecule, donor type, donor heavy atom, donor atom, acceptor molecule, acceptor atom, score
      L1  H    11    36       P1  8028  0.72
      P1  H  7989  7998       L1     8  0.56

> <Gold.Chemscore.Hbond.Weighted>
-5.3959

> <Gold.Chemscore.Metal.Weighted>
-0.0000

> <Gold.Chemscore.Lipo.Weighted>
-14.5425

> <Gold.Chemscore.Internal_Hbond.Weighted>
0.0000

> <Gold.Chemscore.DEClash.Weighted>
2.0494

> <Gold.Chemscore.DEInternal.Weighted>
0.9751

> <Gold.Chemscore.Rot.Weighted>
4.8400

> <Gold.Chemscore.Internal.Correction.Weighted>
   9.000000E+99

> <Gold.Protein.RotatedTorsions>
[ 6907 6896 6895 6894 ] final  -64.86 input  -60.11 | X-H torsion
[ 7974 7965 7964 7962 ] final   61.23 input  175.53 | X-H torsion
[ 8008 7997 7996 7995 ] final  156.57 input   59.86 | X-H torsion
[ 10167 10162 10161 10158 ] final -173.70 input  -65.29 | X-H torsion
[ 10718 10713 10712 10709 ] final -127.52 input   66.30 | X-H torsion
[ 10763 10752 10751 10750 ] final -143.02 input  -60.55 | X-H torsion
[ 11005 11000 10999 10996 ] final -130.19 input  -57.11 | X-H torsion

> <Gold.Protein.ActiveResidues>
 VAL166  LYS551  ARG553  GLY616  TRP617  ASP618  TYR619  PRO620  LYS621  CYS622 
 ASP623  PHE694  ASN695  SER759  ASP760  ASP761  ALA762  ILE779  LEU786  VAL792 
 PHE793  MET794  SER795  GLU796  ALA797  LYS798  CYS799  TRP800  GLU811  SER814 

> <Gold.Protein.RotatedAtoms>
  150.7559  134.6240  159.6150 H   0  0  0  0  0  0  0  0  0  0  0  0  # atno 6907 bound_to 6896
  152.3538  134.6966  160.0237 H   0  0  0  0  0  0  0  0  0  0  0  0  # atno 6908 bound_to 6896
  151.7378  133.3284  159.3394 H   0  0  0  0  0  0  0  0  0  0  0  0  # atno 6909 bound_to 6896
  145.8871  139.3484  143.0671 H   0  0  0  0  0  0  0  0  0  0  0  0  # atno 7974 bound_to 7965
  156.2415  140.1909  156.6976 H   0  0  0  0  0  0  0  0  0  0  0  0  # atno 8008 bound_to 7997
  154.6206  140.0609  156.9636 H   0  0  0  0  0  0  0  0  0  0  0  0  # atno 8009 bound_to 7997
  155.1868  140.3281  155.4368 H   0  0  0  0  0  0  0  0  0  0  0  0  # atno 8010 bound_to 7997
  139.5674  144.1723  152.1333 H   0  0  0  0  0  0  0  0  0  0  0  0  # atno 10167 bound_to 10162
  156.1865  130.6766  151.0370 H   0  0  0  0  0  0  0  0  0  0  0  0  # atno 10718 bound_to 10713
  154.8486  135.3479  154.6121 H   0  0  0  0  0  0  0  0  0  0  0  0  # atno 10763 bound_to 10752
  153.6730  135.6984  153.5146 H   0  0  0  0  0  0  0  0  0  0  0  0  # atno 10764 bound_to 10752
  153.2728  135.4288  155.0960 H   0  0  0  0  0  0  0  0  0  0  0  0  # atno 10765 bound_to 10752
  140.9367  134.1247  157.4187 H   0  0  0  0  0  0  0  0  0  0  0  0  # atno 11005 bound_to 11000
  145.8953  140.9277  143.0531 LP  0  0  0  0  0  0  0  0  0  0  0  0  # atno 17320 bound_to 7965
  144.6729  140.0961  143.7463 LP  0  0  0  0  0  0  0  0  0  0  0  0  # atno 17321 bound_to 7965
  140.1248  144.5341  150.6839 LP  0  0  0  0  0  0  0  0  0  0  0  0  # atno 17342 bound_to 10162
  140.6958  143.2403  151.5005 LP  0  0  0  0  0  0  0  0  0  0  0  0  # atno 17343 bound_to 10162
  157.6902  131.0812  150.7130 LP  0  0  0  0  0  0  0  0  0  0  0  0  # atno 17370 bound_to 10713
  156.7186  130.4674  149.5528 LP  0  0  0  0  0  0  0  0  0  0  0  0  # atno 17371 bound_to 10713
  139.8810  135.0023  156.6120 LP  0  0  0  0  0  0  0  0  0  0  0  0  # atno 17394 bound_to 11000
  140.7789  133.8676  155.8551 LP  0  0  0  0  0  0  0  0  0  0  0  0  # atno 17395 bound_to 11000

$$$$
