AV-unprocessed.smi:876|AV-procd|sdf|4023|dock9
  -GOLD-   22720 1513D 1   1.00000     0.00000
 Structure written by MMmdl.
 40 41  0  0  0  0  0  0  0  0  1 V2000
  152.2576  140.7399  157.8558 C   0  0  0  0  0  0  0  0  0  0  0  0
  151.3923  141.4751  156.9415 N   0  0  0  0  0  0  0  0  0  0  0  0
  151.3162  142.9302  157.0235 C   0  0  0  0  0  0  0  0  0  0  0  0
  150.6021  140.7808  155.9969 C   0  0  0  0  0  0  0  0  0  0  0  0
  149.5624  141.4276  155.2837 C   0  0  0  0  0  0  0  0  0  0  0  0
  148.8021  140.6939  154.3527 C   0  0  0  0  0  0  0  0  0  0  0  0
  149.1007  139.3273  154.1469 C   0  0  0  0  0  0  0  0  0  0  0  0
  148.3985  138.4732  153.2533 N   0  0  0  0  0  0  0  0  0  0  0  0
  147.0957  138.4878  152.9228 C   0  0  0  0  0  0  0  0  0  0  0  0
  146.2647  139.3004  153.3274 O   0  0  0  0  0  0  0  0  0  0  0  0
  146.8035  137.5002  152.0648 N   0  0  0  0  0  0  0  0  0  0  0  0
  145.4789  137.2439  151.5100 C   0  0  2  0  0  0  0  0  0  0  0  0
  144.5306  136.7970  152.5887 C   0  0  0  0  0  0  0  0  0  0  0  0
  143.9369  135.6404  152.3034 C   0  0  0  0  0  0  0  0  0  0  0  0
  144.3717  135.0714  150.9769 C   0  0  2  0  0  0  0  0  0  0  0  0
  144.8725  133.6203  151.0802 C   0  0  0  0  0  0  0  0  0  0  0  0
  145.2900  133.1472  149.8165 O   0  0  0  0  0  0  0  0  0  0  0  0
  145.4643  136.0636  150.5030 C   0  0  0  0  0  0  0  0  0  0  0  0
  150.1439  138.7682  154.9103 C   0  0  0  0  0  0  0  0  0  0  0  0
  150.8749  139.4673  155.8029 N   0  0  0  0  0  0  0  0  0  0  0  0
  145.0759  138.1504  151.0551 H   0  0  0  0  0  0  0  0  0  0  0  0
  143.5192  135.1187  150.2978 H   0  0  0  0  0  0  0  0  0  0  0  0
  153.0122  140.1807  157.3016 H   0  0  0  0  0  0  0  0  0  0  0  0
  151.6754  140.0411  158.4573 H   0  0  0  0  0  0  0  0  0  0  0  0
  152.7773  141.4122  158.5386 H   0  0  0  0  0  0  0  0  0  0  0  0
  150.3056  143.2467  157.2842 H   0  0  0  0  0  0  0  0  0  0  0  0
  151.5859  143.3826  156.0684 H   0  0  0  0  0  0  0  0  0  0  0  0
  151.9952  143.3224  157.7808 H   0  0  0  0  0  0  0  0  0  0  0  0
  149.3274  142.4701  155.4352 H   0  0  0  0  0  0  0  0  0  0  0  0
  148.0008  141.1933  153.8313 H   0  0  0  0  0  0  0  0  0  0  0  0
  148.9675  137.7893  152.7762 H   0  0  0  0  0  0  0  0  0  0  0  0
  147.5466  136.8805  151.7766 H   0  0  0  0  0  0  0  0  0  0  0  0
  144.3558  137.3809  153.4805 H   0  0  0  0  0  0  0  0  0  0  0  0
  143.2094  135.1457  152.9302 H   0  0  0  0  0  0  0  0  0  0  0  0
  145.7173  133.5605  151.7670 H   0  0  0  0  0  0  0  0  0  0  0  0
  144.0918  132.9659  151.4695 H   0  0  0  0  0  0  0  0  0  0  0  0
  145.7076  133.8569  149.3527 H   0  0  0  0  0  0  0  0  0  0  0  0
  145.2629  136.4162  149.4907 H   0  0  0  0  0  0  0  0  0  0  0  0
  146.4372  135.5702  150.4718 H   0  0  0  0  0  0  0  0  0  0  0  0
  150.4054  137.7257  154.8015 H   0  0  0  0  0  0  0  0  0  0  0  0
  1  2  1  0  0  0  0
  1 23  1  0  0  0  0
  1 24  1  0  0  0  0
  1 25  1  0  0  0  0
  2  3  1  0  0  0  0
  2  4  1  0  0  0  0
  3 26  1  0  0  0  0
  3 27  1  0  0  0  0
  3 28  1  0  0  0  0
  4 20  1  0  0  0  0
  4  5  2  0  0  0  0
  5  6  1  0  0  0  0
  5 29  1  0  0  0  0
  6  7  2  0  0  0  0
  6 30  1  0  0  0  0
  7  8  1  0  0  0  0
  7 19  1  0  0  0  0
  8  9  1  0  0  0  0
  8 31  1  0  0  0  0
  9 10  2  0  0  0  0
  9 11  1  0  0  0  0
 11 12  1  0  0  0  0
 11 32  1  0  0  0  0
 12 21  1  0  0  0  0
 12 18  1  0  0  0  0
 12 13  1  0  0  0  0
 13 14  2  0  0  0  0
 13 33  1  0  0  0  0
 14 15  1  0  0  0  0
 14 34  1  0  0  0  0
 15 22  1  0  0  0  0
 15 16  1  0  0  0  0
 15 18  1  0  0  0  0
 16 17  1  0  0  0  0
 16 35  1  0  0  0  0
 16 36  1  0  0  0  0
 17 37  1  0  0  0  0
 18 38  1  0  0  0  0
 18 39  1  0  0  0  0
 19 20  2  0  0  0  0
 19 40  1  0  0  0  0
M  END
> <s_m_source_file>
AV-unprocessed.smi

> <i_m_source_file_index>
876

> <i_lp_mmshare_version>
43012

> <i_f3d_flags>
0

> <s_epik_input>
W0NIM11OKFtDSDNdKWMxW2NIXVtjSF1jKFtjSF1uMSlbTkhdQyg9TylbTkhdW0NAQEhdMltDSF09W0NIXVtDQEBIXShbQ0gyXTIpW0NIMl1bT0hd

> <s_epik_cmdline>
J2VwaWtfcHl0aG9uJywgJy1waCcsICc3LjAnLCAnLXRuJywgJzgnLCAnLW1hJywgJzIwMCcsICctbWV0YWxfYmluZGluZycsICctaW1hZScsICc8aW5maWxlLm1hZT4nLCAnLW9tYWUnLCAnPG91dGZpbGUubWFlPic=

> <r_lp_tautomer_probability>
1

> <r_epik_Ionization_Penalty>
0.617998

> <r_epik_Ionization_Penalty_Charging>
0

> <r_epik_Ionization_Penalty_Neutral>
0.617998

> <r_epik_State_Penalty>
0.632637

> <r_epik_Charging_Adjusted_Penalty>
0.632637

> <i_epik_Tot_Q>
0

> <i_epik_Tot_abs_Q>
0

> <r_epik_Metal_State_Penalty>
0.305596

> <b_epik_Metal_Only>
0

> <s_lp_Force_Field>
OPLS_2005

> <r_lp_Energy>
21.6673

> <b_lp_Chiralities_Consistent>
1

> <s_lp_Variant>
AV-unprocessed.smi:876-5

> <Gold.Version>
5.8.1

> <Gold.Id.Protein>
6NUR|6NUR_protein|mol2

> <Gold.PLP.Fitness>
41.0747

> <Gold.PLP.PLP>
-32.9076

> <Gold.PLP.part.hbond>
-3.8817

> <Gold.PLP.part.metal>
0.0000

> <Gold.PLP.part.buried>
-0.0484

> <Gold.PLP.part.nonpolar>
-30.9719

> <Gold.PLP.part.repulsive>
1.4056

> <Gold.PLP.ligand.clash>
0.0000

> <Gold.PLP.ligand.torsion>
0.3281

> <Gold.PLP.Chemscore.Hbond>
2.9360

> <Gold.PLP.Chemscore.CHOScore>
0.0000

> <Gold.PLP.Chemscore.Metal>
0.0000

> <Gold.Chemscore.Hbonds>
donor molecule, donor type, donor heavy atom, donor atom, acceptor molecule, acceptor atom, score
      L1  H     8    31       P1  7948  0.93
      L1  H    11    32       P1  7948  0.99
      L1  H    17    37       P1  7921  1.00

> <Gold.PLP.Chemscore.Internal.Correction>
0.0154

> <Gold.Rescore>
     Score         DG    S(hbond)    S(metal)    S(lipo)     H(rot)  DE(clash)    DE(int)     intcor
     14.70     -17.90       2.52        0.00      73.65       1.80       1.81       1.39       ----

> <Gold.Chemscore.Fitness>
14.6988

> <Gold.Chemscore.DG>
-17.9021

> <Gold.Chemscore.ZeroCoef>
-5.4800

> <Gold.Chemscore.Hbond>
2.5172

> <Gold.Chemscore.Metal>
0.0000

> <Gold.Chemscore.Lipo>
73.6528

> <Gold.Chemscore.Internal_Hbond>
0.0000

> <Gold.Chemscore.DEClash>
1.8114

> <Gold.Chemscore.DEInternal>
1.3920

> <Gold.Chemscore.Rot>
1.7980

> <Gold.Chemscore.Internal.Correction>
   9.000000E+99

> <Gold.Chemscore.Hbonds>
donor molecule, donor type, donor heavy atom, donor atom, acceptor molecule, acceptor atom, score
      L1  H     8    31       P1  7948  0.89
      L1  H    11    32       P1  7948  0.91
      L1  H    17    37       P1  7921  0.36

> <Gold.Chemscore.Hbond.Weighted>
-8.4076

> <Gold.Chemscore.Metal.Weighted>
-0.0000

> <Gold.Chemscore.Lipo.Weighted>
-8.6174

> <Gold.Chemscore.Internal_Hbond.Weighted>
0.0000

> <Gold.Chemscore.DEClash.Weighted>
1.8114

> <Gold.Chemscore.DEInternal.Weighted>
1.3920

> <Gold.Chemscore.Rot.Weighted>
4.6029

> <Gold.Chemscore.Internal.Correction.Weighted>
   9.000000E+99

> <Gold.Protein.RotatedTorsions>
[ 6907 6896 6895 6894 ] final   20.66 input  -60.11 | X-H torsion
[ 7974 7965 7964 7962 ] final  153.80 input  175.53 | X-H torsion
[ 8008 7997 7996 7995 ] final -119.83 input   59.86 | X-H torsion
[ 10167 10162 10161 10158 ] final  -86.80 input  -65.29 | X-H torsion
[ 10718 10713 10712 10709 ] final  -51.40 input   66.30 | X-H torsion
[ 10763 10752 10751 10750 ] final  -55.32 input  -60.55 | X-H torsion
[ 11005 11000 10999 10996 ] final   14.51 input  -57.11 | X-H torsion

> <Gold.Protein.ActiveResidues>
 VAL166  LYS551  ARG553  GLY616  TRP617  ASP618  TYR619  PRO620  LYS621  CYS622 
 ASP623  PHE694  ASN695  SER759  ASP760  ASP761  ALA762  ILE779  LEU786  VAL792 
 PHE793  MET794  SER795  GLU796  ALA797  LYS798  CYS799  TRP800  GLU811  SER814 

> <Gold.Protein.RotatedAtoms>
  151.8998  135.0383  160.0505 H   0  0  0  0  0  0  0  0  0  0  0  0  # atno 6907 bound_to 6896
  152.2368  133.5098  159.5255 H   0  0  0  0  0  0  0  0  0  0  0  0  # atno 6908 bound_to 6896
  150.7041  134.1059  159.4025 H   0  0  0  0  0  0  0  0  0  0  0  0  # atno 6909 bound_to 6896
  144.8131  139.6848  143.6133 H   0  0  0  0  0  0  0  0  0  0  0  0  # atno 7974 bound_to 7965
  155.1221  140.0399  157.2753 H   0  0  0  0  0  0  0  0  0  0  0  0  # atno 8008 bound_to 7997
  154.6606  140.2590  155.7088 H   0  0  0  0  0  0  0  0  0  0  0  0  # atno 8009 bound_to 7997
  156.2617  140.2818  156.1076 H   0  0  0  0  0  0  0  0  0  0  0  0  # atno 8010 bound_to 7997
  140.3907  143.2706  151.9268 H   0  0  0  0  0  0  0  0  0  0  0  0  # atno 10167 bound_to 10162
  156.1714  130.4149  149.9642 H   0  0  0  0  0  0  0  0  0  0  0  0  # atno 10718 bound_to 10713
  154.1889  135.6430  153.5054 H   0  0  0  0  0  0  0  0  0  0  0  0  # atno 10763 bound_to 10752
  153.0040  135.5424  154.6436 H   0  0  0  0  0  0  0  0  0  0  0  0  # atno 10764 bound_to 10752
  154.5820  135.2926  155.0696 H   0  0  0  0  0  0  0  0  0  0  0  0  # atno 10765 bound_to 10752
  140.4687  134.1053  155.7729 H   0  0  0  0  0  0  0  0  0  0  0  0  # atno 11005 bound_to 11000
  146.2431  139.6042  142.9478 LP  0  0  0  0  0  0  0  0  0  0  0  0  # atno 17320 bound_to 7965
  145.5278  141.0428  143.2399 LP  0  0  0  0  0  0  0  0  0  0  0  0  # atno 17321 bound_to 7965
  139.4789  144.5730  151.8057 LP  0  0  0  0  0  0  0  0  0  0  0  0  # atno 17342 bound_to 10162
  140.4843  144.1404  150.5938 LP  0  0  0  0  0  0  0  0  0  0  0  0  # atno 17343 bound_to 10162
  156.7441  130.9090  151.3634 LP  0  0  0  0  0  0  0  0  0  0  0  0  # atno 17370 bound_to 10713
  157.6805  130.9135  150.0255 LP  0  0  0  0  0  0  0  0  0  0  0  0  # atno 17371 bound_to 10713
  141.1587  133.8834  157.1907 LP  0  0  0  0  0  0  0  0  0  0  0  0  # atno 17394 bound_to 11000
  139.9899  135.0068  156.9950 LP  0  0  0  0  0  0  0  0  0  0  0  0  # atno 17395 bound_to 11000

$$$$
