AV-unprocessed.smi:281|AV-procd|sdf|2110|dock8
  -GOLD-   2262021403D 1   1.00000     0.00000
 Structure written by MMmdl.
 55 59  0  0  0  0  0  0  0  0  1 V2000
  153.5418  138.6132  154.5005 C   0  0  0  0  0  0  0  0  0  0  0  0
  152.2887  139.2475  155.1121 C   0  0  1  0  0  0  0  0  0  0  0  0
  151.0003  138.5886  154.5997 C   0  0  0  0  0  0  0  0  0  0  0  0
  149.8423  139.1672  155.2730 N   0  0  0  0  0  0  0  0  0  0  0  0
  148.6130  138.8819  154.7688 C   0  0  0  0  0  0  0  0  0  0  0  0
  147.8119  139.8877  154.3236 N   0  0  0  0  0  0  0  0  0  0  0  0
  146.6053  139.6197  153.8164 C   0  0  0  0  0  0  0  0  0  0  0  0
  146.0083  138.4369  153.6656 N   0  0  0  0  0  0  0  0  0  0  0  0
  146.7991  137.4229  154.1190 C   0  0  0  0  0  0  0  0  0  0  0  0
  148.1030  137.5549  154.6766 C   0  0  0  0  0  0  0  0  0  0  0  0
  148.5921  136.3018  155.0260 N   0  0  0  0  0  0  0  0  0  0  0  0
  147.6394  135.4779  154.6865 C   0  0  0  0  0  0  0  0  0  0  0  0
  146.5203  136.0670  154.1440 N   0  0  0  0  0  0  0  0  0  0  0  0
  145.3131  135.3963  153.6855 C   0  0  0  0  0  0  0  0  0  0  0  0
  145.4241  134.8296  152.2501 C   0  0  1  0  0  0  0  0  0  0  0  0
  146.1107  135.7622  151.4332 O   0  0  0  0  0  0  0  0  0  0  0  0
  146.1720  133.5035  152.1966 C   0  0  0  0  0  0  0  0  0  0  0  0
  145.5589  132.8207  150.9819 C   0  0  0  0  0  0  0  0  0  0  0  0
  144.1866  133.1588  151.0894 O   0  0  0  0  0  0  0  0  0  0  0  0
  144.0758  134.4920  151.5798 C   0  0  0  0  0  0  0  0  0  0  0  0
  149.9352  139.0933  156.7280 C   0  0  0  0  0  0  0  0  0  0  0  0
  151.2736  139.6755  157.2543 C   0  0  2  0  0  0  0  0  0  0  0  0
  151.4814  139.2886  158.7156 C   0  0  0  0  0  0  0  0  0  0  0  0
  152.3090  140.4345  159.2718 C   0  0  0  0  0  0  0  0  0  0  0  0
  151.7010  141.5548  158.6592 O   0  0  0  0  0  0  0  0  0  0  0  0
  151.4315  141.2264  157.3005 C   0  0  2  0  0  0  0  0  0  0  0  0
  150.2385  142.0700  156.8299 C   0  0  0  0  0  0  0  0  0  0  0  0
  152.3616  139.0922  156.5289 O   0  0  0  0  0  0  0  0  0  0  0  0
  153.5411  138.7100  153.4147 H   0  0  0  0  0  0  0  0  0  0  0  0
  153.6053  137.5520  154.7425 H   0  0  0  0  0  0  0  0  0  0  0  0
  154.4447  139.0954  154.8761 H   0  0  0  0  0  0  0  0  0  0  0  0
  152.2791  140.3058  154.8500 H   0  0  0  0  0  0  0  0  0  0  0  0
  150.9182  138.7355  153.5217 H   0  0  0  0  0  0  0  0  0  0  0  0
  151.0292  137.5132  154.7830 H   0  0  0  0  0  0  0  0  0  0  0  0
  146.0364  140.4757  153.4846 H   0  0  0  0  0  0  0  0  0  0  0  0
  147.7291  134.4108  154.8282 H   0  0  0  0  0  0  0  0  0  0  0  0
  145.0791  134.5951  154.3880 H   0  0  0  0  0  0  0  0  0  0  0  0
  144.4868  136.1057  153.7469 H   0  0  0  0  0  0  0  0  0  0  0  0
  147.0390  135.6022  151.5092 H   0  0  0  0  0  0  0  0  0  0  0  0
  147.2553  133.6119  152.1283 H   0  0  0  0  0  0  0  0  0  0  0  0
  145.9534  132.9097  153.0857 H   0  0  0  0  0  0  0  0  0  0  0  0
  145.9665  133.2281  150.0553 H   0  0  0  0  0  0  0  0  0  0  0  0
  145.7095  131.7411  150.9812 H   0  0  0  0  0  0  0  0  0  0  0  0
  143.2451  134.5205  152.2840 H   0  0  0  0  0  0  0  0  0  0  0  0
  143.8360  135.1753  150.7637 H   0  0  0  0  0  0  0  0  0  0  0  0
  149.0936  139.5833  157.2153 H   0  0  0  0  0  0  0  0  0  0  0  0
  149.8694  138.0400  157.0054 H   0  0  0  0  0  0  0  0  0  0  0  0
  150.5251  139.2585  159.2400 H   0  0  0  0  0  0  0  0  0  0  0  0
  151.9594  138.3166  158.8422 H   0  0  0  0  0  0  0  0  0  0  0  0
  152.2701  140.4972  160.3594 H   0  0  0  0  0  0  0  0  0  0  0  0
  153.3522  140.3576  158.9611 H   0  0  0  0  0  0  0  0  0  0  0  0
  152.3141  141.5260  156.7347 H   0  0  0  0  0  0  0  0  0  0  0  0
  150.0020  141.8790  155.7834 H   0  0  0  0  0  0  0  0  0  0  0  0
  150.4603  143.1332  156.9227 H   0  0  0  0  0  0  0  0  0  0  0  0
  149.3490  141.8707  157.4271 H   0  0  0  0  0  0  0  0  0  0  0  0
  1  2  1  0  0  0  0
  1 29  1  0  0  0  0
  1 30  1  0  0  0  0
  1 31  1  0  0  0  0
  2 28  1  0  0  0  0
  2  3  1  0  0  0  0
  2 32  1  0  0  0  0
  3  4  1  0  0  0  0
  3 33  1  0  0  0  0
  3 34  1  0  0  0  0
  4  5  1  0  0  0  0
  4 21  1  0  0  0  0
  5 10  1  0  0  0  0
  5  6  2  0  0  0  0
  6  7  1  0  0  0  0
  7  8  2  0  0  0  0
  7 35  1  0  0  0  0
  8  9  1  0  0  0  0
  9 13  1  0  0  0  0
  9 10  2  0  0  0  0
 10 11  1  0  0  0  0
 11 12  2  0  0  0  0
 12 13  1  0  0  0  0
 12 36  1  0  0  0  0
 13 14  1  0  0  0  0
 14 15  1  0  0  0  0
 14 37  1  0  0  0  0
 14 38  1  0  0  0  0
 15 20  1  0  0  0  0
 15 16  1  0  0  0  0
 15 17  1  0  0  0  0
 16 39  1  0  0  0  0
 17 18  1  0  0  0  0
 17 40  1  0  0  0  0
 17 41  1  0  0  0  0
 18 19  1  0  0  0  0
 18 42  1  0  0  0  0
 18 43  1  0  0  0  0
 19 20  1  0  0  0  0
 20 44  1  0  0  0  0
 20 45  1  0  0  0  0
 21 22  1  0  0  0  0
 21 46  1  0  0  0  0
 21 47  1  0  0  0  0
 22 26  1  0  0  0  0
 22 23  1  0  0  0  0
 22 28  1  0  0  0  0
 23 24  1  0  0  0  0
 23 48  1  0  0  0  0
 23 49  1  0  0  0  0
 24 25  1  0  0  0  0
 24 50  1  0  0  0  0
 24 51  1  0  0  0  0
 25 26  1  0  0  0  0
 26 27  1  0  0  0  0
 26 52  1  0  0  0  0
 27 53  1  0  0  0  0
 27 54  1  0  0  0  0
 27 55  1  0  0  0  0
M  END
> <s_m_source_file>
AV-unprocessed.smi

> <i_m_source_file_index>
281

> <i_lp_mmshare_version>
43012

> <i_f3d_flags>
0

> <s_epik_input>
W0NIM11bQ0BASF0xT1tDSDJdW0NIMl1bQ0BAXTEyW0NIMl1OKFtDSDJdW0NASF0oTzIpW0NIM10pYyhuW2NIXW4zKWMoYzM0KW5bY0hdbjRbQ0gyXVtDQEBdNShbT0hdKVtDSDJdW0NIMl1PW0NIMl01

> <s_epik_cmdline>
J2VwaWtfcHl0aG9uJywgJy1waCcsICc3LjAnLCAnLXRuJywgJzgnLCAnLW1hJywgJzIwMCcsICctbWV0YWxfYmluZGluZycsICctaW1hZScsICc8aW5maWxlLm1hZT4nLCAnLW9tYWUnLCAnPG91dGZpbGUubWFlPic=

> <r_lp_tautomer_probability>
1

> <r_epik_Ionization_Penalty>
0.00571331

> <r_epik_Ionization_Penalty_Charging>
0

> <r_epik_Ionization_Penalty_Neutral>
0.00571331

> <r_epik_State_Penalty>
0.00399586

> <r_epik_Charging_Adjusted_Penalty>
0.00399586

> <i_epik_Tot_Q>
0

> <i_epik_Tot_abs_Q>
0

> <r_epik_Metal_State_Penalty>
-0

> <b_epik_Metal_Only>
0

> <s_lp_Force_Field>
OPLS_2005

> <r_lp_Energy>
52.955

> <b_lp_Chiralities_Consistent>
1

> <s_lp_Variant>
AV-unprocessed.smi:281-10

> <Gold.Version>
5.8.1

> <Gold.Id.Protein>
6NUR|6NUR_protein|mol2

> <Gold.PLP.Fitness>
36.8395

> <Gold.PLP.PLP>
-30.7443

> <Gold.PLP.part.hbond>
-1.5256

> <Gold.PLP.part.metal>
0.0000

> <Gold.PLP.part.buried>
-3.4700

> <Gold.PLP.part.nonpolar>
-25.2505

> <Gold.PLP.part.repulsive>
0.6222

> <Gold.PLP.ligand.clash>
0.0000

> <Gold.PLP.ligand.torsion>
0.7833

> <Gold.PLP.Chemscore.Hbond>
1.4810

> <Gold.PLP.Chemscore.CHOScore>
0.9864

> <Gold.PLP.Chemscore.Metal>
0.0000

> <Gold.Chemscore.Hbonds>
donor molecule, donor type, donor heavy atom, donor atom, acceptor molecule, acceptor atom, score
      L1  H    16    39       P1  7948  1.00
      P1  H  7997  8010       L1    28  0.28
      L1  C     7    35       P1 10175  0.89

> <Gold.PLP.Chemscore.Internal.Correction>
0.2596

> <Gold.Rescore>
     Score         DG    S(hbond)    S(metal)    S(lipo)     H(rot)  DE(clash)    DE(int)     intcor
     12.33     -13.41       1.00        0.00      85.03       2.09       0.21       0.87       ----

> <Gold.Chemscore.Fitness>
12.3323

> <Gold.Chemscore.DG>
-13.4092

> <Gold.Chemscore.ZeroCoef>
-5.4800

> <Gold.Chemscore.Hbond>
0.9993

> <Gold.Chemscore.Metal>
0.0000

> <Gold.Chemscore.Lipo>
85.0326

> <Gold.Chemscore.Internal_Hbond>
0.0000

> <Gold.Chemscore.DEClash>
0.2058

> <Gold.Chemscore.DEInternal>
0.8712

> <Gold.Chemscore.Rot>
2.0927

> <Gold.Chemscore.Internal.Correction>
   9.000000E+99

> <Gold.Chemscore.Hbonds>
donor molecule, donor type, donor heavy atom, donor atom, acceptor molecule, acceptor atom, score
      L1  H    16    39       P1  7948  0.92
      P1  H  7997  8010       L1    28  0.02

> <Gold.Chemscore.Hbond.Weighted>
-3.3378

> <Gold.Chemscore.Metal.Weighted>
-0.0000

> <Gold.Chemscore.Lipo.Weighted>
-9.9488

> <Gold.Chemscore.Internal_Hbond.Weighted>
0.0000

> <Gold.Chemscore.DEClash.Weighted>
0.2058

> <Gold.Chemscore.DEInternal.Weighted>
0.8712

> <Gold.Chemscore.Rot.Weighted>
5.3573

> <Gold.Chemscore.Internal.Correction.Weighted>
   9.000000E+99

> <Gold.Protein.RotatedTorsions>
[ 6907 6896 6895 6894 ] final   93.46 input  -60.11 | X-H torsion
[ 7974 7965 7964 7962 ] final -126.02 input  175.53 | X-H torsion
[ 8008 7997 7996 7995 ] final   59.39 input   59.86 | X-H torsion
[ 10167 10162 10161 10158 ] final  -36.94 input  -65.29 | X-H torsion
[ 10718 10713 10712 10709 ] final  -73.25 input   66.30 | X-H torsion
[ 10763 10752 10751 10750 ] final  -97.25 input  -60.55 | X-H torsion
[ 11005 11000 10999 10996 ] final    0.94 input  -57.11 | X-H torsion

> <Gold.Protein.ActiveResidues>
 VAL166  LYS551  ARG553  GLY616  TRP617  ASP618  TYR619  PRO620  LYS621  CYS622 
 ASP623  PHE694  ASN695  SER759  ASP760  ASP761  ALA762  ILE779  LEU786  VAL792 
 PHE793  MET794  SER795  GLU796  ALA797  LYS798  CYS799  TRP800  GLU811  SER814 

> <Gold.Protein.RotatedAtoms>
  152.5452  134.1345  159.8452 H   0  0  0  0  0  0  0  0  0  0  0  0  # atno 6907 bound_to 6896
  151.1387  133.4979  159.2605 H   0  0  0  0  0  0  0  0  0  0  0  0  # atno 6908 bound_to 6896
  151.1596  135.0277  159.8759 H   0  0  0  0  0  0  0  0  0  0  0  0  # atno 6909 bound_to 6896
  144.9916  140.7737  143.4551 H   0  0  0  0  0  0  0  0  0  0  0  0  # atno 7974 bound_to 7965
  155.5655  140.3489  155.4502 H   0  0  0  0  0  0  0  0  0  0  0  0  # atno 8008 bound_to 7997
  156.0483  140.1312  157.0105 H   0  0  0  0  0  0  0  0  0  0  0  0  # atno 8009 bound_to 7997
  154.4422  140.1010  156.6323 H   0  0  0  0  0  0  0  0  0  0  0  0  # atno 8010 bound_to 7997
  140.7130  143.3375  151.2431 H   0  0  0  0  0  0  0  0  0  0  0  0  # atno 10167 bound_to 10162
  156.0288  130.4390  150.2714 H   0  0  0  0  0  0  0  0  0  0  0  0  # atno 10718 bound_to 10713
  154.7311  135.5053  153.8966 H   0  0  0  0  0  0  0  0  0  0  0  0  # atno 10763 bound_to 10752
  153.0951  135.6670  153.9787 H   0  0  0  0  0  0  0  0  0  0  0  0  # atno 10764 bound_to 10752
  153.9588  135.3050  155.3414 H   0  0  0  0  0  0  0  0  0  0  0  0  # atno 10765 bound_to 10752
  140.6210  133.9662  155.8224 H   0  0  0  0  0  0  0  0  0  0  0  0  # atno 11005 bound_to 11000
  145.2278  139.2129  143.5059 LP  0  0  0  0  0  0  0  0  0  0  0  0  # atno 17320 bound_to 7965
  146.3432  140.2149  142.8590 LP  0  0  0  0  0  0  0  0  0  0  0  0  # atno 17321 bound_to 7965
  139.6873  143.9751  152.2841 LP  0  0  0  0  0  0  0  0  0  0  0  0  # atno 17342 bound_to 10162
  139.9401  144.6687  150.8275 LP  0  0  0  0  0  0  0  0  0  0  0  0  # atno 17343 bound_to 10162
  157.0817  131.0145  151.3154 LP  0  0  0  0  0  0  0  0  0  0  0  0  # atno 17370 bound_to 10713
  157.4922  130.7829  149.7519 LP  0  0  0  0  0  0  0  0  0  0  0  0  # atno 17371 bound_to 10713
  141.0742  134.0159  157.3481 LP  0  0  0  0  0  0  0  0  0  0  0  0  # atno 17394 bound_to 11000
  139.9153  135.0196  156.7858 LP  0  0  0  0  0  0  0  0  0  0  0  0  # atno 17395 bound_to 11000

$$$$
