AV-unprocessed.smi:1648|AV-procd|sdf|6633|dock3
  -GOLD-   22720 7333D 1   1.00000     0.00000
 Structure written by MMmdl.
 41 41  0  0  0  0  0  0  0  0  1 V2000
  140.5535  135.8596  153.5578 C   0  0  0  0  0  0  0  0  0  0  0  0
  141.4151  134.6180  153.3195 C   0  0  0  0  0  0  0  0  0  0  0  0
  140.9935  133.5158  153.6621 O   0  0  0  0  0  0  0  0  0  0  0  0
  142.6219  134.7545  152.7425 N   0  0  0  0  0  0  0  0  0  0  0  0
  143.5873  133.6959  152.4325 C   0  0  2  0  0  0  0  0  0  0  0  0
  144.6843  133.6970  153.5143 C   0  0  0  0  0  0  0  0  0  0  0  0
  144.7240  134.5860  154.3665 O   0  0  0  0  0  0  0  0  0  0  0  0
  145.5732  132.6932  153.4563 N   0  0  0  0  0  0  0  0  0  0  0  0
  146.6888  132.4935  154.3758 C   0  0  1  0  0  0  0  0  0  0  0  0
  146.6760  131.0518  154.9186 C   0  0  0  0  0  0  0  0  0  0  0  0
  148.0014  132.8614  153.6557 C   0  0  0  0  0  0  0  0  0  0  0  0
  149.1318  132.9640  154.5593 N   0  0  0  0  0  0  0  0  0  0  0  0
  149.6692  131.9561  155.3496 C   0  0  0  0  0  0  0  0  0  0  0  0
  150.7264  132.5137  156.0323 C   0  0  0  0  0  0  0  0  0  0  0  0
  150.8604  133.8536  155.6758 N   0  0  0  0  0  0  0  0  0  0  0  0
  149.8839  134.0470  154.7987 C   0  0  0  0  0  0  0  0  0  0  0  0
  144.2186  133.9849  151.0382 C   0  0  0  0  0  0  0  0  0  0  0  0
  144.9786  132.7623  150.4863 C   0  0  0  0  0  0  0  0  0  0  0  0
  145.1659  135.2032  151.0452 C   0  0  0  0  0  0  0  0  0  0  0  0
  141.0549  136.5535  154.2327 H   0  0  0  0  0  0  0  0  0  0  0  0
  139.6005  135.5837  154.0108 H   0  0  0  0  0  0  0  0  0  0  0  0
  140.3405  136.3724  152.6198 H   0  0  0  0  0  0  0  0  0  0  0  0
  142.9099  135.6935  152.5080 H   0  0  0  0  0  0  0  0  0  0  0  0
  143.0884  132.7256  152.4028 H   0  0  0  0  0  0  0  0  0  0  0  0
  145.4655  132.0112  152.7194 H   0  0  0  0  0  0  0  0  0  0  0  0
  146.5705  133.1761  155.2196 H   0  0  0  0  0  0  0  0  0  0  0  0
  147.4558  130.8984  155.6649 H   0  0  0  0  0  0  0  0  0  0  0  0
  146.8320  130.3270  154.1190 H   0  0  0  0  0  0  0  0  0  0  0  0
  145.7251  130.8174  155.3982 H   0  0  0  0  0  0  0  0  0  0  0  0
  148.2373  132.1169  152.8936 H   0  0  0  0  0  0  0  0  0  0  0  0
  147.8934  133.8155  153.1375 H   0  0  0  0  0  0  0  0  0  0  0  0
  149.2648  130.9546  155.3633 H   0  0  0  0  0  0  0  0  0  0  0  0
  151.3963  132.0570  156.7457 H   0  0  0  0  0  0  0  0  0  0  0  0
  149.7099  135.0002  154.3209 H   0  0  0  0  0  0  0  0  0  0  0  0
  143.4150  134.2049  150.3327 H   0  0  0  0  0  0  0  0  0  0  0  0
  145.7788  132.4576  151.1615 H   0  0  0  0  0  0  0  0  0  0  0  0
  145.4291  132.9842  149.5183 H   0  0  0  0  0  0  0  0  0  0  0  0
  144.3223  131.9044  150.3391 H   0  0  0  0  0  0  0  0  0  0  0  0
  145.9721  135.0717  151.7675 H   0  0  0  0  0  0  0  0  0  0  0  0
  144.6458  136.1293  151.2902 H   0  0  0  0  0  0  0  0  0  0  0  0
  145.6221  135.3502  150.0656 H   0  0  0  0  0  0  0  0  0  0  0  0
  1  2  1  0  0  0  0
  1 20  1  0  0  0  0
  1 21  1  0  0  0  0
  1 22  1  0  0  0  0
  2  3  2  0  0  0  0
  2  4  1  0  0  0  0
  4  5  1  0  0  0  0
  4 23  1  0  0  0  0
  5  6  1  0  0  0  0
  5 17  1  0  0  0  0
  5 24  1  0  0  0  0
  6  7  2  0  0  0  0
  6  8  1  0  0  0  0
  8  9  1  0  0  0  0
  8 25  1  0  0  0  0
  9 10  1  0  0  0  0
  9 11  1  0  0  0  0
  9 26  1  0  0  0  0
 10 27  1  0  0  0  0
 10 28  1  0  0  0  0
 10 29  1  0  0  0  0
 11 12  1  0  0  0  0
 11 30  1  0  0  0  0
 11 31  1  0  0  0  0
 12 16  1  0  0  0  0
 12 13  1  0  0  0  0
 13 14  2  0  0  0  0
 13 32  1  0  0  0  0
 14 15  1  0  0  0  0
 14 33  1  0  0  0  0
 15 16  2  0  0  0  0
 16 34  1  0  0  0  0
 17 18  1  0  0  0  0
 17 19  1  0  0  0  0
 17 35  1  0  0  0  0
 18 36  1  0  0  0  0
 18 37  1  0  0  0  0
 18 38  1  0  0  0  0
 19 39  1  0  0  0  0
 19 40  1  0  0  0  0
 19 41  1  0  0  0  0
M  END
> <s_m_source_file>
AV-unprocessed.smi

> <i_m_source_file_index>
1648

> <i_lp_mmshare_version>
43012

> <i_f3d_flags>
0

> <s_epik_input>
W0NIM11DKD1PKVtOSF1bQ0BASF0oW0NIXShbQ0gzXSlbQ0gzXSlDKD1PKVtOSF1bQ0BIXShbQ0gzXSlbQ0gyXW4xW2NIXVtjSF1uW2NIXTE=

> <s_epik_cmdline>
J2VwaWtfcHl0aG9uJywgJy1waCcsICc3LjAnLCAnLXRuJywgJzgnLCAnLW1hJywgJzIwMCcsICctbWV0YWxfYmluZGluZycsICctaW1hZScsICc8aW5maWxlLm1hZT4nLCAnLW9tYWUnLCAnPG91dGZpbGUubWFlPic=

> <r_lp_tautomer_probability>
1

> <r_epik_Ionization_Penalty>
0.628885

> <r_epik_Ionization_Penalty_Charging>
0.628884

> <r_epik_Ionization_Penalty_Neutral>
4.35155e-07

> <r_epik_State_Penalty>
0.64556

> <r_epik_Charging_Adjusted_Penalty>
1.27444

> <i_epik_Tot_Q>
0

> <i_epik_Tot_abs_Q>
0

> <r_epik_Metal_State_Penalty>
0.30874

> <b_epik_Metal_Only>
0

> <s_lp_Force_Field>
OPLS_2005

> <r_lp_Energy>
9.63914

> <b_lp_Chiralities_Consistent>
1

> <s_lp_Variant>
AV-unprocessed.smi:1648-7

> <Gold.Version>
5.8.1

> <Gold.Id.Protein>
6NUR|6NUR_protein|mol2

> <Gold.PLP.Fitness>
36.3007

> <Gold.PLP.PLP>
-29.0236

> <Gold.PLP.part.hbond>
-2.6545

> <Gold.PLP.part.metal>
0.0000

> <Gold.PLP.part.buried>
-4.2719

> <Gold.PLP.part.nonpolar>
-21.7467

> <Gold.PLP.part.repulsive>
0.2993

> <Gold.PLP.ligand.clash>
0.0000

> <Gold.PLP.ligand.torsion>
0.7172

> <Gold.PLP.Chemscore.Hbond>
1.8882

> <Gold.PLP.Chemscore.CHOScore>
0.9828

> <Gold.PLP.Chemscore.Metal>
0.0000

> <Gold.Chemscore.Hbonds>
donor molecule, donor type, donor heavy atom, donor atom, acceptor molecule, acceptor atom, score
      P1  H 10995 11001       L1     3  0.45
      P1  H 11000 11005       L1     3  0.47
      L1  C    16    34       P1  7948  0.24

> <Gold.PLP.Chemscore.Internal.Correction>
0.0986

> <Gold.Rescore>
     Score         DG    S(hbond)    S(metal)    S(lipo)     H(rot)  DE(clash)    DE(int)     intcor
      9.70     -10.88       1.82        0.00      49.43       2.52       0.09       1.08       ----

> <Gold.Chemscore.Fitness>
9.7011

> <Gold.Chemscore.DG>
-10.8751

> <Gold.Chemscore.ZeroCoef>
-5.4800

> <Gold.Chemscore.Hbond>
1.8165

> <Gold.Chemscore.Metal>
0.0000

> <Gold.Chemscore.Lipo>
49.4284

> <Gold.Chemscore.Internal_Hbond>
0.0000

> <Gold.Chemscore.DEClash>
0.0920

> <Gold.Chemscore.DEInternal>
1.0819

> <Gold.Chemscore.Rot>
2.5216

> <Gold.Chemscore.Internal.Correction>
   9.000000E+99

> <Gold.Chemscore.Hbonds>
donor molecule, donor type, donor heavy atom, donor atom, acceptor molecule, acceptor atom, score
      P1  H 10995 11001       L1     3  0.42
      P1  H 11000 11005       L1     3  0.07

> <Gold.Chemscore.Hbond.Weighted>
-6.0673

> <Gold.Chemscore.Metal.Weighted>
-0.0000

> <Gold.Chemscore.Lipo.Weighted>
-5.7831

> <Gold.Chemscore.Internal_Hbond.Weighted>
0.0000

> <Gold.Chemscore.DEClash.Weighted>
0.0920

> <Gold.Chemscore.DEInternal.Weighted>
1.0819

> <Gold.Chemscore.Rot.Weighted>
6.4553

> <Gold.Chemscore.Internal.Correction.Weighted>
   9.000000E+99

> <Gold.Protein.RotatedTorsions>
[ 6907 6896 6895 6894 ] final   16.85 input  -60.11 | X-H torsion
[ 7974 7965 7964 7962 ] final -166.75 input  175.53 | X-H torsion
[ 8008 7997 7996 7995 ] final  -17.17 input   59.86 | X-H torsion
[ 10167 10162 10161 10158 ] final -155.82 input  -65.29 | X-H torsion
[ 10718 10713 10712 10709 ] final  -32.60 input   66.30 | X-H torsion
[ 10763 10752 10751 10750 ] final   71.92 input  -60.55 | X-H torsion
[ 11005 11000 10999 10996 ] final   16.90 input  -57.11 | X-H torsion

> <Gold.Protein.ActiveResidues>
 VAL166  LYS551  ARG553  GLY616  TRP617  ASP618  TYR619  PRO620  LYS621  CYS622 
 ASP623  PHE694  ASN695  SER759  ASP760  ASP761  ALA762  ILE779  LEU786  VAL792 
 PHE793  MET794  SER795  GLU796  ALA797  LYS798  CYS799  TRP800  GLU811  SER814 

> <Gold.Protein.RotatedAtoms>
  151.8404  135.0592  160.0447 H   0  0  0  0  0  0  0  0  0  0  0  0  # atno 6907 bound_to 6896
  152.2813  133.5469  159.5508 H   0  0  0  0  0  0  0  0  0  0  0  0  # atno 6908 bound_to 6896
  150.7191  134.0476  159.3829 H   0  0  0  0  0  0  0  0  0  0  0  0  # atno 6909 bound_to 6896
  144.7238  140.2620  143.6263 H   0  0  0  0  0  0  0  0  0  0  0  0  # atno 7974 bound_to 7965
  154.4998  140.2150  155.9370 H   0  0  0  0  0  0  0  0  0  0  0  0  # atno 8008 bound_to 7997
  156.1419  140.3178  155.8476 H   0  0  0  0  0  0  0  0  0  0  0  0  # atno 8009 bound_to 7997
  155.4104  140.0490  157.3023 H   0  0  0  0  0  0  0  0  0  0  0  0  # atno 8010 bound_to 7997
  139.6900  143.9436  152.2380 H   0  0  0  0  0  0  0  0  0  0  0  0  # atno 10167 bound_to 10162
  156.3729  130.4342  149.7531 H   0  0  0  0  0  0  0  0  0  0  0  0  # atno 10718 bound_to 10713
  153.0427  135.5119  154.7665 H   0  0  0  0  0  0  0  0  0  0  0  0  # atno 10763 bound_to 10752
  154.6590  135.2936  154.9894 H   0  0  0  0  0  0  0  0  0  0  0  0  # atno 10764 bound_to 10752
  154.0751  135.6672  153.4882 H   0  0  0  0  0  0  0  0  0  0  0  0  # atno 10765 bound_to 10752
  140.4419  134.1313  155.7691 H   0  0  0  0  0  0  0  0  0  0  0  0  # atno 11005 bound_to 11000
  145.8127  139.2010  143.1984 LP  0  0  0  0  0  0  0  0  0  0  0  0  # atno 17320 bound_to 7965
  146.0582  140.7998  142.9748 LP  0  0  0  0  0  0  0  0  0  0  0  0  # atno 17321 bound_to 7965
  139.9250  144.6776  150.8422 LP  0  0  0  0  0  0  0  0  0  0  0  0  # atno 17342 bound_to 10162
  140.7680  143.3348  151.2332 LP  0  0  0  0  0  0  0  0  0  0  0  0  # atno 17343 bound_to 10162
  156.4651  130.7970  151.2990 LP  0  0  0  0  0  0  0  0  0  0  0  0  # atno 17370 bound_to 10713
  157.7485  131.0053  150.3109 LP  0  0  0  0  0  0  0  0  0  0  0  0  # atno 17371 bound_to 10713
  141.1702  133.8624  157.1594 LP  0  0  0  0  0  0  0  0  0  0  0  0  # atno 17394 bound_to 11000
  140.0064  135.0006  157.0302 LP  0  0  0  0  0  0  0  0  0  0  0  0  # atno 17395 bound_to 11000

$$$$
