#       Name:                AV-unprocessed.smi:265
#       Creating user name   scv26
#       Creation time:       Thu Mar 26 21:22:53 2020


#       File generated by GOLD software.
#

@<TRIPOS>MOLECULE
AV-unprocessed.smi:265
    64    68     1
SMALL
NO_CHARGES


@<TRIPOS>ATOM
      1 ****        -3.2069  -0.9237   5.9837 C.3            1 S1                 0.0000
      2 ****        -3.1326  -1.7461   4.6868 C.3            1 S1                 0.0000
      3 ****        -4.4174  -2.2605   4.3375 O.3            1 S1                 0.0000
      4 ****        -4.7557  -1.8783   3.0111 C.3            1 S1                 0.0000
      5 ****        -3.4152  -1.6442   2.3271 C.3            1 S1                 0.0000
      6 ****        -2.5836  -1.0195   3.4379 C.3            1 S1                 0.0000
      7 ****        -2.8766   0.3683   3.4907 O.3            1 S1                 0.0000
      8 ****        -1.0570  -1.1955   3.2595 C.3            1 S1                 0.0000
      9 ****        -0.5364  -0.5627   2.0574 N.pl3          1 S1                 0.0000
     10 ****        -0.0796   0.7309   1.9437 C.2            1 S1                 0.0000
     11 ****         0.3358   1.0718   0.7548 N.2            1 S1                 0.0000
     12 ****         0.1670  -0.0786  -0.0067 C.ar           1 S1                 0.0000
     13 ****         0.4131  -0.4087  -1.3691 C.ar           1 S1                 0.0000
     14 ****         0.9481   0.4754  -2.2486 N.3            1 S1                 0.0000
     15 ****         0.7028   0.2523  -3.6730 C.3            1 S1                 0.0000
     16 ****         1.0176   1.5193  -4.4831 C.3            1 S1                 0.0000
     17 ****         2.4344   2.0449  -4.1986 C.3            1 S1                 0.0000
     18 ****         3.4061   1.1454  -4.7164 O.3            1 S1                 0.0000
     19 ****         4.7430   1.6454  -4.6570 C.3            1 S1                 0.0000
     20 ****         5.0991   2.2012  -3.2656 C.2            1 S1                 0.0000
     21 ****         6.2749   2.3928  -2.9644 O.2            1 S1                 0.0000
     22 ****         4.0932   2.5033  -2.4289 N.am           1 S1                 0.0000
     23 ****         2.6914   2.1874  -2.6825 C.3            1 S1                 0.0000
     24 ****         2.3068   0.9028  -1.9215 C.3            1 S1                 0.0000
     25 ****         0.0954  -1.6675  -1.7747 N.ar           1 S1                 0.0000
     26 ****        -0.4149  -2.5473  -0.9079 C.ar           1 S1                 0.0000
     27 ****        -0.6870  -2.3803   0.3876 N.ar           1 S1                 0.0000
     28 ****        -0.3825  -1.1162   0.7982 C.ar           1 S1                 0.0000
     29 ****         2.5512   3.0108  -4.6937 H              1 S1                 0.0000
     30 ****         2.0877   3.0116  -2.2998 H              1 S1                 0.0000
     31 ****        -2.2298  -0.5179   6.2469 H              1 S1                 0.0000
     32 ****        -3.5432  -1.5433   6.8150 H              1 S1                 0.0000
     33 ****        -3.9059  -0.0917   5.8934 H              1 S1                 0.0000
     34 ****        -2.5141  -2.6239   4.8786 H              1 S1                 0.0000
     35 ****        -5.3552  -2.6412   2.5142 H              1 S1                 0.0000
     36 ****        -5.3367  -0.9557   3.0435 H              1 S1                 0.0000
     37 ****        -2.9928  -2.6069   2.0366 H              1 S1                 0.0000
     38 ****        -3.4912  -1.0277   1.4304 H              1 S1                 0.0000
     39 ****        -2.6310   0.7568   2.6651 H              1 S1                 0.0000
     40 ****        -0.5294  -0.7798   4.1191 H              1 S1                 0.0000
     41 ****        -0.7978  -2.2544   3.2263 H              1 S1                 0.0000
     42 ****        -0.0706   1.4206   2.7753 H              1 S1                 0.0000
     43 ****         1.3214  -0.5765  -4.0202 H              1 S1                 0.0000
     44 ****        -0.3381  -0.0311  -3.8357 H              1 S1                 0.0000
     45 ****         0.8961   1.3232  -5.5488 H              1 S1                 0.0000
     46 ****         0.2924   2.2932  -4.2283 H              1 S1                 0.0000
     47 ****         5.4331   0.8446  -4.9231 H              1 S1                 0.0000
     48 ****         4.8667   2.4380  -5.3959 H              1 S1                 0.0000
     49 ****         4.3225   2.9046  -1.5313 H              1 S1                 0.0000
     50 ****         2.4262   1.0685  -0.8513 H              1 S1                 0.0000
     51 ****         2.9895   0.0937  -2.1856 H              1 S1                 0.0000
     52 ****        -0.6358  -3.5251  -1.3099 H              1 S1                 0.0000
     53 ****        -5.1015  -1.8979   4.9703 LP             1 S1                 0.0000
     54 ****        -4.4016  -3.2585   4.3998 LP             1 S1                 0.0000
     55 ****        -2.3584   0.7948   4.2321 LP             1 S1                 0.0000
     56 ****        -3.8551   0.5010   3.6486 LP             1 S1                 0.0000
     57 ****         0.6936   1.9576   0.4593 LP             1 S1                 0.0000
     58 ****         0.3720   1.2769  -2.0888 LP             1 S1                 0.0000
     59 ****         3.1825   0.9555  -5.6724 LP             1 S1                 0.0000
     60 ****         3.3630   0.2967  -4.1892 LP             1 S1                 0.0000
     61 ****         6.9994   2.1878  -3.6225 LP             1 S1                 0.0000
     62 ****         6.5073   2.7536  -2.0612 LP             1 S1                 0.0000
     63 ****         0.2445  -1.9360  -2.7264 LP             1 S1                 0.0000
     64 ****        -1.0655  -3.0907   0.9810 LP             1 S1                 0.0000
@<TRIPOS>BOND
    1    1    2 1     
    2    1   31 1     
    3    1   32 1     
    4    1   33 1     
    5    2    6 1     
    6    2    3 1     
    7    2   34 1     
    8    3    4 1     
    9    4    5 1     
   10    4   35 1     
   11    4   36 1     
   12    5    6 1     
   13    5   37 1     
   14    5   38 1     
   15    6    7 1     
   16    6    8 1     
   17    7   39 1     
   18    8    9 1     
   19    8   40 1     
   20    8   41 1     
   21    9   28 1     
   22    9   10 1     
   23   10   11 2     
   24   10   42 1     
   25   11   12 1     
   26   12   28 ar    
   27   12   13 ar    
   28   13   14 1     
   29   13   25 ar    
   30   14   24 1     
   31   14   15 1     
   32   15   16 1     
   33   15   43 1     
   34   15   44 1     
   35   16   17 1     
   36   16   45 1     
   37   16   46 1     
   38   17   29 1     
   39   17   23 1     
   40   17   18 1     
   41   18   19 1     
   42   19   20 1     
   43   19   47 1     
   44   19   48 1     
   45   20   21 2     
   46   20   22 am    
   47   22   23 1     
   48   22   49 1     
   49   23   30 1     
   50   23   24 1     
   51   24   50 1     
   52   24   51 1     
   53   25   26 ar    
   54   26   27 ar    
   55   26   52 1     
   56   27   28 ar    
   57    3   53 1     
   58    3   54 1     
   59    7   55 1     
   60    7   56 1     
   61   11   57 1     
   62   14   58 1     
   63   18   59 1     
   64   18   60 1     
   65   21   61 1     
   66   21   62 1     
   67   25   63 1     
   68   27   64 1     
@<TRIPOS>SUBSTRUCTURE
      1 S1             1
@<TRIPOS>SET
LONE_PAIRS      STATIC     ATOMS    <user>   **** ""
12 53 54 55 56 57 58 59 60 61 62 63 64
DONOR_HYDROGENS      STATIC     ATOMS    <user>   **** ""
2 39 49
ATOM$BLUE        STATIC     ATOMS    COLORGROUP SYSTEM
12 53 54 55 56 57 58 59 60 61 62 63 64
ATOM$RED        STATIC     ATOMS    COLORGROUP SYSTEM
2 39 49
