AV-unprocessed.smi:1417|AV-procd|sdf|5772|dock2
  -GOLD-   22720 5413D 1   1.00000     0.00000
 Structure written by MMmdl.
 39 40  0  0  0  0  0  0  0  0  3 V2000
  150.6999  141.9485  155.9794 C   0  0  0  0  0  0  0  0  0  0  0  0
  150.2968  140.7143  155.2479 C   0  0  0  0  0  0  0  0  0  0  0  0
  149.0851  140.1338  155.0002 C   0  0  0  0  0  0  0  0  0  0  0  0
  149.4342  138.9780  154.2428 C   0  0  0  0  0  0  0  0  0  0  0  0
  148.5358  138.0081  153.7278 N   0  0  0  0  0  0  0  0  0  0  0  0
  147.2167  137.8899  153.9535 C   0  0  0  0  0  0  0  0  0  0  0  0
  146.5438  138.6387  154.6617 O   0  0  0  0  0  0  0  0  0  0  0  0
  146.7054  136.8369  153.2985 N   0  0  0  0  0  0  0  0  0  0  0  0
  145.2998  136.4320  153.3120 C   0  0  2  0  0  0  0  0  0  0  0  0
  145.1233  134.9734  153.7797 C   0  0  0  0  0  0  0  0  0  0  0  0
  145.6388  133.9672  152.7364 C   0  0  0  0  0  0  0  0  0  0  0  0
  144.9809  134.1791  151.4196 N   0  3  2  0  0  0  0  0  0  0  0  0
  145.3328  133.1445  150.4138 C   0  0  0  0  0  0  0  0  0  0  0  0
  144.1085  132.7769  149.5687 C   0  0  0  0  0  0  0  0  0  0  0  0
  143.7724  133.7525  148.7007 N   0  5  0  0  0  0  0  0  0  0  0  0
  143.5575  131.6916  149.7369 O   0  0  0  0  0  0  0  0  0  0  0  0
  145.1949  135.5584  150.9138 C   0  0  0  0  0  0  0  0  0  0  0  0
  144.6769  136.6067  151.9160 C   0  0  0  0  0  0  0  0  0  0  0  0
  150.7363  138.8649  154.0574 N   0  0  0  0  0  0  0  0  0  0  0  0
  151.2974  139.9772  154.6954 O   0  0  0  0  0  0  0  0  0  0  0  0
  149.8337  142.4375  156.4255 H   0  0  0  0  0  0  0  0  0  0  0  0
  151.1784  142.6583  155.3046 H   0  0  0  0  0  0  0  0  0  0  0  0
  151.4033  141.7126  156.7780 H   0  0  0  0  0  0  0  0  0  0  0  0
  148.1175  140.4919  155.3177 H   0  0  0  0  0  0  0  0  0  0  0  0
  148.9477  137.3300  153.1041 H   0  0  0  0  0  0  0  0  0  0  0  0
  147.3329  136.2822  152.7349 H   0  0  0  0  0  0  0  0  0  0  0  0
  144.7696  137.0897  154.0033 H   0  0  0  0  0  0  0  0  0  0  0  0
  145.6224  134.8099  154.7354 H   0  0  0  0  0  0  0  0  0  0  0  0
  144.0643  134.7833  153.9599 H   0  0  0  0  0  0  0  0  0  0  0  0
  146.7204  134.0581  152.6246 H   0  0  0  0  0  0  0  0  0  0  0  0
  145.4455  132.9561  153.0954 H   0  0  0  0  0  0  0  0  0  0  0  0
  146.1090  133.5136  149.7410 H   0  0  0  0  0  0  0  0  0  0  0  0
  145.7422  132.2596  150.9039 H   0  0  0  0  0  0  0  0  0  0  0  0
  144.4979  134.4010  148.3725 H   0  0  0  0  0  0  0  0  0  0  0  0
  146.2560  135.7131  150.7125 H   0  0  0  0  0  0  0  0  0  0  0  0
  144.6717  135.6858  149.9653 H   0  0  0  0  0  0  0  0  0  0  0  0
  143.5927  136.5133  151.9957 H   0  0  0  0  0  0  0  0  0  0  0  0
  144.8662  137.6126  151.5390 H   0  0  0  0  0  0  0  0  0  0  0  0
  143.9860  134.0799  151.5682 H   0  0  0  0  0  0  0  0  0  0  0  0
  1  2  1  0  0  0  0
  1 21  1  0  0  0  0
  1 22  1  0  0  0  0
  1 23  1  0  0  0  0
  2 20  1  0  0  0  0
  2  3  2  0  0  0  0
  3  4  1  0  0  0  0
  3 24  1  0  0  0  0
  4  5  1  0  0  0  0
  4 19  2  0  0  0  0
  5  6  1  0  0  0  0
  5 25  1  0  0  0  0
  6  7  2  0  0  0  0
  6  8  1  0  0  0  0
  8  9  1  0  0  0  0
  8 26  1  0  0  0  0
  9 18  1  0  0  0  0
  9 10  1  0  0  0  0
  9 27  1  0  0  0  0
 10 11  1  0  0  0  0
 10 28  1  0  0  0  0
 10 29  1  0  0  0  0
 11 12  1  0  0  0  0
 11 30  1  0  0  0  0
 11 31  1  0  0  0  0
 12 13  1  0  0  0  0
 12 17  1  0  0  0  0
 12 39  1  0  0  0  0
 13 14  1  0  0  0  0
 13 32  1  0  0  0  0
 13 33  1  0  0  0  0
 14 15  1  0  0  0  0
 14 16  2  0  0  0  0
 15 34  1  0  0  0  0
 17 18  1  0  0  0  0
 17 35  1  0  0  0  0
 17 36  1  0  0  0  0
 18 37  1  0  0  0  0
 18 38  1  0  0  0  0
 19 20  1  0  0  0  0
M  CHG  1  12   1
M  CHG  1  15  -1
M  END
> <s_m_source_file>
AV-unprocessed.smi

> <i_m_source_file_index>
1417

> <i_lp_mmshare_version>
43012

> <i_f3d_flags>
0

> <s_epik_input>
W0NIM11jMVtjSF1jKG5vMSlbTkhdQyg9TylbTkhdW0NIXTJbQ0gyXVtDSDJdTihbQ0gyXVtDSDJdMilbQ0gyXUMoPU8pW05IMl0=

> <s_epik_cmdline>
J2VwaWtfcHl0aG9uJywgJy1waCcsICc3LjAnLCAnLXRuJywgJzgnLCAnLW1hJywgJzIwMCcsICctbWV0YWxfYmluZGluZycsICctaW1hZScsICc8aW5maWxlLm1hZT4nLCAnLW9tYWUnLCAnPG91dGZpbGUubWFlPic=

> <r_epik_Ionization_Penalty>
5.73218

> <r_epik_Ionization_Penalty_Charging>
5.73215

> <r_epik_Ionization_Penalty_Neutral>
3.37968e-05

> <r_epik_State_Penalty>
6.58009

> <r_epik_Charging_Adjusted_Penalty>
12.3122

> <i_epik_Tot_Q>
0

> <i_epik_Tot_abs_Q>
2

> <r_epik_Metal_State_Penalty>
2.55295

> <b_epik_Metal_Only>
1

> <s_lp_Force_Field>
OPLS_2005

> <r_lp_Energy>
7.04924

> <b_lp_Chiralities_Consistent>
1

> <s_lp_Variant>
AV-unprocessed.smi:1417-8

> <Gold.Version>
5.8.1

> <Gold.Id.Protein>
6NUR|6NUR_protein|mol2

> <Gold.PLP.Fitness>
43.0546

> <Gold.PLP.PLP>
-29.5704

> <Gold.PLP.part.hbond>
-6.2884

> <Gold.PLP.part.metal>
0.0000

> <Gold.PLP.part.buried>
-4.3442

> <Gold.PLP.part.nonpolar>
-19.9164

> <Gold.PLP.part.repulsive>
0.8697

> <Gold.PLP.ligand.clash>
0.0000

> <Gold.PLP.ligand.torsion>
0.6523

> <Gold.PLP.Chemscore.Hbond>
4.9200

> <Gold.PLP.Chemscore.CHOScore>
0.0000

> <Gold.PLP.Chemscore.Metal>
0.0000

> <Gold.Chemscore.Hbonds>
donor molecule, donor type, donor heavy atom, donor atom, acceptor molecule, acceptor atom, score
      L1  H     5    25       P1  7948  1.00
      L1  H     8    26       P1  7948  0.93
      L1  H    15    34       P1  7921  1.00
      P1  H  7989  7998       L1    20  0.99
      P1  H 10785 10796       L1    16  0.98

> <Gold.PLP.Chemscore.Internal.Correction>
0.0288

> <Gold.Rescore>
     Score         DG    S(hbond)    S(metal)    S(lipo)     H(rot)  DE(clash)    DE(int)     intcor
     16.61     -19.02       3.96        0.00      46.93       2.02       0.47       1.94       ----

> <Gold.Chemscore.Fitness>
16.6135

> <Gold.Chemscore.DG>
-19.0194

> <Gold.Chemscore.ZeroCoef>
-5.4800

> <Gold.Chemscore.Hbond>
3.9564

> <Gold.Chemscore.Metal>
0.0000

> <Gold.Chemscore.Lipo>
46.9253

> <Gold.Chemscore.Internal_Hbond>
0.0000

> <Gold.Chemscore.DEClash>
0.4677

> <Gold.Chemscore.DEInternal>
1.9382

> <Gold.Chemscore.Rot>
2.0176

> <Gold.Chemscore.Internal.Correction>
   9.000000E+99

> <Gold.Chemscore.Hbonds>
donor molecule, donor type, donor heavy atom, donor atom, acceptor molecule, acceptor atom, score
      L1  H     5    25       P1  7948  0.98
      L1  H     8    26       P1  7948  0.90
      L1  H    15    34       P1  7921  0.98
      P1  H  7989  7998       L1    20  0.07
      P1  H 10785 10796       L1    16  0.93

> <Gold.Chemscore.Hbond.Weighted>
-13.2142

> <Gold.Chemscore.Metal.Weighted>
-0.0000

> <Gold.Chemscore.Lipo.Weighted>
-5.4903

> <Gold.Chemscore.Internal_Hbond.Weighted>
0.0000

> <Gold.Chemscore.DEClash.Weighted>
0.4677

> <Gold.Chemscore.DEInternal.Weighted>
1.9382

> <Gold.Chemscore.Rot.Weighted>
5.1651

> <Gold.Chemscore.Internal.Correction.Weighted>
   9.000000E+99

> <Gold.Protein.RotatedTorsions>
[ 6907 6896 6895 6894 ] final   17.91 input  -60.11 | X-H torsion
[ 7974 7965 7964 7962 ] final    6.80 input  175.53 | X-H torsion
[ 8008 7997 7996 7995 ] final -108.87 input   59.86 | X-H torsion
[ 10167 10162 10161 10158 ] final   19.66 input  -65.29 | X-H torsion
[ 10718 10713 10712 10709 ] final   30.62 input   66.30 | X-H torsion
[ 10763 10752 10751 10750 ] final  -27.91 input  -60.55 | X-H torsion
[ 11005 11000 10999 10996 ] final   60.15 input  -57.11 | X-H torsion

> <Gold.Protein.ActiveResidues>
 VAL166  LYS551  ARG553  GLY616  TRP617  ASP618  TYR619  PRO620  LYS621  CYS622 
 ASP623  PHE694  ASN695  SER759  ASP760  ASP761  ALA762  ILE779  LEU786  VAL792 
 PHE793  MET794  SER795  GLU796  ALA797  LYS798  CYS799  TRP800  GLU811  SER814 

> <Gold.Protein.RotatedAtoms>
  151.8570  135.0538  160.0464 H   0  0  0  0  0  0  0  0  0  0  0  0  # atno 6907 bound_to 6896
  152.2692  133.5363  159.5437 H   0  0  0  0  0  0  0  0  0  0  0  0  # atno 6908 bound_to 6896
  150.7145  134.0637  159.3882 H   0  0  0  0  0  0  0  0  0  0  0  0  # atno 6909 bound_to 6896
  146.2432  140.0178  142.8400 H   0  0  0  0  0  0  0  0  0  0  0  0  # atno 7974 bound_to 7965
  154.9508  140.0401  157.2143 H   0  0  0  0  0  0  0  0  0  0  0  0  # atno 8008 bound_to 7997
  154.7980  140.2847  155.5920 H   0  0  0  0  0  0  0  0  0  0  0  0  # atno 8009 bound_to 7997
  156.2958  140.2560  156.2842 H   0  0  0  0  0  0  0  0  0  0  0  0  # atno 8010 bound_to 7997
  140.5563  143.9419  150.6611 H   0  0  0  0  0  0  0  0  0  0  0  0  # atno 10167 bound_to 10162
  157.2620  130.7166  149.6458 H   0  0  0  0  0  0  0  0  0  0  0  0  # atno 10718 bound_to 10713
  153.7397  135.6933  153.4970 H   0  0  0  0  0  0  0  0  0  0  0  0  # atno 10763 bound_to 10752
  153.2077  135.4414  155.0342 H   0  0  0  0  0  0  0  0  0  0  0  0  # atno 10764 bound_to 10752
  154.8225  135.3429  154.6923 H   0  0  0  0  0  0  0  0  0  0  0  0  # atno 10765 bound_to 10752
  140.0252  134.6093  155.9583 H   0  0  0  0  0  0  0  0  0  0  0  0  # atno 11005 bound_to 11000
  145.1268  140.9495  143.4568 LP  0  0  0  0  0  0  0  0  0  0  0  0  # atno 17320 bound_to 7965
  145.0426  139.3247  143.5969 LP  0  0  0  0  0  0  0  0  0  0  0  0  # atno 17321 bound_to 7965
  140.2858  143.3358  152.1109 LP  0  0  0  0  0  0  0  0  0  0  0  0  # atno 17342 bound_to 10162
  139.5049  144.6785  151.6069 LP  0  0  0  0  0  0  0  0  0  0  0  0  # atno 17343 bound_to 10162
  155.9664  130.4394  150.5259 LP  0  0  0  0  0  0  0  0  0  0  0  0  # atno 17370 bound_to 10713
  157.3165  131.0674  151.1963 LP  0  0  0  0  0  0  0  0  0  0  0  0  # atno 17371 bound_to 10713
  141.1798  133.6545  156.4975 LP  0  0  0  0  0  0  0  0  0  0  0  0  # atno 17394 bound_to 11000
  140.4319  134.7094  157.4946 LP  0  0  0  0  0  0  0  0  0  0  0  0  # atno 17395 bound_to 11000

$$$$
