AV-unprocessed.smi:38|AV-procd|sdf|339|dock3
  -GOLD-   2262016173D 1   1.00000     0.00000
 Structure written by MMmdl.
 28 29  0  0  0  0  0  0  0  0  1 V2000
  153.0673  140.2695  158.2064 O   0  0  0  0  0  0  0  0  0  0  0  0
  152.1821  140.4479  157.3721 C   0  0  0  0  0  0  0  0  0  0  0  0
  152.0253  139.5514  156.3108 N   0  0  0  0  0  0  0  0  0  0  0  0
  151.0634  139.6463  155.3030 C   0  0  0  0  0  0  0  0  0  0  0  0
  151.0097  138.7858  154.4256 O   0  0  0  0  0  0  0  0  0  0  0  0
  150.1805  140.7481  155.3574 N   0  0  0  0  0  0  0  0  0  0  0  0
  149.1210  140.9123  154.2922 C   0  0  1  0  0  0  0  0  0  0  0  0
  148.3316  139.6132  154.1006 C   0  0  0  0  0  0  0  0  0  0  0  0
  146.9172  140.1235  153.9088 C   0  0  2  0  0  0  0  0  0  0  0  0
  146.6746  140.4188  152.5459 O   0  0  0  0  0  0  0  0  0  0  0  0
  146.9063  141.3807  154.7903 C   0  0  2  0  0  0  0  0  0  0  0  0
  145.8570  142.4560  154.4588 C   0  0  0  0  0  0  0  0  0  0  0  0
  144.5550  141.9480  154.6587 O   0  0  0  0  0  0  0  0  0  0  0  0
  148.2269  141.9094  154.6935 O   0  0  0  0  0  0  0  0  0  0  0  0
  150.2912  141.6567  156.4016 C   0  0  0  0  0  0  0  0  0  0  0  0
  151.2261  141.5511  157.3751 C   0  0  0  0  0  0  0  0  0  0  0  0
  151.2696  142.4689  158.3558 F   0  0  0  0  0  0  0  0  0  0  0  0
  152.6593  138.7665  156.2723 H   0  0  0  0  0  0  0  0  0  0  0  0
  149.6058  141.2599  153.3789 H   0  0  0  0  0  0  0  0  0  0  0  0
  146.1761  139.3943  154.2377 H   0  0  0  0  0  0  0  0  0  0  0  0
  146.7703  141.0669  155.8264 H   0  0  0  0  0  0  0  0  0  0  0  0
  148.7208  139.0281  153.2664 H   0  0  0  0  0  0  0  0  0  0  0  0
  148.3882  139.0106  155.0084 H   0  0  0  0  0  0  0  0  0  0  0  0
  145.7405  140.4102  152.4000 H   0  0  0  0  0  0  0  0  0  0  0  0
  145.9911  143.3175  155.1131 H   0  0  0  0  0  0  0  0  0  0  0  0
  145.9602  142.8166  153.4352 H   0  0  0  0  0  0  0  0  0  0  0  0
  144.3635  141.3326  153.9675 H   0  0  0  0  0  0  0  0  0  0  0  0
  149.6037  142.4871  156.4549 H   0  0  0  0  0  0  0  0  0  0  0  0
  1  2  2  0  0  0  0
  2 16  1  0  0  0  0
  2  3  1  0  0  0  0
  3 18  1  0  0  0  0
  3  4  1  0  0  0  0
  4  5  2  0  0  0  0
  4  6  1  0  0  0  0
  6  7  1  0  0  0  0
  6 15  1  0  0  0  0
  7 19  1  0  0  0  0
  7 14  1  0  0  0  0
  7  8  1  0  0  0  0
  8  9  1  0  0  0  0
  8 22  1  0  0  0  0
  8 23  1  0  0  0  0
  9 20  1  0  0  0  0
  9 10  1  0  0  0  0
  9 11  1  0  0  0  0
 10 24  1  0  0  0  0
 11 21  1  0  0  0  0
 11 12  1  0  0  0  0
 11 14  1  0  0  0  0
 12 13  1  0  0  0  0
 12 25  1  0  0  0  0
 12 26  1  0  0  0  0
 13 27  1  0  0  0  0
 15 16  2  0  0  0  0
 15 28  1  0  0  0  0
 16 17  1  0  0  0  0
M  END
> <s_m_source_file>
AV-unprocessed.smi

> <i_m_source_file_index>
38

> <i_lp_mmshare_version>
43012

> <i_f3d_flags>
0

> <s_epik_input>
Tz1jMVtuSF1jKD1PKW4oW2NIXWMxRilbQ0BIXTJbQ0gyXVtDQEhdKFtPSF0pW0NASF0oTzIpW0NIMl1bT0hd

> <s_epik_cmdline>
J2VwaWtfcHl0aG9uJywgJy1waCcsICc3LjAnLCAnLXRuJywgJzgnLCAnLW1hJywgJzIwMCcsICctbWV0YWxfYmluZGluZycsICctaW1hZScsICc8aW5maWxlLm1hZT4nLCAnLW9tYWUnLCAnPG91dGZpbGUubWFlPic=

> <r_lp_tautomer_probability>
0.999537

> <r_epik_Ionization_Penalty>
0.0357432

> <r_epik_Ionization_Penalty_Charging>
0.0357431

> <r_epik_Ionization_Penalty_Neutral>
1.19946e-07

> <r_epik_State_Penalty>
0.0298169

> <r_epik_Charging_Adjusted_Penalty>
0.06556

> <i_epik_Tot_Q>
0

> <i_epik_Tot_abs_Q>
0

> <r_epik_Metal_State_Penalty>
2.348

> <b_epik_Metal_Only>
0

> <s_epik_Chemistry_Notes>
This compound contains an acetal/aminal-like group ( X-CH(R)-Y where X, Y are N, S, or O) that may be acid/base labile, releasing an aldehyde.

> <s_lp_Force_Field>
OPLS_2005

> <r_lp_Energy>
29.3974

> <b_lp_Chiralities_Consistent>
1

> <s_lp_Variant>
AV-unprocessed.smi:38-5

> <Gold.Version>
5.8.1

> <Gold.Id.Protein>
6NUR|6NUR_protein|mol2

> <Gold.PLP.Fitness>
39.9352

> <Gold.PLP.PLP>
-28.5003

> <Gold.PLP.part.hbond>
-3.5827

> <Gold.PLP.part.metal>
0.0000

> <Gold.PLP.part.buried>
-2.1278

> <Gold.PLP.part.nonpolar>
-22.9140

> <Gold.PLP.part.repulsive>
1.3544

> <Gold.PLP.ligand.clash>
0.0000

> <Gold.PLP.ligand.torsion>
0.1996

> <Gold.PLP.Chemscore.Hbond>
2.9440

> <Gold.PLP.Chemscore.CHOScore>
1.0000

> <Gold.PLP.Chemscore.Metal>
0.0000

> <Gold.Chemscore.Hbonds>
donor molecule, donor type, donor heavy atom, donor atom, acceptor molecule, acceptor atom, score
      L1  H    10    24       P1 10175  0.96
      L1  H    13    27       P1 10175  1.00
      P1  H  7997  8009       L1     1  0.88
      L1  C    15    28       P1  8028  1.00

> <Gold.PLP.Chemscore.Internal.Correction>
0.0022

> <Gold.Rescore>
     Score         DG    S(hbond)    S(metal)    S(lipo)     H(rot)  DE(clash)    DE(int)     intcor
      8.94     -10.39       2.68        0.00      29.19       2.91       0.01       1.44       ----

> <Gold.Chemscore.Fitness>
8.9404

> <Gold.Chemscore.DG>
-10.3850

> <Gold.Chemscore.ZeroCoef>
-5.4800

> <Gold.Chemscore.Hbond>
2.6794

> <Gold.Chemscore.Metal>
0.0000

> <Gold.Chemscore.Lipo>
29.1948

> <Gold.Chemscore.Internal_Hbond>
0.0000

> <Gold.Chemscore.DEClash>
0.0063

> <Gold.Chemscore.DEInternal>
1.4384

> <Gold.Chemscore.Rot>
2.9141

> <Gold.Chemscore.Internal.Correction>
   9.000000E+99

> <Gold.Chemscore.Hbonds>
donor molecule, donor type, donor heavy atom, donor atom, acceptor molecule, acceptor atom, score
      L1  H    10    24       P1 10175  0.45
      L1  H    13    27       P1 10175  0.40
      P1  H  7997  8009       L1     1  0.34

> <Gold.Chemscore.Hbond.Weighted>
-8.9493

> <Gold.Chemscore.Metal.Weighted>
-0.0000

> <Gold.Chemscore.Lipo.Weighted>
-3.4158

> <Gold.Chemscore.Internal_Hbond.Weighted>
0.0000

> <Gold.Chemscore.DEClash.Weighted>
0.0063

> <Gold.Chemscore.DEInternal.Weighted>
1.4384

> <Gold.Chemscore.Rot.Weighted>
7.4601

> <Gold.Chemscore.Internal.Correction.Weighted>
   9.000000E+99

> <Gold.Protein.RotatedTorsions>
[ 6907 6896 6895 6894 ] final -107.61 input  -60.11 | X-H torsion
[ 7974 7965 7964 7962 ] final    9.69 input  175.53 | X-H torsion
[ 8008 7997 7996 7995 ] final  148.53 input   59.86 | X-H torsion
[ 10167 10162 10161 10158 ] final   69.27 input  -65.29 | X-H torsion
[ 10718 10713 10712 10709 ] final   42.81 input   66.30 | X-H torsion
[ 10763 10752 10751 10750 ] final  165.23 input  -60.55 | X-H torsion
[ 11005 11000 10999 10996 ] final  -68.11 input  -57.11 | X-H torsion

> <Gold.Protein.ActiveResidues>
 VAL166  LYS551  ARG553  GLY616  TRP617  ASP618  TYR619  PRO620  LYS621  CYS622 
 ASP623  PHE694  ASN695  SER759  ASP760  ASP761  ALA762  ILE779  LEU786  VAL792 
 PHE793  MET794  SER795  GLU796  ALA797  LYS798  CYS799  TRP800  GLU811  SER814 

> <Gold.Protein.RotatedAtoms>
  150.7454  133.9801  159.3573 H   0  0  0  0  0  0  0  0  0  0  0  0  # atno 6907 bound_to 6896
  151.7741  135.0777  160.0373 H   0  0  0  0  0  0  0  0  0  0  0  0  # atno 6908 bound_to 6896
  152.3319  133.5931  159.5852 H   0  0  0  0  0  0  0  0  0  0  0  0  # atno 6909 bound_to 6896
  146.2400  139.9745  142.8443 H   0  0  0  0  0  0  0  0  0  0  0  0  # atno 7974 bound_to 7965
  156.2788  140.2126  156.5713 H   0  0  0  0  0  0  0  0  0  0  0  0  # atno 8008 bound_to 7997
  154.7133  140.0510  157.0594 H   0  0  0  0  0  0  0  0  0  0  0  0  # atno 8009 bound_to 7997
  155.0576  140.3163  155.4674 H   0  0  0  0  0  0  0  0  0  0  0  0  # atno 8010 bound_to 7997
  140.0696  144.5164  150.7237 H   0  0  0  0  0  0  0  0  0  0  0  0  # atno 10167 bound_to 10162
  157.4089  130.7903  149.7413 H   0  0  0  0  0  0  0  0  0  0  0  0  # atno 10718 bound_to 10713
  154.3208  135.2756  155.2520 H   0  0  0  0  0  0  0  0  0  0  0  0  # atno 10763 bound_to 10752
  154.4874  135.5842  153.6437 H   0  0  0  0  0  0  0  0  0  0  0  0  # atno 10764 bound_to 10752
  152.9877  135.6126  154.3393 H   0  0  0  0  0  0  0  0  0  0  0  0  # atno 10765 bound_to 10752
  141.1524  133.6733  156.6396 H   0  0  0  0  0  0  0  0  0  0  0  0  # atno 11005 bound_to 11000
  145.1649  140.9692  143.4355 LP  0  0  0  0  0  0  0  0  0  0  0  0  # atno 17320 bound_to 7965
  145.0081  139.3535  143.6133 LP  0  0  0  0  0  0  0  0  0  0  0  0  # atno 17321 bound_to 7965
  140.7132  143.2522  151.4516 LP  0  0  0  0  0  0  0  0  0  0  0  0  # atno 17342 bound_to 10162
  139.5844  144.1637  152.2010 LP  0  0  0  0  0  0  0  0  0  0  0  0  # atno 17343 bound_to 10162
  155.9845  130.3991  150.3310 LP  0  0  0  0  0  0  0  0  0  0  0  0  # atno 17370 bound_to 10713
  157.1446  131.0305  151.2912 LP  0  0  0  0  0  0  0  0  0  0  0  0  # atno 17371 bound_to 10713
  140.3403  134.7854  157.4393 LP  0  0  0  0  0  0  0  0  0  0  0  0  # atno 17394 bound_to 11000
  140.0943  134.5558  155.8413 LP  0  0  0  0  0  0  0  0  0  0  0  0  # atno 17395 bound_to 11000

$$$$
