AV-unprocessed.smi:3234|AV-procd|sdf|12352|dock6
  -GOLD-   2272018213D 1   1.00000     0.00000
 Structure written by MMmdl.
 38 40  0  0  0  0  0  0  0  0  3 V2000
  145.2659  138.5688  152.8465 O   0  0  0  0  0  0  0  0  0  0  0  0
  146.3589  138.0591  152.6047 C   0  0  0  0  0  0  0  0  0  0  0  0
  147.5583  138.6073  152.8700 N   0  0  0  0  0  0  0  0  0  0  0  0
  147.8744  139.8573  153.4744 C   0  0  0  0  0  0  0  0  0  0  0  0
  149.0940  139.9339  154.1842 C   0  0  0  0  0  0  0  0  0  0  0  0
  149.4661  141.1421  154.8081 C   0  0  0  0  0  0  0  0  0  0  0  0
  148.6553  142.2179  154.7255 N   0  3  0  0  0  0  0  0  0  0  0  0
  147.4798  142.1954  154.0622 C   0  0  0  0  0  0  0  0  0  0  0  0
  147.0549  141.0150  153.4184 C   0  0  0  0  0  0  0  0  0  0  0  0
  146.4928  136.8565  152.0273 N   0  0  0  0  0  0  0  0  0  0  0  0
  145.3798  136.0042  151.6216 C   0  0  2  0  0  0  0  0  0  0  0  0
  144.1734  136.0485  152.5544 C   0  0  0  0  0  0  0  0  0  0  0  0
  143.4406  134.7458  152.2142 C   0  0  0  0  0  0  0  0  0  0  0  0
  144.4683  133.7904  151.7295 N   0  3  1  0  0  0  0  0  0  0  0  0
  144.0950  133.1103  150.4700 C   0  0  0  0  0  0  0  0  0  0  0  0
  144.0881  131.6039  150.5760 C   0  0  0  0  0  0  0  0  0  0  0  0
  145.2197  132.3086  149.8593 C   0  0  0  0  0  0  0  0  0  0  0  0
  145.7518  134.5224  151.6486 C   0  0  0  0  0  0  0  0  0  0  0  0
  148.3578  138.0561  152.5942 H   0  0  0  0  0  0  0  0  0  0  0  0
  149.7449  139.0741  154.2527 H   0  0  0  0  0  0  0  0  0  0  0  0
  150.3806  141.2785  155.3666 H   0  0  0  0  0  0  0  0  0  0  0  0
  146.9158  143.1168  154.0664 H   0  0  0  0  0  0  0  0  0  0  0  0
  146.1090  141.0337  152.9016 H   0  0  0  0  0  0  0  0  0  0  0  0
  147.4248  136.5071  151.8572 H   0  0  0  0  0  0  0  0  0  0  0  0
  145.0648  136.2683  150.6097 H   0  0  0  0  0  0  0  0  0  0  0  0
  144.4979  136.0326  153.5962 H   0  0  0  0  0  0  0  0  0  0  0  0
  143.5518  136.9326  152.4072 H   0  0  0  0  0  0  0  0  0  0  0  0
  142.9051  134.3413  153.0735 H   0  0  0  0  0  0  0  0  0  0  0  0
  142.7053  134.9382  151.4309 H   0  0  0  0  0  0  0  0  0  0  0  0
  143.3743  133.6242  149.8359 H   0  0  0  0  0  0  0  0  0  0  0  0
  144.3076  131.1539  151.5426 H   0  0  0  0  0  0  0  0  0  0  0  0
  143.3716  131.0611  149.9628 H   0  0  0  0  0  0  0  0  0  0  0  0
  145.2481  132.2296  148.7745 H   0  0  0  0  0  0  0  0  0  0  0  0
  146.1915  132.3273  150.3496 H   0  0  0  0  0  0  0  0  0  0  0  0
  146.3549  134.2282  150.7880 H   0  0  0  0  0  0  0  0  0  0  0  0
  146.3258  134.2900  152.5469 H   0  0  0  0  0  0  0  0  0  0  0  0
  144.5804  133.0734  152.4321 H   0  0  0  0  0  0  0  0  0  0  0  0
  148.9419  143.0834  155.1840 H   0  0  0  0  0  0  0  0  0  0  0  0
  1  2  2  0  0  0  0
  2  3  1  0  0  0  0
  2 10  1  0  0  0  0
  3  4  1  0  0  0  0
  3 19  1  0  0  0  0
  4  9  1  0  0  0  0
  4  5  2  0  0  0  0
  5  6  1  0  0  0  0
  5 20  1  0  0  0  0
  6  7  2  0  0  0  0
  6 21  1  0  0  0  0
  7  8  1  0  0  0  0
  7 38  1  0  0  0  0
  8  9  2  0  0  0  0
  8 22  1  0  0  0  0
  9 23  1  0  0  0  0
 10 11  1  0  0  0  0
 10 24  1  0  0  0  0
 11 18  1  0  0  0  0
 11 12  1  0  0  0  0
 11 25  1  0  0  0  0
 12 13  1  0  0  0  0
 12 26  1  0  0  0  0
 12 27  1  0  0  0  0
 13 14  1  0  0  0  0
 13 28  1  0  0  0  0
 13 29  1  0  0  0  0
 14 15  1  0  0  0  0
 14 18  1  0  0  0  0
 14 37  1  0  0  0  0
 15 17  1  0  0  0  0
 15 16  1  0  0  0  0
 15 30  1  0  0  0  0
 16 17  1  0  0  0  0
 16 31  1  0  0  0  0
 16 32  1  0  0  0  0
 17 33  1  0  0  0  0
 17 34  1  0  0  0  0
 18 35  1  0  0  0  0
 18 36  1  0  0  0  0
M  CHG  1   7   1
M  CHG  1  14   1
M  END
> <s_m_source_file>
AV-unprocessed.smi

> <i_m_source_file_index>
3234

> <i_lp_mmshare_version>
43012

> <i_f3d_flags>
0

> <s_epik_input>
W2NIXTFbY0hdbltjSF1bY0hdYzFbTkhdQyg9TylbTkhdW0NAQEhdMltDSDJdW0NIMl1OKFtDSDJdMilbQ0hdM1tDSDJdW0NIMl0z

> <s_epik_cmdline>
J2VwaWtfcHl0aG9uJywgJy1waCcsICc3LjAnLCAnLXRuJywgJzgnLCAnLW1hJywgJzIwMCcsICctbWV0YWxfYmluZGluZycsICctaW1hZScsICc8aW5maWxlLm1hZT4nLCAnLW9tYWUnLCAnPG91dGZpbGUubWFlPic=

> <r_epik_Ionization_Penalty>
1.14489

> <r_epik_Ionization_Penalty_Charging>
1.14487

> <r_epik_Ionization_Penalty_Neutral>
1.95212e-05

> <r_epik_State_Penalty>
1.205

> <r_epik_Charging_Adjusted_Penalty>
2.34987

> <i_epik_Tot_Q>
2

> <i_epik_Tot_abs_Q>
2

> <r_epik_Metal_State_Penalty>
1.28709

> <b_epik_Metal_Only>
0

> <s_lp_Force_Field>
OPLS_2005

> <r_lp_Energy>
49.761

> <b_lp_Chiralities_Consistent>
1

> <s_lp_Variant>
AV-unprocessed.smi:3234-5

> <Gold.Version>
5.8.1

> <Gold.Id.Protein>
6NUR|6NUR_protein|mol2

> <Gold.PLP.Fitness>
43.1956

> <Gold.PLP.PLP>
-32.8452

> <Gold.PLP.part.hbond>
-3.9950

> <Gold.PLP.part.metal>
0.0000

> <Gold.PLP.part.buried>
-2.9658

> <Gold.PLP.part.nonpolar>
-30.8073

> <Gold.PLP.part.repulsive>
4.3341

> <Gold.PLP.ligand.clash>
0.0000

> <Gold.PLP.ligand.torsion>
1.3250

> <Gold.PLP.Chemscore.Hbond>
3.9120

> <Gold.PLP.Chemscore.CHOScore>
0.0000

> <Gold.PLP.Chemscore.Metal>
0.0000

> <Gold.Chemscore.Hbonds>
donor molecule, donor type, donor heavy atom, donor atom, acceptor molecule, acceptor atom, score
      L1  H     3    19       P1  7948  0.91
      L1  H     7    38       P1  8028  2.00
      L1  H    10    24       P1  7948  0.99

> <Gold.PLP.Chemscore.Internal.Correction>
1.2645

> <Gold.Rescore>
     Score         DG    S(hbond)    S(metal)    S(lipo)     H(rot)  DE(clash)    DE(int)     intcor
     17.16     -21.80       2.91        0.00      83.08       1.22       1.85       2.79       ----

> <Gold.Chemscore.Fitness>
17.1553

> <Gold.Chemscore.DG>
-21.7977

> <Gold.Chemscore.ZeroCoef>
-5.4800

> <Gold.Chemscore.Hbond>
2.9141

> <Gold.Chemscore.Metal>
0.0000

> <Gold.Chemscore.Lipo>
83.0778

> <Gold.Chemscore.Internal_Hbond>
0.0000

> <Gold.Chemscore.DEClash>
1.8507

> <Gold.Chemscore.DEInternal>
2.7916

> <Gold.Chemscore.Rot>
1.2248

> <Gold.Chemscore.Internal.Correction>
   9.000000E+99

> <Gold.Chemscore.Hbonds>
donor molecule, donor type, donor heavy atom, donor atom, acceptor molecule, acceptor atom, score
      L1  H     3    19       P1  7948  0.82
      L1  H     7    38       P1  8028  0.99
      L1  H    10    24       P1  7948  0.92

> <Gold.Chemscore.Hbond.Weighted>
-9.7330

> <Gold.Chemscore.Metal.Weighted>
-0.0000

> <Gold.Chemscore.Lipo.Weighted>
-9.7201

> <Gold.Chemscore.Internal_Hbond.Weighted>
0.0000

> <Gold.Chemscore.DEClash.Weighted>
1.8507

> <Gold.Chemscore.DEInternal.Weighted>
2.7916

> <Gold.Chemscore.Rot.Weighted>
3.1355

> <Gold.Chemscore.Internal.Correction.Weighted>
   9.000000E+99

> <Gold.Protein.RotatedTorsions>
[ 6907 6896 6895 6894 ] final   95.19 input  -60.11 | X-H torsion
[ 7974 7965 7964 7962 ] final -156.60 input  175.53 | X-H torsion
[ 8008 7997 7996 7995 ] final -137.52 input   59.86 | X-H torsion
[ 10167 10162 10161 10158 ] final  135.66 input  -65.29 | X-H torsion
[ 10718 10713 10712 10709 ] final   34.86 input   66.30 | X-H torsion
[ 10763 10752 10751 10750 ] final   77.72 input  -60.55 | X-H torsion
[ 11005 11000 10999 10996 ] final  150.26 input  -57.11 | X-H torsion

> <Gold.Protein.ActiveResidues>
 VAL166  LYS551  ARG553  GLY616  TRP617  ASP618  TYR619  PRO620  LYS621  CYS622 
 ASP623  PHE694  ASN695  SER759  ASP760  ASP761  ALA762  ILE779  LEU786  VAL792 
 PHE793  MET794  SER795  GLU796  ALA797  LYS798  CYS799  TRP800  GLU811  SER814 

> <Gold.Protein.RotatedAtoms>
  152.5445  134.1078  159.8344 H   0  0  0  0  0  0  0  0  0  0  0  0  # atno 6907 bound_to 6896
  151.1148  133.5139  159.2611 H   0  0  0  0  0  0  0  0  0  0  0  0  # atno 6908 bound_to 6896
  151.1844  135.0385  159.8861 H   0  0  0  0  0  0  0  0  0  0  0  0  # atno 6909 bound_to 6896
  144.7586  140.4087  143.5994 H   0  0  0  0  0  0  0  0  0  0  0  0  # atno 7974 bound_to 7965
  155.4132  140.0513  157.3030 H   0  0  0  0  0  0  0  0  0  0  0  0  # atno 8008 bound_to 7997
  154.4936  140.2130  155.9454 H   0  0  0  0  0  0  0  0  0  0  0  0  # atno 8009 bound_to 7997
  156.1376  140.3160  155.8450 H   0  0  0  0  0  0  0  0  0  0  0  0  # atno 8010 bound_to 7997
  139.5209  144.6505  151.5315 H   0  0  0  0  0  0  0  0  0  0  0  0  # atno 10167 bound_to 10162
  157.3156  130.7422  149.6752 H   0  0  0  0  0  0  0  0  0  0  0  0  # atno 10718 bound_to 10713
  153.0820  135.4903  154.8521 H   0  0  0  0  0  0  0  0  0  0  0  0  # atno 10763 bound_to 10752
  154.7163  135.3030  154.9121 H   0  0  0  0  0  0  0  0  0  0  0  0  # atno 10764 bound_to 10752
  153.9799  135.6791  153.4803 H   0  0  0  0  0  0  0  0  0  0  0  0  # atno 10765 bound_to 10752
  140.1115  134.8921  157.1943 H   0  0  0  0  0  0  0  0  0  0  0  0  # atno 11005 bound_to 11000
  145.6696  139.1596  143.2762 LP  0  0  0  0  0  0  0  0  0  0  0  0  # atno 17320 bound_to 7965
  146.1624  140.6769  142.9271 LP  0  0  0  0  0  0  0  0  0  0  0  0  # atno 17321 bound_to 7965
  140.6308  143.9079  150.6604 LP  0  0  0  0  0  0  0  0  0  0  0  0  # atno 17342 bound_to 10162
  140.2383  143.3683  152.1508 LP  0  0  0  0  0  0  0  0  0  0  0  0  # atno 17343 bound_to 10162
  155.9681  130.4238  150.4580 LP  0  0  0  0  0  0  0  0  0  0  0  0  # atno 17370 bound_to 10713
  157.2586  131.0562  151.2334 LP  0  0  0  0  0  0  0  0  0  0  0  0  # atno 17371 bound_to 10713
  140.3084  134.3052  155.7272 LP  0  0  0  0  0  0  0  0  0  0  0  0  # atno 17394 bound_to 11000
  141.2131  133.7635  156.9741 LP  0  0  0  0  0  0  0  0  0  0  0  0  # atno 17395 bound_to 11000

$$$$
