AV-unprocessed.smi:3203|AV-procd|sdf|12249|dock4
  -GOLD-   2272018 83D 1   1.00000     0.00000
 Structure written by MMmdl.
 32 33  0  0  0  0  0  0  0  0  1 V2000
  153.4689  141.9668  160.0355 C   0  0  0  0  0  0  0  0  0  0  0  0
  152.4492  143.0121  159.6119 C   0  0  0  0  0  0  0  0  0  0  0  0
  152.3257  144.2008  160.3620 C   0  0  0  0  0  0  0  0  0  0  0  0
  151.3831  145.1655  159.9675 C   0  0  0  0  0  0  0  0  0  0  0  0
  150.5990  144.8990  158.8319 C   0  0  0  0  0  0  0  0  0  0  0  0
  150.7102  143.7659  158.1092 N   0  0  0  0  0  0  0  0  0  0  0  0
  151.6156  142.8246  158.4767 C   0  0  0  0  0  0  0  0  0  0  0  0
  151.7883  141.6054  157.7648 N   0  0  0  0  0  0  0  0  0  0  0  0
  151.2129  141.2111  156.6127 C   0  0  0  0  0  0  0  0  0  0  0  0
  150.3947  141.8726  155.9743 O   0  0  0  0  0  0  0  0  0  0  0  0
  151.6126  139.8256  156.1032 C   0  0  0  0  0  0  0  0  0  0  0  0
  151.3556  139.7396  154.7092 O   0  0  0  0  0  0  0  0  0  0  0  0
  150.1891  138.9924  154.4131 C   0  0  0  0  0  0  0  0  0  0  0  0
  148.9898  139.7064  154.9984 C   0  0  0  0  0  0  0  0  0  0  0  0
  147.6429  139.6275  154.3164 C   0  0  0  0  0  0  0  0  0  0  0  0
  148.4110  140.9248  154.3154 C   0  0  0  0  0  0  0  0  0  0  0  0
  154.0085  142.2781  160.9305 H   0  0  0  0  0  0  0  0  0  0  0  0
  154.1994  141.8033  159.2428 H   0  0  0  0  0  0  0  0  0  0  0  0
  152.9768  141.0185  160.2542 H   0  0  0  0  0  0  0  0  0  0  0  0
  152.9449  144.3745  161.2300 H   0  0  0  0  0  0  0  0  0  0  0  0
  151.2647  146.0856  160.5202 H   0  0  0  0  0  0  0  0  0  0  0  0
  149.8627  145.6132  158.4943 H   0  0  0  0  0  0  0  0  0  0  0  0
  152.4422  140.9542  158.1740 H   0  0  0  0  0  0  0  0  0  0  0  0
  152.6723  139.6663  156.3074 H   0  0  0  0  0  0  0  0  0  0  0  0
  151.0484  139.0606  156.6391 H   0  0  0  0  0  0  0  0  0  0  0  0
  150.0658  138.8840  153.3341 H   0  0  0  0  0  0  0  0  0  0  0  0
  150.2557  137.9939  154.8475 H   0  0  0  0  0  0  0  0  0  0  0  0
  148.9691  139.7108  156.0867 H   0  0  0  0  0  0  0  0  0  0  0  0
  147.5798  139.0814  153.3770 H   0  0  0  0  0  0  0  0  0  0  0  0
  146.7616  139.5658  154.9516 H   0  0  0  0  0  0  0  0  0  0  0  0
  148.0436  141.7282  154.9504 H   0  0  0  0  0  0  0  0  0  0  0  0
  148.8605  141.2416  153.3764 H   0  0  0  0  0  0  0  0  0  0  0  0
  1  2  1  0  0  0  0
  1 17  1  0  0  0  0
  1 18  1  0  0  0  0
  1 19  1  0  0  0  0
  2  7  1  0  0  0  0
  2  3  2  0  0  0  0
  3  4  1  0  0  0  0
  3 20  1  0  0  0  0
  4  5  2  0  0  0  0
  4 21  1  0  0  0  0
  5  6  1  0  0  0  0
  5 22  1  0  0  0  0
  6  7  2  0  0  0  0
  7  8  1  0  0  0  0
  8  9  1  0  0  0  0
  8 23  1  0  0  0  0
  9 10  2  0  0  0  0
  9 11  1  0  0  0  0
 11 12  1  0  0  0  0
 11 24  1  0  0  0  0
 11 25  1  0  0  0  0
 12 13  1  0  0  0  0
 13 14  1  0  0  0  0
 13 26  1  0  0  0  0
 13 27  1  0  0  0  0
 14 16  1  0  0  0  0
 14 15  1  0  0  0  0
 14 28  1  0  0  0  0
 15 16  1  0  0  0  0
 15 29  1  0  0  0  0
 15 30  1  0  0  0  0
 16 31  1  0  0  0  0
 16 32  1  0  0  0  0
M  END
> <s_m_source_file>
AV-unprocessed.smi

> <i_m_source_file_index>
3203

> <i_lp_mmshare_version>
43012

> <i_f3d_flags>
0

> <s_epik_input>
W0NIM11jMVtjSF1bY0hdW2NIXW5jMVtOSF1DKD1PKVtDSDJdT1tDSDJdW0NIXTJbQ0gyXVtDSDJdMg==

> <s_epik_cmdline>
J2VwaWtfcHl0aG9uJywgJy1waCcsICc3LjAnLCAnLXRuJywgJzgnLCAnLW1hJywgJzIwMCcsICctbWV0YWxfYmluZGluZycsICctaW1hZScsICc8aW5maWxlLm1hZT4nLCAnLW9tYWUnLCAnPG91dGZpbGUubWFlPic=

> <r_epik_Ionization_Penalty>
0.00323497

> <r_epik_Ionization_Penalty_Charging>
0

> <r_epik_Ionization_Penalty_Neutral>
0.00323497

> <r_epik_State_Penalty>
0.00315819

> <r_epik_Charging_Adjusted_Penalty>
0.00315819

> <i_epik_Tot_Q>
0

> <i_epik_Tot_abs_Q>
0

> <r_epik_Metal_State_Penalty>
-0

> <b_epik_Metal_Only>
0

> <s_lp_Force_Field>
OPLS_2005

> <r_lp_Energy>
15.2792

> <b_lp_Chiralities_Consistent>
1

> <s_lp_Variant>
AV-unprocessed.smi:3203-1

> <Gold.Version>
5.8.1

> <Gold.Id.Protein>
6NUR|6NUR_protein|mol2

> <Gold.PLP.Fitness>
41.8690

> <Gold.PLP.PLP>
-37.1189

> <Gold.PLP.part.hbond>
-1.0000

> <Gold.PLP.part.metal>
0.0000

> <Gold.PLP.part.buried>
-5.5252

> <Gold.PLP.part.nonpolar>
-32.1774

> <Gold.PLP.part.repulsive>
0.4045

> <Gold.PLP.ligand.clash>
0.0000

> <Gold.PLP.ligand.torsion>
0.9106

> <Gold.PLP.Chemscore.Hbond>
1.0000

> <Gold.PLP.Chemscore.CHOScore>
1.0000

> <Gold.PLP.Chemscore.Metal>
0.0000

> <Gold.Chemscore.Hbonds>
donor molecule, donor type, donor heavy atom, donor atom, acceptor molecule, acceptor atom, score
      P1  H  7989  7998       L1    12  1.00
      L1  C     5    22       P1  8029  1.00

> <Gold.PLP.Chemscore.Internal.Correction>
0.5713

> <Gold.Rescore>
     Score         DG    S(hbond)    S(metal)    S(lipo)     H(rot)  DE(clash)    DE(int)     intcor
     12.88     -15.12       0.97        0.00      88.43       1.54       0.01       2.23       ----

> <Gold.Chemscore.Fitness>
12.8804

> <Gold.Chemscore.DG>
-15.1223

> <Gold.Chemscore.ZeroCoef>
-5.4800

> <Gold.Chemscore.Hbond>
0.9660

> <Gold.Chemscore.Metal>
0.0000

> <Gold.Chemscore.Lipo>
88.4339

> <Gold.Chemscore.Internal_Hbond>
0.0000

> <Gold.Chemscore.DEClash>
0.0108

> <Gold.Chemscore.DEInternal>
2.2311

> <Gold.Chemscore.Rot>
1.5355

> <Gold.Chemscore.Internal.Correction>
   9.000000E+99

> <Gold.Chemscore.Hbonds>
donor molecule, donor type, donor heavy atom, donor atom, acceptor molecule, acceptor atom, score
      P1  H  7989  7998       L1    12  0.74

> <Gold.Chemscore.Hbond.Weighted>
-3.2264

> <Gold.Chemscore.Metal.Weighted>
-0.0000

> <Gold.Chemscore.Lipo.Weighted>
-10.3468

> <Gold.Chemscore.Internal_Hbond.Weighted>
0.0000

> <Gold.Chemscore.DEClash.Weighted>
0.0108

> <Gold.Chemscore.DEInternal.Weighted>
2.2311

> <Gold.Chemscore.Rot.Weighted>
3.9308

> <Gold.Chemscore.Internal.Correction.Weighted>
   9.000000E+99

> <Gold.Protein.RotatedTorsions>
[ 6907 6896 6895 6894 ] final  -59.18 input  -60.11 | X-H torsion
[ 7974 7965 7964 7962 ] final  -75.30 input  175.53 | X-H torsion
[ 8008 7997 7996 7995 ] final -169.08 input   59.86 | X-H torsion
[ 10167 10162 10161 10158 ] final   45.14 input  -65.29 | X-H torsion
[ 10718 10713 10712 10709 ] final  168.97 input   66.30 | X-H torsion
[ 10763 10752 10751 10750 ] final -115.16 input  -60.55 | X-H torsion
[ 11005 11000 10999 10996 ] final  147.36 input  -57.11 | X-H torsion

> <Gold.Protein.ActiveResidues>
 VAL166  LYS551  ARG553  GLY616  TRP617  ASP618  TYR619  PRO620  LYS621  CYS622 
 ASP623  PHE694  ASN695  SER759  ASP760  ASP761  ALA762  ILE779  LEU786  VAL792 
 PHE793  MET794  SER795  GLU796  ALA797  LYS798  CYS799  TRP800  GLU811  SER814 

> <Gold.Protein.RotatedAtoms>
  150.7949  134.7002  159.6545 H   0  0  0  0  0  0  0  0  0  0  0  0  # atno 6907 bound_to 6896
  152.4060  134.6202  160.0058 H   0  0  0  0  0  0  0  0  0  0  0  0  # atno 6908 bound_to 6896
  151.6459  133.3286  159.3177 H   0  0  0  0  0  0  0  0  0  0  0  0  # atno 6909 bound_to 6896
  145.6278  140.9346  143.1103 H   0  0  0  0  0  0  0  0  0  0  0  0  # atno 7974 bound_to 7965
  155.9001  140.1039  157.1356 H   0  0  0  0  0  0  0  0  0  0  0  0  # atno 8008 bound_to 7997
  154.4025  140.1294  156.4489 H   0  0  0  0  0  0  0  0  0  0  0  0  # atno 8009 bound_to 7997
  155.7433  140.3466  155.5117 H   0  0  0  0  0  0  0  0  0  0  0  0  # atno 8010 bound_to 7997
  140.3271  144.2634  150.6173 H   0  0  0  0  0  0  0  0  0  0  0  0  # atno 10167 bound_to 10162
  157.0294  131.0255  151.2749 H   0  0  0  0  0  0  0  0  0  0  0  0  # atno 10718 bound_to 10713
  154.8470  135.4392  154.1619 H   0  0  0  0  0  0  0  0  0  0  0  0  # atno 10763 bound_to 10752
  153.2754  135.6949  153.7445 H   0  0  0  0  0  0  0  0  0  0  0  0  # atno 10764 bound_to 10752
  153.6669  135.3425  155.3118 H   0  0  0  0  0  0  0  0  0  0  0  0  # atno 10765 bound_to 10752
  140.0869  134.9064  157.1590 H   0  0  0  0  0  0  0  0  0  0  0  0  # atno 11005 bound_to 11000
  144.7205  139.8045  143.7383 LP  0  0  0  0  0  0  0  0  0  0  0  0  # atno 17320 bound_to 7965
  146.1380  139.4431  143.0126 LP  0  0  0  0  0  0  0  0  0  0  0  0  # atno 17321 bound_to 7965
  140.5431  143.2220  151.8052 LP  0  0  0  0  0  0  0  0  0  0  0  0  # atno 17342 bound_to 10162
  139.4863  144.4575  151.9581 LP  0  0  0  0  0  0  0  0  0  0  0  0  # atno 17343 bound_to 10162
  157.5189  130.7985  149.7787 LP  0  0  0  0  0  0  0  0  0  0  0  0  # atno 17370 bound_to 10713
  156.0075  130.3849  150.2381 LP  0  0  0  0  0  0  0  0  0  0  0  0  # atno 17371 bound_to 10713
  140.3407  134.2707  155.7212 LP  0  0  0  0  0  0  0  0  0  0  0  0  # atno 17394 bound_to 11000
  141.2065  133.7830  157.0170 LP  0  0  0  0  0  0  0  0  0  0  0  0  # atno 17395 bound_to 11000

$$$$
