AV-unprocessed.smi:2775|AV-procd|sdf|10692|dock5
  -GOLD-   2272015133D 1   1.00000     0.00000
 Structure written by MMmdl.
 42 45  0  0  0  0  0  0  0  0  1 V2000
  153.1023  143.9169  162.7047 C   0  0  0  0  0  0  0  0  0  0  0  0
  153.2298  142.7461  161.7483 C   0  0  0  0  0  0  0  0  0  0  0  0
  154.0593  141.7554  162.1437 N   0  0  0  0  0  0  0  0  0  0  0  0
  154.2149  140.6931  161.3269 C   0  0  0  0  0  0  0  0  0  0  0  0
  153.5542  140.5631  160.0905 C   0  0  0  0  0  0  0  0  0  0  0  0
  152.6719  141.5911  159.6827 C   0  0  0  0  0  0  0  0  0  0  0  0
  151.9668  141.5699  158.4497 N   0  0  0  0  0  0  0  0  0  0  0  0
  152.0262  140.6565  157.4619 C   0  0  0  0  0  0  0  0  0  0  0  0
  152.7972  139.6995  157.4340 O   0  0  0  0  0  0  0  0  0  0  0  0
  151.1109  140.8457  156.4958 N   0  0  0  0  0  0  0  0  0  0  0  0
  150.9091  140.0352  155.2894 C   0  0  2  0  0  0  0  0  0  0  0  0
  149.5652  140.3017  154.5600 C   0  0  2  0  0  0  0  0  0  0  0  0
  148.6524  141.4618  154.8816 C   0  0  0  0  0  0  0  0  0  0  0  0
  147.5902  140.8213  155.7789 C   0  0  0  0  0  0  0  0  0  0  0  0
  148.2140  139.6493  156.2980 O   0  0  0  0  0  0  0  0  0  0  0  0
  148.9878  139.0721  155.2508 C   0  0  2  0  0  0  0  0  0  0  0  0
  150.4035  138.6251  155.6389 C   0  0  0  0  0  0  0  0  0  0  0  0
  150.6837  137.9288  156.9811 C   0  0  0  0  0  0  0  0  0  0  0  0
  150.7079  136.5968  156.2265 C   0  0  0  0  0  0  0  0  0  0  0  0
  151.0036  137.3900  154.9499 C   0  0  0  0  0  0  0  0  0  0  0  0
  152.5173  142.7154  160.5266 C   0  0  0  0  0  0  0  0  0  0  0  0
  151.4688  144.0200  160.0780 Cl  0  0  0  0  0  0  0  0  0  0  0  0
  152.0618  144.0542  163.0003 H   0  0  0  0  0  0  0  0  0  0  0  0
  153.4507  144.8340  162.2290 H   0  0  0  0  0  0  0  0  0  0  0  0
  153.6907  143.7616  163.6101 H   0  0  0  0  0  0  0  0  0  0  0  0
  154.8928  139.9242  161.6665 H   0  0  0  0  0  0  0  0  0  0  0  0
  153.7424  139.6933  159.4801 H   0  0  0  0  0  0  0  0  0  0  0  0
  151.2303  142.2554  158.3653 H   0  0  0  0  0  0  0  0  0  0  0  0
  150.4403  141.5862  156.6443 H   0  0  0  0  0  0  0  0  0  0  0  0
  151.7679  140.0108  154.6165 H   0  0  0  0  0  0  0  0  0  0  0  0
  149.6752  140.1231  153.4893 H   0  0  0  0  0  0  0  0  0  0  0  0
  149.1672  142.2679  155.4009 H   0  0  0  0  0  0  0  0  0  0  0  0
  148.2028  141.8925  153.9866 H   0  0  0  0  0  0  0  0  0  0  0  0
  147.2561  141.4853  156.5764 H   0  0  0  0  0  0  0  0  0  0  0  0
  146.7193  140.5280  155.1909 H   0  0  0  0  0  0  0  0  0  0  0  0
  148.4274  138.4075  154.5918 H   0  0  0  0  0  0  0  0  0  0  0  0
  151.6577  138.1878  157.3993 H   0  0  0  0  0  0  0  0  0  0  0  0
  149.8900  138.0196  157.7230 H   0  0  0  0  0  0  0  0  0  0  0  0
  151.4985  135.9113  156.5332 H   0  0  0  0  0  0  0  0  0  0  0  0
  149.7324  136.1083  156.2036 H   0  0  0  0  0  0  0  0  0  0  0  0
  150.4658  137.0475  154.0653 H   0  0  0  0  0  0  0  0  0  0  0  0
  152.0729  137.4900  154.7567 H   0  0  0  0  0  0  0  0  0  0  0  0
  1  2  1  0  0  0  0
  1 23  1  0  0  0  0
  1 24  1  0  0  0  0
  1 25  1  0  0  0  0
  2 21  1  0  0  0  0
  2  3  2  0  0  0  0
  3  4  1  0  0  0  0
  4  5  2  0  0  0  0
  4 26  1  0  0  0  0
  5  6  1  0  0  0  0
  5 27  1  0  0  0  0
  6  7  1  0  0  0  0
  6 21  2  0  0  0  0
  7  8  1  0  0  0  0
  7 28  1  0  0  0  0
  8  9  2  0  0  0  0
  8 10  1  0  0  0  0
 10 11  1  0  0  0  0
 10 29  1  0  0  0  0
 11 17  1  0  0  0  0
 11 12  1  0  0  0  0
 11 30  1  0  0  0  0
 12 16  1  0  0  0  0
 12 13  1  0  0  0  0
 12 31  1  0  0  0  0
 13 14  1  0  0  0  0
 13 32  1  0  0  0  0
 13 33  1  0  0  0  0
 14 15  1  0  0  0  0
 14 34  1  0  0  0  0
 14 35  1  0  0  0  0
 15 16  1  0  0  0  0
 16 17  1  0  0  0  0
 16 36  1  0  0  0  0
 17 20  1  0  0  0  0
 17 18  1  0  0  0  0
 18 19  1  0  0  0  0
 18 37  1  0  0  0  0
 18 38  1  0  0  0  0
 19 20  1  0  0  0  0
 19 39  1  0  0  0  0
 19 40  1  0  0  0  0
 20 41  1  0  0  0  0
 20 42  1  0  0  0  0
 21 22  1  0  0  0  0
M  END
> <s_m_source_file>
AV-unprocessed.smi

> <i_m_source_file_index>
2775

> <i_lp_mmshare_version>
43012

> <i_f3d_flags>
0

> <s_epik_input>
W0NIM11jMW5bY0hdW2NIXWMoYzFDbClbTkhdQyg9TylbTkhdW0NAQEhdMltDQEhdKFtDSDJdW0NIMl1PMylbQ0BASF0zQzI0W0NIMl1bQ0gyXVtDSDJdNA==

> <s_epik_cmdline>
J2VwaWtfcHl0aG9uJywgJy1waCcsICc3LjAnLCAnLXRuJywgJzgnLCAnLW1hJywgJzIwMCcsICctbWV0YWxfYmluZGluZycsICctaW1hZScsICc8aW5maWxlLm1hZT4nLCAnLW9tYWUnLCAnPG91dGZpbGUubWFlPic=

> <r_epik_Ionization_Penalty>
0.01026

> <r_epik_Ionization_Penalty_Charging>
0

> <r_epik_Ionization_Penalty_Neutral>
0.01026

> <r_epik_State_Penalty>
0.00780685

> <r_epik_Charging_Adjusted_Penalty>
0.00780685

> <i_epik_Tot_Q>
0

> <i_epik_Tot_abs_Q>
0

> <r_epik_Metal_State_Penalty>
0.00767411

> <b_epik_Metal_Only>
0

> <s_lp_Force_Field>
OPLS_2005

> <r_lp_Energy>
58.5604

> <b_lp_Chiralities_Consistent>
1

> <s_lp_Variant>
AV-unprocessed.smi:2775-5

> <Gold.Version>
5.8.1

> <Gold.Id.Protein>
6NUR|6NUR_protein|mol2

> <Gold.PLP.Fitness>
42.4887

> <Gold.PLP.PLP>
-39.5060

> <Gold.PLP.part.hbond>
-1.7191

> <Gold.PLP.part.metal>
0.0000

> <Gold.PLP.part.buried>
-2.9155

> <Gold.PLP.part.nonpolar>
-34.3346

> <Gold.PLP.part.repulsive>
0.1931

> <Gold.PLP.ligand.clash>
0.0000

> <Gold.PLP.ligand.torsion>
0.1134

> <Gold.PLP.Chemscore.Hbond>
1.0000

> <Gold.PLP.Chemscore.CHOScore>
0.0000

> <Gold.PLP.Chemscore.Metal>
0.0000

> <Gold.Chemscore.Hbonds>
donor molecule, donor type, donor heavy atom, donor atom, acceptor molecule, acceptor atom, score
      P1  H  7997  8009       L1     9  1.00

> <Gold.PLP.Chemscore.Internal.Correction>
0.2095

> <Gold.Rescore>
     Score         DG    S(hbond)    S(metal)    S(lipo)     H(rot)  DE(clash)    DE(int)     intcor
     15.67     -20.77       1.00        0.00     124.05       1.00       2.47       2.63       ----

> <Gold.Chemscore.Fitness>
15.6685

> <Gold.Chemscore.DG>
-20.7698

> <Gold.Chemscore.ZeroCoef>
-5.4800

> <Gold.Chemscore.Hbond>
0.9987

> <Gold.Chemscore.Metal>
0.0000

> <Gold.Chemscore.Lipo>
124.0530

> <Gold.Chemscore.Internal_Hbond>
0.0000

> <Gold.Chemscore.DEClash>
2.4706

> <Gold.Chemscore.DEInternal>
2.6307

> <Gold.Chemscore.Rot>
1.0000

> <Gold.Chemscore.Internal.Correction>
   9.000000E+99

> <Gold.Chemscore.Hbonds>
donor molecule, donor type, donor heavy atom, donor atom, acceptor molecule, acceptor atom, score
      P1  H  7997  8009       L1     9  0.81

> <Gold.Chemscore.Hbond.Weighted>
-3.3356

> <Gold.Chemscore.Metal.Weighted>
-0.0000

> <Gold.Chemscore.Lipo.Weighted>
-14.5142

> <Gold.Chemscore.Internal_Hbond.Weighted>
0.0000

> <Gold.Chemscore.DEClash.Weighted>
2.4706

> <Gold.Chemscore.DEInternal.Weighted>
2.6307

> <Gold.Chemscore.Rot.Weighted>
2.5600

> <Gold.Chemscore.Internal.Correction.Weighted>
   9.000000E+99

> <Gold.Protein.RotatedTorsions>
[ 6907 6896 6895 6894 ] final  119.09 input  -60.11 | X-H torsion
[ 7974 7965 7964 7962 ] final  -85.02 input  175.53 | X-H torsion
[ 8008 7997 7996 7995 ] final -174.00 input   59.86 | X-H torsion
[ 10167 10162 10161 10158 ] final   -4.59 input  -65.29 | X-H torsion
[ 10718 10713 10712 10709 ] final   14.17 input   66.30 | X-H torsion
[ 10763 10752 10751 10750 ] final  -84.64 input  -60.55 | X-H torsion
[ 11005 11000 10999 10996 ] final  108.80 input  -57.11 | X-H torsion

> <Gold.Protein.ActiveResidues>
 VAL166  LYS551  ARG553  GLY616  TRP617  ASP618  TYR619  PRO620  LYS621  CYS622 
 ASP623  PHE694  ASN695  SER759  ASP760  ASP761  ALA762  ILE779  LEU786  VAL792 
 PHE793  MET794  SER795  GLU796  ALA797  LYS798  CYS799  TRP800  GLU811  SER814 

> <Gold.Protein.RotatedAtoms>
  152.4497  133.7605  159.6743 H   0  0  0  0  0  0  0  0  0  0  0  0  # atno 6907 bound_to 6896
  150.8406  133.7933  159.3068 H   0  0  0  0  0  0  0  0  0  0  0  0  # atno 6908 bound_to 6896
  151.5559  135.1069  160.0012 H   0  0  0  0  0  0  0  0  0  0  0  0  # atno 6909 bound_to 6896
  145.4989  140.9548  143.1770 H   0  0  0  0  0  0  0  0  0  0  0  0  # atno 7974 bound_to 7965
  155.9646  140.1151  157.0866 H   0  0  0  0  0  0  0  0  0  0  0  0  # atno 8008 bound_to 7997
  154.4140  140.1175  156.5291 H   0  0  0  0  0  0  0  0  0  0  0  0  # atno 8009 bound_to 7997
  155.6676  140.3473  155.4808 H   0  0  0  0  0  0  0  0  0  0  0  0  # atno 8010 bound_to 7997
  140.6933  143.6406  150.8439 H   0  0  0  0  0  0  0  0  0  0  0  0  # atno 10167 bound_to 10162
  157.0352  130.6209  149.5742 H   0  0  0  0  0  0  0  0  0  0  0  0  # atno 10718 bound_to 10713
  154.6018  135.5513  153.7383 H   0  0  0  0  0  0  0  0  0  0  0  0  # atno 10763 bound_to 10752
  153.0158  135.6368  154.1703 H   0  0  0  0  0  0  0  0  0  0  0  0  # atno 10764 bound_to 10752
  154.1642  135.2895  155.3080 H   0  0  0  0  0  0  0  0  0  0  0  0  # atno 10765 bound_to 10752
  139.8850  134.9441  156.6028 H   0  0  0  0  0  0  0  0  0  0  0  0  # atno 11005 bound_to 11000
  144.7791  139.6565  143.7162 LP  0  0  0  0  0  0  0  0  0  0  0  0  # atno 17320 bound_to 7965
  146.2238  139.5685  142.9601 LP  0  0  0  0  0  0  0  0  0  0  0  0  # atno 17321 bound_to 7965
  140.0121  143.5631  152.2835 LP  0  0  0  0  0  0  0  0  0  0  0  0  # atno 17342 bound_to 10162
  139.6359  144.7650  151.2439 LP  0  0  0  0  0  0  0  0  0  0  0  0  # atno 17343 bound_to 10162
  156.0056  130.5142  150.7818 LP  0  0  0  0  0  0  0  0  0  0  0  0  # atno 17370 bound_to 10713
  157.5147  131.0928  151.0154 LP  0  0  0  0  0  0  0  0  0  0  0  0  # atno 17371 bound_to 10713
  140.7871  133.8613  155.8615 LP  0  0  0  0  0  0  0  0  0  0  0  0  # atno 17394 bound_to 11000
  140.9710  134.1531  157.4576 LP  0  0  0  0  0  0  0  0  0  0  0  0  # atno 17395 bound_to 11000

$$$$
