#       Name:                AV-unprocessed.smi:1272
#       Creating user name   scv26
#       Creation time:       Fri Mar 27 04:46:49 2020


#       File generated by GOLD software.
#

@<TRIPOS>MOLECULE
AV-unprocessed.smi:1272
    52    54     1
SMALL
NO_CHARGES


@<TRIPOS>ATOM
      1 ****        -4.6884   3.7325  -0.8716 C.3            1 S1                 0.0000
      2 ****        -3.1569   3.8149  -0.8722 C.3            1 S1                 0.0000
      3 ****        -2.5596   2.5533  -0.4415 N.am           1 S1                 0.0000
      4 ****        -2.1502   1.5387  -1.2393 C.2            1 S1                 0.0000
      5 ****        -2.1955   1.5203  -2.4692 O.2            1 S1                 0.0000
      6 ****        -1.6753   0.5480  -0.4485 N.am           1 S1                 0.0000
      7 ****        -1.0956  -0.7175  -0.8939 C.3            1 S1                 0.0000
      8 ****         0.4439  -0.6887  -0.8293 C.3            1 S1                 0.0000
      9 ****         0.9266   0.0234  -1.9521 O.3            1 S1                 0.0000
     10 ****         1.0442  -2.1075  -0.8839 C.3            1 S1                 0.0000
     11 ****         2.5079  -2.1074  -0.6342 N.4            1 S1                 1.0000
     12 ****         2.8636  -2.0034   0.8029 C.3            1 S1                 0.0000
     13 ****         4.3910  -1.9571   0.9744 C.3            1 S1                 0.0000
     14 ****         4.9720  -3.1120   0.3820 O.3            1 S1                 0.0000
     15 ****         4.7116  -3.1829  -1.0142 C.3            1 S1                 0.0000
     16 ****         3.1943  -3.2658  -1.2535 C.3            1 S1                 0.0000
     17 ****        -1.7791   0.9414   0.8934 C.ar           1 S1                 0.0000
     18 ****        -1.4197   0.2808   2.0811 C.ar           1 S1                 0.0000
     19 ****        -1.6552   0.9642   3.2970 C.ar           1 S1                 0.0000
     20 ****        -2.2316   2.2610   3.3021 C.ar           1 S1                 0.0000
     21 ****        -2.5838   2.9026   2.0915 C.ar           1 S1                 0.0000
     22 ****        -2.3368   2.2025   0.8979 C.ar           1 S1                 0.0000
     23 ****        -5.1269   4.6802  -1.1840 H              1 S1                 0.0000
     24 ****        -5.0715   3.5009   0.1227 H              1 S1                 0.0000
     25 ****        -5.0424   2.9612  -1.5562 H              1 S1                 0.0000
     26 ****        -2.8013   4.0753  -1.8703 H              1 S1                 0.0000
     27 ****        -2.8251   4.6186  -0.2144 H              1 S1                 0.0000
     28 ****        -1.4793  -1.4977  -0.2354 H              1 S1                 0.0000
     29 ****        -1.4418  -0.9810  -1.8950 H              1 S1                 0.0000
     30 ****         0.7636  -0.1790   0.0790 H              1 S1                 0.0000
     31 ****         0.5592  -0.3588  -2.7351 H              1 S1                 0.0000
     32 ****         0.5609  -2.7597  -0.1547 H              1 S1                 0.0000
     33 ****         0.8309  -2.5410  -1.8627 H              1 S1                 0.0000
     34 ****         2.4233  -1.1103   1.2449 H              1 S1                 0.0000
     35 ****         2.4570  -2.8593   1.3440 H              1 S1                 0.0000
     36 ****         4.8074  -1.0532   0.5269 H              1 S1                 0.0000
     37 ****         4.6488  -1.9362   2.0332 H              1 S1                 0.0000
     38 ****         5.1400  -2.3166  -1.5208 H              1 S1                 0.0000
     39 ****         5.2052  -4.0652  -1.4214 H              1 S1                 0.0000
     40 ****         2.7987  -4.1926  -0.8350 H              1 S1                 0.0000
     41 ****         2.9947  -3.2851  -2.3255 H              1 S1                 0.0000
     42 ****        -0.9809  -0.7058   2.0701 H              1 S1                 0.0000
     43 ****        -1.3935   0.4932   4.2331 H              1 S1                 0.0000
     44 ****        -2.4036   2.7652   4.2416 H              1 S1                 0.0000
     45 ****        -3.0229   3.8892   2.0890 H              1 S1                 0.0000
     46 ****         2.8741  -1.2847  -1.0925 H              1 S1                 0.0000
     47 ****        -2.5611   2.3062  -2.9679 LP             1 S1                 0.0000
     48 ****        -1.8668   0.7195  -2.9697 LP             1 S1                 0.0000
     49 ****         1.9242  -0.0364  -1.9849 LP             1 S1                 0.0000
     50 ****         0.6521   0.9827  -1.8854 LP             1 S1                 0.0000
     51 ****         4.5935  -3.9259   0.8227 LP             1 S1                 0.0000
     52 ****         5.9613  -3.0851   0.5249 LP             1 S1                 0.0000
@<TRIPOS>BOND
    1    1    2 1     
    2    1   23 1     
    3    1   24 1     
    4    1   25 1     
    5    2    3 1     
    6    2   26 1     
    7    2   27 1     
    8    3   22 1     
    9    3    4 am    
   10    4    5 2     
   11    4    6 am    
   12    6    7 1     
   13    6   17 1     
   14    7    8 1     
   15    7   28 1     
   16    7   29 1     
   17    8    9 1     
   18    8   10 1     
   19    8   30 1     
   20    9   31 1     
   21   10   11 1     
   22   10   32 1     
   23   10   33 1     
   24   11   16 1     
   25   11   12 1     
   26   11   46 1     
   27   12   13 1     
   28   12   34 1     
   29   12   35 1     
   30   13   14 1     
   31   13   36 1     
   32   13   37 1     
   33   14   15 1     
   34   15   16 1     
   35   15   38 1     
   36   15   39 1     
   37   16   40 1     
   38   16   41 1     
   39   17   22 ar    
   40   17   18 ar    
   41   18   19 ar    
   42   18   42 1     
   43   19   20 ar    
   44   19   43 1     
   45   20   21 ar    
   46   20   44 1     
   47   21   22 ar    
   48   21   45 1     
   49    5   47 1     
   50    5   48 1     
   51    9   49 1     
   52    9   50 1     
   53   14   51 1     
   54   14   52 1     
@<TRIPOS>SUBSTRUCTURE
      1 S1             1
@<TRIPOS>SET
LONE_PAIRS      STATIC     ATOMS    <user>   **** ""
6 47 48 49 50 51 52
DONOR_HYDROGENS      STATIC     ATOMS    <user>   **** ""
2 31 46
ATOM$BLUE        STATIC     ATOMS    COLORGROUP SYSTEM
6 47 48 49 50 51 52
ATOM$RED        STATIC     ATOMS    COLORGROUP SYSTEM
2 31 46
