AV-unprocessed.smi:229|AV-procd|sdf|1761|dock5
  -GOLD-   2262020293D 1   1.00000     0.00000
 Structure written by MMmdl.
 58 62  0  0  0  0  0  0  0  0  1 V2000
  152.7126  131.3413  156.9470 C   0  0  0  0  0  0  0  0  0  0  0  0
  151.2558  131.1293  156.5167 C   0  0  0  0  0  0  0  0  0  0  0  0
  150.7126  132.2806  155.6573 C   0  0  2  0  0  0  0  0  0  0  0  0
  151.0226  133.6546  156.2762 C   0  0  0  0  0  0  0  0  0  0  0  0
  150.3971  134.7065  155.4830 N   0  0  0  0  0  0  0  0  0  0  0  0
  150.7857  135.9884  155.6929 C   0  0  0  0  0  0  0  0  0  0  0  0
  151.4270  136.6761  154.7104 N   0  0  0  0  0  0  0  0  0  0  0  0
  151.8206  137.9367  154.9160 C   0  0  0  0  0  0  0  0  0  0  0  0
  151.6724  138.6900  156.0075 N   0  0  0  0  0  0  0  0  0  0  0  0
  151.0209  138.0083  156.9924 C   0  0  0  0  0  0  0  0  0  0  0  0
  150.5494  136.6672  156.9213 C   0  0  0  0  0  0  0  0  0  0  0  0
  149.9284  136.3203  158.1160 N   0  0  0  0  0  0  0  0  0  0  0  0
  150.0312  137.3929  158.8525 C   0  0  0  0  0  0  0  0  0  0  0  0
  150.6676  138.4560  158.2525 N   0  0  0  0  0  0  0  0  0  0  0  0
  150.9136  139.7652  158.8319 C   0  0  0  0  0  0  0  0  0  0  0  0
  150.9453  140.8879  157.7716 C   0  0  1  0  0  0  0  0  0  0  0  0
  149.6998  140.8945  157.0997 O   0  0  0  0  0  0  0  0  0  0  0  0
  151.1622  142.2889  158.3780 C   0  0  1  0  0  0  0  0  0  0  0  0
  152.3371  142.3928  159.3516 C   0  0  0  0  0  0  0  0  0  0  0  0
  152.6838  143.8710  159.3266 C   0  0  0  0  0  0  0  0  0  0  0  0
  152.1010  144.3587  157.9979 C   0  0  0  0  0  0  0  0  0  0  0  0
  151.5741  143.1983  157.3674 O   0  0  0  0  0  0  0  0  0  0  0  0
  148.9596  134.5221  155.3223 C   0  0  0  0  0  0  0  0  0  0  0  0
  148.6458  133.1234  154.7475 C   0  0  2  0  0  0  0  0  0  0  0  0
  149.0013  132.9806  153.2634 C   0  0  0  0  0  0  0  0  0  0  0  0
  147.6579  133.0939  152.5573 C   0  0  0  0  0  0  0  0  0  0  0  0
  146.7934  132.4169  153.4500 O   0  0  0  0  0  0  0  0  0  0  0  0
  147.1304  132.8435  154.7628 C   0  0  0  0  0  0  0  0  0  0  0  0
  149.2965  132.1276  155.5430 O   0  0  0  0  0  0  0  0  0  0  0  0
  153.0569  130.5160  157.5705 H   0  0  0  0  0  0  0  0  0  0  0  0
  152.8241  132.2613  157.5214 H   0  0  0  0  0  0  0  0  0  0  0  0
  153.3755  131.4026  156.0834 H   0  0  0  0  0  0  0  0  0  0  0  0
  151.1699  130.1893  155.9703 H   0  0  0  0  0  0  0  0  0  0  0  0
  150.6389  131.0233  157.4095 H   0  0  0  0  0  0  0  0  0  0  0  0
  151.1733  132.2234  154.6702 H   0  0  0  0  0  0  0  0  0  0  0  0
  150.6497  133.7014  157.3006 H   0  0  0  0  0  0  0  0  0  0  0  0
  152.1025  133.8057  156.3138 H   0  0  0  0  0  0  0  0  0  0  0  0
  152.3266  138.4089  154.0869 H   0  0  0  0  0  0  0  0  0  0  0  0
  149.6367  137.4407  159.8574 H   0  0  0  0  0  0  0  0  0  0  0  0
  150.1423  139.9682  159.5765 H   0  0  0  0  0  0  0  0  0  0  0  0
  151.8606  139.7158  159.3701 H   0  0  0  0  0  0  0  0  0  0  0  0
  151.7334  140.6789  157.0468 H   0  0  0  0  0  0  0  0  0  0  0  0
  149.7488  140.2913  156.3741 H   0  0  0  0  0  0  0  0  0  0  0  0
  150.2530  142.6552  158.8593 H   0  0  0  0  0  0  0  0  0  0  0  0
  152.0933  142.0345  160.3522 H   0  0  0  0  0  0  0  0  0  0  0  0
  153.1837  141.8131  158.9808 H   0  0  0  0  0  0  0  0  0  0  0  0
  152.2138  144.3957  160.1593 H   0  0  0  0  0  0  0  0  0  0  0  0
  153.7606  144.0312  159.3910 H   0  0  0  0  0  0  0  0  0  0  0  0
  151.2969  145.0752  158.1704 H   0  0  0  0  0  0  0  0  0  0  0  0
  152.8499  144.8337  157.3637 H   0  0  0  0  0  0  0  0  0  0  0  0
  148.4920  134.6312  156.3020 H   0  0  0  0  0  0  0  0  0  0  0  0
  148.5252  135.2906  154.6832 H   0  0  0  0  0  0  0  0  0  0  0  0
  149.7243  133.7174  152.9118 H   0  0  0  0  0  0  0  0  0  0  0  0
  149.4146  131.9901  153.0683 H   0  0  0  0  0  0  0  0  0  0  0  0
  147.3507  134.1365  152.4586 H   0  0  0  0  0  0  0  0  0  0  0  0
  147.6593  132.6353  151.5685 H   0  0  0  0  0  0  0  0  0  0  0  0
  146.8461  132.0899  155.4979 H   0  0  0  0  0  0  0  0  0  0  0  0
  146.5634  133.7488  154.9849 H   0  0  0  0  0  0  0  0  0  0  0  0
  1  2  1  0  0  0  0
  1 30  1  0  0  0  0
  1 31  1  0  0  0  0
  1 32  1  0  0  0  0
  2  3  1  0  0  0  0
  2 33  1  0  0  0  0
  2 34  1  0  0  0  0
  3 29  1  0  0  0  0
  3  4  1  0  0  0  0
  3 35  1  0  0  0  0
  4  5  1  0  0  0  0
  4 36  1  0  0  0  0
  4 37  1  0  0  0  0
  5  6  1  0  0  0  0
  5 23  1  0  0  0  0
  6 11  1  0  0  0  0
  6  7  2  0  0  0  0
  7  8  1  0  0  0  0
  8  9  2  0  0  0  0
  8 38  1  0  0  0  0
  9 10  1  0  0  0  0
 10 14  1  0  0  0  0
 10 11  2  0  0  0  0
 11 12  1  0  0  0  0
 12 13  2  0  0  0  0
 13 14  1  0  0  0  0
 13 39  1  0  0  0  0
 14 15  1  0  0  0  0
 15 16  1  0  0  0  0
 15 40  1  0  0  0  0
 15 41  1  0  0  0  0
 16 17  1  0  0  0  0
 16 18  1  0  0  0  0
 16 42  1  0  0  0  0
 17 43  1  0  0  0  0
 18 22  1  0  0  0  0
 18 19  1  0  0  0  0
 18 44  1  0  0  0  0
 19 20  1  0  0  0  0
 19 45  1  0  0  0  0
 19 46  1  0  0  0  0
 20 21  1  0  0  0  0
 20 47  1  0  0  0  0
 20 48  1  0  0  0  0
 21 22  1  0  0  0  0
 21 49  1  0  0  0  0
 21 50  1  0  0  0  0
 23 24  1  0  0  0  0
 23 51  1  0  0  0  0
 23 52  1  0  0  0  0
 24 28  1  0  0  0  0
 24 25  1  0  0  0  0
 24 29  1  0  0  0  0
 25 26  1  0  0  0  0
 25 53  1  0  0  0  0
 25 54  1  0  0  0  0
 26 27  1  0  0  0  0
 26 55  1  0  0  0  0
 26 56  1  0  0  0  0
 27 28  1  0  0  0  0
 28 57  1  0  0  0  0
 28 58  1  0  0  0  0
M  END
> <s_m_source_file>
AV-unprocessed.smi

> <i_m_source_file_index>
229

> <i_lp_mmshare_version>
43012

> <i_f3d_flags>
0

> <s_epik_input>
W0NIMl0xT1tDSDJdW0NIMl1bQ0BdMTJbQ0gyXU4oW0NIMl1bQ0BIXShPMilbQ0gyXVtDSDNdKWMobltjSF1uMyljKGMzNCluW2NIXW40W0NIMl1bQ0BIXShbT0hdKVtDQEBIXTVbQ0gyXVtDSDJdW0NIMl1PNQ==

> <s_epik_cmdline>
J2VwaWtfcHl0aG9uJywgJy1waCcsICc3LjAnLCAnLXRuJywgJzgnLCAnLW1hJywgJzIwMCcsICctbWV0YWxfYmluZGluZycsICctaW1hZScsICc8aW5maWxlLm1hZT4nLCAnLW9tYWUnLCAnPG91dGZpbGUubWFlPic=

> <r_lp_tautomer_probability>
1

> <r_epik_Ionization_Penalty>
0.00318402

> <r_epik_Ionization_Penalty_Charging>
0

> <r_epik_Ionization_Penalty_Neutral>
0.00318402

> <r_epik_State_Penalty>
0.00215642

> <r_epik_Charging_Adjusted_Penalty>
0.00215642

> <i_epik_Tot_Q>
0

> <i_epik_Tot_abs_Q>
0

> <r_epik_Metal_State_Penalty>
-0

> <b_epik_Metal_Only>
0

> <s_lp_Force_Field>
OPLS_2005

> <r_lp_Energy>
54.7562

> <b_lp_Chiralities_Consistent>
1

> <s_lp_Variant>
AV-unprocessed.smi:229-15

> <Gold.Version>
5.8.1

> <Gold.Id.Protein>
6NUR|6NUR_protein|mol2

> <Gold.PLP.Fitness>
47.2926

> <Gold.PLP.PLP>
-42.6847

> <Gold.PLP.part.hbond>
-2.0000

> <Gold.PLP.part.metal>
0.0000

> <Gold.PLP.part.buried>
-7.6032

> <Gold.PLP.part.nonpolar>
-35.2706

> <Gold.PLP.part.repulsive>
0.3950

> <Gold.PLP.ligand.clash>
0.0000

> <Gold.PLP.ligand.torsion>
0.8128

> <Gold.PLP.Chemscore.Hbond>
1.9440

> <Gold.PLP.Chemscore.CHOScore>
0.0000

> <Gold.PLP.Chemscore.Metal>
0.0000

> <Gold.Chemscore.Hbonds>
donor molecule, donor type, donor heavy atom, donor atom, acceptor molecule, acceptor atom, score
      P1  H  6896  6909       L1    12  0.17
      P1  H 10752 10765       L1     7  1.00

> <Gold.PLP.Chemscore.Internal.Correction>
0.4015

> <Gold.Rescore>
     Score         DG    S(hbond)    S(metal)    S(lipo)     H(rot)  DE(clash)    DE(int)     intcor
     13.36     -15.67       1.43        0.00     100.24       2.46       0.13       2.19       ----

> <Gold.Chemscore.Fitness>
13.3555

> <Gold.Chemscore.DG>
-15.6733

> <Gold.Chemscore.ZeroCoef>
-5.4800

> <Gold.Chemscore.Hbond>
1.4252

> <Gold.Chemscore.Metal>
0.0000

> <Gold.Chemscore.Lipo>
100.2443

> <Gold.Chemscore.Internal_Hbond>
0.0000

> <Gold.Chemscore.DEClash>
0.1256

> <Gold.Chemscore.DEInternal>
2.1921

> <Gold.Chemscore.Rot>
2.4591

> <Gold.Chemscore.Internal.Correction>
   9.000000E+99

> <Gold.Chemscore.Hbonds>
donor molecule, donor type, donor heavy atom, donor atom, acceptor molecule, acceptor atom, score
      P1  H  6896  6909       L1    12  0.02
      P1  H 10752 10765       L1     7  0.20

> <Gold.Chemscore.Hbond.Weighted>
-4.7601

> <Gold.Chemscore.Metal.Weighted>
-0.0000

> <Gold.Chemscore.Lipo.Weighted>
-11.7286

> <Gold.Chemscore.Internal_Hbond.Weighted>
0.0000

> <Gold.Chemscore.DEClash.Weighted>
0.1256

> <Gold.Chemscore.DEInternal.Weighted>
2.1921

> <Gold.Chemscore.Rot.Weighted>
6.2953

> <Gold.Chemscore.Internal.Correction.Weighted>
   9.000000E+99

> <Gold.Protein.RotatedTorsions>
[ 6907 6896 6895 6894 ] final   74.65 input  -60.11 | X-H torsion
[ 7974 7965 7964 7962 ] final  149.60 input  175.53 | X-H torsion
[ 8008 7997 7996 7995 ] final   25.95 input   59.86 | X-H torsion
[ 10167 10162 10161 10158 ] final  118.18 input  -65.29 | X-H torsion
[ 10718 10713 10712 10709 ] final  -16.89 input   66.30 | X-H torsion
[ 10763 10752 10751 10750 ] final  173.00 input  -60.55 | X-H torsion
[ 11005 11000 10999 10996 ] final   79.49 input  -57.11 | X-H torsion

> <Gold.Protein.ActiveResidues>
 VAL166  LYS551  ARG553  GLY616  TRP617  ASP618  TYR619  PRO620  LYS621  CYS622 
 ASP623  PHE694  ASN695  SER759  ASP760  ASP761  ALA762  ILE779  LEU786  VAL792 
 PHE793  MET794  SER795  GLU796  ALA797  LYS798  CYS799  TRP800  GLU811  SER814 

> <Gold.Protein.RotatedAtoms>
  152.4987  134.4239  159.9489 H   0  0  0  0  0  0  0  0  0  0  0  0  # atno 6907 bound_to 6896
  151.4213  133.3691  159.2764 H   0  0  0  0  0  0  0  0  0  0  0  0  # atno 6908 bound_to 6896
  150.9220  134.8660  159.7555 H   0  0  0  0  0  0  0  0  0  0  0  0  # atno 6909 bound_to 6896
  144.8426  139.6301  143.6010 H   0  0  0  0  0  0  0  0  0  0  0  0  # atno 7974 bound_to 7965
  155.0197  140.3146  155.4798 H   0  0  0  0  0  0  0  0  0  0  0  0  # atno 8008 bound_to 7997
  156.2894  140.2199  156.5256 H   0  0  0  0  0  0  0  0  0  0  0  0  # atno 8009 bound_to 7997
  154.7463  140.0469  157.0843 H   0  0  0  0  0  0  0  0  0  0  0  0  # atno 8010 bound_to 7997
  139.6129  144.7086  151.2804 H   0  0  0  0  0  0  0  0  0  0  0  0  # atno 10167 bound_to 10162
  156.5812  130.4774  149.6319 H   0  0  0  0  0  0  0  0  0  0  0  0  # atno 10718 bound_to 10713
  154.4340  135.2760  155.1893 H   0  0  0  0  0  0  0  0  0  0  0  0  # atno 10763 bound_to 10752
  154.3787  135.6092  153.5783 H   0  0  0  0  0  0  0  0  0  0  0  0  # atno 10764 bound_to 10752
  152.9837  135.5875  154.4656 H   0  0  0  0  0  0  0  0  0  0  0  0  # atno 10765 bound_to 10752
  139.9170  134.7847  156.1786 H   0  0  0  0  0  0  0  0  0  0  0  0  # atno 11005 bound_to 11000
  146.2716  139.6649  142.9292 LP  0  0  0  0  0  0  0  0  0  0  0  0  # atno 17320 bound_to 7965
  145.4663  141.0434  143.2723 LP  0  0  0  0  0  0  0  0  0  0  0  0  # atno 17321 bound_to 7965
  140.7331  143.6804  150.8006 LP  0  0  0  0  0  0  0  0  0  0  0  0  # atno 17342 bound_to 10162
  140.0401  143.5354  152.2721 LP  0  0  0  0  0  0  0  0  0  0  0  0  # atno 17343 bound_to 10162
  156.2630  130.6973  151.1747 LP  0  0  0  0  0  0  0  0  0  0  0  0  # atno 17370 bound_to 10713
  157.7326  131.0598  150.5620 LP  0  0  0  0  0  0  0  0  0  0  0  0  # atno 17371 bound_to 10713
  141.0656  133.6821  156.2038 LP  0  0  0  0  0  0  0  0  0  0  0  0  # atno 17394 bound_to 11000
  140.6590  134.4987  157.5582 LP  0  0  0  0  0  0  0  0  0  0  0  0  # atno 17395 bound_to 11000

$$$$
