AV-unprocessed.smi:3286|AV-procd|sdf|12589|dock7
  -GOLD-   2272018513D 1   1.00000     0.00000
 Structure written by MMmdl.
 43 44  0  0  0  0  0  0  0  0  2 V2000
  145.2876  132.1101  149.8463 C   0  0  0  0  0  0  0  0  0  0  0  0
  145.3039  133.3811  150.6693 C   0  0  0  0  0  0  0  0  0  0  0  0
  146.1439  133.5051  151.7962 C   0  0  0  0  0  0  0  0  0  0  0  0
  146.1158  134.7098  152.5245 C   0  0  0  0  0  0  0  0  0  0  0  0
  145.2519  135.7408  152.1005 C   0  0  0  0  0  0  0  0  0  0  0  0
  145.1870  137.0591  152.8455 C   0  0  0  0  0  0  0  0  0  0  0  0
  146.1928  138.0798  152.2979 C   0  0  0  0  0  0  0  0  0  0  0  0
  147.3866  138.1645  153.1630 N   0  3  0  0  0  0  0  0  0  0  0  0
  147.8757  139.5395  153.4147 C   0  0  1  0  0  0  0  0  0  0  0  0
  146.6867  140.3981  153.8790 C   0  0  0  0  0  0  0  0  0  0  0  0
  149.0467  139.5164  154.4325 C   0  0  0  0  0  0  0  0  0  0  0  0
  149.5254  140.9287  154.8290 C   0  0  0  0  0  0  0  0  0  0  0  0
  150.7450  140.8664  155.7635 C   0  0  0  0  0  0  0  0  0  0  0  0
  151.7962  140.1341  155.1466 O   0  0  0  0  0  0  0  0  0  0  0  0
  151.4415  138.7829  154.8842 C   0  0  0  0  0  0  0  0  0  0  0  0
  150.2659  138.7358  153.8957 C   0  0  0  0  0  0  0  0  0  0  0  0
  144.4521  135.5147  150.9603 C   0  0  0  0  0  0  0  0  0  0  0  0
  144.4740  134.3637  150.2552 N   0  0  0  0  0  0  0  0  0  0  0  0
  145.9782  131.3682  150.2484 H   0  0  0  0  0  0  0  0  0  0  0  0
  145.5771  132.3216  148.8167 H   0  0  0  0  0  0  0  0  0  0  0  0
  144.2877  131.6755  149.8399 H   0  0  0  0  0  0  0  0  0  0  0  0
  146.7948  132.6974  152.0976 H   0  0  0  0  0  0  0  0  0  0  0  0
  146.7476  134.8378  153.3912 H   0  0  0  0  0  0  0  0  0  0  0  0
  144.1732  137.4558  152.7750 H   0  0  0  0  0  0  0  0  0  0  0  0
  145.3743  136.8772  153.9048 H   0  0  0  0  0  0  0  0  0  0  0  0
  146.4975  137.7966  151.2894 H   0  0  0  0  0  0  0  0  0  0  0  0
  145.7285  139.0649  152.2318 H   0  0  0  0  0  0  0  0  0  0  0  0
  147.1658  137.7379  154.0514 H   0  0  0  0  0  0  0  0  0  0  0  0
  148.2414  139.9672  152.4793 H   0  0  0  0  0  0  0  0  0  0  0  0
  146.9498  141.4535  153.9466 H   0  0  0  0  0  0  0  0  0  0  0  0
  146.3218  140.0785  154.8559 H   0  0  0  0  0  0  0  0  0  0  0  0
  145.8561  140.3271  153.1757 H   0  0  0  0  0  0  0  0  0  0  0  0
  148.7001  139.0172  155.3391 H   0  0  0  0  0  0  0  0  0  0  0  0
  149.7831  141.4983  153.9352 H   0  0  0  0  0  0  0  0  0  0  0  0
  148.7319  141.4792  155.3338 H   0  0  0  0  0  0  0  0  0  0  0  0
  151.1010  141.8736  155.9815 H   0  0  0  0  0  0  0  0  0  0  0  0
  150.4805  140.4099  156.7186 H   0  0  0  0  0  0  0  0  0  0  0  0
  152.3057  138.2686  154.4626 H   0  0  0  0  0  0  0  0  0  0  0  0
  151.1905  138.2716  155.8151 H   0  0  0  0  0  0  0  0  0  0  0  0
  150.0063  137.6943  153.7055 H   0  0  0  0  0  0  0  0  0  0  0  0
  150.5839  139.1563  152.9407 H   0  0  0  0  0  0  0  0  0  0  0  0
  143.7788  136.2791  150.6011 H   0  0  0  0  0  0  0  0  0  0  0  0
  148.1331  137.6373  152.7329 H   0  0  0  0  0  0  0  0  0  0  0  0
  1  2  1  0  0  0  0
  1 19  1  0  0  0  0
  1 20  1  0  0  0  0
  1 21  1  0  0  0  0
  2 18  1  0  0  0  0
  2  3  2  0  0  0  0
  3  4  1  0  0  0  0
  3 22  1  0  0  0  0
  4  5  2  0  0  0  0
  4 23  1  0  0  0  0
  5  6  1  0  0  0  0
  5 17  1  0  0  0  0
  6  7  1  0  0  0  0
  6 24  1  0  0  0  0
  6 25  1  0  0  0  0
  7  8  1  0  0  0  0
  7 26  1  0  0  0  0
  7 27  1  0  0  0  0
  8  9  1  0  0  0  0
  8 28  1  0  0  0  0
  8 43  1  0  0  0  0
  9 10  1  0  0  0  0
  9 11  1  0  0  0  0
  9 29  1  0  0  0  0
 10 30  1  0  0  0  0
 10 31  1  0  0  0  0
 10 32  1  0  0  0  0
 11 16  1  0  0  0  0
 11 12  1  0  0  0  0
 11 33  1  0  0  0  0
 12 13  1  0  0  0  0
 12 34  1  0  0  0  0
 12 35  1  0  0  0  0
 13 14  1  0  0  0  0
 13 36  1  0  0  0  0
 13 37  1  0  0  0  0
 14 15  1  0  0  0  0
 15 16  1  0  0  0  0
 15 38  1  0  0  0  0
 15 39  1  0  0  0  0
 16 40  1  0  0  0  0
 16 41  1  0  0  0  0
 17 18  2  0  0  0  0
 17 42  1  0  0  0  0
M  CHG  1   8   1
M  END
> <s_m_source_file>
AV-unprocessed.smi

> <i_m_source_file_index>
3286

> <i_lp_mmshare_version>
43012

> <i_f3d_flags>
0

> <s_epik_input>
W0NIM11jMVtjSF1bY0hdYyhbY0hdbjEpW0NIMl1bQ0gyXVtOSF1bQ0BIXShbQ0gzXSlbQ0hdMltDSDJdW0NIMl1PW0NIMl1bQ0gyXTI=

> <s_epik_cmdline>
J2VwaWtfcHl0aG9uJywgJy1waCcsICc3LjAnLCAnLXRuJywgJzgnLCAnLW1hJywgJzIwMCcsICctbWV0YWxfYmluZGluZycsICctaW1hZScsICc8aW5maWxlLm1hZT4nLCAnLW9tYWUnLCAnPG91dGZpbGUubWFlPic=

> <r_lp_tautomer_probability>
1

> <r_epik_Ionization_Penalty>
0.00336271

> <r_epik_Ionization_Penalty_Charging>
0.000752246

> <r_epik_Ionization_Penalty_Neutral>
0.00261046

> <r_epik_State_Penalty>
-0

> <r_epik_Charging_Adjusted_Penalty>
0.000752246

> <i_epik_Tot_Q>
1

> <i_epik_Tot_abs_Q>
1

> <r_epik_Metal_State_Penalty>
-0

> <b_epik_Metal_Only>
0

> <s_lp_Force_Field>
OPLS_2005

> <r_lp_Energy>
16.504

> <b_lp_Chiralities_Consistent>
1

> <s_lp_Variant>
AV-unprocessed.smi:3286-2

> <Gold.Version>
5.8.1

> <Gold.Id.Protein>
6NUR|6NUR_protein|mol2

> <Gold.PLP.Fitness>
44.8424

> <Gold.PLP.PLP>
-35.1606

> <Gold.PLP.part.hbond>
-2.0000

> <Gold.PLP.part.metal>
0.0000

> <Gold.PLP.part.buried>
-2.9123

> <Gold.PLP.part.nonpolar>
-32.3042

> <Gold.PLP.part.repulsive>
1.0486

> <Gold.PLP.ligand.clash>
0.0000

> <Gold.PLP.ligand.torsion>
1.0217

> <Gold.PLP.Chemscore.Hbond>
2.8960

> <Gold.PLP.Chemscore.CHOScore>
1.0000

> <Gold.PLP.Chemscore.Metal>
0.0000

> <Gold.Chemscore.Hbonds>
donor molecule, donor type, donor heavy atom, donor atom, acceptor molecule, acceptor atom, score
      L1  H     8    43       P1  7948  2.00
      P1  H  7989  7998       L1    14  0.76
      L1  C    17    42       P1 10171  1.00

> <Gold.PLP.Chemscore.Internal.Correction>
0.0372

> <Gold.Rescore>
     Score         DG    S(hbond)    S(metal)    S(lipo)     H(rot)  DE(clash)    DE(int)     intcor
     14.73     -16.99       1.06        0.00      99.49       1.43       1.17       1.09       ----

> <Gold.Chemscore.Fitness>
14.7272

> <Gold.Chemscore.DG>
-16.9863

> <Gold.Chemscore.ZeroCoef>
-5.4800

> <Gold.Chemscore.Hbond>
1.0571

> <Gold.Chemscore.Metal>
0.0000

> <Gold.Chemscore.Lipo>
99.4916

> <Gold.Chemscore.Internal_Hbond>
0.0000

> <Gold.Chemscore.DEClash>
1.1692

> <Gold.Chemscore.DEInternal>
1.0898

> <Gold.Chemscore.Rot>
1.4317

> <Gold.Chemscore.Internal.Correction>
   9.000000E+99

> <Gold.Chemscore.Hbonds>
donor molecule, donor type, donor heavy atom, donor atom, acceptor molecule, acceptor atom, score
      L1  H     8    43       P1  7948  0.99
      P1  H  7989  7998       L1    14  0.04

> <Gold.Chemscore.Hbond.Weighted>
-3.5308

> <Gold.Chemscore.Metal.Weighted>
-0.0000

> <Gold.Chemscore.Lipo.Weighted>
-11.6405

> <Gold.Chemscore.Internal_Hbond.Weighted>
0.0000

> <Gold.Chemscore.DEClash.Weighted>
1.1692

> <Gold.Chemscore.DEInternal.Weighted>
1.0898

> <Gold.Chemscore.Rot.Weighted>
3.6651

> <Gold.Chemscore.Internal.Correction.Weighted>
   9.000000E+99

> <Gold.Protein.RotatedTorsions>
[ 6907 6896 6895 6894 ] final  141.47 input  -60.11 | X-H torsion
[ 7974 7965 7964 7962 ] final  -26.80 input  175.53 | X-H torsion
[ 8008 7997 7996 7995 ] final  -28.50 input   59.86 | X-H torsion
[ 10167 10162 10161 10158 ] final  153.60 input  -65.29 | X-H torsion
[ 10718 10713 10712 10709 ] final  -92.32 input   66.30 | X-H torsion
[ 10763 10752 10751 10750 ] final -154.43 input  -60.55 | X-H torsion
[ 11005 11000 10999 10996 ] final  -64.21 input  -57.11 | X-H torsion

> <Gold.Protein.ActiveResidues>
 VAL166  LYS551  ARG553  GLY616  TRP617  ASP618  TYR619  PRO620  LYS621  CYS622 
 ASP623  PHE694  ASN695  SER759  ASP760  ASP761  ALA762  ILE779  LEU786  VAL792 
 PHE793  MET794  SER795  GLU796  ALA797  LYS798  CYS799  TRP800  GLU811  SER814 

> <Gold.Protein.RotatedAtoms>
  152.2306  133.5055  159.5213 H   0  0  0  0  0  0  0  0  0  0  0  0  # atno 6907 bound_to 6896
  150.7036  134.1222  159.4048 H   0  0  0  0  0  0  0  0  0  0  0  0  # atno 6908 bound_to 6896
  151.9143  135.0325  160.0567 H   0  0  0  0  0  0  0  0  0  0  0  0  # atno 6909 bound_to 6896
  146.1401  140.5068  142.8656 H   0  0  0  0  0  0  0  0  0  0  0  0  # atno 7974 bound_to 7965
  154.4329  140.1843  156.1100 H   0  0  0  0  0  0  0  0  0  0  0  0  # atno 8008 bound_to 7997
  156.0225  140.3339  155.7028 H   0  0  0  0  0  0  0  0  0  0  0  0  # atno 8009 bound_to 7997
  155.5955  140.0635  157.2738 H   0  0  0  0  0  0  0  0  0  0  0  0  # atno 8010 bound_to 7997
  139.4826  144.5259  151.7802 H   0  0  0  0  0  0  0  0  0  0  0  0  # atno 10167 bound_to 10162
  156.0001  130.4982  150.5608 H   0  0  0  0  0  0  0  0  0  0  0  0  # atno 10718 bound_to 10713
  154.7859  135.3190  154.7888 H   0  0  0  0  0  0  0  0  0  0  0  0  # atno 10763 bound_to 10752
  153.8588  135.6855  153.4789 H   0  0  0  0  0  0  0  0  0  0  0  0  # atno 10764 bound_to 10752
  153.1510  135.4699  154.9575 H   0  0  0  0  0  0  0  0  0  0  0  0  # atno 10765 bound_to 10752
  141.1417  133.6662  156.5798 H   0  0  0  0  0  0  0  0  0  0  0  0  # atno 11005 bound_to 11000
  144.7783  140.5786  143.6623 LP  0  0  0  0  0  0  0  0  0  0  0  0  # atno 17320 bound_to 7965
  145.5067  139.1481  143.3627 LP  0  0  0  0  0  0  0  0  0  0  0  0  # atno 17321 bound_to 7965
  140.4778  144.1493  150.5927 LP  0  0  0  0  0  0  0  0  0  0  0  0  # atno 17342 bound_to 10162
  140.4311  143.2568  151.9594 LP  0  0  0  0  0  0  0  0  0  0  0  0  # atno 17343 bound_to 10162
  157.3517  131.0734  151.1707 LP  0  0  0  0  0  0  0  0  0  0  0  0  # atno 17370 bound_to 10713
  157.2522  130.6619  149.5936 LP  0  0  0  0  0  0  0  0  0  0  0  0  # atno 17371 bound_to 10713
  140.3846  134.7493  157.4683 LP  0  0  0  0  0  0  0  0  0  0  0  0  # atno 17394 bound_to 11000
  140.0611  134.5994  155.8747 LP  0  0  0  0  0  0  0  0  0  0  0  0  # atno 17395 bound_to 11000

$$$$
