#       Name:                AV-unprocessed.smi:77
#       Creating user name   scv26
#       Creation time:       Thu Mar 26 17:11:43 2020


#       File generated by GOLD software.
#

@<TRIPOS>MOLECULE
AV-unprocessed.smi:77
    67    71     1
SMALL
NO_CHARGES


@<TRIPOS>ATOM
      1 ****        -3.3558   0.3374   1.5069 O.2            1 S1                 0.0000
      2 ****        -3.7936  -0.1742   0.4753 C.2            1 S1                 0.0000
      3 ****        -3.9510   0.6564  -0.8053 C.3            1 S1                 0.0000
      4 ****        -2.9832   1.7549  -0.8990 N.3            1 S1                 0.0000
      5 ****        -1.7214   1.3732  -1.2012 C.ar           1 S1                 0.0000
      6 ****        -1.4511   0.8251  -2.4152 N.ar           1 S1                 0.0000
      7 ****        -0.2042   0.4433  -2.7096 C.ar           1 S1                 0.0000
      8 ****         0.8935   0.5173  -1.9527 N.ar           1 S1                 0.0000
      9 ****         0.6197   1.0703  -0.7360 C.ar           1 S1                 0.0000
     10 ****        -0.6489   1.5272  -0.2850 C.ar           1 S1                 0.0000
     11 ****        -0.5447   2.0374   1.0025 N.2            1 S1                 0.0000
     12 ****         0.7158   1.8801   1.3024 C.2            1 S1                 0.0000
     13 ****         1.4847   1.2979   0.3191 N.pl3          1 S1                 0.0000
     14 ****         2.9037   0.9994   0.3831 C.3            1 S1                 0.0000
     15 ****         3.2252  -0.5168   0.4707 C.3            1 S1                 0.0000
     16 ****         2.5225  -1.2028   1.6707 C.3            1 S1                 0.0000
     17 ****         1.1575  -1.4585   1.4100 O.3            1 S1                 0.0000
     18 ****         4.7591  -0.7420   0.5202 C.3            1 S1                 0.0000
     19 ****         5.5321  -0.1515  -0.6478 C.3            1 S1                 0.0000
     20 ****         6.8515  -0.9096  -0.5782 C.3            1 S1                 0.0000
     21 ****         6.5119  -2.2136  -0.1247 O.3            1 S1                 0.0000
     22 ****         5.1979  -2.2101   0.4256 C.3            1 S1                 0.0000
     23 ****        -3.4083   2.9271  -1.6514 C.3            1 S1                 0.0000
     24 ****        -2.7659   4.2643  -1.3611 C.3            1 S1                 0.0000
     25 ****        -4.1909   3.9981  -0.9314 C.3            1 S1                 0.0000
     26 ****        -4.1797  -1.4557   0.3944 N.am           1 S1                 0.0000
     27 ****        -4.1186  -2.4083   1.4554 C.3            1 S1                 0.0000
     28 ****        -3.8847  -3.8566   1.0835 C.3            1 S1                 0.0000
     29 ****        -5.2411  -3.4176   1.5619 C.3            1 S1                 0.0000
     30 ****        -3.8865   0.0101  -1.6827 H              1 S1                 0.0000
     31 ****        -4.9608   1.0693  -0.8059 H              1 S1                 0.0000
     32 ****        -0.0665   0.0135  -3.6908 H              1 S1                 0.0000
     33 ****         1.1195   2.1783   2.2589 H              1 S1                 0.0000
     34 ****         3.3615   1.4407  -0.5022 H              1 S1                 0.0000
     35 ****         3.3275   1.5214   1.2421 H              1 S1                 0.0000
     36 ****         2.8635  -0.9916  -0.4430 H              1 S1                 0.0000
     37 ****         2.9736  -2.1679   1.8954 H              1 S1                 0.0000
     38 ****         2.6161  -0.5974   2.5727 H              1 S1                 0.0000
     39 ****         0.7771  -1.8723   2.1698 H              1 S1                 0.0000
     40 ****         5.1581  -0.3181   1.4435 H              1 S1                 0.0000
     41 ****         5.0258  -0.3674  -1.5899 H              1 S1                 0.0000
     42 ****         5.6733   0.9271  -0.5736 H              1 S1                 0.0000
     43 ****         7.3690  -0.9405  -1.5373 H              1 S1                 0.0000
     44 ****         7.5167  -0.4482   0.1528 H              1 S1                 0.0000
     45 ****         5.1876  -2.7118   1.3933 H              1 S1                 0.0000
     46 ****         4.5466  -2.7675  -0.2489 H              1 S1                 0.0000
     47 ****        -3.6896   2.7479  -2.6877 H              1 S1                 0.0000
     48 ****        -2.0091   4.3103  -0.5803 H              1 S1                 0.0000
     49 ****        -2.6099   4.9376  -2.2012 H              1 S1                 0.0000
     50 ****        -4.9851   4.4955  -1.4841 H              1 S1                 0.0000
     51 ****        -4.3773   3.8609   0.1322 H              1 S1                 0.0000
     52 ****        -4.5358  -1.7853  -0.4912 H              1 S1                 0.0000
     53 ****        -3.6756  -2.0824   2.3956 H              1 S1                 0.0000
     54 ****        -3.7798  -4.1015   0.0281 H              1 S1                 0.0000
     55 ****        -3.2834  -4.4581   1.7624 H              1 S1                 0.0000
     56 ****        -5.5456  -3.7249   2.5604 H              1 S1                 0.0000
     57 ****        -6.0416  -3.3679   0.8261 H              1 S1                 0.0000
     58 ****        -3.0987   1.3037   1.5157 LP             1 S1                 0.0000
     59 ****        -3.2575  -0.2137   2.3356 LP             1 S1                 0.0000
     60 ****        -2.9571   2.0719   0.0491 LP             1 S1                 0.0000
     61 ****        -2.1830   0.7077  -3.0864 LP             1 S1                 0.0000
     62 ****         1.7995   0.2072  -2.2406 LP             1 S1                 0.0000
     63 ****        -1.2678   2.4334   1.5686 LP             1 S1                 0.0000
     64 ****         1.0735  -2.0646   0.6191 LP             1 S1                 0.0000
     65 ****         0.6836  -0.5982   1.2225 LP             1 S1                 0.0000
     66 ****         7.1641  -2.5008   0.5768 LP             1 S1                 0.0000
     67 ****         6.5473  -2.8516  -0.8939 LP             1 S1                 0.0000
@<TRIPOS>BOND
    1    1    2 2     
    2    2    3 1     
    3    2   26 am    
    4    3    4 1     
    5    3   30 1     
    6    3   31 1     
    7    4    5 1     
    8    4   23 1     
    9    5   10 ar    
   10    5    6 ar    
   11    6    7 ar    
   12    7    8 ar    
   13    7   32 1     
   14    8    9 ar    
   15    9   13 1     
   16    9   10 ar    
   17   10   11 1     
   18   11   12 2     
   19   12   13 1     
   20   12   33 1     
   21   13   14 1     
   22   14   15 1     
   23   14   34 1     
   24   14   35 1     
   25   15   16 1     
   26   15   18 1     
   27   15   36 1     
   28   16   17 1     
   29   16   37 1     
   30   16   38 1     
   31   17   39 1     
   32   18   22 1     
   33   18   19 1     
   34   18   40 1     
   35   19   20 1     
   36   19   41 1     
   37   19   42 1     
   38   20   21 1     
   39   20   43 1     
   40   20   44 1     
   41   21   22 1     
   42   22   45 1     
   43   22   46 1     
   44   23   25 1     
   45   23   24 1     
   46   23   47 1     
   47   24   25 1     
   48   24   48 1     
   49   24   49 1     
   50   25   50 1     
   51   25   51 1     
   52   26   27 1     
   53   26   52 1     
   54   27   29 1     
   55   27   28 1     
   56   27   53 1     
   57   28   29 1     
   58   28   54 1     
   59   28   55 1     
   60   29   56 1     
   61   29   57 1     
   62    1   58 1     
   63    1   59 1     
   64    4   60 1     
   65    6   61 1     
   66    8   62 1     
   67   11   63 1     
   68   17   64 1     
   69   17   65 1     
   70   21   66 1     
   71   21   67 1     
@<TRIPOS>SUBSTRUCTURE
      1 S1             1
@<TRIPOS>SET
LONE_PAIRS      STATIC     ATOMS    <user>   **** ""
10 58 59 60 61 62 63 64 65 66 67
DONOR_HYDROGENS      STATIC     ATOMS    <user>   **** ""
2 39 52
ATOM$BLUE        STATIC     ATOMS    COLORGROUP SYSTEM
10 58 59 60 61 62 63 64 65 66 67
ATOM$RED        STATIC     ATOMS    COLORGROUP SYSTEM
2 39 52
