#       Name:                AV-unprocessed.smi:1738
#       Creating user name   scv26
#       Creation time:       Fri Mar 27 08:21:28 2020


#       File generated by GOLD software.
#

@<TRIPOS>MOLECULE
AV-unprocessed.smi:1738
    49    51     1
SMALL
NO_CHARGES


@<TRIPOS>ATOM
      1 ****        -7.7236   1.4968   1.2461 C.3            1 S1                 0.0000
      2 ****        -7.1210  -0.2355   1.1140 S.o2           1 S1                 0.0000
      3 ****        -7.4448  -0.9340   2.3678 O.2            1 S1                 0.0000
      4 ****        -7.5973  -0.7827  -0.1660 O.2            1 S1                 0.0000
      5 ****        -5.3425  -0.0612   1.0241 C.ar           1 S1                 0.0000
      6 ****        -4.6674  -0.2518  -0.1981 C.ar           1 S1                 0.0000
      7 ****        -3.2717  -0.0677  -0.2220 C.ar           1 S1                 0.0000
      8 ****        -2.6103   0.3163   0.9713 C.ar           1 S1                 0.0000
      9 ****        -1.2077   0.5194   1.0908 N.am           1 S1                 0.0000
     10 ****        -0.2850   0.6616   0.1236 C.2            1 S1                 0.0000
     11 ****        -0.5101   0.6667  -1.0859 O.2            1 S1                 0.0000
     12 ****         0.9414   0.8103   0.6441 N.am           1 S1                 0.0000
     13 ****         2.1677   0.9829  -0.1297 C.3            1 S1                 0.0000
     14 ****         3.2494   1.7725   0.6283 C.3            1 S1                 0.0000
     15 ****         4.5860   1.1070   0.2448 C.3            1 S1                 0.0000
     16 ****         4.2374   0.0697  -0.7448 N.4            1 S1                 1.0000
     17 ****         5.1689  -1.0710  -0.8829 C.3            1 S1                 0.0000
     18 ****         4.6792  -1.9926  -2.0178 C.3            1 S1                 0.0000
     19 ****         3.2101  -2.4162  -1.8172 C.3            1 S1                 0.0000
     20 ****         2.3040  -1.1917  -1.5850 C.3            1 S1                 0.0000
     21 ****         2.8636  -0.3479  -0.4269 C.3            1 S1                 0.0000
     22 ****        -3.3943   0.4834   2.1334 C.ar           1 S1                 0.0000
     23 ****        -4.7320   0.3113   2.1686 N.ar           1 S1                 0.0000
     24 ****        -8.8116   1.4984   1.3050 H              1 S1                 0.0000
     25 ****        -7.4060   2.0603   0.3690 H              1 S1                 0.0000
     26 ****        -7.3109   1.9579   2.1432 H              1 S1                 0.0000
     27 ****        -5.1977  -0.5373  -1.0944 H              1 S1                 0.0000
     28 ****        -2.7462  -0.2342  -1.1486 H              1 S1                 0.0000
     29 ****        -0.8679   0.5971   2.0384 H              1 S1                 0.0000
     30 ****         1.0339   0.8004   1.6495 H              1 S1                 0.0000
     31 ****         1.9603   1.5029  -1.0676 H              1 S1                 0.0000
     32 ****         3.2284   2.8278   0.3551 H              1 S1                 0.0000
     33 ****         3.1049   1.7110   1.7081 H              1 S1                 0.0000
     34 ****         5.2981   1.8171  -0.1763 H              1 S1                 0.0000
     35 ****         5.0424   0.6503   1.1246 H              1 S1                 0.0000
     36 ****         6.1708  -0.7015  -1.1038 H              1 S1                 0.0000
     37 ****         5.2266  -1.6203   0.0581 H              1 S1                 0.0000
     38 ****         4.7745  -1.4713  -2.9713 H              1 S1                 0.0000
     39 ****         5.3167  -2.8746  -2.0852 H              1 S1                 0.0000
     40 ****         2.8615  -2.9832  -2.6808 H              1 S1                 0.0000
     41 ****         3.1412  -3.0860  -0.9592 H              1 S1                 0.0000
     42 ****         2.2465  -0.5921  -2.4945 H              1 S1                 0.0000
     43 ****         1.2893  -1.5205  -1.3609 H              1 S1                 0.0000
     44 ****         2.8858  -0.9514   0.4838 H              1 S1                 0.0000
     45 ****        -2.9335   0.7690   3.0678 H              1 S1                 0.0000
     46 ****         4.1937   0.5324  -1.6417 H              1 S1                 0.0000
     47 ****        -1.4462   0.5587  -1.4207 LP             1 S1                 0.0000
     48 ****         0.2430   0.7789  -1.7342 LP             1 S1                 0.0000
     49 ****        -5.2516   0.4544   3.0110 LP             1 S1                 0.0000
@<TRIPOS>BOND
    1    1    2 1     
    2    1   24 1     
    3    1   25 1     
    4    1   26 1     
    5    2    3 2     
    6    2    4 2     
    7    2    5 1     
    8    5   23 ar    
    9    5    6 ar    
   10    6    7 ar    
   11    6   27 1     
   12    7    8 ar    
   13    7   28 1     
   14    8    9 1     
   15    8   22 ar    
   16    9   10 am    
   17    9   29 1     
   18   10   11 2     
   19   10   12 am    
   20   12   13 1     
   21   12   30 1     
   22   13   21 1     
   23   13   14 1     
   24   13   31 1     
   25   14   15 1     
   26   14   32 1     
   27   14   33 1     
   28   15   16 1     
   29   15   34 1     
   30   15   35 1     
   31   16   21 1     
   32   16   17 1     
   33   16   46 1     
   34   17   18 1     
   35   17   36 1     
   36   17   37 1     
   37   18   19 1     
   38   18   38 1     
   39   18   39 1     
   40   19   20 1     
   41   19   40 1     
   42   19   41 1     
   43   20   21 1     
   44   20   42 1     
   45   20   43 1     
   46   21   44 1     
   47   22   23 ar    
   48   22   45 1     
   49   11   47 1     
   50   11   48 1     
   51   23   49 1     
@<TRIPOS>SUBSTRUCTURE
      1 S1             1
@<TRIPOS>SET
LONE_PAIRS      STATIC     ATOMS    <user>   **** ""
5 3 4 47 48 49
DONOR_HYDROGENS      STATIC     ATOMS    <user>   **** ""
3 29 30 46
ATOM$BLUE        STATIC     ATOMS    COLORGROUP SYSTEM
5 3 4 47 48 49
ATOM$RED        STATIC     ATOMS    COLORGROUP SYSTEM
3 29 30 46
