AV-unprocessed.smi:169|AV-procd|sdf|1404|dock4
  -GOLD-   2262019153D 1   1.00000     0.00000
 Structure written by MMmdl.
 56 60  0  0  0  0  0  0  0  0  2 V2000
  145.9172  132.3042  150.8153 C   0  0  0  0  0  0  0  0  0  0  0  0
  146.8808  133.5045  150.8160 C   0  0  0  0  0  0  0  0  0  0  0  0
  147.3381  133.9152  152.1696 N   0  3  2  0  0  0  0  0  0  0  0  0
  148.2288  132.9253  152.8262 C   0  0  0  0  0  0  0  0  0  0  0  0
  149.3725  133.6185  153.5909 C   0  0  0  0  0  0  0  0  0  0  0  0
  148.9504  134.5119  154.7765 C   0  0  2  0  0  0  0  0  0  0  0  0
  148.1868  133.7549  155.8685 C   0  0  0  0  0  0  0  0  0  0  0  0
  146.7068  133.9839  155.5404 C   0  0  0  0  0  0  0  0  0  0  0  0
  146.6880  135.0139  154.3921 C   0  0  2  0  0  0  0  0  0  0  0  0
  146.2360  134.4200  153.0345 C   0  0  0  0  0  0  0  0  0  0  0  0
  148.0385  135.5701  154.3483 N   0  0  0  0  0  0  0  0  0  0  0  0
  148.1624  136.8349  154.8267 C   0  0  0  0  0  0  0  0  0  0  0  0
  147.0729  137.5257  155.2544 N   0  0  0  0  0  0  0  0  0  0  0  0
  147.2034  138.7738  155.7145 C   0  0  0  0  0  0  0  0  0  0  0  0
  148.3115  139.5082  155.8308 N   0  0  0  0  0  0  0  0  0  0  0  0
  149.4085  138.8205  155.4027 C   0  0  0  0  0  0  0  0  0  0  0  0
  149.4226  137.4912  154.8958 C   0  0  0  0  0  0  0  0  0  0  0  0
  150.7227  137.1171  154.5788 N   0  0  0  0  0  0  0  0  0  0  0  0
  151.4359  138.1693  154.8750 C   0  0  0  0  0  0  0  0  0  0  0  0
  150.7256  139.2454  155.3603 N   0  0  0  0  0  0  0  0  0  0  0  0
  151.2593  140.5374  155.7689 C   0  0  0  0  0  0  0  0  0  0  0  0
  151.0380  140.8906  157.2599 C   0  0  0  0  0  0  0  0  0  0  0  0
  151.7597  139.8369  158.1112 C   0  0  0  0  0  0  0  0  0  0  0  0
  153.1535  139.8529  157.8769 O   0  0  0  0  0  0  0  0  0  0  0  0
  151.3195  142.3516  157.6506 C   0  0  0  0  0  0  0  0  0  0  0  0
  149.9134  142.6759  157.6543 O   0  0  0  0  0  0  0  0  0  0  0  0
  149.6131  141.2652  157.7051 C   0  0  0  0  0  0  0  0  0  0  0  0
  145.6558  132.0297  149.7931 H   0  0  0  0  0  0  0  0  0  0  0  0
  144.9857  132.5276  151.3345 H   0  0  0  0  0  0  0  0  0  0  0  0
  146.3616  131.4253  151.2827 H   0  0  0  0  0  0  0  0  0  0  0  0
  147.7568  133.2657  150.2114 H   0  0  0  0  0  0  0  0  0  0  0  0
  146.4059  134.3558  150.3267 H   0  0  0  0  0  0  0  0  0  0  0  0
  147.6576  132.2520  153.4660 H   0  0  0  0  0  0  0  0  0  0  0  0
  148.6903  132.2927  152.0668 H   0  0  0  0  0  0  0  0  0  0  0  0
  150.0580  132.8544  153.9588 H   0  0  0  0  0  0  0  0  0  0  0  0
  149.9539  134.2181  152.8891 H   0  0  0  0  0  0  0  0  0  0  0  0
  149.8689  134.9194  155.1999 H   0  0  0  0  0  0  0  0  0  0  0  0
  148.4515  132.6981  155.9171 H   0  0  0  0  0  0  0  0  0  0  0  0
  148.4122  134.1914  156.8425 H   0  0  0  0  0  0  0  0  0  0  0  0
  146.2079  133.0522  155.2730 H   0  0  0  0  0  0  0  0  0  0  0  0
  146.1920  134.3800  156.4165 H   0  0  0  0  0  0  0  0  0  0  0  0
  145.9604  135.7791  154.6682 H   0  0  0  0  0  0  0  0  0  0  0  0
  145.7402  135.2160  152.4773 H   0  0  0  0  0  0  0  0  0  0  0  0
  145.4780  133.6531  153.1921 H   0  0  0  0  0  0  0  0  0  0  0  0
  146.2894  139.2532  156.0330 H   0  0  0  0  0  0  0  0  0  0  0  0
  152.5080  138.1873  154.7457 H   0  0  0  0  0  0  0  0  0  0  0  0
  152.3213  140.5420  155.5216 H   0  0  0  0  0  0  0  0  0  0  0  0
  150.8059  141.2977  155.1316 H   0  0  0  0  0  0  0  0  0  0  0  0
  151.5763  139.9967  159.1743 H   0  0  0  0  0  0  0  0  0  0  0  0
  151.3969  138.8345  157.8820 H   0  0  0  0  0  0  0  0  0  0  0  0
  153.5973  139.9715  158.7027 H   0  0  0  0  0  0  0  0  0  0  0  0
  151.7597  142.4695  158.6423 H   0  0  0  0  0  0  0  0  0  0  0  0
  151.8874  142.9189  156.9149 H   0  0  0  0  0  0  0  0  0  0  0  0
  148.8229  140.9720  157.0160 H   0  0  0  0  0  0  0  0  0  0  0  0
  149.3713  140.9432  158.7195 H   0  0  0  0  0  0  0  0  0  0  0  0
  147.9277  134.7182  152.0014 H   0  0  0  0  0  0  0  0  0  0  0  0
  1  2  1  0  0  0  0
  1 28  1  0  0  0  0
  1 29  1  0  0  0  0
  1 30  1  0  0  0  0
  2  3  1  0  0  0  0
  2 31  1  0  0  0  0
  2 32  1  0  0  0  0
  3 10  1  0  0  0  0
  3  4  1  0  0  0  0
  3 56  1  0  0  0  0
  4  5  1  0  0  0  0
  4 33  1  0  0  0  0
  4 34  1  0  0  0  0
  5  6  1  0  0  0  0
  5 35  1  0  0  0  0
  5 36  1  0  0  0  0
  6 11  1  0  0  0  0
  6  7  1  0  0  0  0
  6 37  1  0  0  0  0
  7  8  1  0  0  0  0
  7 38  1  0  0  0  0
  7 39  1  0  0  0  0
  8  9  1  0  0  0  0
  8 40  1  0  0  0  0
  8 41  1  0  0  0  0
  9 10  1  0  0  0  0
  9 11  1  0  0  0  0
  9 42  1  0  0  0  0
 10 43  1  0  0  0  0
 10 44  1  0  0  0  0
 11 12  1  0  0  0  0
 12 17  1  0  0  0  0
 12 13  2  0  0  0  0
 13 14  1  0  0  0  0
 14 15  2  0  0  0  0
 14 45  1  0  0  0  0
 15 16  1  0  0  0  0
 16 20  1  0  0  0  0
 16 17  2  0  0  0  0
 17 18  1  0  0  0  0
 18 19  2  0  0  0  0
 19 20  1  0  0  0  0
 19 46  1  0  0  0  0
 20 21  1  0  0  0  0
 21 22  1  0  0  0  0
 21 47  1  0  0  0  0
 21 48  1  0  0  0  0
 22 27  1  0  0  0  0
 22 23  1  0  0  0  0
 22 25  1  0  0  0  0
 23 24  1  0  0  0  0
 23 49  1  0  0  0  0
 23 50  1  0  0  0  0
 24 51  1  0  0  0  0
 25 26  1  0  0  0  0
 25 52  1  0  0  0  0
 25 53  1  0  0  0  0
 26 27  1  0  0  0  0
 27 54  1  0  0  0  0
 27 55  1  0  0  0  0
M  CHG  1   3   1
M  END
> <s_m_source_file>
AV-unprocessed.smi

> <i_m_source_file_index>
169

> <i_lp_mmshare_version>
43012

> <i_f3d_flags>
0

> <s_epik_input>
W0NASF0xMltDSDJdW0NIMl1OKFtDSDJdW0NIM10pW0NIMl1bQ0BIXShbQ0gyXVtDSDJdMSlOMmMobltjSF1uMyljKGMzNCluW2NIXW40W0NIMl1DNShbQ0gyXVtPSF0pW0NIMl1PW0NIMl01

> <s_epik_cmdline>
J2VwaWtfcHl0aG9uJywgJy1waCcsICc3LjAnLCAnLXRuJywgJzgnLCAnLW1hJywgJzIwMCcsICctbWV0YWxfYmluZGluZycsICctaW1hZScsICc8aW5maWxlLm1hZT4nLCAnLW9tYWUnLCAnPG91dGZpbGUubWFlPic=

> <r_lp_tautomer_probability>
1

> <r_epik_Ionization_Penalty>
0.00274162

> <r_epik_Ionization_Penalty_Charging>
0.00243722

> <r_epik_Ionization_Penalty_Neutral>
0.000304399

> <r_epik_State_Penalty>
-0

> <r_epik_Charging_Adjusted_Penalty>
0.00243722

> <i_epik_Tot_Q>
1

> <i_epik_Tot_abs_Q>
1

> <r_epik_Metal_State_Penalty>
-0

> <b_epik_Metal_Only>
0

> <s_lp_Force_Field>
OPLS_2005

> <r_lp_Energy>
74.1365

> <b_lp_Chiralities_Consistent>
1

> <s_lp_Variant>
AV-unprocessed.smi:169-7

> <Gold.Version>
5.8.1

> <Gold.Id.Protein>
6NUR|6NUR_protein|mol2

> <Gold.PLP.Fitness>
40.6632

> <Gold.PLP.PLP>
-31.8309

> <Gold.PLP.part.hbond>
-2.0000

> <Gold.PLP.part.metal>
0.0000

> <Gold.PLP.part.buried>
-6.0451

> <Gold.PLP.part.nonpolar>
-26.3493

> <Gold.PLP.part.repulsive>
1.9424

> <Gold.PLP.ligand.clash>
0.0000

> <Gold.PLP.ligand.torsion>
0.3709

> <Gold.PLP.Chemscore.Hbond>
3.0000

> <Gold.PLP.Chemscore.CHOScore>
0.0000

> <Gold.PLP.Chemscore.Metal>
0.0000

> <Gold.Chemscore.Hbonds>
donor molecule, donor type, donor heavy atom, donor atom, acceptor molecule, acceptor atom, score
      L1  H     3    56       P1  7948  2.00
      P1  H  7997  8008       L1    24  0.90

> <Gold.PLP.Chemscore.Internal.Correction>
0.5742

> <Gold.Rescore>
     Score         DG    S(hbond)    S(metal)    S(lipo)     H(rot)  DE(clash)    DE(int)     intcor
     10.21     -12.38       1.84        0.00      63.88       2.62       0.24       1.93       ----

> <Gold.Chemscore.Fitness>
10.2105

> <Gold.Chemscore.DG>
-12.3780

> <Gold.Chemscore.ZeroCoef>
-5.4800

> <Gold.Chemscore.Hbond>
1.8366

> <Gold.Chemscore.Metal>
0.0000

> <Gold.Chemscore.Lipo>
63.8799

> <Gold.Chemscore.Internal_Hbond>
0.0000

> <Gold.Chemscore.DEClash>
0.2386

> <Gold.Chemscore.DEInternal>
1.9289

> <Gold.Chemscore.Rot>
2.6212

> <Gold.Chemscore.Internal.Correction>
   9.000000E+99

> <Gold.Chemscore.Hbonds>
donor molecule, donor type, donor heavy atom, donor atom, acceptor molecule, acceptor atom, score
      L1  H     3    56       P1  7948  0.35
      P1  H  7997  8008       L1    24  0.18

> <Gold.Chemscore.Hbond.Weighted>
-6.1342

> <Gold.Chemscore.Metal.Weighted>
-0.0000

> <Gold.Chemscore.Lipo.Weighted>
-7.4740

> <Gold.Chemscore.Internal_Hbond.Weighted>
0.0000

> <Gold.Chemscore.DEClash.Weighted>
0.2386

> <Gold.Chemscore.DEInternal.Weighted>
1.9289

> <Gold.Chemscore.Rot.Weighted>
6.7102

> <Gold.Chemscore.Internal.Correction.Weighted>
   9.000000E+99

> <Gold.Protein.RotatedTorsions>
[ 6907 6896 6895 6894 ] final -131.54 input  -60.11 | X-H torsion
[ 7974 7965 7964 7962 ] final -114.04 input  175.53 | X-H torsion
[ 8008 7997 7996 7995 ] final  -73.46 input   59.86 | X-H torsion
[ 10167 10162 10161 10158 ] final -179.42 input  -65.29 | X-H torsion
[ 10718 10713 10712 10709 ] final  134.83 input   66.30 | X-H torsion
[ 10763 10752 10751 10750 ] final   35.59 input  -60.55 | X-H torsion
[ 11005 11000 10999 10996 ] final   59.08 input  -57.11 | X-H torsion

> <Gold.Protein.ActiveResidues>
 VAL166  LYS551  ARG553  GLY616  TRP617  ASP618  TYR619  PRO620  LYS621  CYS622 
 ASP623  PHE694  ASN695  SER759  ASP760  ASP761  ALA762  ILE779  LEU786  VAL792 
 PHE793  MET794  SER795  GLU796  ALA797  LYS798  CYS799  TRP800  GLU811  SER814 

> <Gold.Protein.RotatedAtoms>
  150.9521  133.6538  159.2769 H   0  0  0  0  0  0  0  0  0  0  0  0  # atno 6907 bound_to 6896
  151.3890  135.0951  159.9530 H   0  0  0  0  0  0  0  0  0  0  0  0  # atno 6908 bound_to 6896
  152.5114  133.9040  159.7509 H   0  0  0  0  0  0  0  0  0  0  0  0  # atno 6909 bound_to 6896
  145.1249  140.8691  143.3792 H   0  0  0  0  0  0  0  0  0  0  0  0  # atno 7974 bound_to 7965
  154.5249  140.0779  156.8239 H   0  0  0  0  0  0  0  0  0  0  0  0  # atno 8008 bound_to 7997
  155.3497  140.3412  155.4221 H   0  0  0  0  0  0  0  0  0  0  0  0  # atno 8009 bound_to 7997
  156.1720  140.1623  156.8416 H   0  0  0  0  0  0  0  0  0  0  0  0  # atno 8010 bound_to 7997
  139.5387  144.2424  152.0850 H   0  0  0  0  0  0  0  0  0  0  0  0  # atno 10167 bound_to 10162
  157.4633  131.1075  150.9893 H   0  0  0  0  0  0  0  0  0  0  0  0  # atno 10718 bound_to 10713
  153.0112  135.6329  154.1851 H   0  0  0  0  0  0  0  0  0  0  0  0  # atno 10763 bound_to 10752
  154.1593  135.2824  155.3115 H   0  0  0  0  0  0  0  0  0  0  0  0  # atno 10764 bound_to 10752
  154.5993  135.5592  153.7419 H   0  0  0  0  0  0  0  0  0  0  0  0  # atno 10765 bound_to 10752
  140.0330  134.5984  155.9482 H   0  0  0  0  0  0  0  0  0  0  0  0  # atno 11005 bound_to 11000
  145.0699  139.3039  143.5837 LP  0  0  0  0  0  0  0  0  0  0  0  0  # atno 17320 bound_to 7965
  146.3518  140.0170  142.8662 LP  0  0  0  0  0  0  0  0  0  0  0  0  # atno 17321 bound_to 7965
  140.1899  144.4762  150.6484 LP  0  0  0  0  0  0  0  0  0  0  0  0  # atno 17342 bound_to 10162
  140.6607  143.2251  151.5863 LP  0  0  0  0  0  0  0  0  0  0  0  0  # atno 17343 bound_to 10162
  157.0683  130.5854  149.5398 LP  0  0  0  0  0  0  0  0  0  0  0  0  # atno 17370 bound_to 10713
  156.0038  130.5122  150.7759 LP  0  0  0  0  0  0  0  0  0  0  0  0  # atno 17371 bound_to 10713
  141.1841  133.6552  156.5145 LP  0  0  0  0  0  0  0  0  0  0  0  0  # atno 17394 bound_to 11000
  140.4194  134.7201  157.4881 LP  0  0  0  0  0  0  0  0  0  0  0  0  # atno 17395 bound_to 11000

$$$$
