AV-unprocessed.smi:1120|AV-procd|sdf|4824|dock7
  -GOLD-   22720 3383D 1   1.00000     0.00000
 Structure written by MMmdl.
 48 49  0  0  0  0  0  0  0  0  3 V2000
  152.7867  141.8066  161.7570 C   0  0  0  0  0  0  0  0  0  0  0  0
  152.6446  141.8528  160.2295 C   0  0  2  0  0  0  0  0  0  0  0  0
  151.9722  143.1610  159.7517 C   0  0  0  0  0  0  0  0  0  0  0  0
  151.7746  143.2088  158.2156 C   0  0  0  0  0  0  0  0  0  0  0  0
  150.9702  142.0070  157.6654 C   0  0  1  0  0  0  0  0  0  0  0  0
  150.9356  142.0590  156.2110 N   0  5  0  0  0  0  0  0  0  0  0  0
  150.1486  140.9093  155.3832 S   0  0  0  0  0  0  0  0  0  0  0  0
  151.0600  139.9918  154.6783 O   0  0  0  0  0  0  0  0  0  0  0  0
  149.0617  140.2936  156.1620 O   0  0  0  0  0  0  0  0  0  0  0  0
  149.3315  141.9271  154.0781 C   0  0  0  0  0  0  0  0  0  0  0  0
  148.0623  141.2331  153.5883 C   0  0  0  0  0  0  0  0  0  0  0  0
  147.0799  141.1519  154.3257 O   0  0  0  0  0  0  0  0  0  0  0  0
  148.0980  140.7302  152.3439 N   0  0  0  0  0  0  0  0  0  0  0  0
  147.0133  140.0042  151.6892 C   0  0  0  0  0  0  0  0  0  0  0  0
  146.6202  138.7175  152.4409 C   0  0  0  0  0  0  0  0  0  0  0  0
  145.7344  137.7783  151.6402 C   0  0  0  0  0  0  0  0  0  0  0  0
  144.3268  137.8077  151.7443 C   0  0  0  0  0  0  0  0  0  0  0  0
  143.5608  136.8918  150.9930 C   0  0  0  0  0  0  0  0  0  0  0  0
  144.2168  135.9684  150.1527 C   0  0  0  0  0  0  0  0  0  0  0  0
  145.6245  135.9833  150.0865 C   0  0  0  0  0  0  0  0  0  0  0  0
  146.3226  136.8740  150.8236 N   0  3  0  0  0  0  0  0  0  0  0  0
  151.6379  140.6969  158.1524 C   0  0  0  0  0  0  0  0  0  0  0  0
  151.8398  140.6479  159.6879 C   0  0  0  0  0  0  0  0  0  0  0  0
  151.8132  141.8444  162.2469 H   0  0  0  0  0  0  0  0  0  0  0  0
  153.3762  142.6483  162.1214 H   0  0  0  0  0  0  0  0  0  0  0  0
  153.2853  140.8912  162.0762 H   0  0  0  0  0  0  0  0  0  0  0  0
  153.6466  141.8110  159.7996 H   0  0  0  0  0  0  0  0  0  0  0  0
  151.0113  143.2860  160.2553 H   0  0  0  0  0  0  0  0  0  0  0  0
  152.5791  144.0135  160.0584 H   0  0  0  0  0  0  0  0  0  0  0  0
  151.2756  144.1402  157.9453 H   0  0  0  0  0  0  0  0  0  0  0  0
  152.7558  143.2410  157.7391 H   0  0  0  0  0  0  0  0  0  0  0  0
  149.9669  142.0587  158.0906 H   0  0  0  0  0  0  0  0  0  0  0  0
  149.0938  142.9043  154.4990 H   0  0  0  0  0  0  0  0  0  0  0  0
  150.0335  142.0743  153.2572 H   0  0  0  0  0  0  0  0  0  0  0  0
  148.9520  140.8435  151.8160 H   0  0  0  0  0  0  0  0  0  0  0  0
  146.1395  140.6454  151.5626 H   0  0  0  0  0  0  0  0  0  0  0  0
  147.3453  139.7467  150.6835 H   0  0  0  0  0  0  0  0  0  0  0  0
  147.5221  138.1790  152.7342 H   0  0  0  0  0  0  0  0  0  0  0  0
  146.1103  138.9779  153.3694 H   0  0  0  0  0  0  0  0  0  0  0  0
  143.8398  138.5160  152.3987 H   0  0  0  0  0  0  0  0  0  0  0  0
  142.4830  136.8949  151.0640 H   0  0  0  0  0  0  0  0  0  0  0  0
  143.6503  135.2538  149.5737 H   0  0  0  0  0  0  0  0  0  0  0  0
  146.2116  135.3057  149.4835 H   0  0  0  0  0  0  0  0  0  0  0  0
  151.0417  139.8372  157.8454 H   0  0  0  0  0  0  0  0  0  0  0  0
  152.6089  140.5803  157.6684 H   0  0  0  0  0  0  0  0  0  0  0  0
  152.3542  139.7225  159.9485 H   0  0  0  0  0  0  0  0  0  0  0  0
  150.8707  140.5984  160.1890 H   0  0  0  0  0  0  0  0  0  0  0  0
  147.3422  136.8503  150.7731 H   0  0  0  0  0  0  0  0  0  0  0  0
  1  2  1  0  0  0  0
  1 24  1  0  0  0  0
  1 25  1  0  0  0  0
  1 26  1  0  0  0  0
  2 23  1  0  0  0  0
  2  3  1  0  0  0  0
  2 27  1  0  0  0  0
  3  4  1  0  0  0  0
  3 28  1  0  0  0  0
  3 29  1  0  0  0  0
  4  5  1  0  0  0  0
  4 30  1  0  0  0  0
  4 31  1  0  0  0  0
  5  6  1  0  0  0  0
  5 22  1  0  0  0  0
  5 32  1  0  0  0  0
  6  7  1  0  0  0  0
  7  8  2  0  0  0  0
  7  9  2  0  0  0  0
  7 10  1  0  0  0  0
 10 11  1  0  0  0  0
 10 33  1  0  0  0  0
 10 34  1  0  0  0  0
 11 12  2  0  0  0  0
 11 13  1  0  0  0  0
 13 14  1  0  0  0  0
 13 35  1  0  0  0  0
 14 15  1  0  0  0  0
 14 36  1  0  0  0  0
 14 37  1  0  0  0  0
 15 16  1  0  0  0  0
 15 38  1  0  0  0  0
 15 39  1  0  0  0  0
 16 21  1  0  0  0  0
 16 17  2  0  0  0  0
 17 18  1  0  0  0  0
 17 40  1  0  0  0  0
 18 19  2  0  0  0  0
 18 41  1  0  0  0  0
 19 20  1  0  0  0  0
 19 42  1  0  0  0  0
 20 21  2  0  0  0  0
 20 43  1  0  0  0  0
 21 48  1  0  0  0  0
 22 23  1  0  0  0  0
 22 44  1  0  0  0  0
 22 45  1  0  0  0  0
 23 46  1  0  0  0  0
 23 47  1  0  0  0  0
M  CHG  1   6  -1
M  CHG  1  21   1
M  END
> <s_m_source_file>
AV-unprocessed.smi

> <i_m_source_file_index>
1120

> <i_lp_mmshare_version>
43012

> <i_f3d_flags>
0

> <s_epik_input>
W0NIM11bQ0BASF0xW0NIMl1bQ0gyXVtDQEhdKFtDSDJdW0NIMl0xKVtOSF1TKD1PKSg9TylbQ0gyXUMoPU8pW05IXVtDSDJdW0NIMl1jMltjSF1bY0hdW2NIXVtjSF1uMg==

> <s_epik_cmdline>
J2VwaWtfcHl0aG9uJywgJy1waCcsICc3LjAnLCAnLXRuJywgJzgnLCAnLW1hJywgJzIwMCcsICctbWV0YWxfYmluZGluZycsICctaW1hZScsICc8aW5maWxlLm1hZT4nLCAnLW9tYWUnLCAnPG91dGZpbGUubWFlPic=

> <r_epik_Ionization_Penalty>
7.48373

> <r_epik_Ionization_Penalty_Charging>
7.48373

> <r_epik_Ionization_Penalty_Neutral>
1.58512e-08

> <r_epik_State_Penalty>
7.71683

> <r_epik_Charging_Adjusted_Penalty>
15.2006

> <i_epik_Tot_Q>
0

> <i_epik_Tot_abs_Q>
2

> <r_epik_Metal_State_Penalty>
3.7254

> <b_epik_Metal_Only>
1

> <s_lp_Force_Field>
OPLS_2005

> <r_lp_Energy>
6.08915

> <b_lp_Chiralities_Consistent>
1

> <s_lp_Variant>
AV-unprocessed.smi:1120-7

> <Gold.Version>
5.8.1

> <Gold.Id.Protein>
6NUR|6NUR_protein|mol2

> <Gold.PLP.Fitness>
57.0738

> <Gold.PLP.PLP>
-47.1850

> <Gold.PLP.part.hbond>
-2.9049

> <Gold.PLP.part.metal>
0.0000

> <Gold.PLP.part.buried>
-4.3601

> <Gold.PLP.part.nonpolar>
-41.4421

> <Gold.PLP.part.repulsive>
0.4536

> <Gold.PLP.ligand.clash>
0.0000

> <Gold.PLP.ligand.torsion>
1.6117

> <Gold.PLP.Chemscore.Hbond>
3.9920

> <Gold.PLP.Chemscore.CHOScore>
0.0000

> <Gold.PLP.Chemscore.Metal>
0.0000

> <Gold.Chemscore.Hbonds>
donor molecule, donor type, donor heavy atom, donor atom, acceptor molecule, acceptor atom, score
      L1  H    13    35       P1  7957  0.11
      L1  H    21    48       P1  7948  1.66
      P1  H  7989  7998       L1     8  1.00

> <Gold.PLP.Chemscore.Internal.Correction>
1.1362

> <Gold.Rescore>
     Score         DG    S(hbond)    S(metal)    S(lipo)     H(rot)  DE(clash)    DE(int)     intcor
     19.89     -22.83       2.92        0.00     108.42       1.98       0.01       2.93       ----

> <Gold.Chemscore.Fitness>
19.8942

> <Gold.Chemscore.DG>
-22.8349

> <Gold.Chemscore.ZeroCoef>
-5.4800

> <Gold.Chemscore.Hbond>
2.9183

> <Gold.Chemscore.Metal>
0.0000

> <Gold.Chemscore.Lipo>
108.4156

> <Gold.Chemscore.Internal_Hbond>
0.0000

> <Gold.Chemscore.DEClash>
0.0126

> <Gold.Chemscore.DEInternal>
2.9281

> <Gold.Chemscore.Rot>
1.9832

> <Gold.Chemscore.Internal.Correction>
   9.000000E+99

> <Gold.Chemscore.Hbonds>
donor molecule, donor type, donor heavy atom, donor atom, acceptor molecule, acceptor atom, score
      L1  H    13    35       P1  7957  0.12
      L1  H    21    48       P1  7948  0.78
      P1  H  7989  7998       L1     8  0.44

> <Gold.Chemscore.Hbond.Weighted>
-9.7471

> <Gold.Chemscore.Metal.Weighted>
-0.0000

> <Gold.Chemscore.Lipo.Weighted>
-12.6846

> <Gold.Chemscore.Internal_Hbond.Weighted>
0.0000

> <Gold.Chemscore.DEClash.Weighted>
0.0126

> <Gold.Chemscore.DEInternal.Weighted>
2.9281

> <Gold.Chemscore.Rot.Weighted>
5.0769

> <Gold.Chemscore.Internal.Correction.Weighted>
   9.000000E+99

> <Gold.Protein.RotatedTorsions>
[ 6907 6896 6895 6894 ] final -149.38 input  -60.11 | X-H torsion
[ 7974 7965 7964 7962 ] final   71.34 input  175.53 | X-H torsion
[ 8008 7997 7996 7995 ] final   58.81 input   59.86 | X-H torsion
[ 10167 10162 10161 10158 ] final   75.80 input  -65.29 | X-H torsion
[ 10718 10713 10712 10709 ] final  -24.81 input   66.30 | X-H torsion
[ 10763 10752 10751 10750 ] final   41.40 input  -60.55 | X-H torsion
[ 11005 11000 10999 10996 ] final   28.00 input  -57.11 | X-H torsion

> <Gold.Protein.ActiveResidues>
 VAL166  LYS551  ARG553  GLY616  TRP617  ASP618  TYR619  PRO620  LYS621  CYS622 
 ASP623  PHE694  ASN695  SER759  ASP760  ASP761  ALA762  ILE779  LEU786  VAL792 
 PHE793  MET794  SER795  GLU796  ALA797  LYS798  CYS799  TRP800  GLU811  SER814 

> <Gold.Protein.RotatedAtoms>
  151.1833  133.4711  159.2594 H   0  0  0  0  0  0  0  0  0  0  0  0  # atno 6907 bound_to 6896
  151.1237  135.0093  159.8560 H   0  0  0  0  0  0  0  0  0  0  0  0  # atno 6908 bound_to 6896
  152.5457  134.1742  159.8662 H   0  0  0  0  0  0  0  0  0  0  0  0  # atno 6909 bound_to 6896
  145.7671  139.2826  143.1343 H   0  0  0  0  0  0  0  0  0  0  0  0  # atno 7974 bound_to 7965
  155.5561  140.3487  155.4480 H   0  0  0  0  0  0  0  0  0  0  0  0  # atno 8008 bound_to 7997
  156.0548  140.1326  157.0035 H   0  0  0  0  0  0  0  0  0  0  0  0  # atno 8009 bound_to 7997
  154.4451  140.0997  156.6414 H   0  0  0  0  0  0  0  0  0  0  0  0  # atno 8010 bound_to 7997
  139.9990  144.5700  150.7753 H   0  0  0  0  0  0  0  0  0  0  0  0  # atno 10167 bound_to 10162
  156.4727  130.4528  149.6860 H   0  0  0  0  0  0  0  0  0  0  0  0  # atno 10718 bound_to 10713
  152.9909  135.6163  154.2782 H   0  0  0  0  0  0  0  0  0  0  0  0  # atno 10763 bound_to 10752
  154.2512  135.2785  155.2817 H   0  0  0  0  0  0  0  0  0  0  0  0  # atno 10764 bound_to 10752
  154.5286  135.5794  153.6797 H   0  0  0  0  0  0  0  0  0  0  0  0  # atno 10765 bound_to 10752
  140.3202  134.2552  155.7718 H   0  0  0  0  0  0  0  0  0  0  0  0  # atno 11005 bound_to 11000
  146.0207  140.8350  142.9925 LP  0  0  0  0  0  0  0  0  0  0  0  0  # atno 17320 bound_to 7965
  144.6819  140.2625  143.7317 LP  0  0  0  0  0  0  0  0  0  0  0  0  # atno 17321 bound_to 7965
  140.7426  143.2834  151.3533 LP  0  0  0  0  0  0  0  0  0  0  0  0  # atno 17342 bound_to 10162
  139.6285  144.0767  152.2455 LP  0  0  0  0  0  0  0  0  0  0  0  0  # atno 17343 bound_to 10162
  156.3602  130.7477  151.2449 LP  0  0  0  0  0  0  0  0  0  0  0  0  # atno 17370 bound_to 10713
  157.7490  131.0352  150.4353 LP  0  0  0  0  0  0  0  0  0  0  0  0  # atno 17371 bound_to 10713
  141.2088  133.7766  157.0035 LP  0  0  0  0  0  0  0  0  0  0  0  0  # atno 17394 bound_to 11000
  140.0948  134.9571  157.1833 LP  0  0  0  0  0  0  0  0  0  0  0  0  # atno 17395 bound_to 11000

$$$$
