#       Name:                AV-unprocessed.smi:3278
#       Creating user name   scv26
#       Creation time:       Fri Mar 27 18:45:37 2020


#       File generated by GOLD software.
#

@<TRIPOS>MOLECULE
AV-unprocessed.smi:3278
    42    43     1
SMALL
NO_CHARGES


@<TRIPOS>ATOM
      1 ****        -3.8739  -1.6694  -2.8574 C.3            1 S1                 0.0000
      2 ****        -3.1608  -0.6670  -2.0952 N.pl3          1 S1                 0.0000
      3 ****        -3.0055  -0.5733  -0.7294 C.2            1 S1                 0.0000
      4 ****        -2.2510   0.5390  -0.4730 C.2            1 S1                 0.0000
      5 ****        -1.7825   1.0930   0.8558 C.3            1 S1                 0.0000
      6 ****        -2.4679   2.4425   1.1291 C.3            1 S1                 0.0000
      7 ****        -2.1387   0.2486   1.9354 O.3            1 S1                 0.0000
      8 ****        -0.2462   1.2494   0.8844 C.3            1 S1                 0.0000
      9 ****         0.4397  -0.0255   0.5727 N.4            1 S1                 1.0000
     10 ****         1.9136   0.0502   0.4724 C.3            1 S1                 0.0000
     11 ****         2.4296  -1.1623  -0.3273 C.3            1 S1                 0.0000
     12 ****         3.9495  -1.1251  -0.5571 C.3            1 S1                 0.0000
     13 ****         4.7406  -1.1400   0.7577 C.3            1 S1                 0.0000
     14 ****         4.3605   0.3191   1.7632 S.3            1 S1                 0.0000
     15 ****         2.5617   0.1148   1.8709 C.3            1 S1                 0.0000
     16 ****        -2.0026   1.0668  -1.7743 C.2            1 S1                 0.0000
     17 ****        -2.5402   0.3410  -2.7398 N.2            1 S1                 0.0000
     18 ****        -4.3143  -2.4073  -2.1861 H              1 S1                 0.0000
     19 ****        -3.1873  -2.1741  -3.5377 H              1 S1                 0.0000
     20 ****        -4.6694  -1.1975  -3.4352 H              1 S1                 0.0000
     21 ****        -3.4388  -1.3006  -0.0583 H              1 S1                 0.0000
     22 ****        -2.2251   3.1749   0.3582 H              1 S1                 0.0000
     23 ****        -2.1585   2.8625   2.0871 H              1 S1                 0.0000
     24 ****        -3.5537   2.3384   1.1507 H              1 S1                 0.0000
     25 ****        -1.9033   0.6756   2.7454 H              1 S1                 0.0000
     26 ****         0.0595   1.9965   0.1502 H              1 S1                 0.0000
     27 ****         0.0756   1.6190   1.8583 H              1 S1                 0.0000
     28 ****         0.1884  -0.7158   1.2660 H              1 S1                 0.0000
     29 ****         2.1683   0.9539  -0.0839 H              1 S1                 0.0000
     30 ****         2.1621  -2.0877   0.1852 H              1 S1                 0.0000
     31 ****         1.9303  -1.1971  -1.2966 H              1 S1                 0.0000
     32 ****         4.2424  -1.9842  -1.1613 H              1 S1                 0.0000
     33 ****         4.2152  -0.2403  -1.1373 H              1 S1                 0.0000
     34 ****         4.5103  -2.0383   1.3317 H              1 S1                 0.0000
     35 ****         5.8116  -1.1558   0.5546 H              1 S1                 0.0000
     36 ****         2.1717   0.9526   2.4482 H              1 S1                 0.0000
     37 ****         2.3429  -0.7913   2.4374 H              1 S1                 0.0000
     38 ****        -1.4425   1.9502  -2.0435 H              1 S1                 0.0000
     39 ****         0.0885  -0.3349  -0.3225 H              1 S1                 0.0000
     40 ****        -1.6494  -0.6201   1.8586 LP             1 S1                 0.0000
     41 ****        -3.1240   0.0788   1.9187 LP             1 S1                 0.0000
     42 ****        -2.4963   0.5032  -3.7255 LP             1 S1                 0.0000
@<TRIPOS>BOND
    1    1    2 1     
    2    1   18 1     
    3    1   19 1     
    4    1   20 1     
    5    2   17 1     
    6    2    3 1     
    7    3    4 2     
    8    3   21 1     
    9    4    5 1     
   10    4   16 1     
   11    5    6 1     
   12    5    7 1     
   13    5    8 1     
   14    6   22 1     
   15    6   23 1     
   16    6   24 1     
   17    7   25 1     
   18    8    9 1     
   19    8   26 1     
   20    8   27 1     
   21    9   10 1     
   22    9   28 1     
   23    9   39 1     
   24   10   15 1     
   25   10   11 1     
   26   10   29 1     
   27   11   12 1     
   28   11   30 1     
   29   11   31 1     
   30   12   13 1     
   31   12   32 1     
   32   12   33 1     
   33   13   14 1     
   34   13   34 1     
   35   13   35 1     
   36   14   15 1     
   37   15   36 1     
   38   15   37 1     
   39   16   17 2     
   40   16   38 1     
   41    7   40 1     
   42    7   41 1     
   43   17   42 1     
@<TRIPOS>SUBSTRUCTURE
      1 S1             1
@<TRIPOS>SET
LONE_PAIRS      STATIC     ATOMS    <user>   **** ""
3 40 41 42
DONOR_HYDROGENS      STATIC     ATOMS    <user>   **** ""
3 25 28 39
ATOM$BLUE        STATIC     ATOMS    COLORGROUP SYSTEM
3 40 41 42
ATOM$RED        STATIC     ATOMS    COLORGROUP SYSTEM
3 25 28 39
