AV-unprocessed.smi:438|AV-procd|sdf|2577|dock4
  -GOLD-   2262022563D 1   1.00000     0.00000
 Structure written by MMmdl.
 48 49  0  0  0  0  0  0  0  0  1 V2000
  148.9582  133.4205  157.6108 C   0  0  0  0  0  0  0  0  0  0  0  0
  149.6344  134.6956  157.1416 C   0  0  0  0  0  0  0  0  0  0  0  0
  149.8279  135.6408  158.0876 N   0  0  0  0  0  0  0  0  0  0  0  0
  150.4302  136.7634  157.6939 C   0  0  0  0  0  0  0  0  0  0  0  0
  150.6692  138.0198  158.9286 S   0  0  0  0  0  0  0  0  0  0  0  0
  150.8855  139.4968  157.8904 C   0  0  0  0  0  0  0  0  0  0  0  0
  152.1608  140.2579  158.2387 C   0  0  0  0  0  0  0  0  0  0  0  0
  153.2594  139.7592  157.9965 O   0  0  0  0  0  0  0  0  0  0  0  0
  151.9963  141.4677  158.7971 N   0  0  0  0  0  0  0  0  0  0  0  0
  153.0610  142.3991  159.1749 C   0  0  2  0  0  0  0  0  0  0  0  0
  153.6468  142.0011  160.5449 C   0  0  0  0  0  0  0  0  0  0  0  0
  152.6621  142.2594  161.6985 C   0  0  0  0  0  0  0  0  0  0  0  0
  152.1816  143.7181  161.7034 C   0  0  0  0  0  0  0  0  0  0  0  0
  151.5711  144.1104  160.3483 C   0  0  0  0  0  0  0  0  0  0  0  0
  152.5581  143.8657  159.1879 C   0  0  2  0  0  0  0  0  0  0  0  0
  151.9656  144.3131  157.8404 C   0  0  0  0  0  0  0  0  0  0  0  0
  150.8560  137.0665  156.4678 N   0  0  0  0  0  0  0  0  0  0  0  0
  150.6688  136.1325  155.5107 C   0  0  0  0  0  0  0  0  0  0  0  0
  151.1081  136.4138  154.2496 O   0  0  0  0  0  0  0  0  0  0  0  0
  150.0424  134.8937  155.7973 C   0  0  0  0  0  0  0  0  0  0  0  0
  149.8325  133.8397  154.7173 C   0  0  0  0  0  0  0  0  0  0  0  0
  148.3469  133.5214  154.5010 C   0  0  0  0  0  0  0  0  0  0  0  0
  147.8110  134.3849  153.5226 O   0  0  0  0  0  0  0  0  0  0  0  0
  149.5274  132.5446  157.2988 H   0  0  0  0  0  0  0  0  0  0  0  0
  147.9543  133.3497  157.1916 H   0  0  0  0  0  0  0  0  0  0  0  0
  148.8727  133.3920  158.6980 H   0  0  0  0  0  0  0  0  0  0  0  0
  150.9175  139.1913  156.8442 H   0  0  0  0  0  0  0  0  0  0  0  0
  150.0338  140.1692  157.9952 H   0  0  0  0  0  0  0  0  0  0  0  0
  151.0499  141.7847  158.9494 H   0  0  0  0  0  0  0  0  0  0  0  0
  153.8724  142.3304  158.4483 H   0  0  0  0  0  0  0  0  0  0  0  0
  153.9472  140.9526  160.5373 H   0  0  0  0  0  0  0  0  0  0  0  0
  154.5580  142.5738  160.7226 H   0  0  0  0  0  0  0  0  0  0  0  0
  151.8045  141.5915  161.6102 H   0  0  0  0  0  0  0  0  0  0  0  0
  153.1379  142.0231  162.6508 H   0  0  0  0  0  0  0  0  0  0  0  0
  151.4490  143.8656  162.4974 H   0  0  0  0  0  0  0  0  0  0  0  0
  153.0203  144.3774  161.9304 H   0  0  0  0  0  0  0  0  0  0  0  0
  150.6535  143.5442  160.1832 H   0  0  0  0  0  0  0  0  0  0  0  0
  151.2812  145.1614  160.3734 H   0  0  0  0  0  0  0  0  0  0  0  0
  153.4290  144.4975  159.3694 H   0  0  0  0  0  0  0  0  0  0  0  0
  151.0454  143.7776  157.6049 H   0  0  0  0  0  0  0  0  0  0  0  0
  152.6696  144.1408  157.0259 H   0  0  0  0  0  0  0  0  0  0  0  0
  151.7304  145.3776  157.8518 H   0  0  0  0  0  0  0  0  0  0  0  0
  150.3995  136.5180  153.6335 H   0  0  0  0  0  0  0  0  0  0  0  0
  150.2842  134.1698  153.7819 H   0  0  0  0  0  0  0  0  0  0  0  0
  150.3707  132.9319  154.9924 H   0  0  0  0  0  0  0  0  0  0  0  0
  148.2161  132.4893  154.1743 H   0  0  0  0  0  0  0  0  0  0  0  0
  147.7854  133.6453  155.4274 H   0  0  0  0  0  0  0  0  0  0  0  0
  148.5235  134.8401  153.1003 H   0  0  0  0  0  0  0  0  0  0  0  0
  1  2  1  0  0  0  0
  1 24  1  0  0  0  0
  1 25  1  0  0  0  0
  1 26  1  0  0  0  0
  2 20  1  0  0  0  0
  2  3  2  0  0  0  0
  3  4  1  0  0  0  0
  4  5  1  0  0  0  0
  4 17  2  0  0  0  0
  5  6  1  0  0  0  0
  6  7  1  0  0  0  0
  6 27  1  0  0  0  0
  6 28  1  0  0  0  0
  7  8  2  0  0  0  0
  7  9  1  0  0  0  0
  9 10  1  0  0  0  0
  9 29  1  0  0  0  0
 10 15  1  0  0  0  0
 10 11  1  0  0  0  0
 10 30  1  0  0  0  0
 11 12  1  0  0  0  0
 11 31  1  0  0  0  0
 11 32  1  0  0  0  0
 12 13  1  0  0  0  0
 12 33  1  0  0  0  0
 12 34  1  0  0  0  0
 13 14  1  0  0  0  0
 13 35  1  0  0  0  0
 13 36  1  0  0  0  0
 14 15  1  0  0  0  0
 14 37  1  0  0  0  0
 14 38  1  0  0  0  0
 15 16  1  0  0  0  0
 15 39  1  0  0  0  0
 16 40  1  0  0  0  0
 16 41  1  0  0  0  0
 16 42  1  0  0  0  0
 17 18  1  0  0  0  0
 18 19  1  0  0  0  0
 18 20  2  0  0  0  0
 19 43  1  0  0  0  0
 20 21  1  0  0  0  0
 21 22  1  0  0  0  0
 21 44  1  0  0  0  0
 21 45  1  0  0  0  0
 22 23  1  0  0  0  0
 22 46  1  0  0  0  0
 22 47  1  0  0  0  0
 23 48  1  0  0  0  0
M  END
> <s_m_source_file>
AV-unprocessed.smi

> <i_m_source_file_index>
438

> <i_lp_mmshare_version>
43012

> <i_f3d_flags>
0

> <s_epik_input>
W09IXVtDSDJdW0NIMl1jMWMoW09IXSluYyhuYzFbQ0gzXSlTW0NIMl1DKD1PKVtOSF1bQ0BASF0yW0NIMl1bQ0gyXVtDSDJdW0NIMl1bQ0BIXTJbQ0gzXQ==

> <s_epik_cmdline>
J2VwaWtfcHl0aG9uJywgJy1waCcsICc3LjAnLCAnLXRuJywgJzgnLCAnLW1hJywgJzIwMCcsICctbWV0YWxfYmluZGluZycsICctaW1hZScsICc8aW5maWxlLm1hZT4nLCAnLW9tYWUnLCAnPG91dGZpbGUubWFlPic=

> <r_lp_tautomer_probability>
0.0660145

> <r_epik_Ionization_Penalty>
2.91405

> <r_epik_Ionization_Penalty_Charging>
0

> <r_epik_Ionization_Penalty_Neutral>
2.91405

> <r_epik_State_Penalty>
2.44767

> <r_epik_Charging_Adjusted_Penalty>
2.44767

> <i_epik_Tot_Q>
0

> <i_epik_Tot_abs_Q>
0

> <r_epik_Metal_State_Penalty>
3.04288

> <b_epik_Metal_Only>
0

> <s_lp_Force_Field>
OPLS_2005

> <r_lp_Energy>
3.55381

> <b_lp_Chiralities_Consistent>
1

> <s_lp_Variant>
AV-unprocessed.smi:438-15

> <Gold.Version>
5.8.1

> <Gold.Id.Protein>
6NUR|6NUR_protein|mol2

> <Gold.PLP.Fitness>
57.5500

> <Gold.PLP.PLP>
-47.4408

> <Gold.PLP.part.hbond>
-5.6351

> <Gold.PLP.part.metal>
0.0000

> <Gold.PLP.part.buried>
-5.2514

> <Gold.PLP.part.nonpolar>
-37.2914

> <Gold.PLP.part.repulsive>
0.1057

> <Gold.PLP.ligand.clash>
0.0000

> <Gold.PLP.ligand.torsion>
1.2214

> <Gold.PLP.Chemscore.Hbond>
4.1638

> <Gold.PLP.Chemscore.CHOScore>
0.0000

> <Gold.PLP.Chemscore.Metal>
0.0000

> <Gold.Chemscore.Hbonds>
donor molecule, donor type, donor heavy atom, donor atom, acceptor molecule, acceptor atom, score
      L1  H    19    43       P1  7948  0.20
      L1  H    23    48       P1  7948  0.90
      P1  H  6896  6907       L1     3  1.00
      P1  H  7997  8010       L1     8  1.00
      P1  H 10752 10763       L1    19  1.00

> <Gold.PLP.Chemscore.Internal.Correction>
0.0608

> <Gold.Rescore>
     Score         DG    S(hbond)    S(metal)    S(lipo)     H(rot)  DE(clash)    DE(int)     intcor
     18.56     -19.83       3.01        0.00     111.89       3.44       0.00       1.27       ----

> <Gold.Chemscore.Fitness>
18.5566

> <Gold.Chemscore.DG>
-19.8276

> <Gold.Chemscore.ZeroCoef>
-5.4800

> <Gold.Chemscore.Hbond>
3.0098

> <Gold.Chemscore.Metal>
0.0000

> <Gold.Chemscore.Lipo>
111.8873

> <Gold.Chemscore.Internal_Hbond>
0.0000

> <Gold.Chemscore.DEClash>
0.0015

> <Gold.Chemscore.DEInternal>
1.2695

> <Gold.Chemscore.Rot>
3.4359

> <Gold.Chemscore.Internal.Correction>
   9.000000E+99

> <Gold.Chemscore.Hbonds>
donor molecule, donor type, donor heavy atom, donor atom, acceptor molecule, acceptor atom, score
      L1  H    19    43       P1  7948  0.01
      L1  H    23    48       P1  7948  0.49
      P1  H  6896  6907       L1     3  0.34
      P1  H  7997  8010       L1     8  1.00
      P1  H 10752 10763       L1    19  0.48

> <Gold.Chemscore.Hbond.Weighted>
-10.0528

> <Gold.Chemscore.Metal.Weighted>
-0.0000

> <Gold.Chemscore.Lipo.Weighted>
-13.0908

> <Gold.Chemscore.Internal_Hbond.Weighted>
0.0000

> <Gold.Chemscore.DEClash.Weighted>
0.0015

> <Gold.Chemscore.DEInternal.Weighted>
1.2695

> <Gold.Chemscore.Rot.Weighted>
8.7960

> <Gold.Chemscore.Internal.Correction.Weighted>
   9.000000E+99

> <Gold.Protein.RotatedTorsions>
[ 6907 6896 6895 6894 ] final  -67.48 input  -60.11 | X-H torsion
[ 7974 7965 7964 7962 ] final  -67.44 input  175.53 | X-H torsion
[ 8008 7997 7996 7995 ] final   37.48 input   59.86 | X-H torsion
[ 10167 10162 10161 10158 ] final   79.89 input  -65.29 | X-H torsion
[ 10718 10713 10712 10709 ] final   75.07 input   66.30 | X-H torsion
[ 10763 10752 10751 10750 ] final   34.99 input  -60.55 | X-H torsion
[ 11005 11000 10999 10996 ] final    3.16 input  -57.11 | X-H torsion

> <Gold.Protein.ActiveResidues>
 VAL166  LYS551  ARG553  GLY616  TRP617  ASP618  TYR619  PRO620  LYS621  CYS622 
 ASP623  PHE694  ASN695  SER759  ASP760  ASP761  ALA762  ILE779  LEU786  VAL792 
 PHE793  MET794  SER795  GLU796  ALA797  LYS798  CYS799  TRP800  GLU811  SER814 

> <Gold.Protein.RotatedAtoms>
  150.7407  134.5875  159.5969 H   0  0  0  0  0  0  0  0  0  0  0  0  # atno 6907 bound_to 6896
  152.3272  134.7303  160.0308 H   0  0  0  0  0  0  0  0  0  0  0  0  # atno 6908 bound_to 6896
  151.7799  133.3313  159.3505 H   0  0  0  0  0  0  0  0  0  0  0  0  # atno 6909 bound_to 6896
  145.7292  140.9004  143.0589 H   0  0  0  0  0  0  0  0  0  0  0  0  # atno 7974 bound_to 7965
  155.2045  140.3318  155.4338 H   0  0  0  0  0  0  0  0  0  0  0  0  # atno 8008 bound_to 7997
  156.2394  140.1888  156.7079 H   0  0  0  0  0  0  0  0  0  0  0  0  # atno 8009 bound_to 7997
  154.6119  140.0607  156.9491 H   0  0  0  0  0  0  0  0  0  0  0  0  # atno 8010 bound_to 7997
  139.9555  144.5996  150.8120 H   0  0  0  0  0  0  0  0  0  0  0  0  # atno 10167 bound_to 10162
  157.6619  130.9708  150.1300 H   0  0  0  0  0  0  0  0  0  0  0  0  # atno 10718 bound_to 10713
  153.0139  135.6345  154.1756 H   0  0  0  0  0  0  0  0  0  0  0  0  # atno 10763 bound_to 10752
  154.1497  135.2829  155.3140 H   0  0  0  0  0  0  0  0  0  0  0  0  # atno 10764 bound_to 10752
  154.6063  135.5571  153.7487 H   0  0  0  0  0  0  0  0  0  0  0  0  # atno 10765 bound_to 10752
  140.5962  133.9878  155.8111 H   0  0  0  0  0  0  0  0  0  0  0  0  # atno 11005 bound_to 11000
  144.6897  139.9307  143.7471 LP  0  0  0  0  0  0  0  0  0  0  0  0  # atno 17320 bound_to 7965
  146.0554  139.3551  143.0614 LP  0  0  0  0  0  0  0  0  0  0  0  0  # atno 17321 bound_to 7965
  140.7569  143.3076  151.2923 LP  0  0  0  0  0  0  0  0  0  0  0  0  # atno 17342 bound_to 10162
  139.6594  144.0216  152.2682 LP  0  0  0  0  0  0  0  0  0  0  0  0  # atno 17343 bound_to 10162
  156.2149  130.3669  149.8625 LP  0  0  0  0  0  0  0  0  0  0  0  0  # atno 17370 bound_to 10713
  156.6493  130.8737  151.3528 LP  0  0  0  0  0  0  0  0  0  0  0  0  # atno 17371 bound_to 10713
  141.0902  133.9928  157.3249 LP  0  0  0  0  0  0  0  0  0  0  0  0  # atno 17394 bound_to 11000
  139.9252  135.0201  156.8209 LP  0  0  0  0  0  0  0  0  0  0  0  0  # atno 17395 bound_to 11000

$$$$
