AV-unprocessed.smi:3253|AV-procd|sdf|12445|dock1
  -GOLD-   2272018343D 1   1.00000     0.00000
 Structure written by MMmdl.
 37 38  0  0  0  0  0  0  0  0  2 V2000
  150.0498  139.2408  155.4670 C   0  0  0  0  0  0  0  0  0  0  0  0
  149.7177  140.7130  155.7748 C   0  0  2  0  0  0  0  0  0  0  0  0
  149.3403  141.5231  154.5184 C   0  0  0  0  0  0  0  0  0  0  0  0
  147.9007  141.7781  154.4104 N   0  0  0  0  0  0  0  0  0  0  0  0
  147.1481  142.6450  155.1609 C   0  0  0  0  0  0  0  0  0  0  0  0
  145.8597  142.5403  154.7033 C   0  0  0  0  0  0  0  0  0  0  0  0
  145.8798  141.6127  153.6963 N   0  3  0  0  0  0  0  0  0  0  0  0
  147.1213  141.1482  153.5218 C   0  0  0  0  0  0  0  0  0  0  0  0
  150.8476  141.3582  156.4378 N   0  0  0  0  0  0  0  0  0  0  0  0
  150.7844  142.0415  157.5916 C   0  0  0  0  0  0  0  0  0  0  0  0
  149.7415  142.1962  158.2279 O   0  0  0  0  0  0  0  0  0  0  0  0
  152.1019  142.6435  158.1056 C   0  0  2  0  0  0  0  0  0  0  0  0
  152.4272  142.1538  159.5316 C   0  0  0  0  0  0  0  0  0  0  0  0
  152.2954  143.4013  160.3893 C   0  0  0  0  0  0  0  0  0  0  0  0
  152.3911  143.3827  161.6155 O   0  0  0  0  0  0  0  0  0  0  0  0
  152.0594  144.4775  159.6343 N   0  0  0  0  0  0  0  0  0  0  0  0
  151.8641  145.8349  160.1250 C   0  0  0  0  0  0  0  0  0  0  0  0
  152.0450  144.1838  158.2116 C   0  0  0  0  0  0  0  0  0  0  0  0
  149.1964  138.7205  155.0321 H   0  0  0  0  0  0  0  0  0  0  0  0
  150.3258  138.6999  156.3728 H   0  0  0  0  0  0  0  0  0  0  0  0
  150.8815  139.1607  154.7665 H   0  0  0  0  0  0  0  0  0  0  0  0
  148.8619  140.7339  156.4523 H   0  0  0  0  0  0  0  0  0  0  0  0
  149.8486  142.4888  154.5164 H   0  0  0  0  0  0  0  0  0  0  0  0
  149.6545  140.9981  153.6151 H   0  0  0  0  0  0  0  0  0  0  0  0
  147.5738  143.2581  155.9423 H   0  0  0  0  0  0  0  0  0  0  0  0
  144.9540  143.0428  155.0112 H   0  0  0  0  0  0  0  0  0  0  0  0
  147.4330  140.4119  152.8024 H   0  0  0  0  0  0  0  0  0  0  0  0
  151.7472  141.2799  155.9858 H   0  0  0  0  0  0  0  0  0  0  0  0
  152.9095  142.3590  157.4286 H   0  0  0  0  0  0  0  0  0  0  0  0
  151.7565  141.3716  159.8915 H   0  0  0  0  0  0  0  0  0  0  0  0
  153.4484  141.7765  159.5942 H   0  0  0  0  0  0  0  0  0  0  0  0
  152.7264  146.1601  160.7079 H   0  0  0  0  0  0  0  0  0  0  0  0
  150.9800  145.8862  160.7611 H   0  0  0  0  0  0  0  0  0  0  0  0
  151.7294  146.5351  159.3002 H   0  0  0  0  0  0  0  0  0  0  0  0
  152.9185  144.6372  157.7410 H   0  0  0  0  0  0  0  0  0  0  0  0
  151.1584  144.6143  157.7422 H   0  0  0  0  0  0  0  0  0  0  0  0
  145.0732  141.3185  153.1598 H   0  0  0  0  0  0  0  0  0  0  0  0
  1  2  1  0  0  0  0
  1 19  1  0  0  0  0
  1 20  1  0  0  0  0
  1 21  1  0  0  0  0
  2  3  1  0  0  0  0
  2  9  1  0  0  0  0
  2 22  1  0  0  0  0
  3  4  1  0  0  0  0
  3 23  1  0  0  0  0
  3 24  1  0  0  0  0
  4  8  1  0  0  0  0
  4  5  1  0  0  0  0
  5  6  2  0  0  0  0
  5 25  1  0  0  0  0
  6  7  1  0  0  0  0
  6 26  1  0  0  0  0
  7  8  2  0  0  0  0
  7 37  1  0  0  0  0
  8 27  1  0  0  0  0
  9 10  1  0  0  0  0
  9 28  1  0  0  0  0
 10 11  2  0  0  0  0
 10 12  1  0  0  0  0
 12 18  1  0  0  0  0
 12 13  1  0  0  0  0
 12 29  1  0  0  0  0
 13 14  1  0  0  0  0
 13 30  1  0  0  0  0
 13 31  1  0  0  0  0
 14 15  2  0  0  0  0
 14 16  1  0  0  0  0
 16 17  1  0  0  0  0
 16 18  1  0  0  0  0
 17 32  1  0  0  0  0
 17 33  1  0  0  0  0
 17 34  1  0  0  0  0
 18 35  1  0  0  0  0
 18 36  1  0  0  0  0
M  CHG  1   7   1
M  END
> <s_m_source_file>
AV-unprocessed.smi

> <i_m_source_file_index>
3253

> <i_lp_mmshare_version>
43012

> <i_f3d_flags>
0

> <s_epik_input>
W2NIXTFuW2NIXVtjSF1uMVtDSDJdW0NAQEhdKFtDSDNdKVtOSF1DKD1PKVtDQEBIXTJbQ0gyXUMoPU8pTihbQ0gzXSlbQ0gyXTI=

> <s_epik_cmdline>
J2VwaWtfcHl0aG9uJywgJy1waCcsICc3LjAnLCAnLXRuJywgJzgnLCAnLW1hJywgJzIwMCcsICctbWV0YWxfYmluZGluZycsICctaW1hZScsICc8aW5maWxlLm1hZT4nLCAnLW9tYWUnLCAnPG91dGZpbGUubWFlPic=

> <r_lp_tautomer_probability>
1

> <r_epik_Ionization_Penalty>
0.251561

> <r_epik_Ionization_Penalty_Charging>
0

> <r_epik_Ionization_Penalty_Neutral>
0.251561

> <r_epik_State_Penalty>
0.242926

> <r_epik_Charging_Adjusted_Penalty>
0.242926

> <i_epik_Tot_Q>
1

> <i_epik_Tot_abs_Q>
1

> <r_epik_Metal_State_Penalty>
0.533885

> <b_epik_Metal_Only>
0

> <s_lp_Force_Field>
OPLS_2005

> <r_lp_Energy>
15.657

> <b_lp_Chiralities_Consistent>
1

> <s_lp_Variant>
AV-unprocessed.smi:3253-1

> <Gold.Version>
5.8.1

> <Gold.Id.Protein>
6NUR|6NUR_protein|mol2

> <Gold.PLP.Fitness>
49.9295

> <Gold.PLP.PLP>
-39.9983

> <Gold.PLP.part.hbond>
-1.0000

> <Gold.PLP.part.metal>
0.0000

> <Gold.PLP.part.buried>
-3.5911

> <Gold.PLP.part.nonpolar>
-36.4493

> <Gold.PLP.part.repulsive>
0.3014

> <Gold.PLP.ligand.clash>
0.0000

> <Gold.PLP.ligand.torsion>
0.9080

> <Gold.PLP.Chemscore.Hbond>
2.0000

> <Gold.PLP.Chemscore.CHOScore>
1.8968

> <Gold.PLP.Chemscore.Metal>
0.0000

> <Gold.Chemscore.Hbonds>
donor molecule, donor type, donor heavy atom, donor atom, acceptor molecule, acceptor atom, score
      L1  H     7    37       P1 10175  1.40
      L1  C     5    25       P1  8028  0.51
      L1  C     8    27       P1  7957  0.49

> <Gold.PLP.Chemscore.Internal.Correction>
0.0568

> <Gold.Rescore>
     Score         DG    S(hbond)    S(metal)    S(lipo)     H(rot)  DE(clash)    DE(int)     intcor
     10.98     -12.08       0.98        0.00      72.88       2.03       0.27       0.83       ----

> <Gold.Chemscore.Fitness>
10.9760

> <Gold.Chemscore.DG>
-12.0759

> <Gold.Chemscore.ZeroCoef>
-5.4800

> <Gold.Chemscore.Hbond>
0.9810

> <Gold.Chemscore.Metal>
0.0000

> <Gold.Chemscore.Lipo>
72.8773

> <Gold.Chemscore.Internal_Hbond>
0.0000

> <Gold.Chemscore.DEClash>
0.2671

> <Gold.Chemscore.DEInternal>
0.8328

> <Gold.Chemscore.Rot>
2.0341

> <Gold.Chemscore.Internal.Correction>
   9.000000E+99

> <Gold.Chemscore.Hbonds>
donor molecule, donor type, donor heavy atom, donor atom, acceptor molecule, acceptor atom, score
      L1  H     7    37       P1 10175  0.07

> <Gold.Chemscore.Hbond.Weighted>
-3.2764

> <Gold.Chemscore.Metal.Weighted>
-0.0000

> <Gold.Chemscore.Lipo.Weighted>
-8.5266

> <Gold.Chemscore.Internal_Hbond.Weighted>
0.0000

> <Gold.Chemscore.DEClash.Weighted>
0.2671

> <Gold.Chemscore.DEInternal.Weighted>
0.8328

> <Gold.Chemscore.Rot.Weighted>
5.2072

> <Gold.Chemscore.Internal.Correction.Weighted>
   9.000000E+99

> <Gold.Protein.RotatedTorsions>
[ 6907 6896 6895 6894 ] final   85.49 input  -60.11 | X-H torsion
[ 7974 7965 7964 7962 ] final  -24.31 input  175.53 | X-H torsion
[ 8008 7997 7996 7995 ] final   94.09 input   59.86 | X-H torsion
[ 10167 10162 10161 10158 ] final  -68.31 input  -65.29 | X-H torsion
[ 10718 10713 10712 10709 ] final -115.31 input   66.30 | X-H torsion
[ 10763 10752 10751 10750 ] final    3.52 input  -60.55 | X-H torsion
[ 11005 11000 10999 10996 ] final  -68.88 input  -57.11 | X-H torsion

> <Gold.Protein.ActiveResidues>
 VAL166  LYS551  ARG553  GLY616  TRP617  ASP618  TYR619  PRO620  LYS621  CYS622 
 ASP623  PHE694  ASN695  SER759  ASP760  ASP761  ALA762  ILE779  LEU786  VAL792 
 PHE793  MET794  SER795  GLU796  ALA797  LYS798  CYS799  TRP800  GLU811  SER814 

> <Gold.Protein.RotatedAtoms>
  152.5376  134.2577  159.8923 H   0  0  0  0  0  0  0  0  0  0  0  0  # atno 6907 bound_to 6896
  151.2538  133.4330  159.2620 H   0  0  0  0  0  0  0  0  0  0  0  0  # atno 6908 bound_to 6896
  151.0515  134.9690  159.8270 H   0  0  0  0  0  0  0  0  0  0  0  0  # atno 6909 bound_to 6896
  146.1563  140.4734  142.8590 H   0  0  0  0  0  0  0  0  0  0  0  0  # atno 7974 bound_to 7965
  156.0541  140.3304  155.7385 H   0  0  0  0  0  0  0  0  0  0  0  0  # atno 8008 bound_to 7997
  155.5556  140.0614  157.2858 H   0  0  0  0  0  0  0  0  0  0  0  0  # atno 8009 bound_to 7997
  154.4449  140.1886  156.0719 H   0  0  0  0  0  0  0  0  0  0  0  0  # atno 8010 bound_to 7997
  140.5517  143.2312  151.6898 H   0  0  0  0  0  0  0  0  0  0  0  0  # atno 10167 bound_to 10162
  156.0887  130.6074  150.8889 H   0  0  0  0  0  0  0  0  0  0  0  0  # atno 10718 bound_to 10713
  153.2823  135.6941  153.7373 H   0  0  0  0  0  0  0  0  0  0  0  0  # atno 10763 bound_to 10752
  153.6355  135.3402  155.3056 H   0  0  0  0  0  0  0  0  0  0  0  0  # atno 10764 bound_to 10752
  154.8499  135.4419  154.1880 H   0  0  0  0  0  0  0  0  0  0  0  0  # atno 10765 bound_to 10752
  141.1542  133.6751  156.6513 H   0  0  0  0  0  0  0  0  0  0  0  0  # atno 11005 bound_to 11000
  144.7967  140.6136  143.6505 LP  0  0  0  0  0  0  0  0  0  0  0  0  # atno 17320 bound_to 7965
  145.4701  139.1504  143.3819 LP  0  0  0  0  0  0  0  0  0  0  0  0  # atno 17321 bound_to 7965
  139.5030  144.3807  152.0379 LP  0  0  0  0  0  0  0  0  0  0  0  0  # atno 17342 bound_to 10162
  140.2924  144.3738  150.6084 LP  0  0  0  0  0  0  0  0  0  0  0  0  # atno 17343 bound_to 10162
  157.6030  131.0940  150.8928 LP  0  0  0  0  0  0  0  0  0  0  0  0  # atno 17370 bound_to 10713
  156.9082  130.5271  149.5281 LP  0  0  0  0  0  0  0  0  0  0  0  0  # atno 17371 bound_to 10713
  140.3318  134.7922  157.4332 LP  0  0  0  0  0  0  0  0  0  0  0  0  # atno 17394 bound_to 11000
  140.1010  134.5472  155.8352 LP  0  0  0  0  0  0  0  0  0  0  0  0  # atno 17395 bound_to 11000

$$$$
