#       Name:                AV-unprocessed.smi:2584
#       Creating user name   scv26
#       Creation time:       Fri Mar 27 14:15:31 2020


#       File generated by GOLD software.
#

@<TRIPOS>MOLECULE
AV-unprocessed.smi:2584
    39    40     1
SMALL
NO_CHARGES


@<TRIPOS>ATOM
      1 ****        -1.4902   2.0261  -1.1174 O.2            1 S1                 0.0000
      2 ****        -2.3608   1.1559  -1.0836 C.2            1 S1                 0.0000
      3 ****        -2.0899  -0.1541  -0.9909 N.am           1 S1                 0.0000
      4 ****        -0.7487  -0.7250  -0.9428 C.3            1 S1                 0.0000
      5 ****        -0.1088  -0.5586   0.4496 C.3            1 S1                 0.0000
      6 ****         1.2429  -1.1678   0.5280 N.4            1 S1                 1.0000
      7 ****         1.6253  -1.5063   1.9243 C.3            1 S1                 0.0000
      8 ****         2.9664  -2.2582   1.9690 C.3            1 S1                 0.0000
      9 ****         4.0743  -1.4481   1.2839 C.3            1 S1                 0.0000
     10 ****         3.6467  -1.0805  -0.1424 C.3            1 S1                 0.0000
     11 ****         2.2921  -0.3521  -0.1421 C.3            1 S1                 0.0000
     12 ****        -3.6845   1.3803  -1.1338 N.am           1 S1                 0.0000
     13 ****        -4.3178   2.5760  -1.2328 C.2            1 S1                 0.0000
     14 ****        -3.8440   3.8644  -1.2803 C.2            1 S1                 0.0000
     15 ****        -4.8520   4.8359  -1.3851 N.2            1 S1                 0.0000
     16 ****        -6.0580   4.3501  -1.4198 N.2            1 S1                 0.0000
     17 ****        -6.0385   2.6785  -1.3251 S.3            1 S1                 0.0000
     18 ****        -2.8646  -0.8016  -0.9694 H              1 S1                 0.0000
     19 ****        -0.8228  -1.7837  -1.1926 H              1 S1                 0.0000
     20 ****        -0.1405  -0.2652  -1.7220 H              1 S1                 0.0000
     21 ****        -0.0512   0.4926   0.7367 H              1 S1                 0.0000
     22 ****        -0.7636  -1.0393   1.1781 H              1 S1                 0.0000
     23 ****         1.6849  -0.5927   2.5181 H              1 S1                 0.0000
     24 ****         0.8537  -2.1296   2.3781 H              1 S1                 0.0000
     25 ****         3.2430  -2.4665   3.0030 H              1 S1                 0.0000
     26 ****         2.8607  -3.2256   1.4761 H              1 S1                 0.0000
     27 ****         4.2753  -0.5406   1.8549 H              1 S1                 0.0000
     28 ****         5.0035  -2.0184   1.2649 H              1 S1                 0.0000
     29 ****         4.4074  -0.4537  -0.6090 H              1 S1                 0.0000
     30 ****         3.5764  -1.9844  -0.7492 H              1 S1                 0.0000
     31 ****         2.0097  -0.1386  -1.1721 H              1 S1                 0.0000
     32 ****         2.3847   0.6104   0.3639 H              1 S1                 0.0000
     33 ****        -4.2852   0.5695  -1.1029 H              1 S1                 0.0000
     34 ****        -2.8177   4.1976  -1.2458 H              1 S1                 0.0000
     35 ****         1.1906  -2.0462   0.0322 H              1 S1                 0.0000
     36 ****        -0.5246   1.7693  -1.0752 LP             1 S1                 0.0000
     37 ****        -1.7487   2.9896  -1.1872 LP             1 S1                 0.0000
     38 ****        -4.6595   5.8162  -1.4293 LP             1 S1                 0.0000
     39 ****        -6.8882   4.9026  -1.4935 LP             1 S1                 0.0000
@<TRIPOS>BOND
    1    1    2 2     
    2    2    3 am    
    3    2   12 am    
    4    3    4 1     
    5    3   18 1     
    6    4    5 1     
    7    4   19 1     
    8    4   20 1     
    9    5    6 1     
   10    5   21 1     
   11    5   22 1     
   12    6   11 1     
   13    6    7 1     
   14    6   35 1     
   15    7    8 1     
   16    7   23 1     
   17    7   24 1     
   18    8    9 1     
   19    8   25 1     
   20    8   26 1     
   21    9   10 1     
   22    9   27 1     
   23    9   28 1     
   24   10   11 1     
   25   10   29 1     
   26   10   30 1     
   27   11   31 1     
   28   11   32 1     
   29   12   13 1     
   30   12   33 1     
   31   13   17 1     
   32   13   14 2     
   33   14   15 1     
   34   14   34 1     
   35   15   16 2     
   36   16   17 1     
   37    1   36 1     
   38    1   37 1     
   39   15   38 1     
   40   16   39 1     
@<TRIPOS>SUBSTRUCTURE
      1 S1             1
@<TRIPOS>SET
LONE_PAIRS      STATIC     ATOMS    <user>   **** ""
4 36 37 38 39
DONOR_HYDROGENS      STATIC     ATOMS    <user>   **** ""
3 18 35 33
ATOM$BLUE        STATIC     ATOMS    COLORGROUP SYSTEM
4 36 37 38 39
ATOM$RED        STATIC     ATOMS    COLORGROUP SYSTEM
3 18 35 33
