AV-unprocessed.smi:1769|AV-procd|sdf|7153|dock3
  -GOLD-   22720 8393D 1   1.00000     0.00000
 Structure written by MMmdl.
 42 43  0  0  0  0  0  0  0  0  2 V2000
  151.4947  144.3772  157.3061 C   0  0  0  0  0  0  0  0  0  0  0  0
  151.8627  144.4835  158.7878 C   0  0  0  0  0  0  0  0  0  0  0  0
  152.2025  145.5844  159.2217 O   0  0  0  0  0  0  0  0  0  0  0  0
  151.7988  143.3772  159.5673 N   0  0  0  0  0  0  0  0  0  0  0  0
  152.1908  143.3109  160.9810 C   0  0  0  0  0  0  0  0  0  0  0  0
  153.4988  142.5077  161.0913 C   0  0  0  0  0  0  0  0  0  0  0  0
  153.3402  141.1092  160.4649 C   0  0  0  0  0  0  0  0  0  0  0  0
  152.7517  141.1821  159.0354 C   0  0  1  0  0  0  0  0  0  0  0  0
  152.4654  139.7805  158.4811 C   0  0  0  0  0  0  0  0  0  0  0  0
  152.9483  139.4270  157.4047 O   0  0  0  0  0  0  0  0  0  0  0  0
  151.6754  138.9905  159.2247 N   0  0  0  0  0  0  0  0  0  0  0  0
  151.2852  137.6312  158.8701 C   0  0  0  0  0  0  0  0  0  0  0  0
  149.9382  137.6069  158.1295 C   0  0  0  0  0  0  0  0  0  0  0  0
  150.0740  138.0392  156.6827 C   0  0  0  0  0  0  0  0  0  0  0  0
  150.3748  139.3813  156.3616 C   0  0  0  0  0  0  0  0  0  0  0  0
  150.5002  139.7571  155.0080 C   0  0  0  0  0  0  0  0  0  0  0  0
  150.3225  138.7817  154.0055 C   0  0  0  0  0  0  0  0  0  0  0  0
  150.0357  137.5069  154.3510 N   0  3  0  0  0  0  0  0  0  0  0  0
  149.9071  137.1073  155.6354 C   0  0  0  0  0  0  0  0  0  0  0  0
  151.4720  142.0490  159.0333 C   0  0  0  0  0  0  0  0  0  0  0  0
  150.4724  144.0176  157.1855 H   0  0  0  0  0  0  0  0  0  0  0  0
  152.1733  143.7001  156.7871 H   0  0  0  0  0  0  0  0  0  0  0  0
  151.5627  145.3523  156.8225 H   0  0  0  0  0  0  0  0  0  0  0  0
  152.3132  144.2870  161.4480 H   0  0  0  0  0  0  0  0  0  0  0  0
  151.4012  142.8156  161.5481 H   0  0  0  0  0  0  0  0  0  0  0  0
  154.3012  143.0470  160.5859 H   0  0  0  0  0  0  0  0  0  0  0  0
  153.7969  142.4163  162.1361 H   0  0  0  0  0  0  0  0  0  0  0  0
  154.3046  140.6001  160.4518 H   0  0  0  0  0  0  0  0  0  0  0  0
  152.6876  140.5138  161.1058 H   0  0  0  0  0  0  0  0  0  0  0  0
  153.4885  141.6642  158.3896 H   0  0  0  0  0  0  0  0  0  0  0  0
  151.3243  139.3563  160.0983 H   0  0  0  0  0  0  0  0  0  0  0  0
  152.0647  137.1671  158.2629 H   0  0  0  0  0  0  0  0  0  0  0  0
  151.2175  137.0461  159.7875 H   0  0  0  0  0  0  0  0  0  0  0  0
  149.5105  136.6038  158.1648 H   0  0  0  0  0  0  0  0  0  0  0  0
  149.2209  138.2633  158.6245 H   0  0  0  0  0  0  0  0  0  0  0  0
  150.5101  140.1153  157.1431 H   0  0  0  0  0  0  0  0  0  0  0  0
  150.7304  140.7788  154.7435 H   0  0  0  0  0  0  0  0  0  0  0  0
  150.4010  138.9805  152.9465 H   0  0  0  0  0  0  0  0  0  0  0  0
  149.6784  136.0619  155.7843 H   0  0  0  0  0  0  0  0  0  0  0  0
  150.6984  141.5954  159.6555 H   0  0  0  0  0  0  0  0  0  0  0  0
  151.0493  142.0964  158.0282 H   0  0  0  0  0  0  0  0  0  0  0  0
  149.9115  136.8167  153.6098 H   0  0  0  0  0  0  0  0  0  0  0  0
  1  2  1  0  0  0  0
  1 21  1  0  0  0  0
  1 22  1  0  0  0  0
  1 23  1  0  0  0  0
  2  3  2  0  0  0  0
  2  4  1  0  0  0  0
  4 20  1  0  0  0  0
  4  5  1  0  0  0  0
  5  6  1  0  0  0  0
  5 24  1  0  0  0  0
  5 25  1  0  0  0  0
  6  7  1  0  0  0  0
  6 26  1  0  0  0  0
  6 27  1  0  0  0  0
  7  8  1  0  0  0  0
  7 28  1  0  0  0  0
  7 29  1  0  0  0  0
  8  9  1  0  0  0  0
  8 20  1  0  0  0  0
  8 30  1  0  0  0  0
  9 10  2  0  0  0  0
  9 11  1  0  0  0  0
 11 12  1  0  0  0  0
 11 31  1  0  0  0  0
 12 13  1  0  0  0  0
 12 32  1  0  0  0  0
 12 33  1  0  0  0  0
 13 14  1  0  0  0  0
 13 34  1  0  0  0  0
 13 35  1  0  0  0  0
 14 19  1  0  0  0  0
 14 15  2  0  0  0  0
 15 16  1  0  0  0  0
 15 36  1  0  0  0  0
 16 17  2  0  0  0  0
 16 37  1  0  0  0  0
 17 18  1  0  0  0  0
 17 38  1  0  0  0  0
 18 19  2  0  0  0  0
 18 42  1  0  0  0  0
 19 39  1  0  0  0  0
 20 40  1  0  0  0  0
 20 41  1  0  0  0  0
M  CHG  1  18   1
M  END
> <s_m_source_file>
AV-unprocessed.smi

> <i_m_source_file_index>
1769

> <i_lp_mmshare_version>
43012

> <i_f3d_flags>
0

> <s_epik_input>
W0NIM11DKD1PKU4xW0NIMl1bQ0gyXVtDSDJdW0NASF0oW0NIMl0xKUMoPU8pW05IXVtDSDJdW0NIMl1jMltjSF1bY0hdW2NIXW5bY0hdMg==

> <s_epik_cmdline>
J2VwaWtfcHl0aG9uJywgJy1waCcsICc3LjAnLCAnLXRuJywgJzgnLCAnLW1hJywgJzIwMCcsICctbWV0YWxfYmluZGluZycsICctaW1hZScsICc8aW5maWxlLm1hZT4nLCAnLW9tYWUnLCAnPG91dGZpbGUubWFlPic=

> <r_epik_Ionization_Penalty>
2.25127

> <r_epik_Ionization_Penalty_Charging>
2.25127

> <r_epik_Ionization_Penalty_Neutral>
1.02261e-06

> <r_epik_State_Penalty>
2.39841

> <r_epik_Charging_Adjusted_Penalty>
4.64968

> <i_epik_Tot_Q>
1

> <i_epik_Tot_abs_Q>
1

> <r_epik_Metal_State_Penalty>
2.41159

> <b_epik_Metal_Only>
0

> <s_lp_Force_Field>
OPLS_2005

> <r_lp_Energy>
29.7946

> <b_lp_Chiralities_Consistent>
1

> <s_lp_Variant>
AV-unprocessed.smi:1769-3

> <Gold.Version>
5.8.1

> <Gold.Id.Protein>
6NUR|6NUR_protein|mol2

> <Gold.PLP.Fitness>
46.7673

> <Gold.PLP.PLP>
-38.5788

> <Gold.PLP.part.hbond>
-2.4149

> <Gold.PLP.part.metal>
0.0000

> <Gold.PLP.part.buried>
-2.0396

> <Gold.PLP.part.nonpolar>
-32.7157

> <Gold.PLP.part.repulsive>
0.2574

> <Gold.PLP.ligand.clash>
0.0000

> <Gold.PLP.ligand.torsion>
0.4238

> <Gold.PLP.Chemscore.Hbond>
3.0000

> <Gold.PLP.Chemscore.CHOScore>
0.0000

> <Gold.PLP.Chemscore.Metal>
0.0000

> <Gold.Chemscore.Hbonds>
donor molecule, donor type, donor heavy atom, donor atom, acceptor molecule, acceptor atom, score
      L1  H    18    42       P1  7948  1.95
      P1  H  7997  8008       L1    10  1.00

> <Gold.PLP.Chemscore.Internal.Correction>
0.0360

> <Gold.Rescore>
     Score         DG    S(hbond)    S(metal)    S(lipo)     H(rot)  DE(clash)    DE(int)     intcor
     18.17     -18.49       1.97        0.00      90.03       1.61       0.02       0.30       ----

> <Gold.Chemscore.Fitness>
18.1707

> <Gold.Chemscore.DG>
-18.4864

> <Gold.Chemscore.ZeroCoef>
-5.4800

> <Gold.Chemscore.Hbond>
1.9746

> <Gold.Chemscore.Metal>
0.0000

> <Gold.Chemscore.Lipo>
90.0253

> <Gold.Chemscore.Internal_Hbond>
0.0000

> <Gold.Chemscore.DEClash>
0.0186

> <Gold.Chemscore.DEInternal>
0.2970

> <Gold.Chemscore.Rot>
1.6100

> <Gold.Chemscore.Internal.Correction>
   9.000000E+99

> <Gold.Chemscore.Hbonds>
donor molecule, donor type, donor heavy atom, donor atom, acceptor molecule, acceptor atom, score
      L1  H    18    42       P1  7948  0.30
      P1  H  7997  8008       L1    10  1.00

> <Gold.Chemscore.Hbond.Weighted>
-6.5951

> <Gold.Chemscore.Metal.Weighted>
-0.0000

> <Gold.Chemscore.Lipo.Weighted>
-10.5330

> <Gold.Chemscore.Internal_Hbond.Weighted>
0.0000

> <Gold.Chemscore.DEClash.Weighted>
0.0186

> <Gold.Chemscore.DEInternal.Weighted>
0.2970

> <Gold.Chemscore.Rot.Weighted>
4.1216

> <Gold.Chemscore.Internal.Correction.Weighted>
   9.000000E+99

> <Gold.Protein.RotatedTorsions>
[ 6907 6896 6895 6894 ] final -119.95 input  -60.11 | X-H torsion
[ 7974 7965 7964 7962 ] final  -72.03 input  175.53 | X-H torsion
[ 8008 7997 7996 7995 ] final  -66.25 input   59.86 | X-H torsion
[ 10167 10162 10161 10158 ] final  130.81 input  -65.29 | X-H torsion
[ 10718 10713 10712 10709 ] final  178.21 input   66.30 | X-H torsion
[ 10763 10752 10751 10750 ] final   64.09 input  -60.55 | X-H torsion
[ 11005 11000 10999 10996 ] final  -55.18 input  -57.11 | X-H torsion

> <Gold.Protein.ActiveResidues>
 VAL166  LYS551  ARG553  GLY616  TRP617  ASP618  TYR619  PRO620  LYS621  CYS622 
 ASP623  PHE694  ASN695  SER759  ASP760  ASP761  ALA762  ILE779  LEU786  VAL792 
 PHE793  MET794  SER795  GLU796  ALA797  LYS798  CYS799  TRP800  GLU811  SER814 

> <Gold.Protein.RotatedAtoms>
  150.8350  133.8029  159.3083 H   0  0  0  0  0  0  0  0  0  0  0  0  # atno 6907 bound_to 6896
  151.5747  135.1059  160.0013 H   0  0  0  0  0  0  0  0  0  0  0  0  # atno 6908 bound_to 6896
  152.4424  133.7430  159.6708 H   0  0  0  0  0  0  0  0  0  0  0  0  # atno 6909 bound_to 6896
  145.6704  140.9223  143.0886 H   0  0  0  0  0  0  0  0  0  0  0  0  # atno 7974 bound_to 7965
  154.4722  140.0916  156.7174 H   0  0  0  0  0  0  0  0  0  0  0  0  # atno 8008 bound_to 7997
  155.4692  140.3464  155.4305 H   0  0  0  0  0  0  0  0  0  0  0  0  # atno 8009 bound_to 7997
  156.1058  140.1434  156.9394 H   0  0  0  0  0  0  0  0  0  0  0  0  # atno 8010 bound_to 7997
  139.5413  144.6733  151.4617 H   0  0  0  0  0  0  0  0  0  0  0  0  # atno 10167 bound_to 10162
  156.8939  130.9856  151.3045 H   0  0  0  0  0  0  0  0  0  0  0  0  # atno 10718 bound_to 10713
  153.0042  135.5405  154.6455 H   0  0  0  0  0  0  0  0  0  0  0  0  # atno 10763 bound_to 10752
  154.5700  135.2841  155.0839 H   0  0  0  0  0  0  0  0  0  0  0  0  # atno 10764 bound_to 10752
  154.2009  135.6484  153.5139 H   0  0  0  0  0  0  0  0  0  0  0  0  # atno 10765 bound_to 10752
  141.1062  133.6613  156.4431 H   0  0  0  0  0  0  0  0  0  0  0  0  # atno 11005 bound_to 11000
  144.7059  139.8565  143.7430 LP  0  0  0  0  0  0  0  0  0  0  0  0  # atno 17320 bound_to 7965
  146.1050  139.4049  143.0323 LP  0  0  0  0  0  0  0  0  0  0  0  0  # atno 17321 bound_to 7965
  140.6643  143.8431  150.6924 LP  0  0  0  0  0  0  0  0  0  0  0  0  # atno 17342 bound_to 10162
  140.1835  143.4095  152.1915 LP  0  0  0  0  0  0  0  0  0  0  0  0  # atno 17343 bound_to 10162
  157.6067  130.8552  149.8887 LP  0  0  0  0  0  0  0  0  0  0  0  0  # atno 17370 bound_to 10713
  156.0615  130.3699  150.0971 LP  0  0  0  0  0  0  0  0  0  0  0  0  # atno 17371 bound_to 10713
  140.4897  134.6587  157.5205 LP  0  0  0  0  0  0  0  0  0  0  0  0  # atno 17394 bound_to 11000
  139.9933  134.6951  155.9653 LP  0  0  0  0  0  0  0  0  0  0  0  0  # atno 17395 bound_to 11000

$$$$
