AV-unprocessed.smi:4|AV-procd|sdf|36|dock2
  -GOLD-   2262015153D 1   1.00000     0.00000
 Structure written by MMmdl.
 42 43  0  0  0  0  0  0  0  0  2 V2000
  152.5000  138.2132  155.7574 C   0  0  0  0  0  0  0  0  0  0  0  0
  150.9931  137.9042  155.5447 C   0  0  0  0  0  0  0  0  0  0  0  0
  150.2313  138.9545  156.3910 C   0  0  0  0  0  0  0  0  0  0  0  0
  150.7375  138.1356  154.0331 C   0  0  0  0  0  0  0  0  0  0  0  0
  150.5827  136.5076  155.9458 N   0  0  0  0  0  0  0  0  0  0  0  0
  150.0527  135.6180  154.9750 C   0  0  0  0  0  0  0  0  0  0  0  0
  149.6542  134.3544  155.2474 C   0  0  0  0  0  0  0  0  0  0  0  0
  149.0877  133.3841  154.2105 C   0  0  0  0  0  0  0  0  0  0  0  0
  147.8803  133.8752  153.5466 N   0  0  0  0  0  0  0  0  0  0  0  0
  147.3260  132.9350  152.5771 C   0  0  0  0  0  0  0  0  0  0  0  0
  145.8621  133.2592  152.2634 C   0  0  0  0  0  0  0  0  0  0  0  0
  145.1981  133.2408  153.5122 O   0  0  0  0  0  0  0  0  0  0  0  0
  145.5874  134.5309  151.4398 C   0  0  0  0  0  0  0  0  0  0  0  0
  144.5108  133.7726  150.6622 C   0  0  0  0  0  0  0  0  0  0  0  0
  145.1591  132.4728  151.1398 C   0  0  0  0  0  0  0  0  0  0  0  0
  149.7842  133.9015  156.6303 C   0  0  0  0  0  0  0  0  0  0  0  0
  149.4241  132.7660  156.9401 O   0  0  0  0  0  0  0  0  0  0  0  0
  150.3062  134.7694  157.5377 N   0  5  0  0  0  0  0  0  0  0  0  0
  150.7074  136.0402  157.2359 C   0  0  0  0  0  0  0  0  0  0  0  0
  151.1776  136.7644  158.1118 O   0  0  0  0  0  0  0  0  0  0  0  0
  152.7439  139.2279  155.4403 H   0  0  0  0  0  0  0  0  0  0  0  0
  153.1403  137.5483  155.1760 H   0  0  0  0  0  0  0  0  0  0  0  0
  152.7884  138.1460  156.8074 H   0  0  0  0  0  0  0  0  0  0  0  0
  150.3687  138.7728  157.4574 H   0  0  0  0  0  0  0  0  0  0  0  0
  149.1602  138.9707  156.1970 H   0  0  0  0  0  0  0  0  0  0  0  0
  150.5908  139.9632  156.1848 H   0  0  0  0  0  0  0  0  0  0  0  0
  151.1431  139.0932  153.7052 H   0  0  0  0  0  0  0  0  0  0  0  0
  149.6811  138.1547  153.7706 H   0  0  0  0  0  0  0  0  0  0  0  0
  151.2121  137.3595  153.4315 H   0  0  0  0  0  0  0  0  0  0  0  0
  149.9714  135.9932  153.9730 H   0  0  0  0  0  0  0  0  0  0  0  0
  149.8557  133.1817  153.4624 H   0  0  0  0  0  0  0  0  0  0  0  0
  148.8806  132.4382  154.7127 H   0  0  0  0  0  0  0  0  0  0  0  0
  148.0917  134.7467  153.0710 H   0  0  0  0  0  0  0  0  0  0  0  0
  147.9235  132.9378  151.6640 H   0  0  0  0  0  0  0  0  0  0  0  0
  147.4037  131.9249  152.9807 H   0  0  0  0  0  0  0  0  0  0  0  0
  144.6335  133.9981  153.5355 H   0  0  0  0  0  0  0  0  0  0  0  0
  145.2112  135.3787  152.0135 H   0  0  0  0  0  0  0  0  0  0  0  0
  146.4295  134.8225  150.8101 H   0  0  0  0  0  0  0  0  0  0  0  0
  143.5109  133.9212  151.0723 H   0  0  0  0  0  0  0  0  0  0  0  0
  144.5352  133.9244  149.5829 H   0  0  0  0  0  0  0  0  0  0  0  0
  145.8572  132.0594  150.4096 H   0  0  0  0  0  0  0  0  0  0  0  0
  144.4514  131.7175  151.4832 H   0  0  0  0  0  0  0  0  0  0  0  0
  1  2  1  0  0  0  0
  1 21  1  0  0  0  0
  1 22  1  0  0  0  0
  1 23  1  0  0  0  0
  2  3  1  0  0  0  0
  2  4  1  0  0  0  0
  2  5  1  0  0  0  0
  3 24  1  0  0  0  0
  3 25  1  0  0  0  0
  3 26  1  0  0  0  0
  4 27  1  0  0  0  0
  4 28  1  0  0  0  0
  4 29  1  0  0  0  0
  5 19  1  0  0  0  0
  5  6  1  0  0  0  0
  6  7  2  0  0  0  0
  6 30  1  0  0  0  0
  7  8  1  0  0  0  0
  7 16  1  0  0  0  0
  8  9  1  0  0  0  0
  8 31  1  0  0  0  0
  8 32  1  0  0  0  0
  9 10  1  0  0  0  0
  9 33  1  0  0  0  0
 10 11  1  0  0  0  0
 10 34  1  0  0  0  0
 10 35  1  0  0  0  0
 11 15  1  0  0  0  0
 11 12  1  0  0  0  0
 11 13  1  0  0  0  0
 12 36  1  0  0  0  0
 13 14  1  0  0  0  0
 13 37  1  0  0  0  0
 13 38  1  0  0  0  0
 14 15  1  0  0  0  0
 14 39  1  0  0  0  0
 14 40  1  0  0  0  0
 15 41  1  0  0  0  0
 15 42  1  0  0  0  0
 16 17  2  0  0  0  0
 16 18  1  0  0  0  0
 18 19  1  0  0  0  0
 19 20  2  0  0  0  0
M  CHG  1  18  -1
M  END
> <s_m_source_file>
AV-unprocessed.smi

> <i_m_source_file_index>
4

> <i_lp_mmshare_version>
43012

> <i_f3d_flags>
0

> <s_epik_input>
W0NIM11DKFtDSDNdKShbQ0gzXSluMVtjSF1jKGMoPU8pW25IXWMxPU8pW0NIMl1bTkhdW0NIMl1DMihbT0hdKVtDSDJdW0NIMl1bQ0gyXTI=

> <s_epik_cmdline>
J2VwaWtfcHl0aG9uJywgJy1waCcsICc3LjAnLCAnLXRuJywgJzgnLCAnLW1hJywgJzIwMCcsICctbWV0YWxfYmluZGluZycsICctaW1hZScsICc8aW5maWxlLm1hZT4nLCAnLW9tYWUnLCAnPG91dGZpbGUubWFlPic=

> <r_lp_tautomer_probability>
0.999537

> <r_epik_Ionization_Penalty>
6.25758

> <r_epik_Ionization_Penalty_Charging>
1.60838e-06

> <r_epik_Ionization_Penalty_Neutral>
6.25758

> <r_epik_State_Penalty>
6.1746

> <r_epik_Charging_Adjusted_Penalty>
6.1746

> <i_epik_Tot_Q>
-1

> <i_epik_Tot_abs_Q>
1

> <r_epik_Metal_State_Penalty>
2.58365

> <b_epik_Metal_Only>
1

> <s_lp_Force_Field>
OPLS_2005

> <r_lp_Energy>
44.4869

> <b_lp_Chiralities_Consistent>
1

> <s_lp_Variant>
AV-unprocessed.smi:4-4

> <Gold.Version>
5.8.1

> <Gold.Id.Protein>
6NUR|6NUR_protein|mol2

> <Gold.PLP.Fitness>
40.5371

> <Gold.PLP.PLP>
-31.6794

> <Gold.PLP.part.hbond>
-2.8294

> <Gold.PLP.part.metal>
0.0000

> <Gold.PLP.part.buried>
-5.8770

> <Gold.PLP.part.nonpolar>
-24.5032

> <Gold.PLP.part.repulsive>
0.0000

> <Gold.PLP.ligand.clash>
0.0000

> <Gold.PLP.ligand.torsion>
0.1411

> <Gold.PLP.Chemscore.Hbond>
2.2054

> <Gold.PLP.Chemscore.CHOScore>
0.7804

> <Gold.PLP.Chemscore.Metal>
0.0000

> <Gold.Chemscore.Hbonds>
donor molecule, donor type, donor heavy atom, donor atom, acceptor molecule, acceptor atom, score
      L1  H     9    33       P1  7948  0.91
      P1  H  6896  6907       L1    18  1.31
      L1  C     6    30       P1  7948  0.84

> <Gold.PLP.Chemscore.Internal.Correction>
0.1824

> <Gold.Rescore>
     Score         DG    S(hbond)    S(metal)    S(lipo)     H(rot)  DE(clash)    DE(int)     intcor
     11.51     -12.97       1.61        0.00      70.66       2.40       0.00       1.46       ----

> <Gold.Chemscore.Fitness>
11.5128

> <Gold.Chemscore.DG>
-12.9737

> <Gold.Chemscore.ZeroCoef>
-5.4800

> <Gold.Chemscore.Hbond>
1.6068

> <Gold.Chemscore.Metal>
0.0000

> <Gold.Chemscore.Lipo>
70.6553

> <Gold.Chemscore.Internal_Hbond>
0.0000

> <Gold.Chemscore.DEClash>
0.0009

> <Gold.Chemscore.DEInternal>
1.4600

> <Gold.Chemscore.Rot>
2.3983

> <Gold.Chemscore.Internal.Correction>
   9.000000E+99

> <Gold.Chemscore.Hbonds>
donor molecule, donor type, donor heavy atom, donor atom, acceptor molecule, acceptor atom, score
      L1  H     9    33       P1  7948  0.74
      P1  H  6896  6907       L1    18  0.60

> <Gold.Chemscore.Hbond.Weighted>
-5.3666

> <Gold.Chemscore.Metal.Weighted>
-0.0000

> <Gold.Chemscore.Lipo.Weighted>
-8.2667

> <Gold.Chemscore.Internal_Hbond.Weighted>
0.0000

> <Gold.Chemscore.DEClash.Weighted>
0.0009

> <Gold.Chemscore.DEInternal.Weighted>
1.4600

> <Gold.Chemscore.Rot.Weighted>
6.1395

> <Gold.Chemscore.Internal.Correction.Weighted>
   9.000000E+99

> <Gold.Protein.RotatedTorsions>
[ 6907 6896 6895 6894 ] final -102.43 input  -60.11 | X-H torsion
[ 7974 7965 7964 7962 ] final   67.23 input  175.53 | X-H torsion
[ 8008 7997 7996 7995 ] final  -62.96 input   59.86 | X-H torsion
[ 10167 10162 10161 10158 ] final  123.43 input  -65.29 | X-H torsion
[ 10718 10713 10712 10709 ] final -162.24 input   66.30 | X-H torsion
[ 10763 10752 10751 10750 ] final -175.70 input  -60.55 | X-H torsion
[ 11005 11000 10999 10996 ] final  149.65 input  -57.11 | X-H torsion

> <Gold.Protein.ActiveResidues>
 VAL166  LYS551  ARG553  GLY616  TRP617  ASP618  TYR619  PRO620  LYS621  CYS622 
 ASP623  PHE694  ASN695  SER759  ASP760  ASP761  ALA762  ILE779  LEU786  VAL792 
 PHE793  MET794  SER795  GLU796  ALA797  LYS798  CYS799  TRP800  GLU811  SER814 

> <Gold.Protein.RotatedAtoms>
  150.7196  134.0582  159.3821 H   0  0  0  0  0  0  0  0  0  0  0  0  # atno 6907 bound_to 6896
  151.8561  135.0538  160.0473 H   0  0  0  0  0  0  0  0  0  0  0  0  # atno 6908 bound_to 6896
  152.2753  133.5384  159.5500 H   0  0  0  0  0  0  0  0  0  0  0  0  # atno 6909 bound_to 6896
  145.8171  139.3064  143.1065 H   0  0  0  0  0  0  0  0  0  0  0  0  # atno 7974 bound_to 7965
  154.4528  140.0985  156.6668 H   0  0  0  0  0  0  0  0  0  0  0  0  # atno 8008 bound_to 7997
  155.5232  140.3479  155.4392 H   0  0  0  0  0  0  0  0  0  0  0  0  # atno 8009 bound_to 7997
  156.0716  140.1351  156.9811 H   0  0  0  0  0  0  0  0  0  0  0  0  # atno 8010 bound_to 7997
  139.5800  144.6981  151.3553 H   0  0  0  0  0  0  0  0  0  0  0  0  # atno 10167 bound_to 10162
  156.6076  130.8837  151.2929 H   0  0  0  0  0  0  0  0  0  0  0  0  # atno 10718 bound_to 10713
  154.5812  135.2836  155.0730 H   0  0  0  0  0  0  0  0  0  0  0  0  # atno 10763 bound_to 10752
  154.2066  135.6415  153.5106 H   0  0  0  0  0  0  0  0  0  0  0  0  # atno 10764 bound_to 10752
  153.0089  135.5481  154.6467 H   0  0  0  0  0  0  0  0  0  0  0  0  # atno 10765 bound_to 10752
  140.1063  134.8952  157.1871 H   0  0  0  0  0  0  0  0  0  0  0  0  # atno 11005 bound_to 11000
  145.9715  140.8757  143.0160 LP  0  0  0  0  0  0  0  0  0  0  0  0  # atno 17320 bound_to 7965
  144.6751  140.1952  143.7392 LP  0  0  0  0  0  0  0  0  0  0  0  0  # atno 17321 bound_to 7965
  140.7079  143.7466  150.7514 LP  0  0  0  0  0  0  0  0  0  0  0  0  # atno 17342 bound_to 10162
  140.0996  143.4800  152.2432 LP  0  0  0  0  0  0  0  0  0  0  0  0  # atno 17343 bound_to 10162
  157.7263  130.9627  150.1650 LP  0  0  0  0  0  0  0  0  0  0  0  0  # atno 17370 bound_to 10713
  156.2417  130.3691  149.8330 LP  0  0  0  0  0  0  0  0  0  0  0  0  # atno 17371 bound_to 10713
  140.3151  134.2979  155.7258 LP  0  0  0  0  0  0  0  0  0  0  0  0  # atno 17394 bound_to 11000
  141.2119  133.7675  156.9832 LP  0  0  0  0  0  0  0  0  0  0  0  0  # atno 17395 bound_to 11000

$$$$
