AV-unprocessed.smi:2790|AV-procd|sdf|10766|dock9
  -GOLD-   2272015203D 1   1.00000     0.00000
 Structure written by MMmdl.
 46 47  0  0  0  0  0  0  0  0  2 V2000
  146.4352  137.0194  161.9688 C   0  0  0  0  0  0  0  0  0  0  0  0
  147.4066  136.3362  161.0827 N   0  3  0  0  0  0  0  0  0  0  0  0
  147.0874  134.9003  160.9275 C   0  0  0  0  0  0  0  0  0  0  0  0
  147.5829  137.0181  159.7751 C   0  0  0  0  0  0  0  0  0  0  0  0
  148.9393  136.7285  159.1252 C   0  0  0  0  0  0  0  0  0  0  0  0
  149.1813  135.6192  158.6489 O   0  0  0  0  0  0  0  0  0  0  0  0
  149.8114  137.7449  159.1004 N   0  0  0  0  0  0  0  0  0  0  0  0
  151.1570  137.6690  158.5390 C   0  0  0  0  0  0  0  0  0  0  0  0
  151.3239  138.5568  157.2791 C   0  0  0  0  0  0  0  0  0  0  0  0
  151.3955  140.0387  157.7197 C   0  0  0  0  0  0  0  0  0  0  0  0
  152.3560  140.5158  158.6470 C   0  0  0  0  0  0  0  0  0  0  0  0
  152.3754  141.8853  158.9771 C   0  0  0  0  0  0  0  0  0  0  0  0
  151.5309  142.7902  158.4434 N   0  0  0  0  0  0  0  0  0  0  0  0
  150.6275  142.3473  157.5462 C   0  0  0  0  0  0  0  0  0  0  0  0
  150.5254  140.9996  157.1498 C   0  0  0  0  0  0  0  0  0  0  0  0
  152.6236  138.1149  156.5455 C   0  0  0  0  0  0  0  0  0  0  0  0
  152.8234  138.8239  155.1942 C   0  0  0  0  0  0  0  0  0  0  0  0
  151.6409  138.5478  154.2561 C   0  0  0  0  0  0  0  0  0  0  0  0
  150.3119  138.9375  154.9168 C   0  0  0  0  0  0  0  0  0  0  0  0
  150.1507  138.2602  156.2940 C   0  0  0  0  0  0  0  0  0  0  0  0
  145.4351  137.0104  161.5334 H   0  0  0  0  0  0  0  0  0  0  0  0
  146.7205  138.0568  162.1451 H   0  0  0  0  0  0  0  0  0  0  0  0
  146.3886  136.5239  162.9391 H   0  0  0  0  0  0  0  0  0  0  0  0
  146.1384  134.7653  160.4068 H   0  0  0  0  0  0  0  0  0  0  0  0
  147.0161  134.4132  161.9006 H   0  0  0  0  0  0  0  0  0  0  0  0
  147.8661  134.3897  160.3600 H   0  0  0  0  0  0  0  0  0  0  0  0
  146.8209  136.6704  159.0762 H   0  0  0  0  0  0  0  0  0  0  0  0
  147.4343  138.0932  159.8912 H   0  0  0  0  0  0  0  0  0  0  0  0
  149.5359  138.6265  159.5088 H   0  0  0  0  0  0  0  0  0  0  0  0
  151.8670  137.9802  159.3072 H   0  0  0  0  0  0  0  0  0  0  0  0
  151.3904  136.6282  158.3073 H   0  0  0  0  0  0  0  0  0  0  0  0
  153.0793  139.8668  159.1138 H   0  0  0  0  0  0  0  0  0  0  0  0
  153.0963  142.2652  159.6859 H   0  0  0  0  0  0  0  0  0  0  0  0
  149.9698  143.0919  157.1229 H   0  0  0  0  0  0  0  0  0  0  0  0
  149.7896  140.7285  156.4090 H   0  0  0  0  0  0  0  0  0  0  0  0
  153.5067  138.2523  157.1675 H   0  0  0  0  0  0  0  0  0  0  0  0
  152.5814  137.0407  156.3584 H   0  0  0  0  0  0  0  0  0  0  0  0
  152.9370  139.8980  155.3448 H   0  0  0  0  0  0  0  0  0  0  0  0
  153.7476  138.4797  154.7296 H   0  0  0  0  0  0  0  0  0  0  0  0
  151.7685  139.0921  153.3199 H   0  0  0  0  0  0  0  0  0  0  0  0
  151.6214  137.4882  153.9980 H   0  0  0  0  0  0  0  0  0  0  0  0
  150.2612  140.0215  155.0117 H   0  0  0  0  0  0  0  0  0  0  0  0
  149.4832  138.6530  154.2681 H   0  0  0  0  0  0  0  0  0  0  0  0
  150.0971  137.1837  156.1247 H   0  0  0  0  0  0  0  0  0  0  0  0
  149.1858  138.5183  156.7293 H   0  0  0  0  0  0  0  0  0  0  0  0
  148.3043  136.3783  161.5450 H   0  0  0  0  0  0  0  0  0  0  0  0
  1  2  1  0  0  0  0
  1 21  1  0  0  0  0
  1 22  1  0  0  0  0
  1 23  1  0  0  0  0
  2  3  1  0  0  0  0
  2  4  1  0  0  0  0
  2 46  1  0  0  0  0
  3 24  1  0  0  0  0
  3 25  1  0  0  0  0
  3 26  1  0  0  0  0
  4  5  1  0  0  0  0
  4 27  1  0  0  0  0
  4 28  1  0  0  0  0
  5  6  2  0  0  0  0
  5  7  1  0  0  0  0
  7  8  1  0  0  0  0
  7 29  1  0  0  0  0
  8  9  1  0  0  0  0
  8 30  1  0  0  0  0
  8 31  1  0  0  0  0
  9 20  1  0  0  0  0
  9 10  1  0  0  0  0
  9 16  1  0  0  0  0
 10 15  1  0  0  0  0
 10 11  2  0  0  0  0
 11 12  1  0  0  0  0
 11 32  1  0  0  0  0
 12 13  2  0  0  0  0
 12 33  1  0  0  0  0
 13 14  1  0  0  0  0
 14 15  2  0  0  0  0
 14 34  1  0  0  0  0
 15 35  1  0  0  0  0
 16 17  1  0  0  0  0
 16 36  1  0  0  0  0
 16 37  1  0  0  0  0
 17 18  1  0  0  0  0
 17 38  1  0  0  0  0
 17 39  1  0  0  0  0
 18 19  1  0  0  0  0
 18 40  1  0  0  0  0
 18 41  1  0  0  0  0
 19 20  1  0  0  0  0
 19 42  1  0  0  0  0
 19 43  1  0  0  0  0
 20 44  1  0  0  0  0
 20 45  1  0  0  0  0
M  CHG  1   2   1
M  END
> <s_m_source_file>
AV-unprocessed.smi

> <i_m_source_file_index>
2790

> <i_lp_mmshare_version>
43012

> <i_f3d_flags>
0

> <s_epik_input>
W0NIM11OKFtDSDNdKVtDSDJdQyg9TylbTkhdW0NIMl1DMShbQ0gyXVtDSDJdW0NIMl1bQ0gyXVtDSDJdMSljMltjSF1bY0hdbltjSF1bY0hdMg==

> <s_epik_cmdline>
J2VwaWtfcHl0aG9uJywgJy1waCcsICc3LjAnLCAnLXRuJywgJzgnLCAnLW1hJywgJzIwMCcsICctbWV0YWxfYmluZGluZycsICctaW1hZScsICc8aW5maWxlLm1hZT4nLCAnLW9tYWUnLCAnPG91dGZpbGUubWFlPic=

> <r_epik_Ionization_Penalty>
0.089928

> <r_epik_Ionization_Penalty_Charging>
0.0368445

> <r_epik_Ionization_Penalty_Neutral>
0.0530835

> <r_epik_State_Penalty>
0.0777876

> <r_epik_Charging_Adjusted_Penalty>
0.114632

> <i_epik_Tot_Q>
1

> <i_epik_Tot_abs_Q>
1

> <r_epik_Metal_State_Penalty>
0.0848697

> <b_epik_Metal_Only>
0

> <s_lp_Force_Field>
OPLS_2005

> <r_lp_Energy>
21.8656

> <b_lp_Chiralities_Consistent>
1

> <s_lp_Variant>
AV-unprocessed.smi:2790-1

> <Gold.Version>
5.8.1

> <Gold.Id.Protein>
6NUR|6NUR_protein|mol2

> <Gold.PLP.Fitness>
36.7557

> <Gold.PLP.PLP>
-31.7853

> <Gold.PLP.part.hbond>
-1.0000

> <Gold.PLP.part.metal>
0.0000

> <Gold.PLP.part.buried>
-5.4959

> <Gold.PLP.part.nonpolar>
-25.4979

> <Gold.PLP.part.repulsive>
0.4454

> <Gold.PLP.ligand.clash>
0.0000

> <Gold.PLP.ligand.torsion>
0.5455

> <Gold.PLP.Chemscore.Hbond>
1.0000

> <Gold.PLP.Chemscore.CHOScore>
1.0000

> <Gold.PLP.Chemscore.Metal>
0.0000

> <Gold.Chemscore.Hbonds>
donor molecule, donor type, donor heavy atom, donor atom, acceptor molecule, acceptor atom, score
      P1  H  6896  6908       L1     6  0.94
      L1  C    14    34       P1  8028  1.00

> <Gold.PLP.Chemscore.Internal.Correction>
0.0613

> <Gold.Rescore>
     Score         DG    S(hbond)    S(metal)    S(lipo)     H(rot)  DE(clash)    DE(int)     intcor
     14.89     -15.40       0.96        0.00      93.61       1.65       0.13       0.38       ----

> <Gold.Chemscore.Fitness>
14.8873

> <Gold.Chemscore.DG>
-15.3985

> <Gold.Chemscore.ZeroCoef>
-5.4800

> <Gold.Chemscore.Hbond>
0.9587

> <Gold.Chemscore.Metal>
0.0000

> <Gold.Chemscore.Lipo>
93.6104

> <Gold.Chemscore.Internal_Hbond>
0.0000

> <Gold.Chemscore.DEClash>
0.1340

> <Gold.Chemscore.DEInternal>
0.3771

> <Gold.Chemscore.Rot>
1.6547

> <Gold.Chemscore.Internal.Correction>
   9.000000E+99

> <Gold.Chemscore.Hbonds>
donor molecule, donor type, donor heavy atom, donor atom, acceptor molecule, acceptor atom, score
      P1  H  6896  6908       L1     6  0.88

> <Gold.Chemscore.Hbond.Weighted>
-3.2021

> <Gold.Chemscore.Metal.Weighted>
-0.0000

> <Gold.Chemscore.Lipo.Weighted>
-10.9524

> <Gold.Chemscore.Internal_Hbond.Weighted>
0.0000

> <Gold.Chemscore.DEClash.Weighted>
0.1340

> <Gold.Chemscore.DEInternal.Weighted>
0.3771

> <Gold.Chemscore.Rot.Weighted>
4.2361

> <Gold.Chemscore.Internal.Correction.Weighted>
   9.000000E+99

> <Gold.Protein.RotatedTorsions>
[ 6907 6896 6895 6894 ] final  160.03 input  -60.11 | X-H torsion
[ 7974 7965 7964 7962 ] final   66.79 input  175.53 | X-H torsion
[ 8008 7997 7996 7995 ] final  -72.01 input   59.86 | X-H torsion
[ 10167 10162 10161 10158 ] final  -29.94 input  -65.29 | X-H torsion
[ 10718 10713 10712 10709 ] final -109.79 input   66.30 | X-H torsion
[ 10763 10752 10751 10750 ] final   49.37 input  -60.55 | X-H torsion
[ 11005 11000 10999 10996 ] final  -36.21 input  -57.11 | X-H torsion

> <Gold.Protein.ActiveResidues>
 VAL166  LYS551  ARG553  GLY616  TRP617  ASP618  TYR619  PRO620  LYS621  CYS622 
 ASP623  PHE694  ASN695  SER759  ASP760  ASP761  ALA762  ILE779  LEU786  VAL792 
 PHE793  MET794  SER795  GLU796  ALA797  LYS798  CYS799  TRP800  GLU811  SER814 

> <Gold.Protein.RotatedAtoms>
  151.9767  133.3744  159.4091 H   0  0  0  0  0  0  0  0  0  0  0  0  # atno 6907 bound_to 6896
  150.6941  134.4082  159.5159 H   0  0  0  0  0  0  0  0  0  0  0  0  # atno 6908 bound_to 6896
  152.1795  134.8766  160.0578 H   0  0  0  0  0  0  0  0  0  0  0  0  # atno 6909 bound_to 6896
  145.8224  139.3092  143.1035 H   0  0  0  0  0  0  0  0  0  0  0  0  # atno 7974 bound_to 7965
  154.5132  140.0805  156.8031 H   0  0  0  0  0  0  0  0  0  0  0  0  # atno 8008 bound_to 7997
  155.3738  140.3424  155.4226 H   0  0  0  0  0  0  0  0  0  0  0  0  # atno 8009 bound_to 7997
  156.1598  140.1585  156.8619 H   0  0  0  0  0  0  0  0  0  0  0  0  # atno 8010 bound_to 7997
  140.7255  143.3888  151.1467 H   0  0  0  0  0  0  0  0  0  0  0  0  # atno 10167 bound_to 10162
  156.0556  130.5782  150.8148 H   0  0  0  0  0  0  0  0  0  0  0  0  # atno 10718 bound_to 10713
  152.9787  135.5914  154.4078 H   0  0  0  0  0  0  0  0  0  0  0  0  # atno 10763 bound_to 10752
  154.3716  135.2767  155.2265 H   0  0  0  0  0  0  0  0  0  0  0  0  # atno 10764 bound_to 10752
  154.4217  135.6057  153.6069 H   0  0  0  0  0  0  0  0  0  0  0  0  # atno 10765 bound_to 10752
  140.9857  133.7032  156.1761 H   0  0  0  0  0  0  0  0  0  0  0  0  # atno 11005 bound_to 11000
  145.9661  140.8797  143.0186 LP  0  0  0  0  0  0  0  0  0  0  0  0  # atno 17320 bound_to 7965
  144.6746  140.1880  143.7399 LP  0  0  0  0  0  0  0  0  0  0  0  0  # atno 17321 bound_to 7965
  139.7490  143.8808  152.3071 LP  0  0  0  0  0  0  0  0  0  0  0  0  # atno 17342 bound_to 10162
  139.8655  144.7095  150.9049 LP  0  0  0  0  0  0  0  0  0  0  0  0  # atno 17343 bound_to 10162
  157.5522  131.0944  150.9679 LP  0  0  0  0  0  0  0  0  0  0  0  0  # atno 17370 bound_to 10713
  156.9936  130.5573  149.5305 LP  0  0  0  0  0  0  0  0  0  0  0  0  # atno 17371 bound_to 10713
  140.7118  134.4453  157.5581 LP  0  0  0  0  0  0  0  0  0  0  0  0  # atno 17394 bound_to 11000
  139.8969  134.8648  156.2066 LP  0  0  0  0  0  0  0  0  0  0  0  0  # atno 17395 bound_to 11000

$$$$
