AV-unprocessed.smi:1495|AV-procd|sdf|6054|dock3
  -GOLD-   22720 6173D 1   1.00000     0.00000
 Structure written by MMmdl.
 40 41  0  0  0  0  0  0  0  0  1 V2000
  148.0493  141.6257  154.9854 C   0  0  0  0  0  0  0  0  0  0  0  0
  148.6351  140.5077  154.1146 C   0  0  0  0  0  0  0  0  0  0  0  0
  149.7180  139.6906  154.8362 C   0  0  1  0  0  0  0  0  0  0  0  0
  150.1613  138.4674  154.0112 C   0  0  0  0  0  0  0  0  0  0  0  0
  151.2167  137.7632  154.7530 N   0  0  0  0  0  0  0  0  0  0  0  0
  151.1819  136.4779  155.1797 C   0  0  0  0  0  0  0  0  0  0  0  0
  151.8614  136.0578  156.1169 O   0  0  0  0  0  0  0  0  0  0  0  0
  150.2879  135.7106  154.5358 N   0  0  0  0  0  0  0  0  0  0  0  0
  150.0793  134.2793  154.7290 C   0  0  0  0  0  0  0  0  0  0  0  0
  148.8856  133.7719  153.9002 C   0  0  0  0  0  0  0  0  0  0  0  0
  148.7744  132.2740  153.8862 C   0  0  0  0  0  0  0  0  0  0  0  0
  149.6472  131.3778  154.4518 C   0  0  0  0  0  0  0  0  0  0  0  0
  149.1644  129.7295  154.1626 S   0  0  0  0  0  0  0  0  0  0  0  0
  147.7655  130.3273  153.2783 C   0  0  0  0  0  0  0  0  0  0  0  0
  146.7533  129.4357  152.6452 C   0  0  0  0  0  0  0  0  0  0  0  0
  147.7064  131.6601  153.2243 N   0  0  0  0  0  0  0  0  0  0  0  0
  152.3766  138.6353  154.9470 C   0  0  0  0  0  0  0  0  0  0  0  0
  151.9195  139.8735  155.7395 C   0  0  0  0  0  0  0  0  0  0  0  0
  150.8554  140.5266  155.0505 O   0  0  0  0  0  0  0  0  0  0  0  0
  147.2787  142.1748  154.4442 H   0  0  0  0  0  0  0  0  0  0  0  0
  148.8174  142.3396  155.2842 H   0  0  0  0  0  0  0  0  0  0  0  0
  147.5959  141.2218  155.8908 H   0  0  0  0  0  0  0  0  0  0  0  0
  147.8253  139.8439  153.8095 H   0  0  0  0  0  0  0  0  0  0  0  0
  149.0440  140.9340  153.1979 H   0  0  0  0  0  0  0  0  0  0  0  0
  149.3281  139.3563  155.7996 H   0  0  0  0  0  0  0  0  0  0  0  0
  149.2996  137.8431  153.7735 H   0  0  0  0  0  0  0  0  0  0  0  0
  150.5609  138.7894  153.0482 H   0  0  0  0  0  0  0  0  0  0  0  0
  149.7415  136.1470  153.8072 H   0  0  0  0  0  0  0  0  0  0  0  0
  150.9743  133.7013  154.4948 H   0  0  0  0  0  0  0  0  0  0  0  0
  149.8810  134.1190  155.7891 H   0  0  0  0  0  0  0  0  0  0  0  0
  147.9679  134.2039  154.3011 H   0  0  0  0  0  0  0  0  0  0  0  0
  148.9689  134.1510  152.8810 H   0  0  0  0  0  0  0  0  0  0  0  0
  150.5485  131.5874  155.0089 H   0  0  0  0  0  0  0  0  0  0  0  0
  145.7487  129.8256  152.8121 H   0  0  0  0  0  0  0  0  0  0  0  0
  146.8129  128.4335  153.0701 H   0  0  0  0  0  0  0  0  0  0  0  0
  146.9323  129.3723  151.5716 H   0  0  0  0  0  0  0  0  0  0  0  0
  153.1898  138.1437  155.4828 H   0  0  0  0  0  0  0  0  0  0  0  0
  152.7791  138.9298  153.9769 H   0  0  0  0  0  0  0  0  0  0  0  0
  151.5944  139.5935  156.7428 H   0  0  0  0  0  0  0  0  0  0  0  0
  152.7465  140.5740  155.8557 H   0  0  0  0  0  0  0  0  0  0  0  0
  1  2  1  0  0  0  0
  1 20  1  0  0  0  0
  1 21  1  0  0  0  0
  1 22  1  0  0  0  0
  2  3  1  0  0  0  0
  2 23  1  0  0  0  0
  2 24  1  0  0  0  0
  3 19  1  0  0  0  0
  3  4  1  0  0  0  0
  3 25  1  0  0  0  0
  4  5  1  0  0  0  0
  4 26  1  0  0  0  0
  4 27  1  0  0  0  0
  5  6  1  0  0  0  0
  5 17  1  0  0  0  0
  6  7  2  0  0  0  0
  6  8  1  0  0  0  0
  8  9  1  0  0  0  0
  8 28  1  0  0  0  0
  9 10  1  0  0  0  0
  9 29  1  0  0  0  0
  9 30  1  0  0  0  0
 10 11  1  0  0  0  0
 10 31  1  0  0  0  0
 10 32  1  0  0  0  0
 11 16  1  0  0  0  0
 11 12  2  0  0  0  0
 12 13  1  0  0  0  0
 12 33  1  0  0  0  0
 13 14  1  0  0  0  0
 14 15  1  0  0  0  0
 14 16  2  0  0  0  0
 15 34  1  0  0  0  0
 15 35  1  0  0  0  0
 15 36  1  0  0  0  0
 17 18  1  0  0  0  0
 17 37  1  0  0  0  0
 17 38  1  0  0  0  0
 18 19  1  0  0  0  0
 18 39  1  0  0  0  0
 18 40  1  0  0  0  0
M  END
> <s_m_source_file>
AV-unprocessed.smi

> <i_m_source_file_index>
1495

> <i_lp_mmshare_version>
43012

> <i_f3d_flags>
0

> <s_epik_input>
W0NIM11bQ0gyXVtDQEBIXTFbQ0gyXU4oW0NIMl1bQ0gyXU8xKUMoPU8pW05IXVtDSDJdW0NIMl1jMltjSF1zYyhuMilbQ0gzXQ==

> <s_epik_cmdline>
J2VwaWtfcHl0aG9uJywgJy1waCcsICc3LjAnLCAnLXRuJywgJzgnLCAnLW1hJywgJzIwMCcsICctbWV0YWxfYmluZGluZycsICctaW1hZScsICc8aW5maWxlLm1hZT4nLCAnLW9tYWUnLCAnPG91dGZpbGUubWFlPic=

> <r_epik_Ionization_Penalty>
0.00206013

> <r_epik_Ionization_Penalty_Charging>
0

> <r_epik_Ionization_Penalty_Neutral>
0.00206013

> <r_epik_State_Penalty>
0.00138662

> <r_epik_Charging_Adjusted_Penalty>
0.00138662

> <i_epik_Tot_Q>
0

> <i_epik_Tot_abs_Q>
0

> <r_epik_Metal_State_Penalty>
-0

> <b_epik_Metal_Only>
0

> <s_lp_Force_Field>
OPLS_2005

> <r_lp_Energy>
24.1464

> <b_lp_Chiralities_Consistent>
1

> <s_lp_Variant>
AV-unprocessed.smi:1495-2

> <Gold.Version>
5.8.1

> <Gold.Id.Protein>
6NUR|6NUR_protein|mol2

> <Gold.PLP.Fitness>
46.7253

> <Gold.PLP.PLP>
-38.3069

> <Gold.PLP.part.hbond>
-3.6205

> <Gold.PLP.part.metal>
0.0000

> <Gold.PLP.part.buried>
0.4170

> <Gold.PLP.part.nonpolar>
-34.8645

> <Gold.PLP.part.repulsive>
0.2485

> <Gold.PLP.ligand.clash>
0.0000

> <Gold.PLP.ligand.torsion>
0.3029

> <Gold.PLP.Chemscore.Hbond>
3.0000

> <Gold.PLP.Chemscore.CHOScore>
0.0000

> <Gold.PLP.Chemscore.Metal>
0.0000

> <Gold.Chemscore.Hbonds>
donor molecule, donor type, donor heavy atom, donor atom, acceptor molecule, acceptor atom, score
      L1  H     8    28       P1  7948  0.91
      P1  H  7989  7998       L1    19  1.00
      P1  H 10752 10763       L1     7  0.90

> <Gold.PLP.Chemscore.Internal.Correction>
0.0241

> <Gold.Rescore>
     Score         DG    S(hbond)    S(metal)    S(lipo)     H(rot)  DE(clash)    DE(int)     intcor
     15.09     -15.53       1.27        0.00      80.69       1.42       0.12       0.32       ----

> <Gold.Chemscore.Fitness>
15.0910

> <Gold.Chemscore.DG>
-15.5315

> <Gold.Chemscore.ZeroCoef>
-5.4800

> <Gold.Chemscore.Hbond>
1.2724

> <Gold.Chemscore.Metal>
0.0000

> <Gold.Chemscore.Lipo>
80.6895

> <Gold.Chemscore.Internal_Hbond>
0.0000

> <Gold.Chemscore.DEClash>
0.1248

> <Gold.Chemscore.DEInternal>
0.3157

> <Gold.Chemscore.Rot>
1.4214

> <Gold.Chemscore.Internal.Correction>
   9.000000E+99

> <Gold.Chemscore.Hbonds>
donor molecule, donor type, donor heavy atom, donor atom, acceptor molecule, acceptor atom, score
      L1  H     8    28       P1  7948  0.29
      P1  H  7989  7998       L1    19  0.21
      P1  H 10752 10763       L1     7  0.18

> <Gold.Chemscore.Hbond.Weighted>
-4.2497

> <Gold.Chemscore.Metal.Weighted>
-0.0000

> <Gold.Chemscore.Lipo.Weighted>
-9.4407

> <Gold.Chemscore.Internal_Hbond.Weighted>
0.0000

> <Gold.Chemscore.DEClash.Weighted>
0.1248

> <Gold.Chemscore.DEInternal.Weighted>
0.3157

> <Gold.Chemscore.Rot.Weighted>
3.6388

> <Gold.Chemscore.Internal.Correction.Weighted>
   9.000000E+99

> <Gold.Protein.RotatedTorsions>
[ 6907 6896 6895 6894 ] final -152.65 input  -60.11 | X-H torsion
[ 7974 7965 7964 7962 ] final  108.54 input  175.53 | X-H torsion
[ 8008 7997 7996 7995 ] final  128.23 input   59.86 | X-H torsion
[ 10167 10162 10161 10158 ] final    0.54 input  -65.29 | X-H torsion
[ 10718 10713 10712 10709 ] final  103.75 input   66.30 | X-H torsion
[ 10763 10752 10751 10750 ] final  100.27 input  -60.55 | X-H torsion
[ 11005 11000 10999 10996 ] final  -62.92 input  -57.11 | X-H torsion

> <Gold.Protein.ActiveResidues>
 VAL166  LYS551  ARG553  GLY616  TRP617  ASP618  TYR619  PRO620  LYS621  CYS622 
 ASP623  PHE694  ASN695  SER759  ASP760  ASP761  ALA762  ILE779  LEU786  VAL792 
 PHE793  MET794  SER795  GLU796  ALA797  LYS798  CYS799  TRP800  GLU811  SER814 

> <Gold.Protein.RotatedAtoms>
  151.2309  133.4451  159.2603 H   0  0  0  0  0  0  0  0  0  0  0  0  # atno 6907 bound_to 6896
  151.0796  134.9850  159.8359 H   0  0  0  0  0  0  0  0  0  0  0  0  # atno 6908 bound_to 6896
  152.5422  134.2249  159.8855 H   0  0  0  0  0  0  0  0  0  0  0  0  # atno 6909 bound_to 6896
  145.2794  139.2638  143.3924 H   0  0  0  0  0  0  0  0  0  0  0  0  # atno 7974 bound_to 7965
  156.2910  140.2650  156.2402 H   0  0  0  0  0  0  0  0  0  0  0  0  # atno 8008 bound_to 7997
  154.9985  140.0388  157.2368 H   0  0  0  0  0  0  0  0  0  0  0  0  # atno 8009 bound_to 7997
  154.7623  140.2763  155.6209 H   0  0  0  0  0  0  0  0  0  0  0  0  # atno 8010 bound_to 7997
  140.6724  143.7012  150.7950 H   0  0  0  0  0  0  0  0  0  0  0  0  # atno 10167 bound_to 10162
  157.6762  131.0786  150.5602 H   0  0  0  0  0  0  0  0  0  0  0  0  # atno 10718 bound_to 10713
  153.3118  135.4084  155.1342 H   0  0  0  0  0  0  0  0  0  0  0  0  # atno 10763 bound_to 10752
  154.8578  135.3566  154.5713 H   0  0  0  0  0  0  0  0  0  0  0  0  # atno 10764 bound_to 10752
  153.6142  135.7067  153.5394 H   0  0  0  0  0  0  0  0  0  0  0  0  # atno 10765 bound_to 10752
  141.1376  133.6645  156.5601 H   0  0  0  0  0  0  0  0  0  0  0  0  # atno 11005 bound_to 11000
  146.3221  140.3257  142.8636 LP  0  0  0  0  0  0  0  0  0  0  0  0  # atno 17320 bound_to 7965
  144.9266  140.7928  143.5715 LP  0  0  0  0  0  0  0  0  0  0  0  0  # atno 17321 bound_to 7965
  140.0700  143.5071  152.2585 LP  0  0  0  0  0  0  0  0  0  0  0  0  # atno 17342 bound_to 10162
  139.5998  144.7579  151.3198 LP  0  0  0  0  0  0  0  0  0  0  0  0  # atno 17343 bound_to 10162
  156.5905  130.4328  149.5939 LP  0  0  0  0  0  0  0  0  0  0  0  0  # atno 17370 bound_to 10713
  156.2587  130.6950  151.1711 LP  0  0  0  0  0  0  0  0  0  0  0  0  # atno 17371 bound_to 10713
  140.3995  134.7369  157.4771 LP  0  0  0  0  0  0  0  0  0  0  0  0  # atno 17394 bound_to 11000
  140.0506  134.6136  155.8866 LP  0  0  0  0  0  0  0  0  0  0  0  0  # atno 17395 bound_to 11000

$$$$
