AV-unprocessed.smi:334|AV-procd|sdf|2363|dock2
  -GOLD-   2262022273D 1   1.00000     0.00000
 Structure written by MMmdl.
 44 46  0  0  0  0  0  0  0  0  3 V2000
  151.9103  141.1895  157.0656 C   0  0  0  0  0  0  0  0  0  0  0  0
  151.2319  142.4174  156.4356 C   0  0  1  0  0  0  0  0  0  0  0  0
  149.9891  141.9802  155.8013 N   0  0  0  0  0  0  0  0  0  0  0  0
  149.8542  140.9429  154.9607 C   0  0  0  0  0  0  0  0  0  0  0  0
  150.7781  140.1873  154.6573 O   0  0  0  0  0  0  0  0  0  0  0  0
  148.4506  140.7253  154.3809 C   0  0  0  0  0  0  0  0  0  0  0  0
  147.4077  141.4373  155.1380 N   0  0  0  0  0  0  0  0  0  0  0  0
  146.6755  142.4259  154.4510 C   0  0  0  0  0  0  0  0  0  0  0  0
  145.7047  143.1431  155.0497 C   0  0  0  0  0  0  0  0  0  0  0  0
  144.9671  144.1587  154.3309 N   0  3  0  0  0  0  0  0  0  0  0  0
  145.3122  144.4375  153.1870 O   0  0  0  0  0  0  0  0  0  0  0  0
  144.0208  144.7116  154.8838 O   0  5  0  0  0  0  0  0  0  0  0  0
  145.4251  142.8661  156.4455 C   0  0  0  0  0  0  0  0  0  0  0  0
  146.1239  141.9244  157.1091 C   0  0  0  0  0  0  0  0  0  0  0  0
  147.1823  141.1471  156.4564 C   0  0  0  0  0  0  0  0  0  0  0  0
  147.8272  140.2878  157.0581 O   0  0  0  0  0  0  0  0  0  0  0  0
  150.9231  143.5337  157.4648 C   0  0  2  0  0  0  0  0  0  0  0  0
  152.1232  144.4737  157.7497 C   0  0  0  0  0  0  0  0  0  0  0  0
  152.2483  144.4375  159.2822 C   0  0  1  0  0  0  0  0  0  0  0  0
  151.0439  145.1550  159.9182 C   0  0  0  0  0  0  0  0  0  0  0  0
  149.8921  144.1631  159.6717 C   0  0  0  0  0  0  0  0  0  0  0  0
  150.5809  143.0283  158.8896 C   0  0  2  0  0  0  0  0  0  0  0  0
  151.9426  142.9756  159.5757 C   0  0  0  0  0  0  0  0  0  0  0  0
  152.8867  141.4334  157.4818 H   0  0  0  0  0  0  0  0  0  0  0  0
  152.0682  140.4078  156.3215 H   0  0  0  0  0  0  0  0  0  0  0  0
  151.3032  140.7664  157.8666 H   0  0  0  0  0  0  0  0  0  0  0  0
  151.9120  142.8212  155.6839 H   0  0  0  0  0  0  0  0  0  0  0  0
  149.1683  142.5363  155.9930 H   0  0  0  0  0  0  0  0  0  0  0  0
  148.4623  141.0453  153.3384 H   0  0  0  0  0  0  0  0  0  0  0  0
  148.2223  139.6579  154.3495 H   0  0  0  0  0  0  0  0  0  0  0  0
  146.9630  142.5612  153.4185 H   0  0  0  0  0  0  0  0  0  0  0  0
  144.6545  143.4125  156.9692 H   0  0  0  0  0  0  0  0  0  0  0  0
  145.9002  141.7356  158.1489 H   0  0  0  0  0  0  0  0  0  0  0  0
  150.0892  144.1223  157.0783 H   0  0  0  0  0  0  0  0  0  0  0  0
  153.0448  144.0993  157.3023 H   0  0  0  0  0  0  0  0  0  0  0  0
  151.9604  145.4822  157.3682 H   0  0  0  0  0  0  0  0  0  0  0  0
  153.2124  144.7897  159.6498 H   0  0  0  0  0  0  0  0  0  0  0  0
  151.1991  145.3042  160.9875 H   0  0  0  0  0  0  0  0  0  0  0  0
  150.8587  146.1301  159.4664 H   0  0  0  0  0  0  0  0  0  0  0  0
  149.4982  143.7935  160.6193 H   0  0  0  0  0  0  0  0  0  0  0  0
  149.0642  144.6108  159.1206 H   0  0  0  0  0  0  0  0  0  0  0  0
  150.0202  142.0951  158.9226 H   0  0  0  0  0  0  0  0  0  0  0  0
  152.6432  142.2829  159.1068 H   0  0  0  0  0  0  0  0  0  0  0  0
  151.8815  142.7531  160.6425 H   0  0  0  0  0  0  0  0  0  0  0  0
  1  2  1  0  0  0  0
  1 24  1  0  0  0  0
  1 25  1  0  0  0  0
  1 26  1  0  0  0  0
  2  3  1  0  0  0  0
  2 17  1  0  0  0  0
  2 27  1  0  0  0  0
  3  4  1  0  0  0  0
  3 28  1  0  0  0  0
  4  5  2  0  0  0  0
  4  6  1  0  0  0  0
  6  7  1  0  0  0  0
  6 29  1  0  0  0  0
  6 30  1  0  0  0  0
  7 15  1  0  0  0  0
  7  8  1  0  0  0  0
  8  9  2  0  0  0  0
  8 31  1  0  0  0  0
  9 10  1  0  0  0  0
  9 13  1  0  0  0  0
 10 11  2  0  0  0  0
 10 12  1  0  0  0  0
 13 14  2  0  0  0  0
 13 32  1  0  0  0  0
 14 15  1  0  0  0  0
 14 33  1  0  0  0  0
 15 16  2  0  0  0  0
 17 22  1  0  0  0  0
 17 18  1  0  0  0  0
 17 34  1  0  0  0  0
 18 19  1  0  0  0  0
 18 35  1  0  0  0  0
 18 36  1  0  0  0  0
 19 23  1  0  0  0  0
 19 20  1  0  0  0  0
 19 37  1  0  0  0  0
 20 21  1  0  0  0  0
 20 38  1  0  0  0  0
 20 39  1  0  0  0  0
 21 22  1  0  0  0  0
 21 40  1  0  0  0  0
 21 41  1  0  0  0  0
 22 23  1  0  0  0  0
 22 42  1  0  0  0  0
 23 43  1  0  0  0  0
 23 44  1  0  0  0  0
M  CHG  1  10   1
M  CHG  1  12  -1
M  END
> <s_m_source_file>
AV-unprocessed.smi

> <i_m_source_file_index>
334

> <i_lp_mmshare_version>
43012

> <i_f3d_flags>
0

> <s_epik_input>
W0NIMl0xW0NIMl1bQ0BIXShbQ0gyXTIpW0NAQEhdKFtDSDJdW0NAQEhdMTIpW0NASF0oW0NIM10pW05IXUMoPU8pW0NIMl1uM1tjSF1jKFtOK10oPU8pW08tXSlbY0hdW2NIXWMzPU8=

> <s_epik_cmdline>
J2VwaWtfcHl0aG9uJywgJy1waCcsICc3LjAnLCAnLXRuJywgJzgnLCAnLW1hJywgJzIwMCcsICctbWV0YWxfYmluZGluZycsICctaW1hZScsICc8aW5maWxlLm1hZT4nLCAnLW9tYWUnLCAnPG91dGZpbGUubWFlPic=

> <r_lp_tautomer_probability>
1

> <r_epik_Ionization_Penalty>
2.17081e-08

> <r_epik_Ionization_Penalty_Charging>
8.1195e-11

> <r_epik_Ionization_Penalty_Neutral>
2.16269e-08

> <r_epik_State_Penalty>
-0

> <r_epik_Charging_Adjusted_Penalty>
8.1195e-11

> <i_epik_Tot_Q>
0

> <i_epik_Tot_abs_Q>
2

> <r_epik_Metal_State_Penalty>
-0

> <b_epik_Metal_Only>
0

> <s_lp_Force_Field>
OPLS_2005

> <r_lp_Energy>
62.172

> <b_lp_Chiralities_Consistent>
1

> <s_lp_Variant>
AV-unprocessed.smi:334-2

> <Gold.Version>
5.8.1

> <Gold.Id.Protein>
6NUR|6NUR_protein|mol2

> <Gold.PLP.Fitness>
47.6281

> <Gold.PLP.PLP>
-45.1551

> <Gold.PLP.part.hbond>
-3.0000

> <Gold.PLP.part.metal>
0.0000

> <Gold.PLP.part.buried>
-5.1498

> <Gold.PLP.part.nonpolar>
-37.2149

> <Gold.PLP.part.repulsive>
0.5197

> <Gold.PLP.ligand.clash>
0.0000

> <Gold.PLP.ligand.torsion>
0.9196

> <Gold.PLP.Chemscore.Hbond>
1.4259

> <Gold.PLP.Chemscore.CHOScore>
0.0000

> <Gold.PLP.Chemscore.Metal>
0.0000

> <Gold.Chemscore.Hbonds>
donor molecule, donor type, donor heavy atom, donor atom, acceptor molecule, acceptor atom, score
      L1  H     3    28       P1  8028  0.29
      P1  H  7989  7998       L1     5  1.00

> <Gold.PLP.Chemscore.Internal.Correction>
0.0347

> <Gold.Rescore>
     Score         DG    S(hbond)    S(metal)    S(lipo)     H(rot)  DE(clash)    DE(int)     intcor
     12.07     -16.52       0.82        0.00     109.24       1.75       0.69       3.77       ----

> <Gold.Chemscore.Fitness>
12.0681

> <Gold.Chemscore.DG>
-16.5232

> <Gold.Chemscore.ZeroCoef>
-5.4800

> <Gold.Chemscore.Hbond>
0.8188

> <Gold.Chemscore.Metal>
0.0000

> <Gold.Chemscore.Lipo>
109.2445

> <Gold.Chemscore.Internal_Hbond>
0.0000

> <Gold.Chemscore.DEClash>
0.6881

> <Gold.Chemscore.DEInternal>
3.7670

> <Gold.Chemscore.Rot>
1.7474

> <Gold.Chemscore.Internal.Correction>
   9.000000E+99

> <Gold.Chemscore.Hbonds>
donor molecule, donor type, donor heavy atom, donor atom, acceptor molecule, acceptor atom, score
      L1  H     3    28       P1  8028  0.29
      P1  H  7989  7998       L1     5  0.64

> <Gold.Chemscore.Hbond.Weighted>
-2.7349

> <Gold.Chemscore.Metal.Weighted>
-0.0000

> <Gold.Chemscore.Lipo.Weighted>
-12.7816

> <Gold.Chemscore.Internal_Hbond.Weighted>
0.0000

> <Gold.Chemscore.DEClash.Weighted>
0.6881

> <Gold.Chemscore.DEInternal.Weighted>
3.7670

> <Gold.Chemscore.Rot.Weighted>
4.4733

> <Gold.Chemscore.Internal.Correction.Weighted>
   9.000000E+99

> <Gold.Protein.RotatedTorsions>
[ 6907 6896 6895 6894 ] final    8.82 input  -60.11 | X-H torsion
[ 7974 7965 7964 7962 ] final   26.31 input  175.53 | X-H torsion
[ 8008 7997 7996 7995 ] final -144.72 input   59.86 | X-H torsion
[ 10167 10162 10161 10158 ] final -177.89 input  -65.29 | X-H torsion
[ 10718 10713 10712 10709 ] final  -10.66 input   66.30 | X-H torsion
[ 10763 10752 10751 10750 ] final  112.83 input  -60.55 | X-H torsion
[ 11005 11000 10999 10996 ] final  -83.03 input  -57.11 | X-H torsion

> <Gold.Protein.ActiveResidues>
 VAL166  LYS551  ARG553  GLY616  TRP617  ASP618  TYR619  PRO620  LYS621  CYS622 
 ASP623  PHE694  ASN695  SER759  ASP760  ASP761  ALA762  ILE779  LEU786  VAL792 
 PHE793  MET794  SER795  GLU796  ALA797  LYS798  CYS799  TRP800  GLU811  SER814 

> <Gold.Protein.RotatedAtoms>
  151.7122  135.0910  160.0269 H   0  0  0  0  0  0  0  0  0  0  0  0  # atno 6907 bound_to 6896
  152.3654  133.6346  159.6055 H   0  0  0  0  0  0  0  0  0  0  0  0  # atno 6908 bound_to 6896
  150.7634  133.9272  159.3457 H   0  0  0  0  0  0  0  0  0  0  0  0  # atno 6909 bound_to 6896
  146.1844  139.7345  142.8877 H   0  0  0  0  0  0  0  0  0  0  0  0  # atno 7974 bound_to 7965
  155.5314  140.0600  157.2888 H   0  0  0  0  0  0  0  0  0  0  0  0  # atno 8008 bound_to 7997
  154.4483  140.1935  156.0543 H   0  0  0  0  0  0  0  0  0  0  0  0  # atno 8009 bound_to 7997
  156.0649  140.3267  155.7510 H   0  0  0  0  0  0  0  0  0  0  0  0  # atno 8010 bound_to 7997
  139.5458  144.2238  152.0986 H   0  0  0  0  0  0  0  0  0  0  0  0  # atno 10167 bound_to 10162
  156.6703  130.5007  149.6002 H   0  0  0  0  0  0  0  0  0  0  0  0  # atno 10718 bound_to 10713
  153.4836  135.3674  155.2455 H   0  0  0  0  0  0  0  0  0  0  0  0  # atno 10763 bound_to 10752
  154.8754  135.3960  154.3671 H   0  0  0  0  0  0  0  0  0  0  0  0  # atno 10764 bound_to 10752
  153.4279  135.7081  153.6316 H   0  0  0  0  0  0  0  0  0  0  0  0  # atno 10765 bound_to 10752
  141.1660  133.7274  156.8660 H   0  0  0  0  0  0  0  0  0  0  0  0  # atno 11005 bound_to 11000
  145.3982  141.0381  143.3085 LP  0  0  0  0  0  0  0  0  0  0  0  0  # atno 17320 bound_to 7965
  144.8371  139.5533  143.6917 LP  0  0  0  0  0  0  0  0  0  0  0  0  # atno 17321 bound_to 7965
  140.1725  144.4922  150.6572 LP  0  0  0  0  0  0  0  0  0  0  0  0  # atno 17342 bound_to 10162
  140.6706  143.2284  151.5635 LP  0  0  0  0  0  0  0  0  0  0  0  0  # atno 17343 bound_to 10162
  156.1944  130.6580  151.1097 LP  0  0  0  0  0  0  0  0  0  0  0  0  # atno 17370 bound_to 10713
  157.7079  131.0748  150.6602 LP  0  0  0  0  0  0  0  0  0  0  0  0  # atno 17371 bound_to 10713
  140.1815  134.9030  157.2954 LP  0  0  0  0  0  0  0  0  0  0  0  0  # atno 17394 bound_to 11000
  140.2390  134.3819  155.7489 LP  0  0  0  0  0  0  0  0  0  0  0  0  # atno 17395 bound_to 11000

$$$$
