#       Name:                AV-unprocessed.smi:1976
#       Creating user name   scv26
#       Creation time:       Fri Mar 27 10:16:47 2020


#       File generated by GOLD software.
#

@<TRIPOS>MOLECULE
AV-unprocessed.smi:1976
    49    51     1
SMALL
NO_CHARGES


@<TRIPOS>ATOM
      1 ****        -0.1535   1.3002  -0.8537 O.2            1 S1                 0.0000
      2 ****         0.6082   0.3562  -1.0687 C.2            1 S1                 0.0000
      3 ****         2.1234   0.5711  -1.1963 C.3            1 S1                 0.0000
      4 ****         2.5082   1.9890  -1.2967 N.am           1 S1                 0.0000
      5 ****         2.8960   2.6329  -0.1052 C.2            1 S1                 0.0000
      6 ****         3.2736   3.9249  -0.0596 C.2            1 S1                 0.0000
      7 ****         3.6266   4.6091   1.2518 C.3            1 S1                 0.0000
      8 ****         4.9279   4.4677   1.5000 F              1 S1                 0.0000
      9 ****         3.3522   5.9128   1.2021 F              1 S1                 0.0000
     10 ****         2.9497   4.0771   2.2704 F              1 S1                 0.0000
     11 ****         3.2328   4.6534  -1.3125 C.2            1 S1                 0.0000
     12 ****         2.8519   4.0561  -2.4587 C.2            1 S1                 0.0000
     13 ****         2.4624   2.6448  -2.4951 C.2            1 S1                 0.0000
     14 ****         2.1130   2.0872  -3.5358 O.2            1 S1                 0.0000
     15 ****         0.1830  -0.9107  -1.1850 N.am           1 S1                 0.0000
     16 ****        -1.2139  -1.3283  -1.1022 C.3            1 S1                 0.0000
     17 ****        -1.4469  -2.7610  -1.5634 C.3            1 S1                 0.0000
     18 ****        -2.8150  -3.0974  -0.9610 C.3            1 S1                 0.0000
     19 ****        -2.9729  -2.2511   0.2476 N.4            1 S1                 1.0000
     20 ****        -3.2524  -3.0185   1.4910 C.3            1 S1                 0.0000
     21 ****        -3.0150  -2.1524   2.7370 C.3            1 S1                 0.0000
     22 ****        -1.5484  -1.6903   2.8335 C.3            1 S1                 0.0000
     23 ****        -0.8402  -1.6857   1.4650 C.3            1 S1                 0.0000
     24 ****        -1.8130  -1.3171   0.3179 C.3            1 S1                 0.0000
     25 ****         2.6078   0.1064  -0.3362 H              1 S1                 0.0000
     26 ****         2.4915   0.0177  -2.0624 H              1 S1                 0.0000
     27 ****         2.8557   2.0090   0.7759 H              1 S1                 0.0000
     28 ****         3.5146   5.6958  -1.3333 H              1 S1                 0.0000
     29 ****         2.8327   4.6301  -3.3735 H              1 S1                 0.0000
     30 ****         0.8705  -1.6306  -1.3558 H              1 S1                 0.0000
     31 ****        -1.8125  -0.6743  -1.7402 H              1 S1                 0.0000
     32 ****        -1.4268  -2.8677  -2.6485 H              1 S1                 0.0000
     33 ****        -0.6859  -3.4217  -1.1455 H              1 S1                 0.0000
     34 ****        -3.6070  -2.8292  -1.6611 H              1 S1                 0.0000
     35 ****        -2.9114  -4.1645  -0.7556 H              1 S1                 0.0000
     36 ****        -4.2818  -3.3776   1.4627 H              1 S1                 0.0000
     37 ****        -2.6117  -3.9007   1.5417 H              1 S1                 0.0000
     38 ****        -3.6697  -1.2809   2.6914 H              1 S1                 0.0000
     39 ****        -3.2948  -2.6955   3.6402 H              1 S1                 0.0000
     40 ****        -1.5203  -0.6919   3.2717 H              1 S1                 0.0000
     41 ****        -0.9946  -2.3361   3.5160 H              1 S1                 0.0000
     42 ****         0.0031  -0.9964   1.5065 H              1 S1                 0.0000
     43 ****        -0.4150  -2.6724   1.2746 H              1 S1                 0.0000
     44 ****        -2.1995  -0.3183   0.5261 H              1 S1                 0.0000
     45 ****        -3.7818  -1.6694   0.0807 H              1 S1                 0.0000
     46 ****         0.2121   2.2261  -0.7591 LP             1 S1                 0.0000
     47 ****        -1.1374   1.1405  -0.7737 LP             1 S1                 0.0000
     48 ****         1.8505   1.1223  -3.5222 LP             1 S1                 0.0000
     49 ****         2.0917   2.5991  -4.3945 LP             1 S1                 0.0000
@<TRIPOS>BOND
    1    1    2 2     
    2    2    3 1     
    3    2   15 am    
    4    3    4 1     
    5    3   25 1     
    6    3   26 1     
    7    4   13 am    
    8    4    5 1     
    9    5    6 2     
   10    5   27 1     
   11    6    7 1     
   12    6   11 1     
   13    7    8 1     
   14    7    9 1     
   15    7   10 1     
   16   11   12 2     
   17   11   28 1     
   18   12   13 1     
   19   12   29 1     
   20   13   14 2     
   21   15   16 1     
   22   15   30 1     
   23   16   24 1     
   24   16   17 1     
   25   16   31 1     
   26   17   18 1     
   27   17   32 1     
   28   17   33 1     
   29   18   19 1     
   30   18   34 1     
   31   18   35 1     
   32   19   24 1     
   33   19   20 1     
   34   19   45 1     
   35   20   21 1     
   36   20   36 1     
   37   20   37 1     
   38   21   22 1     
   39   21   38 1     
   40   21   39 1     
   41   22   23 1     
   42   22   40 1     
   43   22   41 1     
   44   23   24 1     
   45   23   42 1     
   46   23   43 1     
   47   24   44 1     
   48    1   46 1     
   49    1   47 1     
   50   14   48 1     
   51   14   49 1     
@<TRIPOS>SUBSTRUCTURE
      1 S1             1
@<TRIPOS>SET
LONE_PAIRS      STATIC     ATOMS    <user>   **** ""
4 46 47 48 49
DONOR_HYDROGENS      STATIC     ATOMS    <user>   **** ""
2 30 45
ATOM$BLUE        STATIC     ATOMS    COLORGROUP SYSTEM
4 46 47 48 49
ATOM$RED        STATIC     ATOMS    COLORGROUP SYSTEM
2 30 45
