AV-unprocessed.smi:543|AV-procd|sdf|2876|dock4
  -GOLD-   2262023373D 1   1.00000     0.00000
 Structure written by MMmdl.
 45 47  0  0  0  0  0  0  0  0  2 V2000
  157.1488  140.4505  159.5610 C   0  0  0  0  0  0  0  0  0  0  0  0
  155.9509  139.8913  159.0535 O   0  0  0  0  0  0  0  0  0  0  0  0
  155.7341  138.5635  159.5051 C   0  0  0  0  0  0  0  0  0  0  0  0
  154.2655  138.3951  159.9194 C   0  0  0  0  0  0  0  0  0  0  0  0
  153.3964  139.3507  159.2326 N   0  0  0  0  0  0  0  0  0  0  0  0
  153.0480  140.6146  159.6085 C   0  0  0  0  0  0  0  0  0  0  0  0
  153.4767  141.1891  160.8119 N   0  0  0  0  0  0  0  0  0  0  0  0
  154.3279  140.5407  161.8020 C   0  0  0  0  0  0  0  0  0  0  0  0
  152.9770  142.4583  161.3401 C   0  0  0  0  0  0  0  0  0  0  0  0
  152.4596  143.4359  160.2976 C   0  0  0  0  0  0  0  0  0  0  0  0
  153.2722  143.7929  159.2006 C   0  0  0  0  0  0  0  0  0  0  0  0
  152.7919  144.6878  158.2248 C   0  0  0  0  0  0  0  0  0  0  0  0
  151.4990  145.2326  158.3437 C   0  0  0  0  0  0  0  0  0  0  0  0
  150.6858  144.8817  159.4387 C   0  0  0  0  0  0  0  0  0  0  0  0
  151.1648  143.9851  160.4137 C   0  0  0  0  0  0  0  0  0  0  0  0
  152.3023  141.2662  158.7132 N   0  0  0  0  0  0  0  0  0  0  0  0
  152.1412  140.3411  157.6963 C   0  0  0  0  0  0  0  0  0  0  0  0
  152.7943  139.1834  157.9798 C   0  0  0  0  0  0  0  0  0  0  0  0
  152.8384  138.0216  157.0630 C   0  0  0  0  0  0  0  0  0  0  0  0
  153.4594  137.0022  157.3569 O   0  0  0  0  0  0  0  0  0  0  0  0
  152.1323  138.2448  155.9095 N   0  5  0  0  0  0  0  0  0  0  0  0
  151.4543  139.4004  155.5853 C   0  0  0  0  0  0  0  0  0  0  0  0
  150.8484  139.5215  154.5198 O   0  0  0  0  0  0  0  0  0  0  0  0
  151.4466  140.4535  156.4616 N   0  0  0  0  0  0  0  0  0  0  0  0
  150.7420  141.6985  156.1420 C   0  0  0  0  0  0  0  0  0  0  0  0
  157.2640  141.4678  159.1870 H   0  0  0  0  0  0  0  0  0  0  0  0
  158.0182  139.8740  159.2421 H   0  0  0  0  0  0  0  0  0  0  0  0
  157.1351  140.4913  160.6510 H   0  0  0  0  0  0  0  0  0  0  0  0
  155.9831  137.8541  158.7144 H   0  0  0  0  0  0  0  0  0  0  0  0
  156.3859  138.3477  160.3527 H   0  0  0  0  0  0  0  0  0  0  0  0
  153.9214  137.3829  159.7134 H   0  0  0  0  0  0  0  0  0  0  0  0
  154.1790  138.5000  160.9957 H   0  0  0  0  0  0  0  0  0  0  0  0
  154.4576  139.4840  161.5664 H   0  0  0  0  0  0  0  0  0  0  0  0
  153.8926  140.5973  162.8001 H   0  0  0  0  0  0  0  0  0  0  0  0
  155.3100  141.0138  161.8300 H   0  0  0  0  0  0  0  0  0  0  0  0
  152.1899  142.2982  162.0787 H   0  0  0  0  0  0  0  0  0  0  0  0
  153.7965  142.9274  161.8858 H   0  0  0  0  0  0  0  0  0  0  0  0
  154.2630  143.3752  159.0995 H   0  0  0  0  0  0  0  0  0  0  0  0
  153.4150  144.9551  157.3842 H   0  0  0  0  0  0  0  0  0  0  0  0
  151.1308  145.9184  157.5950 H   0  0  0  0  0  0  0  0  0  0  0  0
  149.6937  145.2989  159.5299 H   0  0  0  0  0  0  0  0  0  0  0  0
  150.5334  143.7177  161.2479 H   0  0  0  0  0  0  0  0  0  0  0  0
  151.1954  142.1784  155.2737 H   0  0  0  0  0  0  0  0  0  0  0  0
  150.7637  142.4169  156.9614 H   0  0  0  0  0  0  0  0  0  0  0  0
  149.6936  141.5006  155.9144 H   0  0  0  0  0  0  0  0  0  0  0  0
  1  2  1  0  0  0  0
  1 26  1  0  0  0  0
  1 27  1  0  0  0  0
  1 28  1  0  0  0  0
  2  3  1  0  0  0  0
  3  4  1  0  0  0  0
  3 29  1  0  0  0  0
  3 30  1  0  0  0  0
  4  5  1  0  0  0  0
  4 31  1  0  0  0  0
  4 32  1  0  0  0  0
  5 18  1  0  0  0  0
  5  6  1  0  0  0  0
  6  7  1  0  0  0  0
  6 16  2  0  0  0  0
  7  8  1  0  0  0  0
  7  9  1  0  0  0  0
  8 33  1  0  0  0  0
  8 34  1  0  0  0  0
  8 35  1  0  0  0  0
  9 10  1  0  0  0  0
  9 36  1  0  0  0  0
  9 37  1  0  0  0  0
 10 15  1  0  0  0  0
 10 11  2  0  0  0  0
 11 12  1  0  0  0  0
 11 38  1  0  0  0  0
 12 13  2  0  0  0  0
 12 39  1  0  0  0  0
 13 14  1  0  0  0  0
 13 40  1  0  0  0  0
 14 15  2  0  0  0  0
 14 41  1  0  0  0  0
 15 42  1  0  0  0  0
 16 17  1  0  0  0  0
 17 24  1  0  0  0  0
 17 18  2  0  0  0  0
 18 19  1  0  0  0  0
 19 20  2  0  0  0  0
 19 21  1  0  0  0  0
 21 22  1  0  0  0  0
 22 23  2  0  0  0  0
 22 24  1  0  0  0  0
 24 25  1  0  0  0  0
 25 43  1  0  0  0  0
 25 44  1  0  0  0  0
 25 45  1  0  0  0  0
M  CHG  1  21  -1
M  END
> <s_m_source_file>
AV-unprocessed.smi

> <i_m_source_file_index>
543

> <i_lp_mmshare_version>
43012

> <i_f3d_flags>
0

> <s_epik_input>
W0NIM11uMWMoPU8pW25IXWMoPU8pYyhjMTIpbihbQ0gyXVtDSDJdT1tDSDNdKWMobjIpTihbQ0gzXSlbQ0gyXWMzW2NIXVtjSF1bY0hdW2NIXVtjSF0z

> <s_epik_cmdline>
J2VwaWtfcHl0aG9uJywgJy1waCcsICc3LjAnLCAnLXRuJywgJzgnLCAnLW1hJywgJzIwMCcsICctbWV0YWxfYmluZGluZycsICctaW1hZScsICc8aW5maWxlLm1hZT4nLCAnLW9tYWUnLCAnPG91dGZpbGUubWFlPic=

> <r_lp_tautomer_probability>
1

> <r_epik_Ionization_Penalty>
6.27073

> <r_epik_Ionization_Penalty_Charging>
0.0750099

> <r_epik_Ionization_Penalty_Neutral>
6.19572

> <r_epik_State_Penalty>
6.19553

> <r_epik_Charging_Adjusted_Penalty>
6.27054

> <i_epik_Tot_Q>
-1

> <i_epik_Tot_abs_Q>
1

> <r_epik_Metal_State_Penalty>
2.13591

> <b_epik_Metal_Only>
1

> <s_lp_Force_Field>
OPLS_2005

> <r_lp_Energy>
36.8514

> <b_lp_Chiralities_Consistent>
1

> <s_lp_Variant>
AV-unprocessed.smi:543-2

> <Gold.Version>
5.8.1

> <Gold.Id.Protein>
6NUR|6NUR_protein|mol2

> <Gold.PLP.Fitness>
52.1568

> <Gold.PLP.PLP>
-50.7531

> <Gold.PLP.part.hbond>
-2.0000

> <Gold.PLP.part.metal>
0.0000

> <Gold.PLP.part.buried>
-6.0682

> <Gold.PLP.part.nonpolar>
-41.8779

> <Gold.PLP.part.repulsive>
0.1302

> <Gold.PLP.ligand.clash>
6.8271

> <Gold.PLP.ligand.torsion>
1.2963

> <Gold.PLP.Chemscore.Hbond>
2.0000

> <Gold.PLP.Chemscore.CHOScore>
0.0000

> <Gold.PLP.Chemscore.Metal>
0.0000

> <Gold.Chemscore.Hbonds>
donor molecule, donor type, donor heavy atom, donor atom, acceptor molecule, acceptor atom, score
      P1  H  7989  7998       L1    23  1.00
      P1  H  7997  8009       L1     2  1.00

> <Gold.PLP.Chemscore.Internal.Correction>
4.8235

> <Gold.Rescore>
     Score         DG    S(hbond)    S(metal)    S(lipo)     H(rot)  DE(clash)    DE(int)     intcor
     15.65     -21.35       1.92        0.00     120.70       1.82       0.02       5.67       ----

> <Gold.Chemscore.Fitness>
15.6482

> <Gold.Chemscore.DG>
-21.3458

> <Gold.Chemscore.ZeroCoef>
-5.4800

> <Gold.Chemscore.Hbond>
1.9178

> <Gold.Chemscore.Metal>
0.0000

> <Gold.Chemscore.Lipo>
120.6962

> <Gold.Chemscore.Internal_Hbond>
0.0000

> <Gold.Chemscore.DEClash>
0.0240

> <Gold.Chemscore.DEInternal>
5.6737

> <Gold.Chemscore.Rot>
1.8207

> <Gold.Chemscore.Internal.Correction>
   9.000000E+99

> <Gold.Chemscore.Hbonds>
donor molecule, donor type, donor heavy atom, donor atom, acceptor molecule, acceptor atom, score
      P1  H  7989  7998       L1    23  0.74
      P1  H  7997  8009       L1     2  0.78

> <Gold.Chemscore.Hbond.Weighted>
-6.4053

> <Gold.Chemscore.Metal.Weighted>
-0.0000

> <Gold.Chemscore.Lipo.Weighted>
-14.1215

> <Gold.Chemscore.Internal_Hbond.Weighted>
0.0000

> <Gold.Chemscore.DEClash.Weighted>
0.0240

> <Gold.Chemscore.DEInternal.Weighted>
5.6737

> <Gold.Chemscore.Rot.Weighted>
4.6610

> <Gold.Chemscore.Internal.Correction.Weighted>
   9.000000E+99

> <Gold.Protein.RotatedTorsions>
[ 6907 6896 6895 6894 ] final  -91.81 input  -60.11 | X-H torsion
[ 7974 7965 7964 7962 ] final  143.23 input  175.53 | X-H torsion
[ 8008 7997 7996 7995 ] final   86.46 input   59.86 | X-H torsion
[ 10167 10162 10161 10158 ] final  -59.46 input  -65.29 | X-H torsion
[ 10718 10713 10712 10709 ] final   49.02 input   66.30 | X-H torsion
[ 10763 10752 10751 10750 ] final  129.74 input  -60.55 | X-H torsion
[ 11005 11000 10999 10996 ] final -161.87 input  -57.11 | X-H torsion

> <Gold.Protein.ActiveResidues>
 VAL166  LYS551  ARG553  GLY616  TRP617  ASP618  TYR619  PRO620  LYS621  CYS622 
 ASP623  PHE694  ASN695  SER759  ASP760  ASP761  ALA762  ILE779  LEU786  VAL792 
 PHE793  MET794  SER795  GLU796  ALA797  LYS798  CYS799  TRP800  GLU811  SER814 

> <Gold.Protein.RotatedAtoms>
  150.6897  134.2219  159.4399 H   0  0  0  0  0  0  0  0  0  0  0  0  # atno 6907 bound_to 6896
  152.0175  134.9839  160.0579 H   0  0  0  0  0  0  0  0  0  0  0  0  # atno 6908 bound_to 6896
  152.1429  133.4440  159.4812 H   0  0  0  0  0  0  0  0  0  0  0  0  # atno 6909 bound_to 6896
  144.8938  139.5520  143.5786 H   0  0  0  0  0  0  0  0  0  0  0  0  # atno 7974 bound_to 7965
  155.9630  140.3392  155.6508 H   0  0  0  0  0  0  0  0  0  0  0  0  # atno 8008 bound_to 7997
  155.6773  140.0734  157.2516 H   0  0  0  0  0  0  0  0  0  0  0  0  # atno 8009 bound_to 7997
  154.4148  140.1680  156.1932 H   0  0  0  0  0  0  0  0  0  0  0  0  # atno 8010 bound_to 7997
  140.6133  143.2394  151.5657 H   0  0  0  0  0  0  0  0  0  0  0  0  # atno 10167 bound_to 10162
  157.4745  130.8276  149.8024 H   0  0  0  0  0  0  0  0  0  0  0  0  # atno 10718 bound_to 10713
  153.7467  135.3216  155.3314 H   0  0  0  0  0  0  0  0  0  0  0  0  # atno 10763 bound_to 10752
  154.8277  135.4557  154.0972 H   0  0  0  0  0  0  0  0  0  0  0  0  # atno 10764 bound_to 10752
  153.2163  135.6942  153.8136 H   0  0  0  0  0  0  0  0  0  0  0  0  # atno 10765 bound_to 10752
  140.6156  134.4803  157.5219 H   0  0  0  0  0  0  0  0  0  0  0  0  # atno 11005 bound_to 11000
  146.3069  139.7612  142.9049 LP  0  0  0  0  0  0  0  0  0  0  0  0  # atno 17320 bound_to 7965
  145.3736  141.0347  143.3217 LP  0  0  0  0  0  0  0  0  0  0  0  0  # atno 17321 bound_to 7965
  139.5379  144.2730  152.1289 LP  0  0  0  0  0  0  0  0  0  0  0  0  # atno 17342 bound_to 10162
  140.1934  144.4729  150.6467 LP  0  0  0  0  0  0  0  0  0  0  0  0  # atno 17343 bound_to 10162
  156.0090  130.3842  150.2331 LP  0  0  0  0  0  0  0  0  0  0  0  0  # atno 17370 bound_to 10713
  157.0515  131.0064  151.3252 LP  0  0  0  0  0  0  0  0  0  0  0  0  # atno 17371 bound_to 10713
  139.9174  134.8218  156.1321 LP  0  0  0  0  0  0  0  0  0  0  0  0  # atno 17394 bound_to 11000
  141.0778  133.6768  156.2272 LP  0  0  0  0  0  0  0  0  0  0  0  0  # atno 17395 bound_to 11000

$$$$
