#       Name:                AV-unprocessed.smi:1213
#       Creating user name   scv26
#       Creation time:       Fri Mar 27 04:14:15 2020


#       File generated by GOLD software.
#

@<TRIPOS>MOLECULE
AV-unprocessed.smi:1213
    42    43     1
SMALL
NO_CHARGES


@<TRIPOS>ATOM
      1 ****        -5.5787   2.6575   0.9095 N.am           1 S1                 0.0000
      2 ****        -4.2704   2.4532   1.0782 C.2            1 S1                 0.0000
      3 ****        -3.4945   3.3679   1.3494 O.2            1 S1                 0.0000
      4 ****        -3.7730   1.0104   0.9384 C.3            1 S1                 0.0000
      5 ****        -2.3090   0.9177   0.7027 N.4            1 S1                 1.0000
      6 ****        -1.9193   1.2488  -0.6945 C.3            1 S1                 0.0000
      7 ****        -0.3902   1.2721  -0.8520 C.3            1 S1                 0.0000
      8 ****         0.2297  -0.0673  -0.4238 C.3            1 S1                 0.0000
      9 ****         1.6847   0.0111  -0.5080 N.am           1 S1                 0.0000
     10 ****         2.5237  -1.0296  -0.6100 C.2            1 S1                 0.0000
     11 ****         2.0777  -2.1791  -0.6375 O.2            1 S1                 0.0000
     12 ****         3.8258  -0.6720  -0.6698 N.pl3          1 S1                -1.0000
     13 ****         4.7767  -1.6144  -0.7753 C.2            1 S1                 0.0000
     14 ****         5.3557  -1.9391  -1.9368 N.2            1 S1                 0.0000
     15 ****         6.3229  -2.9385  -1.8147 C.2            1 S1                 0.0000
     16 ****         6.4899  -3.3793  -0.5287 C.2            1 S1                 0.0000
     17 ****         5.4311  -2.5471   0.5740 S.3            1 S1                 0.0000
     18 ****        -0.2186  -0.4066   1.0093 C.3            1 S1                 0.0000
     19 ****        -1.7505  -0.3905   1.1298 C.3            1 S1                 0.0000
     20 ****        -5.9543   3.5914   0.9960 H              1 S1                 0.0000
     21 ****        -6.1926   1.8832   0.7003 H              1 S1                 0.0000
     22 ****        -4.0273   0.5030   1.8700 H              1 S1                 0.0000
     23 ****        -4.3135   0.4939   0.1433 H              1 S1                 0.0000
     24 ****        -2.3543   0.5184  -1.3786 H              1 S1                 0.0000
     25 ****        -2.3211   2.2220  -0.9776 H              1 S1                 0.0000
     26 ****        -0.1296   1.4907  -1.8883 H              1 S1                 0.0000
     27 ****         0.0234   2.0835  -0.2511 H              1 S1                 0.0000
     28 ****        -0.1265  -0.8428  -1.1047 H              1 S1                 0.0000
     29 ****         2.0962   0.9330  -0.4908 H              1 S1                 0.0000
     30 ****         6.8457  -3.2750  -2.6976 H              1 S1                 0.0000
     31 ****         7.1671  -4.1367  -0.1641 H              1 S1                 0.0000
     32 ****         0.1602  -1.3863   1.3028 H              1 S1                 0.0000
     33 ****         0.2087   0.3115   1.7112 H              1 S1                 0.0000
     34 ****        -2.0274  -0.5898   2.1656 H              1 S1                 0.0000
     35 ****        -2.1848  -1.1884   0.5253 H              1 S1                 0.0000
     36 ****        -1.8837   1.6143   1.2984 H              1 S1                 0.0000
     37 ****        -3.8381   4.3015   1.4505 LP             1 S1                 0.0000
     38 ****        -2.5200   3.1780   1.4688 LP             1 S1                 0.0000
     39 ****         1.0913  -2.3341  -0.5838 LP             1 S1                 0.0000
     40 ****         2.7025  -2.9562  -0.7136 LP             1 S1                 0.0000
     41 ****         4.0811   0.2942  -0.6355 LP             1 S1                 0.0000
     42 ****         5.1188  -1.5081  -2.8075 LP             1 S1                 0.0000
@<TRIPOS>BOND
    1    1    2 am    
    2    1   20 1     
    3    1   21 1     
    4    2    3 2     
    5    2    4 1     
    6    4    5 1     
    7    4   22 1     
    8    4   23 1     
    9    5   19 1     
   10    5    6 1     
   11    5   36 1     
   12    6    7 1     
   13    6   24 1     
   14    6   25 1     
   15    7    8 1     
   16    7   26 1     
   17    7   27 1     
   18    8    9 1     
   19    8   18 1     
   20    8   28 1     
   21    9   10 am    
   22    9   29 1     
   23   10   11 2     
   24   10   12 1     
   25   12   13 1     
   26   13   17 1     
   27   13   14 2     
   28   14   15 1     
   29   15   16 2     
   30   15   30 1     
   31   16   17 1     
   32   16   31 1     
   33   18   19 1     
   34   18   32 1     
   35   18   33 1     
   36   19   34 1     
   37   19   35 1     
   38    3   37 1     
   39    3   38 1     
   40   11   39 1     
   41   11   40 1     
   42   12   41 1     
   43   14   42 1     
@<TRIPOS>SUBSTRUCTURE
      1 S1             1
@<TRIPOS>SET
LONE_PAIRS      STATIC     ATOMS    <user>   **** ""
6 37 38 39 40 41 42
DONOR_HYDROGENS      STATIC     ATOMS    <user>   **** ""
4 20 21 36 29
ATOM$BLUE        STATIC     ATOMS    COLORGROUP SYSTEM
6 37 38 39 40 41 42
ATOM$RED        STATIC     ATOMS    COLORGROUP SYSTEM
4 20 21 36 29
