#       Name:                AV-unprocessed.smi:759
#       Creating user name   scv26
#       Creation time:       Fri Mar 27 01:01:58 2020


#       File generated by GOLD software.
#

@<TRIPOS>MOLECULE
AV-unprocessed.smi:759
    26    27     1
SMALL
NO_CHARGES


@<TRIPOS>ATOM
      1 ****        -3.8395   0.0124   0.0341 C.2            1 S1                 0.0000
      2 ****        -3.8146   1.3519   0.0271 N.pl3          1 S1                -1.0000
      3 ****        -2.5521   1.7339   0.0023 N.2            1 S1                 0.0000
      4 ****        -1.8218   0.6027  -0.0034 C.2            1 S1                 0.0000
      5 ****        -0.3066   0.5608  -0.0188 C.3            1 S1                 0.0000
      6 ****         0.2437  -0.1061  -1.2927 C.3            1 S1                 0.0000
      7 ****         1.7791  -0.1489  -1.2546 C.3            1 S1                 0.0000
      8 ****         2.2787  -0.8124   0.0401 C.3            1 S1                 0.0000
      9 ****         1.7358  -0.1177   1.2281 N.4            1 S1                 1.0000
     10 ****         0.2572  -0.0928   1.2572 C.3            1 S1                 0.0000
     11 ****        -2.6113  -0.4830   0.0166 N.2            1 S1                 0.0000
     12 ****        -4.7765  -0.5306   0.0553 H              1 S1                 0.0000
     13 ****         0.0284   1.5996  -0.0271 H              1 S1                 0.0000
     14 ****        -0.1455  -1.1219  -1.3765 H              1 S1                 0.0000
     15 ****        -0.0953   0.4320  -2.1787 H              1 S1                 0.0000
     16 ****         2.1583  -0.6897  -2.1222 H              1 S1                 0.0000
     17 ****         2.1755   0.8650  -1.3243 H              1 S1                 0.0000
     18 ****         1.9802  -1.8613   0.0693 H              1 S1                 0.0000
     19 ****         3.3678  -0.7893   0.0813 H              1 S1                 0.0000
     20 ****         2.0704  -0.5799   2.0614 H              1 S1                 0.0000
     21 ****        -0.0703   0.4545   2.1416 H              1 S1                 0.0000
     22 ****        -0.1126  -1.1143   1.3591 H              1 S1                 0.0000
     23 ****         2.0715   0.8349   1.2255 H              1 S1                 0.0000
     24 ****        -4.6119   1.9554   0.0386 LP             1 S1                 0.0000
     25 ****        -2.2076   2.6726  -0.0098 LP             1 S1                 0.0000
     26 ****        -2.3356  -1.4442   0.0179 LP             1 S1                 0.0000
@<TRIPOS>BOND
    1    1   11 2     
    2    1   12 1     
    3    1    2 1     
    4    2    3 1     
    5    3    4 2     
    6    4   11 1     
    7    4    5 1     
    8    5   10 1     
    9    5    6 1     
   10    5   13 1     
   11    6    7 1     
   12    6   14 1     
   13    6   15 1     
   14    7    8 1     
   15    7   16 1     
   16    7   17 1     
   17    8    9 1     
   18    8   18 1     
   19    8   19 1     
   20    9   10 1     
   21    9   20 1     
   22    9   23 1     
   23   10   21 1     
   24   10   22 1     
   25    2   24 1     
   26    3   25 1     
   27   11   26 1     
@<TRIPOS>SUBSTRUCTURE
      1 S1             1
@<TRIPOS>SET
LONE_PAIRS      STATIC     ATOMS    <user>   **** ""
3 24 25 26
DONOR_HYDROGENS      STATIC     ATOMS    <user>   **** ""
2 20 23
ATOM$BLUE        STATIC     ATOMS    COLORGROUP SYSTEM
3 24 25 26
ATOM$RED        STATIC     ATOMS    COLORGROUP SYSTEM
2 20 23
