AV-unprocessed.smi:1762|AV-procd|sdf|7125|dock6
  -GOLD-   22720 8363D 1   1.00000     0.00000
 Structure written by MMmdl.
 52 53  0  0  0  0  0  0  0  0  3 V2000
  149.2277  131.9012  153.9342 C   0  0  0  0  0  0  0  0  0  0  0  0
  148.4353  133.0782  153.3542 C   0  0  2  0  0  0  0  0  0  0  0  0
  148.2825  134.2286  154.3640 C   0  0  0  0  0  0  0  0  0  0  0  0
  147.4607  135.3396  153.8007 N   0  3  2  0  0  0  0  0  0  0  0  0
  147.3483  136.5180  154.7265 C   0  0  1  0  0  0  0  0  0  0  0  0
  148.6338  136.6754  155.5752 C   0  0  0  0  0  0  0  0  0  0  0  0
  148.5400  136.6127  156.8060 O   0  0  0  0  0  0  0  0  0  0  0  0
  149.7212  136.9101  154.7893 N   0  5  0  0  0  0  0  0  0  0  0  0
  151.0697  137.1353  155.3068 C   0  0  0  0  0  0  0  0  0  0  0  0
  151.6579  138.4389  154.7181 C   0  0  0  0  0  0  0  0  0  0  0  0
  151.2730  139.7015  155.4821 C   0  0  0  0  0  0  0  0  0  0  0  0
  151.7313  139.9098  156.8029 C   0  0  0  0  0  0  0  0  0  0  0  0
  151.3603  141.0946  157.4673 C   0  0  0  0  0  0  0  0  0  0  0  0
  150.5522  142.0278  156.7904 C   0  0  0  0  0  0  0  0  0  0  0  0
  150.1517  141.7349  155.4719 C   0  0  0  0  0  0  0  0  0  0  0  0
  150.5027  140.6029  154.8249 N   0  0  0  0  0  0  0  0  0  0  0  0
  146.9644  137.8653  154.0238 C   0  0  0  0  0  0  0  0  0  0  0  0
  146.8386  139.0725  154.9768 C   0  0  0  0  0  0  0  0  0  0  0  0
  145.7009  137.7491  153.1488 C   0  0  0  0  0  0  0  0  0  0  0  0
  146.1592  134.7897  153.3296 C   0  0  0  0  0  0  0  0  0  0  0  0
  146.3672  133.6110  152.3591 C   0  0  2  0  0  0  0  0  0  0  0  0
  145.0403  132.9776  151.9269 C   0  0  0  0  0  0  0  0  0  0  0  0
  147.1444  132.6066  152.9959 O   0  0  0  0  0  0  0  0  0  0  0  0
  150.2357  132.2073  154.2150 H   0  0  0  0  0  0  0  0  0  0  0  0
  149.3166  131.0949  153.2057 H   0  0  0  0  0  0  0  0  0  0  0  0
  148.7416  131.4958  154.8221 H   0  0  0  0  0  0  0  0  0  0  0  0
  148.9521  133.4363  152.4619 H   0  0  0  0  0  0  0  0  0  0  0  0
  147.8168  133.8643  155.2814 H   0  0  0  0  0  0  0  0  0  0  0  0
  149.2811  134.5707  154.6345 H   0  0  0  0  0  0  0  0  0  0  0  0
  146.5123  136.2801  155.3894 H   0  0  0  0  0  0  0  0  0  0  0  0
  151.0882  137.1870  156.3963 H   0  0  0  0  0  0  0  0  0  0  0  0
  151.7252  136.3045  155.0444 H   0  0  0  0  0  0  0  0  0  0  0  0
  152.7466  138.3711  154.6896 H   0  0  0  0  0  0  0  0  0  0  0  0
  151.3386  138.5546  153.6809 H   0  0  0  0  0  0  0  0  0  0  0  0
  152.3502  139.1753  157.2972 H   0  0  0  0  0  0  0  0  0  0  0  0
  151.6897  141.2837  158.4782 H   0  0  0  0  0  0  0  0  0  0  0  0
  150.2473  142.9461  157.2694 H   0  0  0  0  0  0  0  0  0  0  0  0
  149.5342  142.4290  154.9213 H   0  0  0  0  0  0  0  0  0  0  0  0
  147.7545  138.0997  153.3117 H   0  0  0  0  0  0  0  0  0  0  0  0
  145.9662  138.9874  155.6247 H   0  0  0  0  0  0  0  0  0  0  0  0
  146.7273  139.9985  154.4121 H   0  0  0  0  0  0  0  0  0  0  0  0
  147.7141  139.1860  155.6151 H   0  0  0  0  0  0  0  0  0  0  0  0
  144.8017  137.5955  153.7463 H   0  0  0  0  0  0  0  0  0  0  0  0
  145.7820  136.9165  152.4494 H   0  0  0  0  0  0  0  0  0  0  0  0
  145.5484  138.6551  152.5617 H   0  0  0  0  0  0  0  0  0  0  0  0
  145.5674  134.4741  154.1904 H   0  0  0  0  0  0  0  0  0  0  0  0
  145.5815  135.5444  152.7997 H   0  0  0  0  0  0  0  0  0  0  0  0
  146.8904  133.9588  151.4664 H   0  0  0  0  0  0  0  0  0  0  0  0
  144.4073  133.7013  151.4130 H   0  0  0  0  0  0  0  0  0  0  0  0
  144.4858  132.5978  152.7855 H   0  0  0  0  0  0  0  0  0  0  0  0
  145.2110  132.1434  151.2461 H   0  0  0  0  0  0  0  0  0  0  0  0
  147.9484  135.6757  152.9827 H   0  0  0  0  0  0  0  0  0  0  0  0
  1  2  1  0  0  0  0
  1 24  1  0  0  0  0
  1 25  1  0  0  0  0
  1 26  1  0  0  0  0
  2 23  1  0  0  0  0
  2  3  1  0  0  0  0
  2 27  1  0  0  0  0
  3  4  1  0  0  0  0
  3 28  1  0  0  0  0
  3 29  1  0  0  0  0
  4  5  1  0  0  0  0
  4 20  1  0  0  0  0
  4 52  1  0  0  0  0
  5  6  1  0  0  0  0
  5 17  1  0  0  0  0
  5 30  1  0  0  0  0
  6  7  2  0  0  0  0
  6  8  1  0  0  0  0
  8  9  1  0  0  0  0
  9 10  1  0  0  0  0
  9 31  1  0  0  0  0
  9 32  1  0  0  0  0
 10 11  1  0  0  0  0
 10 33  1  0  0  0  0
 10 34  1  0  0  0  0
 11 16  1  0  0  0  0
 11 12  2  0  0  0  0
 12 13  1  0  0  0  0
 12 35  1  0  0  0  0
 13 14  2  0  0  0  0
 13 36  1  0  0  0  0
 14 15  1  0  0  0  0
 14 37  1  0  0  0  0
 15 16  2  0  0  0  0
 15 38  1  0  0  0  0
 17 18  1  0  0  0  0
 17 19  1  0  0  0  0
 17 39  1  0  0  0  0
 18 40  1  0  0  0  0
 18 41  1  0  0  0  0
 18 42  1  0  0  0  0
 19 43  1  0  0  0  0
 19 44  1  0  0  0  0
 19 45  1  0  0  0  0
 20 21  1  0  0  0  0
 20 46  1  0  0  0  0
 20 47  1  0  0  0  0
 21 22  1  0  0  0  0
 21 23  1  0  0  0  0
 21 48  1  0  0  0  0
 22 49  1  0  0  0  0
 22 50  1  0  0  0  0
 22 51  1  0  0  0  0
M  CHG  1   4   1
M  CHG  1   8  -1
M  END
> <s_m_source_file>
AV-unprocessed.smi

> <i_m_source_file_index>
1762

> <i_lp_mmshare_version>
43012

> <i_f3d_flags>
0

> <s_epik_input>
W0NIM11bQ0BASF0xW0NIMl1OKFtDSDJdW0NASF0oTzEpW0NIM10pW0NAQEhdKFtDSF0oW0NIM10pW0NIM10pQyg9TylbTkhdW0NIMl1bQ0gyXWMyW2NIXVtjSF1bY0hdW2NIXW4y

> <s_epik_cmdline>
J2VwaWtfcHl0aG9uJywgJy1waCcsICc3LjAnLCAnLXRuJywgJzgnLCAnLW1hJywgJzIwMCcsICctbWV0YWxfYmluZGluZycsICctaW1hZScsICc8aW5maWxlLm1hZT4nLCAnLW9tYWUnLCAnPG91dGZpbGUubWFlPic=

> <r_epik_Ionization_Penalty>
7.82966

> <r_epik_Ionization_Penalty_Charging>
7.7461

> <r_epik_Ionization_Penalty_Neutral>
0.0835571

> <r_epik_State_Penalty>
8.52273

> <r_epik_Charging_Adjusted_Penalty>
16.2688

> <i_epik_Tot_Q>
0

> <i_epik_Tot_abs_Q>
2

> <r_epik_Metal_State_Penalty>
4.47451

> <b_epik_Metal_Only>
1

> <s_lp_Force_Field>
OPLS_2005

> <r_lp_Energy>
21.2393

> <b_lp_Chiralities_Consistent>
1

> <s_lp_Variant>
AV-unprocessed.smi:1762-27

> <Gold.Version>
5.8.1

> <Gold.Id.Protein>
6NUR|6NUR_protein|mol2

> <Gold.PLP.Fitness>
43.6190

> <Gold.PLP.PLP>
-32.6812

> <Gold.PLP.part.hbond>
-2.0000

> <Gold.PLP.part.metal>
0.0000

> <Gold.PLP.part.buried>
-4.6209

> <Gold.PLP.part.nonpolar>
-26.7034

> <Gold.PLP.part.repulsive>
0.5465

> <Gold.PLP.ligand.clash>
0.0000

> <Gold.PLP.ligand.torsion>
0.7205

> <Gold.PLP.Chemscore.Hbond>
2.9920

> <Gold.PLP.Chemscore.CHOScore>
1.0000

> <Gold.PLP.Chemscore.Metal>
0.0000

> <Gold.Chemscore.Hbonds>
donor molecule, donor type, donor heavy atom, donor atom, acceptor molecule, acceptor atom, score
      L1  H     4    52       P1  7948  2.00
      P1  H  7989  7998       L1    16  0.82
      L1  C    15    38       P1  8028  0.94

> <Gold.PLP.Chemscore.Internal.Correction>
0.4027

> <Gold.Rescore>
     Score         DG    S(hbond)    S(metal)    S(lipo)     H(rot)  DE(clash)    DE(int)     intcor
     15.63     -16.45       1.71        0.00      80.07       1.60       0.02       0.80       ----

> <Gold.Chemscore.Fitness>
15.6301

> <Gold.Chemscore.DG>
-16.4543

> <Gold.Chemscore.ZeroCoef>
-5.4800

> <Gold.Chemscore.Hbond>
1.7082

> <Gold.Chemscore.Metal>
0.0000

> <Gold.Chemscore.Lipo>
80.0673

> <Gold.Chemscore.Internal_Hbond>
0.0000

> <Gold.Chemscore.DEClash>
0.0222

> <Gold.Chemscore.DEInternal>
0.8020

> <Gold.Chemscore.Rot>
1.6012

> <Gold.Chemscore.Internal.Correction>
   9.000000E+99

> <Gold.Chemscore.Hbonds>
donor molecule, donor type, donor heavy atom, donor atom, acceptor molecule, acceptor atom, score
      L1  H     4    52       P1  7948  0.98
      P1  H  7989  7998       L1    16  0.12

> <Gold.Chemscore.Hbond.Weighted>
-5.7054

> <Gold.Chemscore.Metal.Weighted>
-0.0000

> <Gold.Chemscore.Lipo.Weighted>
-9.3679

> <Gold.Chemscore.Internal_Hbond.Weighted>
0.0000

> <Gold.Chemscore.DEClash.Weighted>
0.0222

> <Gold.Chemscore.DEInternal.Weighted>
0.8020

> <Gold.Chemscore.Rot.Weighted>
4.0990

> <Gold.Chemscore.Internal.Correction.Weighted>
   9.000000E+99

> <Gold.Protein.RotatedTorsions>
[ 6907 6896 6895 6894 ] final  -40.61 input  -60.11 | X-H torsion
[ 7974 7965 7964 7962 ] final   24.45 input  175.53 | X-H torsion
[ 8008 7997 7996 7995 ] final  -55.29 input   59.86 | X-H torsion
[ 10167 10162 10161 10158 ] final   14.02 input  -65.29 | X-H torsion
[ 10718 10713 10712 10709 ] final -103.39 input   66.30 | X-H torsion
[ 10763 10752 10751 10750 ] final  113.11 input  -60.55 | X-H torsion
[ 11005 11000 10999 10996 ] final -136.29 input  -57.11 | X-H torsion

> <Gold.Protein.ActiveResidues>
 VAL166  LYS551  ARG553  GLY616  TRP617  ASP618  TYR619  PRO620  LYS621  CYS622 
 ASP623  PHE694  ASN695  SER759  ASP760  ASP761  ALA762  ILE779  LEU786  VAL792 
 PHE793  MET794  SER795  GLU796  ALA797  LYS798  CYS799  TRP800  GLU811  SER814 

> <Gold.Protein.RotatedAtoms>
  150.9764  134.9127  159.7818 H   0  0  0  0  0  0  0  0  0  0  0  0  # atno 6907 bound_to 6896
  152.5207  134.3470  159.9247 H   0  0  0  0  0  0  0  0  0  0  0  0  # atno 6908 bound_to 6896
  151.3478  133.3896  159.2712 H   0  0  0  0  0  0  0  0  0  0  0  0  # atno 6909 bound_to 6896
  146.1937  139.7603  142.8813 H   0  0  0  0  0  0  0  0  0  0  0  0  # atno 7974 bound_to 7965
  154.4190  140.1156  156.5452 H   0  0  0  0  0  0  0  0  0  0  0  0  # atno 8008 bound_to 7997
  155.6466  140.3496  155.4714 H   0  0  0  0  0  0  0  0  0  0  0  0  # atno 8009 bound_to 7997
  155.9827  140.1163  157.0702 H   0  0  0  0  0  0  0  0  0  0  0  0  # atno 8010 bound_to 7997
  140.5964  143.8693  150.6922 H   0  0  0  0  0  0  0  0  0  0  0  0  # atno 10167 bound_to 10162
  156.0263  130.5465  150.7245 H   0  0  0  0  0  0  0  0  0  0  0  0  # atno 10718 bound_to 10713
  153.4877  135.3665  155.2475 H   0  0  0  0  0  0  0  0  0  0  0  0  # atno 10763 bound_to 10752
  154.8753  135.3969  154.3625 H   0  0  0  0  0  0  0  0  0  0  0  0  # atno 10764 bound_to 10752
  153.4239  135.7081  153.6341 H   0  0  0  0  0  0  0  0  0  0  0  0  # atno 10765 bound_to 10752
  140.8819  134.1921  157.4586 H   0  0  0  0  0  0  0  0  0  0  0  0  # atno 11005 bound_to 11000
  145.3712  141.0343  143.3230 LP  0  0  0  0  0  0  0  0  0  0  0  0  # atno 17320 bound_to 7965
  144.8537  139.5283  143.6844 LP  0  0  0  0  0  0  0  0  0  0  0  0  # atno 17321 bound_to 7965
  140.2229  143.3795  152.1628 LP  0  0  0  0  0  0  0  0  0  0  0  0  # atno 17342 bound_to 10162
  139.5261  144.7103  151.5225 LP  0  0  0  0  0  0  0  0  0  0  0  0  # atno 17343 bound_to 10162
  157.4853  131.0906  151.0490 LP  0  0  0  0  0  0  0  0  0  0  0  0  # atno 17370 bound_to 10713
  157.0912  130.5943  149.5440 LP  0  0  0  0  0  0  0  0  0  0  0  0  # atno 17371 bound_to 10713
  139.8720  134.9821  156.5142 LP  0  0  0  0  0  0  0  0  0  0  0  0  # atno 17394 bound_to 11000
  140.8451  133.8175  155.9113 LP  0  0  0  0  0  0  0  0  0  0  0  0  # atno 17395 bound_to 11000

$$$$
