AV-unprocessed.smi:2520|AV-procd|sdf|9913|dock3
  -GOLD-   2272013553D 1   1.00000     0.00000
 Structure written by MMmdl.
 41 44  0  0  0  0  0  0  0  0  1 V2000
  145.8970  137.7624  154.6643 O   0  0  0  0  0  0  0  0  0  0  0  0
  146.7109  137.2491  153.8987 C   0  0  0  0  0  0  0  0  0  0  0  0
  147.8540  137.8852  153.5641 N   0  0  0  0  0  0  0  0  0  0  0  0
  148.3706  139.1569  153.9511 C   0  0  0  0  0  0  0  0  0  0  0  0
  147.4089  140.1871  154.0313 C   0  0  0  0  0  0  0  0  0  0  0  0
  147.8330  141.4711  154.4137 C   0  0  0  0  0  0  0  0  0  0  0  0
  149.1992  141.6407  154.6949 C   0  0  0  0  0  0  0  0  0  0  0  0
  150.0871  140.6272  154.6084 N   0  0  0  0  0  0  0  0  0  0  0  0
  149.6745  139.4088  154.2443 N   0  0  0  0  0  0  0  0  0  0  0  0
  146.5243  136.0399  153.3489 N   0  0  0  0  0  0  0  0  0  0  0  0
  145.3734  135.1670  153.5970 C   0  0  2  0  0  0  0  0  0  0  0  0
  145.2525  134.0051  152.6062 C   0  0  2  0  0  0  0  0  0  0  0  0
  146.1786  133.2963  151.6846 C   0  0  0  0  0  0  0  0  0  0  0  0
  145.2110  133.1895  150.4766 C   0  0  0  0  0  0  0  0  0  0  0  0
  144.0678  134.0183  150.8071 O   0  0  0  0  0  0  0  0  0  0  0  0
  144.5941  135.0031  151.6759 C   0  0  1  0  0  0  0  0  0  0  0  0
  144.0264  135.6728  152.9502 C   0  0  0  0  0  0  0  0  0  0  0  0
  142.7006  135.1098  153.5021 C   0  0  0  0  0  0  0  0  0  0  0  0
  141.7866  136.2855  153.8507 C   0  0  0  0  0  0  0  0  0  0  0  0
  142.2834  137.4241  152.9723 C   0  0  0  0  0  0  0  0  0  0  0  0
  143.7886  137.1876  152.8933 C   0  0  0  0  0  0  0  0  0  0  0  0
  148.4254  137.3903  152.8950 H   0  0  0  0  0  0  0  0  0  0  0  0
  146.3689  140.0012  153.8053 H   0  0  0  0  0  0  0  0  0  0  0  0
  147.1379  142.2939  154.4892 H   0  0  0  0  0  0  0  0  0  0  0  0
  149.5875  142.6030  154.9942 H   0  0  0  0  0  0  0  0  0  0  0  0
  147.2381  135.6887  152.7263 H   0  0  0  0  0  0  0  0  0  0  0  0
  145.2640  134.8681  154.6405 H   0  0  0  0  0  0  0  0  0  0  0  0
  144.5358  133.2849  153.0140 H   0  0  0  0  0  0  0  0  0  0  0  0
  147.0620  133.8906  151.4480 H   0  0  0  0  0  0  0  0  0  0  0  0
  146.4911  132.3226  152.0622 H   0  0  0  0  0  0  0  0  0  0  0  0
  145.6893  133.5479  149.5643 H   0  0  0  0  0  0  0  0  0  0  0  0
  144.8824  132.1639  150.3066 H   0  0  0  0  0  0  0  0  0  0  0  0
  145.2949  135.6494  151.1372 H   0  0  0  0  0  0  0  0  0  0  0  0
  142.2120  134.4927  152.7469 H   0  0  0  0  0  0  0  0  0  0  0  0
  142.8521  134.4721  154.3736 H   0  0  0  0  0  0  0  0  0  0  0  0
  140.7312  136.0610  153.6941 H   0  0  0  0  0  0  0  0  0  0  0  0
  141.9185  136.5519  154.9002 H   0  0  0  0  0  0  0  0  0  0  0  0
  141.8443  137.3397  151.9773 H   0  0  0  0  0  0  0  0  0  0  0  0
  142.0300  138.4073  153.3699 H   0  0  0  0  0  0  0  0  0  0  0  0
  144.2672  137.6717  153.7457 H   0  0  0  0  0  0  0  0  0  0  0  0
  144.2105  137.6430  151.9966 H   0  0  0  0  0  0  0  0  0  0  0  0
  1  2  2  0  0  0  0
  2  3  1  0  0  0  0
  2 10  1  0  0  0  0
  3  4  1  0  0  0  0
  3 22  1  0  0  0  0
  4  9  1  0  0  0  0
  4  5  2  0  0  0  0
  5  6  1  0  0  0  0
  5 23  1  0  0  0  0
  6  7  2  0  0  0  0
  6 24  1  0  0  0  0
  7  8  1  0  0  0  0
  7 25  1  0  0  0  0
  8  9  2  0  0  0  0
 10 11  1  0  0  0  0
 10 26  1  0  0  0  0
 11 17  1  0  0  0  0
 11 12  1  0  0  0  0
 11 27  1  0  0  0  0
 12 16  1  0  0  0  0
 12 13  1  0  0  0  0
 12 28  1  0  0  0  0
 13 14  1  0  0  0  0
 13 29  1  0  0  0  0
 13 30  1  0  0  0  0
 14 15  1  0  0  0  0
 14 31  1  0  0  0  0
 14 32  1  0  0  0  0
 15 16  1  0  0  0  0
 16 17  1  0  0  0  0
 16 33  1  0  0  0  0
 17 21  1  0  0  0  0
 17 18  1  0  0  0  0
 18 19  1  0  0  0  0
 18 34  1  0  0  0  0
 18 35  1  0  0  0  0
 19 20  1  0  0  0  0
 19 36  1  0  0  0  0
 19 37  1  0  0  0  0
 20 21  1  0  0  0  0
 20 38  1  0  0  0  0
 20 39  1  0  0  0  0
 21 40  1  0  0  0  0
 21 41  1  0  0  0  0
M  END
> <s_m_source_file>
AV-unprocessed.smi

> <i_m_source_file_index>
2520

> <i_lp_mmshare_version>
43012

> <i_f3d_flags>
0

> <s_epik_input>
bjFuW2NIXVtjSF1bY0hdYzFbTkhdQyg9TylbTkhdW0NAQEhdMltDQEBIXShbQ0gyXVtDSDJdTzMpW0NASF0zQzI0W0NIMl1bQ0gyXVtDSDJdW0NIMl00

> <s_epik_cmdline>
J2VwaWtfcHl0aG9uJywgJy1waCcsICc3LjAnLCAnLXRuJywgJzgnLCAnLW1hJywgJzIwMCcsICctbWV0YWxfYmluZGluZycsICctaW1hZScsICc8aW5maWxlLm1hZT4nLCAnLW9tYWUnLCAnPG91dGZpbGUubWFlPic=

> <r_lp_tautomer_probability>
1

> <r_epik_Ionization_Penalty>
0.00552561

> <r_epik_Ionization_Penalty_Charging>
0

> <r_epik_Ionization_Penalty_Neutral>
0.00552561

> <r_epik_State_Penalty>
-0

> <r_epik_Charging_Adjusted_Penalty>
0

> <i_epik_Tot_Q>
0

> <i_epik_Tot_abs_Q>
0

> <r_epik_Metal_State_Penalty>
-0

> <b_epik_Metal_Only>
0

> <s_lp_Force_Field>
OPLS_2005

> <r_lp_Energy>
86.2541

> <b_lp_Chiralities_Consistent>
1

> <s_lp_Variant>
AV-unprocessed.smi:2520-7

> <Gold.Version>
5.8.1

> <Gold.Id.Protein>
6NUR|6NUR_protein|mol2

> <Gold.PLP.Fitness>
41.0074

> <Gold.PLP.PLP>
-30.5466

> <Gold.PLP.part.hbond>
-3.0000

> <Gold.PLP.part.metal>
0.0000

> <Gold.PLP.part.buried>
-5.2082

> <Gold.PLP.part.nonpolar>
-22.5601

> <Gold.PLP.part.repulsive>
0.5425

> <Gold.PLP.ligand.clash>
0.0000

> <Gold.PLP.ligand.torsion>
0.4502

> <Gold.PLP.Chemscore.Hbond>
2.6960

> <Gold.PLP.Chemscore.CHOScore>
1.0000

> <Gold.PLP.Chemscore.Metal>
0.0000

> <Gold.Chemscore.Hbonds>
donor molecule, donor type, donor heavy atom, donor atom, acceptor molecule, acceptor atom, score
      L1  H     3    22       P1  7948  1.00
      L1  H    10    26       P1  7948  0.85
      P1  H  7989  7998       L1     8  0.85
      L1  C     7    25       P1  8028  1.00

> <Gold.PLP.Chemscore.Internal.Correction>
0.2731

> <Gold.Rescore>
     Score         DG    S(hbond)    S(metal)    S(lipo)     H(rot)  DE(clash)    DE(int)     intcor
     15.63     -17.45       2.22        0.00      60.97       1.00       0.13       1.69       ----

> <Gold.Chemscore.Fitness>
15.6293

> <Gold.Chemscore.DG>
-17.4523

> <Gold.Chemscore.ZeroCoef>
-5.4800

> <Gold.Chemscore.Hbond>
2.2152

> <Gold.Chemscore.Metal>
0.0000

> <Gold.Chemscore.Lipo>
60.9690

> <Gold.Chemscore.Internal_Hbond>
0.0000

> <Gold.Chemscore.DEClash>
0.1288

> <Gold.Chemscore.DEInternal>
1.6943

> <Gold.Chemscore.Rot>
1.0000

> <Gold.Chemscore.Internal.Correction>
   9.000000E+99

> <Gold.Chemscore.Hbonds>
donor molecule, donor type, donor heavy atom, donor atom, acceptor molecule, acceptor atom, score
      L1  H     3    22       P1  7948  0.99
      L1  H    10    26       P1  7948  0.81
      P1  H  7989  7998       L1     8  0.27

> <Gold.Chemscore.Hbond.Weighted>
-7.3989

> <Gold.Chemscore.Metal.Weighted>
-0.0000

> <Gold.Chemscore.Lipo.Weighted>
-7.1334

> <Gold.Chemscore.Internal_Hbond.Weighted>
0.0000

> <Gold.Chemscore.DEClash.Weighted>
0.1288

> <Gold.Chemscore.DEInternal.Weighted>
1.6943

> <Gold.Chemscore.Rot.Weighted>
2.5600

> <Gold.Chemscore.Internal.Correction.Weighted>
   9.000000E+99

> <Gold.Protein.RotatedTorsions>
[ 6907 6896 6895 6894 ] final  166.42 input  -60.11 | X-H torsion
[ 7974 7965 7964 7962 ] final  -46.54 input  175.53 | X-H torsion
[ 8008 7997 7996 7995 ] final   45.21 input   59.86 | X-H torsion
[ 10167 10162 10161 10158 ] final  -39.00 input  -65.29 | X-H torsion
[ 10718 10713 10712 10709 ] final   -4.62 input   66.30 | X-H torsion
[ 10763 10752 10751 10750 ] final -162.48 input  -60.55 | X-H torsion
[ 11005 11000 10999 10996 ] final   90.86 input  -57.11 | X-H torsion

> <Gold.Protein.ActiveResidues>
 VAL166  LYS551  ARG553  GLY616  TRP617  ASP618  TYR619  PRO620  LYS621  CYS622 
 ASP623  PHE694  ASN695  SER759  ASP760  ASP761  ALA762  ILE779  LEU786  VAL792 
 PHE793  MET794  SER795  GLU796  ALA797  LYS798  CYS799  TRP800  GLU811  SER814 

> <Gold.Protein.RotatedAtoms>
  151.8792  133.3492  159.3760 H   0  0  0  0  0  0  0  0  0  0  0  0  # atno 6907 bound_to 6896
  150.7132  134.5035  159.5582 H   0  0  0  0  0  0  0  0  0  0  0  0  # atno 6908 bound_to 6896
  152.2583  134.8061  160.0485 H   0  0  0  0  0  0  0  0  0  0  0  0  # atno 6909 bound_to 6896
  145.9709  140.7384  142.9411 H   0  0  0  0  0  0  0  0  0  0  0  0  # atno 7974 bound_to 7965
  155.3322  140.3403  155.4239 H   0  0  0  0  0  0  0  0  0  0  0  0  # atno 8008 bound_to 7997
  156.1856  140.1679  156.8228 H   0  0  0  0  0  0  0  0  0  0  0  0  # atno 8009 bound_to 7997
  154.5382  140.0730  156.8448 H   0  0  0  0  0  0  0  0  0  0  0  0  # atno 8010 bound_to 7997
  140.7076  143.3242  151.2720 H   0  0  0  0  0  0  0  0  0  0  0  0  # atno 10167 bound_to 10162
  156.7585  130.5262  149.5789 H   0  0  0  0  0  0  0  0  0  0  0  0  # atno 10718 bound_to 10713
  154.7210  135.3026  154.9047 H   0  0  0  0  0  0  0  0  0  0  0  0  # atno 10763 bound_to 10752
  153.9919  135.6717  153.4758 H   0  0  0  0  0  0  0  0  0  0  0  0  # atno 10764 bound_to 10752
  153.0834  135.4997  154.8466 H   0  0  0  0  0  0  0  0  0  0  0  0  # atno 10765 bound_to 10752
  139.8848  134.8639  156.3345 H   0  0  0  0  0  0  0  0  0  0  0  0  # atno 11005 bound_to 11000
  144.6836  140.2747  143.7301 LP  0  0  0  0  0  0  0  0  0  0  0  0  # atno 17320 bound_to 7965
  145.7908  139.1926  143.2104 LP  0  0  0  0  0  0  0  0  0  0  0  0  # atno 17321 bound_to 7965
  139.6705  144.0029  152.2750 LP  0  0  0  0  0  0  0  0  0  0  0  0  # atno 17342 bound_to 10162
  139.9626  144.6548  150.8065 LP  0  0  0  0  0  0  0  0  0  0  0  0  # atno 17343 bound_to 10162
  156.1354  130.6207  151.0393 LP  0  0  0  0  0  0  0  0  0  0  0  0  # atno 17370 bound_to 10713
  157.6745  131.0853  150.7529 LP  0  0  0  0  0  0  0  0  0  0  0  0  # atno 17371 bound_to 10713
  140.9700  133.7333  156.0521 LP  0  0  0  0  0  0  0  0  0  0  0  0  # atno 17394 bound_to 11000
  140.7882  134.3647  157.5471 LP  0  0  0  0  0  0  0  0  0  0  0  0  # atno 17395 bound_to 11000

$$$$
