AV-unprocessed.smi:2003|AV-procd|sdf|8118|dock1
  -GOLD-   2272010353D 1   1.00000     0.00000
 Structure written by MMmdl.
 43 44  0  0  0  0  0  0  0  0  1 V2000
  152.1317  144.8991  158.5660 C   0  0  0  0  0  0  0  0  0  0  0  0
  152.5259  143.8028  159.5118 C   0  0  0  0  0  0  0  0  0  0  0  0
  152.9818  142.4910  159.1925 C   0  0  0  0  0  0  0  0  0  0  0  0
  153.1948  141.9365  160.4253 C   0  0  0  0  0  0  0  0  0  0  0  0
  153.6410  140.6894  160.7330 N   0  0  0  0  0  0  0  0  0  0  0  0
  154.5477  140.3239  161.6557 C   0  0  0  0  0  0  0  0  0  0  0  0
  155.1595  141.0903  162.4001 O   0  0  0  0  0  0  0  0  0  0  0  0
  154.7081  138.9928  161.6754 N   0  0  0  0  0  0  0  0  0  0  0  0
  155.5975  138.2709  162.5816 C   0  0  0  0  0  0  0  0  0  0  0  0
  155.1246  136.8186  162.8827 C   0  0  1  0  0  0  0  0  0  0  0  0
  153.6168  136.8506  163.2410 C   0  0  0  0  0  0  0  0  0  0  0  0
  155.4350  135.8614  161.7954 N   0  0  0  0  0  0  0  0  0  0  0  0
  154.7835  136.2206  160.5299 C   0  0  0  0  0  0  0  0  0  0  0  0
  155.0710  135.2162  159.4006 C   0  0  0  0  0  0  0  0  0  0  0  0
  154.6669  133.9152  159.8032 O   0  0  0  0  0  0  0  0  0  0  0  0
  155.3353  133.4929  160.9835 C   0  0  0  0  0  0  0  0  0  0  0  0
  155.0495  134.4840  162.1251 C   0  0  0  0  0  0  0  0  0  0  0  0
  152.8789  142.8676  161.3917 N   0  0  0  0  0  0  0  0  0  0  0  0
  152.9365  142.7722  162.8378 C   0  0  0  0  0  0  0  0  0  0  0  0
  152.4676  144.0201  160.8208 N   0  0  0  0  0  0  0  0  0  0  0  0
  152.0302  144.5223  157.5481 H   0  0  0  0  0  0  0  0  0  0  0  0
  152.8794  145.6924  158.5532 H   0  0  0  0  0  0  0  0  0  0  0  0
  151.1775  145.3435  158.8505 H   0  0  0  0  0  0  0  0  0  0  0  0
  153.1226  142.0529  158.2158 H   0  0  0  0  0  0  0  0  0  0  0  0
  153.2221  139.9408  160.2012 H   0  0  0  0  0  0  0  0  0  0  0  0
  154.1688  138.4360  161.0287 H   0  0  0  0  0  0  0  0  0  0  0  0
  156.5931  138.2524  162.1371 H   0  0  0  0  0  0  0  0  0  0  0  0
  155.6762  138.8742  163.4849 H   0  0  0  0  0  0  0  0  0  0  0  0
  155.6548  136.4865  163.7765 H   0  0  0  0  0  0  0  0  0  0  0  0
  153.3846  137.5944  164.0024 H   0  0  0  0  0  0  0  0  0  0  0  0
  153.2710  135.9051  163.6560 H   0  0  0  0  0  0  0  0  0  0  0  0
  153.0085  137.0782  162.3651 H   0  0  0  0  0  0  0  0  0  0  0  0
  153.7054  136.2985  160.6779 H   0  0  0  0  0  0  0  0  0  0  0  0
  155.1269  137.1939  160.1840 H   0  0  0  0  0  0  0  0  0  0  0  0
  154.5250  135.4947  158.4993 H   0  0  0  0  0  0  0  0  0  0  0  0
  156.1318  135.2144  159.1450 H   0  0  0  0  0  0  0  0  0  0  0  0
  154.9866  132.4956  161.2519 H   0  0  0  0  0  0  0  0  0  0  0  0
  156.4076  133.4173  160.7967 H   0  0  0  0  0  0  0  0  0  0  0  0
  155.5976  134.1264  162.9940 H   0  0  0  0  0  0  0  0  0  0  0  0
  153.9892  134.4470  162.3802 H   0  0  0  0  0  0  0  0  0  0  0  0
  153.1640  141.7527  163.1485 H   0  0  0  0  0  0  0  0  0  0  0  0
  151.9759  143.0613  163.2655 H   0  0  0  0  0  0  0  0  0  0  0  0
  153.7115  143.4384  163.2177 H   0  0  0  0  0  0  0  0  0  0  0  0
  1  2  1  0  0  0  0
  1 21  1  0  0  0  0
  1 22  1  0  0  0  0
  1 23  1  0  0  0  0
  2 20  2  0  0  0  0
  2  3  1  0  0  0  0
  3  4  2  0  0  0  0
  3 24  1  0  0  0  0
  4  5  1  0  0  0  0
  4 18  1  0  0  0  0
  5  6  1  0  0  0  0
  5 25  1  0  0  0  0
  6  7  2  0  0  0  0
  6  8  1  0  0  0  0
  8  9  1  0  0  0  0
  8 26  1  0  0  0  0
  9 10  1  0  0  0  0
  9 27  1  0  0  0  0
  9 28  1  0  0  0  0
 10 11  1  0  0  0  0
 10 12  1  0  0  0  0
 10 29  1  0  0  0  0
 11 30  1  0  0  0  0
 11 31  1  0  0  0  0
 11 32  1  0  0  0  0
 12 17  1  0  0  0  0
 12 13  1  0  0  0  0
 13 14  1  0  0  0  0
 13 33  1  0  0  0  0
 13 34  1  0  0  0  0
 14 15  1  0  0  0  0
 14 35  1  0  0  0  0
 14 36  1  0  0  0  0
 15 16  1  0  0  0  0
 16 17  1  0  0  0  0
 16 37  1  0  0  0  0
 16 38  1  0  0  0  0
 17 39  1  0  0  0  0
 17 40  1  0  0  0  0
 18 19  1  0  0  0  0
 18 20  1  0  0  0  0
 19 41  1  0  0  0  0
 19 42  1  0  0  0  0
 19 43  1  0  0  0  0
M  END
> <s_m_source_file>
AV-unprocessed.smi

> <i_m_source_file_index>
2003

> <i_lp_mmshare_version>
43012

> <i_f3d_flags>
0

> <s_epik_input>
W0NIM11jMVtjSF1jKG4objEpW0NIM10pW05IXUMoPU8pW05IXVtDSDJdW0NASF0oW0NIM10pTjJbQ0gyXVtDSDJdT1tDSDJdW0NIMl0y

> <s_epik_cmdline>
J2VwaWtfcHl0aG9uJywgJy1waCcsICc3LjAnLCAnLXRuJywgJzgnLCAnLW1hJywgJzIwMCcsICctbWV0YWxfYmluZGluZycsICctaW1hZScsICc8aW5maWxlLm1hZT4nLCAnLW9tYWUnLCAnPG91dGZpbGUubWFlPic=

> <r_lp_tautomer_probability>
1

> <r_epik_Ionization_Penalty>
0.233974

> <r_epik_Ionization_Penalty_Charging>
0

> <r_epik_Ionization_Penalty_Neutral>
0.233974

> <r_epik_State_Penalty>
0.224627

> <r_epik_Charging_Adjusted_Penalty>
0.224627

> <i_epik_Tot_Q>
0

> <i_epik_Tot_abs_Q>
0

> <r_epik_Metal_State_Penalty>
0.224624

> <b_epik_Metal_Only>
0

> <s_lp_Force_Field>
OPLS_2005

> <r_lp_Energy>
29.1269

> <b_lp_Chiralities_Consistent>
1

> <s_lp_Variant>
AV-unprocessed.smi:2003-2

> <Gold.Version>
5.8.1

> <Gold.Id.Protein>
6NUR|6NUR_protein|mol2

> <Gold.PLP.Fitness>
43.7282

> <Gold.PLP.PLP>
-41.9271

> <Gold.PLP.part.hbond>
-1.9196

> <Gold.PLP.part.metal>
0.0000

> <Gold.PLP.part.buried>
-4.2893

> <Gold.PLP.part.nonpolar>
-34.5931

> <Gold.PLP.part.repulsive>
0.1426

> <Gold.PLP.ligand.clash>
0.0000

> <Gold.PLP.ligand.torsion>
0.6646

> <Gold.PLP.Chemscore.Hbond>
1.0000

> <Gold.PLP.Chemscore.CHOScore>
0.0000

> <Gold.PLP.Chemscore.Metal>
0.0000

> <Gold.Chemscore.Hbonds>
donor molecule, donor type, donor heavy atom, donor atom, acceptor molecule, acceptor atom, score
      P1  H  6896  6908       L1    15  0.91

> <Gold.PLP.Chemscore.Internal.Correction>
0.1302

> <Gold.Rescore>
     Score         DG    S(hbond)    S(metal)    S(lipo)     H(rot)  DE(clash)    DE(int)     intcor
     10.30     -13.91       0.70        0.00      84.58       1.49       1.59       2.02       ----

> <Gold.Chemscore.Fitness>
10.2951

> <Gold.Chemscore.DG>
-13.9053

> <Gold.Chemscore.ZeroCoef>
-5.4800

> <Gold.Chemscore.Hbond>
0.7048

> <Gold.Chemscore.Metal>
0.0000

> <Gold.Chemscore.Lipo>
84.5756

> <Gold.Chemscore.Internal_Hbond>
0.0000

> <Gold.Chemscore.DEClash>
1.5866

> <Gold.Chemscore.DEInternal>
2.0237

> <Gold.Chemscore.Rot>
1.4938

> <Gold.Chemscore.Internal.Correction>
   9.000000E+99

> <Gold.Chemscore.Hbonds>
donor molecule, donor type, donor heavy atom, donor atom, acceptor molecule, acceptor atom, score
      P1  H  6896  6908       L1    15  0.26

> <Gold.Chemscore.Hbond.Weighted>
-2.3542

> <Gold.Chemscore.Metal.Weighted>
-0.0000

> <Gold.Chemscore.Lipo.Weighted>
-9.8953

> <Gold.Chemscore.Internal_Hbond.Weighted>
0.0000

> <Gold.Chemscore.DEClash.Weighted>
1.5866

> <Gold.Chemscore.DEInternal.Weighted>
2.0237

> <Gold.Chemscore.Rot.Weighted>
3.8242

> <Gold.Chemscore.Internal.Correction.Weighted>
   9.000000E+99

> <Gold.Protein.RotatedTorsions>
[ 6907 6896 6895 6894 ] final  -27.02 input  -60.11 | X-H torsion
[ 7974 7965 7964 7962 ] final  114.35 input  175.53 | X-H torsion
[ 8008 7997 7996 7995 ] final   92.58 input   59.86 | X-H torsion
[ 10167 10162 10161 10158 ] final  140.01 input  -65.29 | X-H torsion
[ 10718 10713 10712 10709 ] final -159.83 input   66.30 | X-H torsion
[ 10763 10752 10751 10750 ] final  117.29 input  -60.55 | X-H torsion
[ 11005 11000 10999 10996 ] final   65.51 input  -57.11 | X-H torsion

> <Gold.Protein.ActiveResidues>
 VAL166  LYS551  ARG553  GLY616  TRP617  ASP618  TYR619  PRO620  LYS621  CYS622 
 ASP623  PHE694  ASN695  SER759  ASP760  ASP761  ALA762  ILE779  LEU786  VAL792 
 PHE793  MET794  SER795  GLU796  ALA797  LYS798  CYS799  TRP800  GLU811  SER814 

> <Gold.Protein.RotatedAtoms>
  151.1528  135.0235  159.8675 H   0  0  0  0  0  0  0  0  0  0  0  0  # atno 6907 bound_to 6896
  152.5452  134.1369  159.8472 H   0  0  0  0  0  0  0  0  0  0  0  0  # atno 6908 bound_to 6896
  151.1456  133.4896  159.2629 H   0  0  0  0  0  0  0  0  0  0  0  0  # atno 6909 bound_to 6896
  145.2055  139.2931  143.4296 H   0  0  0  0  0  0  0  0  0  0  0  0  # atno 7974 bound_to 7965
  156.0369  140.3324  155.7201 H   0  0  0  0  0  0  0  0  0  0  0  0  # atno 8008 bound_to 7997
  155.5802  140.0636  157.2803 H   0  0  0  0  0  0  0  0  0  0  0  0  # atno 8009 bound_to 7997
  154.4376  140.1845  156.0956 H   0  0  0  0  0  0  0  0  0  0  0  0  # atno 8010 bound_to 7997
  139.5061  144.6260  151.5935 H   0  0  0  0  0  0  0  0  0  0  0  0  # atno 10167 bound_to 10162
  156.5735  130.8699  151.2844 H   0  0  0  0  0  0  0  0  0  0  0  0  # atno 10718 bound_to 10713
  153.5501  135.3541  155.2756 H   0  0  0  0  0  0  0  0  0  0  0  0  # atno 10763 bound_to 10752
  154.8707  135.4112  154.2946 H   0  0  0  0  0  0  0  0  0  0  0  0  # atno 10764 bound_to 10752
  153.3671  135.7062  153.6735 H   0  0  0  0  0  0  0  0  0  0  0  0  # atno 10765 bound_to 10752
  139.9890  134.6622  156.0125 H   0  0  0  0  0  0  0  0  0  0  0  0  # atno 11005 bound_to 11000
  146.3409  140.2314  142.8593 LP  0  0  0  0  0  0  0  0  0  0  0  0  # atno 17320 bound_to 7965
  144.9906  140.8543  143.5341 LP  0  0  0  0  0  0  0  0  0  0  0  0  # atno 17321 bound_to 7965
  140.5977  143.9665  150.6365 LP  0  0  0  0  0  0  0  0  0  0  0  0  # atno 17342 bound_to 10162
  140.2867  143.3352  152.1101 LP  0  0  0  0  0  0  0  0  0  0  0  0  # atno 17343 bound_to 10162
  157.7343  130.9743  150.2020 LP  0  0  0  0  0  0  0  0  0  0  0  0  # atno 17370 bound_to 10713
  156.2693  130.3720  149.8048 LP  0  0  0  0  0  0  0  0  0  0  0  0  # atno 17371 bound_to 10713
  141.1549  133.6544  156.4130 LP  0  0  0  0  0  0  0  0  0  0  0  0  # atno 17394 bound_to 11000
  140.4946  134.6543  157.5224 LP  0  0  0  0  0  0  0  0  0  0  0  0  # atno 17395 bound_to 11000

$$$$
