AV-unprocessed.smi:2059|AV-procd|sdf|8352|dock2
  -GOLD-   2272011 23D 1   1.00000     0.00000
 Structure written by MMmdl.
 29 30  0  0  0  0  0  0  0  0  2 V2000
  146.3062  131.1241  152.3737 C   0  0  0  0  0  0  0  0  0  0  0  0
  147.1777  132.0406  153.1621 C   0  0  0  0  0  0  0  0  0  0  0  0
  147.9714  133.0972  152.8152 C   0  0  0  0  0  0  0  0  0  0  0  0
  148.5203  133.5144  154.0580 C   0  0  0  0  0  0  0  0  0  0  0  0
  149.4190  134.6190  154.1040 N   0  0  0  0  0  0  0  0  0  0  0  0
  150.3551  134.9752  155.0100 C   0  0  0  0  0  0  0  0  0  0  0  0
  150.4612  134.2140  155.9771 O   0  0  0  0  0  0  0  0  0  0  0  0
  151.0795  136.1095  154.7837 N   0  5  0  0  0  0  0  0  0  0  0  0
  151.2716  137.1977  155.7453 C   0  0  2  0  0  0  0  0  0  0  0  0
  149.9198  137.6563  156.3266 C   0  0  0  0  0  0  0  0  0  0  0  0
  150.1225  139.0000  157.0419 C   0  0  0  0  0  0  0  0  0  0  0  0
  151.4555  139.8599  156.1198 S   0  0  0  0  0  0  0  0  0  0  0  0
  150.8679  140.8996  155.2604 O   0  0  0  0  0  0  0  0  0  0  0  0
  152.5480  140.1834  157.0510 O   0  0  0  0  0  0  0  0  0  0  0  0
  151.9286  138.4197  155.0843 C   0  0  0  0  0  0  0  0  0  0  0  0
  148.0913  132.7758  155.0722 N   0  0  0  0  0  0  0  0  0  0  0  0
  147.2310  131.8291  154.5042 O   0  0  0  0  0  0  0  0  0  0  0  0
  146.4283  131.2942  151.3039 H   0  0  0  0  0  0  0  0  0  0  0  0
  145.2568  131.2798  152.6237 H   0  0  0  0  0  0  0  0  0  0  0  0
  146.5536  130.0826  152.5803 H   0  0  0  0  0  0  0  0  0  0  0  0
  148.1341  133.5049  151.8286 H   0  0  0  0  0  0  0  0  0  0  0  0
  149.3459  135.2459  153.3167 H   0  0  0  0  0  0  0  0  0  0  0  0
  151.8974  136.8926  156.5857 H   0  0  0  0  0  0  0  0  0  0  0  0
  149.2052  137.7992  155.5141 H   0  0  0  0  0  0  0  0  0  0  0  0
  149.4929  136.9097  156.9970 H   0  0  0  0  0  0  0  0  0  0  0  0
  149.2199  139.6106  157.0549 H   0  0  0  0  0  0  0  0  0  0  0  0
  150.4578  138.8549  158.0701 H   0  0  0  0  0  0  0  0  0  0  0  0
  153.0137  138.3369  155.0234 H   0  0  0  0  0  0  0  0  0  0  0  0
  151.5344  138.5877  154.0814 H   0  0  0  0  0  0  0  0  0  0  0  0
  1  2  1  0  0  0  0
  1 18  1  0  0  0  0
  1 19  1  0  0  0  0
  1 20  1  0  0  0  0
  2 17  1  0  0  0  0
  2  3  2  0  0  0  0
  3  4  1  0  0  0  0
  3 21  1  0  0  0  0
  4  5  1  0  0  0  0
  4 16  2  0  0  0  0
  5  6  1  0  0  0  0
  5 22  1  0  0  0  0
  6  7  2  0  0  0  0
  6  8  1  0  0  0  0
  8  9  1  0  0  0  0
  9 15  1  0  0  0  0
  9 10  1  0  0  0  0
  9 23  1  0  0  0  0
 10 11  1  0  0  0  0
 10 24  1  0  0  0  0
 10 25  1  0  0  0  0
 11 12  1  0  0  0  0
 11 26  1  0  0  0  0
 11 27  1  0  0  0  0
 12 13  2  0  0  0  0
 12 14  2  0  0  0  0
 12 15  1  0  0  0  0
 15 28  1  0  0  0  0
 15 29  1  0  0  0  0
 16 17  1  0  0  0  0
M  CHG  1   8  -1
M  END
> <s_m_source_file>
AV-unprocessed.smi

> <i_m_source_file_index>
2059

> <i_lp_mmshare_version>
43012

> <i_f3d_flags>
0

> <s_epik_input>
W0NIM11jMVtjSF1jKG5vMSlbTkhdQyg9TylbTkhdW0NAQEhdKFtDSDJdMilbQ0gyXVtDSDJdUzIoPU8pPU8=

> <s_epik_cmdline>
J2VwaWtfcHl0aG9uJywgJy1waCcsICc3LjAnLCAnLXRuJywgJzgnLCAnLW1hJywgJzIwMCcsICctbWV0YWxfYmluZGluZycsICctaW1hZScsICc8aW5maWxlLm1hZT4nLCAnLW9tYWUnLCAnPG91dGZpbGUubWFlPic=

> <r_lp_tautomer_probability>
1

> <r_epik_Ionization_Penalty>
6.6071

> <r_epik_Ionization_Penalty_Charging>
6.60709

> <r_epik_Ionization_Penalty_Neutral>
5.42629e-06

> <r_epik_State_Penalty>
6.6352

> <r_epik_Charging_Adjusted_Penalty>
13.2423

> <i_epik_Tot_Q>
-1

> <i_epik_Tot_abs_Q>
1

> <r_epik_Metal_State_Penalty>
2.57602

> <b_epik_Metal_Only>
1

> <s_lp_Force_Field>
OPLS_2005

> <r_lp_Energy>
11.3724

> <b_lp_Chiralities_Consistent>
1

> <s_lp_Variant>
AV-unprocessed.smi:2059-5

> <Gold.Version>
5.8.1

> <Gold.Id.Protein>
6NUR|6NUR_protein|mol2

> <Gold.PLP.Fitness>
35.3417

> <Gold.PLP.PLP>
-23.0840

> <Gold.PLP.part.hbond>
-4.0000

> <Gold.PLP.part.metal>
0.0000

> <Gold.PLP.part.buried>
-1.6276

> <Gold.PLP.part.nonpolar>
-16.5653

> <Gold.PLP.part.repulsive>
0.3339

> <Gold.PLP.ligand.clash>
0.0000

> <Gold.PLP.ligand.torsion>
0.6493

> <Gold.PLP.Chemscore.Hbond>
4.5180

> <Gold.PLP.Chemscore.CHOScore>
0.0000

> <Gold.PLP.Chemscore.Metal>
0.0000

> <Gold.Chemscore.Hbonds>
donor molecule, donor type, donor heavy atom, donor atom, acceptor molecule, acceptor atom, score
      L1  H     5    22       P1  7948  0.75
      P1  H  7989  7998       L1    13  0.77
      P1  H  7997  8009       L1    14  1.00
      P1  H 10752 10764       L1     8  1.90

> <Gold.PLP.Chemscore.Internal.Correction>
0.0023

> <Gold.Rescore>
     Score         DG    S(hbond)    S(metal)    S(lipo)     H(rot)  DE(clash)    DE(int)     intcor
     11.93     -13.81       2.08        0.00      33.66       1.00       0.02       1.86       ----

> <Gold.Chemscore.Fitness>
11.9278

> <Gold.Chemscore.DG>
-13.8093

> <Gold.Chemscore.ZeroCoef>
-5.4800

> <Gold.Chemscore.Hbond>
2.0811

> <Gold.Chemscore.Metal>
0.0000

> <Gold.Chemscore.Lipo>
33.6613

> <Gold.Chemscore.Internal_Hbond>
0.0000

> <Gold.Chemscore.DEClash>
0.0234

> <Gold.Chemscore.DEInternal>
1.8580

> <Gold.Chemscore.Rot>
1.0000

> <Gold.Chemscore.Internal.Correction>
   9.000000E+99

> <Gold.Chemscore.Hbonds>
donor molecule, donor type, donor heavy atom, donor atom, acceptor molecule, acceptor atom, score
      L1  H     5    22       P1  7948  0.09
      P1  H  7989  7998       L1    13  0.62
      P1  H  7997  8009       L1    14  0.96
      P1  H 10752 10764       L1     8  0.13

> <Gold.Chemscore.Hbond.Weighted>
-6.9509

> <Gold.Chemscore.Metal.Weighted>
-0.0000

> <Gold.Chemscore.Lipo.Weighted>
-3.9384

> <Gold.Chemscore.Internal_Hbond.Weighted>
0.0000

> <Gold.Chemscore.DEClash.Weighted>
0.0234

> <Gold.Chemscore.DEInternal.Weighted>
1.8580

> <Gold.Chemscore.Rot.Weighted>
2.5600

> <Gold.Chemscore.Internal.Correction.Weighted>
   9.000000E+99

> <Gold.Protein.RotatedTorsions>
[ 6907 6896 6895 6894 ] final  -43.54 input  -60.11 | X-H torsion
[ 7974 7965 7964 7962 ] final   85.67 input  175.53 | X-H torsion
[ 8008 7997 7996 7995 ] final -177.27 input   59.86 | X-H torsion
[ 10167 10162 10161 10158 ] final -136.22 input  -65.29 | X-H torsion
[ 10718 10713 10712 10709 ] final   19.13 input   66.30 | X-H torsion
[ 10763 10752 10751 10750 ] final  -59.84 input  -60.55 | X-H torsion
[ 11005 11000 10999 10996 ] final -111.81 input  -57.11 | X-H torsion

> <Gold.Protein.ActiveResidues>
 VAL166  LYS551  ARG553  GLY616  TRP617  ASP618  TYR619  PRO620  LYS621  CYS622 
 ASP623  PHE694  ASN695  SER759  ASP760  ASP761  ALA762  ILE779  LEU786  VAL792 
 PHE793  MET794  SER795  GLU796  ALA797  LYS798  CYS799  TRP800  GLU811  SER814 

> <Gold.Protein.RotatedAtoms>
  150.9428  134.8836  159.7622 H   0  0  0  0  0  0  0  0  0  0  0  0  # atno 6907 bound_to 6896
  152.5087  134.3917  159.9396 H   0  0  0  0  0  0  0  0  0  0  0  0  # atno 6908 bound_to 6896
  151.3937  133.3740  159.2759 H   0  0  0  0  0  0  0  0  0  0  0  0  # atno 6909 bound_to 6896
  145.5824  139.2327  143.2345 H   0  0  0  0  0  0  0  0  0  0  0  0  # atno 7974 bound_to 7965
  156.0050  140.1228  157.0510 H   0  0  0  0  0  0  0  0  0  0  0  0  # atno 8008 bound_to 7997
  154.4255  140.1099  156.5818 H   0  0  0  0  0  0  0  0  0  0  0  0  # atno 8009 bound_to 7997
  155.6160  140.3472  155.4639 H   0  0  0  0  0  0  0  0  0  0  0  0  # atno 8010 bound_to 7997
  139.8700  143.6969  152.2641 H   0  0  0  0  0  0  0  0  0  0  0  0  # atno 10167 bound_to 10162
  157.1061  130.6489  149.5885 H   0  0  0  0  0  0  0  0  0  0  0  0  # atno 10718 bound_to 10713
  154.2599  135.6310  153.5271 H   0  0  0  0  0  0  0  0  0  0  0  0  # atno 10763 bound_to 10752
  152.9897  135.5585  154.5716 H   0  0  0  0  0  0  0  0  0  0  0  0  # atno 10764 bound_to 10752
  154.5262  135.2885  155.1195 H   0  0  0  0  0  0  0  0  0  0  0  0  # atno 10765 bound_to 10752
  141.0712  133.9376  157.2480 H   0  0  0  0  0  0  0  0  0  0  0  0  # atno 11005 bound_to 11000
  146.1706  140.6650  142.9235 LP  0  0  0  0  0  0  0  0  0  0  0  0  # atno 17320 bound_to 7965
  144.7388  140.4884  143.6884 LP  0  0  0  0  0  0  0  0  0  0  0  0  # atno 17321 bound_to 7965
  139.7293  144.7586  151.0828 LP  0  0  0  0  0  0  0  0  0  0  0  0  # atno 17342 bound_to 10162
  140.7762  143.5108  150.9655 LP  0  0  0  0  0  0  0  0  0  0  0  0  # atno 17343 bound_to 10162
  155.9861  130.4895  150.7066 LP  0  0  0  0  0  0  0  0  0  0  0  0  # atno 17370 bound_to 10713
  157.4599  131.0882  151.0757 LP  0  0  0  0  0  0  0  0  0  0  0  0  # atno 17371 bound_to 10713
  139.9526  135.0172  156.9036 LP  0  0  0  0  0  0  0  0  0  0  0  0  # atno 17394 bound_to 11000
  140.5669  134.0481  155.7417 LP  0  0  0  0  0  0  0  0  0  0  0  0  # atno 17395 bound_to 11000

$$$$
