AV-unprocessed.smi:500|AV-procd|sdf|2738|dock2
  -GOLD-   2262023193D 1   1.00000     0.00000
 Structure written by MMmdl.
 44 46  0  0  0  0  0  0  0  0  2 V2000
  157.4998  140.1966  159.1099 C   0  0  0  0  0  0  0  0  0  0  0  0
  156.2637  140.4152  159.9852 C   0  0  0  0  0  0  0  0  0  0  0  0
  155.1206  139.9426  159.2872 O   0  0  0  0  0  0  0  0  0  0  0  0
  153.9029  140.1149  159.9976 C   0  0  0  0  0  0  0  0  0  0  0  0
  152.6893  139.7314  159.1330 C   0  0  0  0  0  0  0  0  0  0  0  0
  152.1819  140.8767  158.3753 N   0  0  0  0  0  0  0  0  0  0  0  0
  151.6776  140.9478  157.1039 C   0  0  0  0  0  0  0  0  0  0  0  0
  151.5384  139.7564  156.1682 C   0  0  2  0  0  0  0  0  0  0  0  0
  152.9140  139.1929  155.7855 C   0  0  0  0  0  0  0  0  0  0  0  0
  150.7975  140.0768  154.9450 N   0  5  0  0  0  0  0  0  0  0  0  0
  149.6764  139.4202  154.5322 C   0  0  0  0  0  0  0  0  0  0  0  0
  149.4710  138.2071  154.4178 O   0  0  0  0  0  0  0  0  0  0  0  0
  148.5739  140.3485  154.1871 C   0  0  0  0  0  0  0  0  0  0  0  0
  147.3948  140.1088  153.5322 C   0  0  0  0  0  0  0  0  0  0  0  0
  146.6993  141.3480  153.4685 C   0  0  0  0  0  0  0  0  0  0  0  0
  147.5027  142.2610  154.0883 C   0  0  0  0  0  0  0  0  0  0  0  0
  148.6457  141.6715  154.5310 O   0  0  0  0  0  0  0  0  0  0  0  0
  151.3140  142.1736  156.7100 N   0  0  0  0  0  0  0  0  0  0  0  0
  151.5775  142.9555  157.8142 C   0  0  0  0  0  0  0  0  0  0  0  0
  151.3944  144.3415  158.0209 C   0  0  0  0  0  0  0  0  0  0  0  0
  151.7412  144.9313  159.2537 C   0  0  0  0  0  0  0  0  0  0  0  0
  152.2754  144.1444  160.2943 C   0  0  0  0  0  0  0  0  0  0  0  0
  152.4667  142.7618  160.1071 C   0  0  0  0  0  0  0  0  0  0  0  0
  152.1190  142.1771  158.8735 C   0  0  0  0  0  0  0  0  0  0  0  0
  158.4004  140.5510  159.6117 H   0  0  0  0  0  0  0  0  0  0  0  0
  157.4096  140.7328  158.1650 H   0  0  0  0  0  0  0  0  0  0  0  0
  157.6363  139.1387  158.8840 H   0  0  0  0  0  0  0  0  0  0  0  0
  156.3884  139.8904  160.9324 H   0  0  0  0  0  0  0  0  0  0  0  0
  156.1531  141.4769  160.2106 H   0  0  0  0  0  0  0  0  0  0  0  0
  153.9210  139.5583  160.9347 H   0  0  0  0  0  0  0  0  0  0  0  0
  153.8259  141.1681  160.2689 H   0  0  0  0  0  0  0  0  0  0  0  0
  152.9767  138.9491  158.4303 H   0  0  0  0  0  0  0  0  0  0  0  0
  151.8847  139.2999  159.7269 H   0  0  0  0  0  0  0  0  0  0  0  0
  151.0226  138.9656  156.7134 H   0  0  0  0  0  0  0  0  0  0  0  0
  153.4738  138.8994  156.6739 H   0  0  0  0  0  0  0  0  0  0  0  0
  153.5112  139.9293  155.2461 H   0  0  0  0  0  0  0  0  0  0  0  0
  152.8186  138.3109  155.1513 H   0  0  0  0  0  0  0  0  0  0  0  0
  147.0720  139.1532  153.1463 H   0  0  0  0  0  0  0  0  0  0  0  0
  145.7343  141.5455  153.0259 H   0  0  0  0  0  0  0  0  0  0  0  0
  147.4206  143.3182  154.2923 H   0  0  0  0  0  0  0  0  0  0  0  0
  150.9844  144.9498  157.2285 H   0  0  0  0  0  0  0  0  0  0  0  0
  151.5954  145.9911  159.4013 H   0  0  0  0  0  0  0  0  0  0  0  0
  152.5376  144.6026  161.2366 H   0  0  0  0  0  0  0  0  0  0  0  0
  152.8748  142.1582  160.9038 H   0  0  0  0  0  0  0  0  0  0  0  0
  1  2  1  0  0  0  0
  1 25  1  0  0  0  0
  1 26  1  0  0  0  0
  1 27  1  0  0  0  0
  2  3  1  0  0  0  0
  2 28  1  0  0  0  0
  2 29  1  0  0  0  0
  3  4  1  0  0  0  0
  4  5  1  0  0  0  0
  4 30  1  0  0  0  0
  4 31  1  0  0  0  0
  5  6  1  0  0  0  0
  5 32  1  0  0  0  0
  5 33  1  0  0  0  0
  6 24  1  0  0  0  0
  6  7  1  0  0  0  0
  7  8  1  0  0  0  0
  7 18  2  0  0  0  0
  8  9  1  0  0  0  0
  8 10  1  0  0  0  0
  8 34  1  0  0  0  0
  9 35  1  0  0  0  0
  9 36  1  0  0  0  0
  9 37  1  0  0  0  0
 10 11  1  0  0  0  0
 11 12  2  0  0  0  0
 11 13  1  0  0  0  0
 13 17  1  0  0  0  0
 13 14  2  0  0  0  0
 14 15  1  0  0  0  0
 14 38  1  0  0  0  0
 15 16  2  0  0  0  0
 15 39  1  0  0  0  0
 16 17  1  0  0  0  0
 16 40  1  0  0  0  0
 18 19  1  0  0  0  0
 19 24  2  0  0  0  0
 19 20  1  0  0  0  0
 20 21  2  0  0  0  0
 20 41  1  0  0  0  0
 21 22  1  0  0  0  0
 21 42  1  0  0  0  0
 22 23  2  0  0  0  0
 22 43  1  0  0  0  0
 23 24  1  0  0  0  0
 23 44  1  0  0  0  0
M  CHG  1  10  -1
M  END
> <s_m_source_file>
AV-unprocessed.smi

> <i_m_source_file_index>
500

> <i_lp_mmshare_version>
43012

> <i_f3d_flags>
0

> <s_epik_input>
W0NIM11bQ0gyXU9bQ0gyXVtDSDJdbihjKGMxMilbY0hdW2NIXVtjSF1bY0hdMiljKG4xKVtDQEhdKFtDSDNdKVtOSF1DKD1PKWMzW2NIXVtjSF1bY0hdbzM=

> <s_epik_cmdline>
J2VwaWtfcHl0aG9uJywgJy1waCcsICc3LjAnLCAnLXRuJywgJzgnLCAnLW1hJywgJzIwMCcsICctbWV0YWxfYmluZGluZycsICctaW1hZScsICc8aW5maWxlLm1hZT4nLCAnLW9tYWUnLCAnPG91dGZpbGUubWFlPic=

> <r_epik_Ionization_Penalty>
7.31223

> <r_epik_Ionization_Penalty_Charging>
6.43826

> <r_epik_Ionization_Penalty_Neutral>
0.873973

> <r_epik_State_Penalty>
6.5378

> <r_epik_Charging_Adjusted_Penalty>
12.9761

> <i_epik_Tot_Q>
-1

> <i_epik_Tot_abs_Q>
1

> <r_epik_Metal_State_Penalty>
2.55818

> <b_epik_Metal_Only>
1

> <s_lp_Force_Field>
OPLS_2005

> <r_lp_Energy>
15.486

> <b_lp_Chiralities_Consistent>
1

> <s_lp_Variant>
AV-unprocessed.smi:500-5

> <Gold.Version>
5.8.1

> <Gold.Id.Protein>
6NUR|6NUR_protein|mol2

> <Gold.PLP.Fitness>
55.8428

> <Gold.PLP.PLP>
-48.8806

> <Gold.PLP.part.hbond>
-2.2237

> <Gold.PLP.part.metal>
0.0000

> <Gold.PLP.part.buried>
-1.3264

> <Gold.PLP.part.nonpolar>
-45.2545

> <Gold.PLP.part.repulsive>
0.4881

> <Gold.PLP.ligand.clash>
0.0000

> <Gold.PLP.ligand.torsion>
1.1556

> <Gold.PLP.Chemscore.Hbond>
2.0000

> <Gold.PLP.Chemscore.CHOScore>
0.9959

> <Gold.PLP.Chemscore.Metal>
0.0000

> <Gold.Chemscore.Hbonds>
donor molecule, donor type, donor heavy atom, donor atom, acceptor molecule, acceptor atom, score
      P1  H  7989  7998       L1    10  1.00
      P1  H  7997  8008       L1     3  1.00
      L1  C    16    40       P1  8028  1.00

> <Gold.PLP.Chemscore.Internal.Correction>
0.2856

> <Gold.Rescore>
     Score         DG    S(hbond)    S(metal)    S(lipo)     H(rot)  DE(clash)    DE(int)     intcor
     19.60     -23.13       1.79        0.00     140.08       1.84       1.49       2.05       ----

> <Gold.Chemscore.Fitness>
19.5970

> <Gold.Chemscore.DG>
-23.1331

> <Gold.Chemscore.ZeroCoef>
-5.4800

> <Gold.Chemscore.Hbond>
1.7874

> <Gold.Chemscore.Metal>
0.0000

> <Gold.Chemscore.Lipo>
140.0762

> <Gold.Chemscore.Internal_Hbond>
0.0000

> <Gold.Chemscore.DEClash>
1.4875

> <Gold.Chemscore.DEInternal>
2.0486

> <Gold.Chemscore.Rot>
1.8382

> <Gold.Chemscore.Internal.Correction>
   9.000000E+99

> <Gold.Chemscore.Hbonds>
donor molecule, donor type, donor heavy atom, donor atom, acceptor molecule, acceptor atom, score
      P1  H  7989  7998       L1    10  0.73
      P1  H  7997  8008       L1     3  0.85

> <Gold.Chemscore.Hbond.Weighted>
-5.9701

> <Gold.Chemscore.Metal.Weighted>
-0.0000

> <Gold.Chemscore.Lipo.Weighted>
-16.3889

> <Gold.Chemscore.Internal_Hbond.Weighted>
0.0000

> <Gold.Chemscore.DEClash.Weighted>
1.4875

> <Gold.Chemscore.DEInternal.Weighted>
2.0486

> <Gold.Chemscore.Rot.Weighted>
4.7059

> <Gold.Chemscore.Internal.Correction.Weighted>
   9.000000E+99

> <Gold.Protein.RotatedTorsions>
[ 6907 6896 6895 6894 ] final   54.47 input  -60.11 | X-H torsion
[ 7974 7965 7964 7962 ] final  -39.88 input  175.53 | X-H torsion
[ 8008 7997 7996 7995 ] final -129.50 input   59.86 | X-H torsion
[ 10167 10162 10161 10158 ] final   79.89 input  -65.29 | X-H torsion
[ 10718 10713 10712 10709 ] final  102.61 input   66.30 | X-H torsion
[ 10763 10752 10751 10750 ] final  -54.63 input  -60.55 | X-H torsion
[ 11005 11000 10999 10996 ] final -122.74 input  -57.11 | X-H torsion

> <Gold.Protein.ActiveResidues>
 VAL166  LYS551  ARG553  GLY616  TRP617  ASP618  TYR619  PRO620  LYS621  CYS622 
 ASP623  PHE694  ASN695  SER759  ASP760  ASP761  ALA762  ILE779  LEU786  VAL792 
 PHE793  MET794  SER795  GLU796  ALA797  LYS798  CYS799  TRP800  GLU811  SER814 

> <Gold.Protein.RotatedAtoms>
  152.3442  134.7093  160.0254 H   0  0  0  0  0  0  0  0  0  0  0  0  # atno 6907 bound_to 6896
  151.7468  133.3319  159.3389 H   0  0  0  0  0  0  0  0  0  0  0  0  # atno 6908 bound_to 6896
  150.7499  134.6161  159.6156 H   0  0  0  0  0  0  0  0  0  0  0  0  # atno 6909 bound_to 6896
  146.0355  140.6676  142.9112 H   0  0  0  0  0  0  0  0  0  0  0  0  # atno 7974 bound_to 7965
  155.2803  140.0444  157.3015 H   0  0  0  0  0  0  0  0  0  0  0  0  # atno 8008 bound_to 7997
  154.5601  140.2343  155.8317 H   0  0  0  0  0  0  0  0  0  0  0  0  # atno 8009 bound_to 7997
  156.2040  140.3018  155.9594 H   0  0  0  0  0  0  0  0  0  0  0  0  # atno 8010 bound_to 7997
  139.9555  144.5997  150.8120 H   0  0  0  0  0  0  0  0  0  0  0  0  # atno 10167 bound_to 10162
  157.6797  131.0757  150.5431 H   0  0  0  0  0  0  0  0  0  0  0  0  # atno 10718 bound_to 10713
  154.1779  135.6448  153.5026 H   0  0  0  0  0  0  0  0  0  0  0  0  # atno 10763 bound_to 10752
  153.0067  135.5399  154.6544 H   0  0  0  0  0  0  0  0  0  0  0  0  # atno 10764 bound_to 10752
  154.5901  135.2933  155.0617 H   0  0  0  0  0  0  0  0  0  0  0  0  # atno 10765 bound_to 10752
  140.9972  134.0455  157.3583 H   0  0  0  0  0  0  0  0  0  0  0  0  # atno 11005 bound_to 11000
  144.7050  140.3813  143.7125 LP  0  0  0  0  0  0  0  0  0  0  0  0  # atno 17320 bound_to 7965
  145.6970  139.1652  143.2614 LP  0  0  0  0  0  0  0  0  0  0  0  0  # atno 17321 bound_to 7965
  140.7569  143.3076  151.2923 LP  0  0  0  0  0  0  0  0  0  0  0  0  # atno 17342 bound_to 10162
  139.6595  144.0216  152.2682 LP  0  0  0  0  0  0  0  0  0  0  0  0  # atno 17343 bound_to 10162
  156.5737  130.4286  149.6008 LP  0  0  0  0  0  0  0  0  0  0  0  0  # atno 17370 bound_to 10713
  156.2719  130.7022  151.1821 LP  0  0  0  0  0  0  0  0  0  0  0  0  # atno 17371 bound_to 10713
  139.9020  135.0168  156.7315 LP  0  0  0  0  0  0  0  0  0  0  0  0  # atno 17394 bound_to 11000
  140.6947  133.9359  155.7987 LP  0  0  0  0  0  0  0  0  0  0  0  0  # atno 17395 bound_to 11000

$$$$
