AV-unprocessed.smi:2821|AV-procd|sdf|10858|dock8
  -GOLD-   2272015303D 1   1.00000     0.00000
 Structure written by MMmdl.
 36 37  0  0  0  0  0  0  0  0  1 V2000
  152.3468  138.2685  156.2237 C   0  0  0  0  0  0  0  0  0  0  0  0
  152.3729  138.1006  154.7026 C   0  0  0  0  0  0  0  0  0  0  0  0
  151.0331  138.0009  154.2295 O   0  0  0  0  0  0  0  0  0  0  0  0
  150.1725  139.0506  154.4757 C   0  0  0  0  0  0  0  0  0  0  0  0
  148.8370  138.9760  154.0257 C   0  0  0  0  0  0  0  0  0  0  0  0
  147.9528  139.9746  154.2415 N   0  0  0  0  0  0  0  0  0  0  0  0
  148.4109  141.0548  154.9121 C   0  0  0  0  0  0  0  0  0  0  0  0
  149.7449  141.1443  155.3682 C   0  0  0  0  0  0  0  0  0  0  0  0
  150.1614  142.2951  156.0533 N   0  0  0  0  0  0  0  0  0  0  0  0
  151.1582  142.2439  157.1198 C   0  0  2  0  0  0  0  0  0  0  0  0
  150.8140  141.1548  158.1500 C   0  0  0  0  0  0  0  0  0  0  0  0
  151.3179  143.6206  157.7950 C   0  0  1  0  0  0  0  0  0  0  0  0
  150.1427  144.0642  158.6702 C   0  0  0  0  0  0  0  0  0  0  0  0
  150.8183  145.0468  159.5996 C   0  0  0  0  0  0  0  0  0  0  0  0
  152.1646  144.3697  159.8400 C   0  0  0  0  0  0  0  0  0  0  0  0
  152.4680  143.6668  158.6380 O   0  0  0  0  0  0  0  0  0  0  0  0
  150.6259  140.1393  155.1470 N   0  0  0  0  0  0  0  0  0  0  0  0
  153.3577  138.3497  156.6237 H   0  0  0  0  0  0  0  0  0  0  0  0
  151.8654  137.4159  156.7033 H   0  0  0  0  0  0  0  0  0  0  0  0
  151.8005  139.1676  156.5097 H   0  0  0  0  0  0  0  0  0  0  0  0
  152.8733  138.9570  154.2473 H   0  0  0  0  0  0  0  0  0  0  0  0
  152.9375  137.2030  154.4450 H   0  0  0  0  0  0  0  0  0  0  0  0
  148.4767  138.1102  153.4898 H   0  0  0  0  0  0  0  0  0  0  0  0
  147.7045  141.8539  155.0844 H   0  0  0  0  0  0  0  0  0  0  0  0
  149.6800  143.1686  155.8933 H   0  0  0  0  0  0  0  0  0  0  0  0
  152.1241  141.9953  156.6785 H   0  0  0  0  0  0  0  0  0  0  0  0
  151.5719  141.1034  158.9318 H   0  0  0  0  0  0  0  0  0  0  0  0
  150.7574  140.1688  157.6886 H   0  0  0  0  0  0  0  0  0  0  0  0
  149.8548  141.3517  158.6301 H   0  0  0  0  0  0  0  0  0  0  0  0
  151.4621  144.3803  157.0248 H   0  0  0  0  0  0  0  0  0  0  0  0
  149.3295  144.5081  158.0952 H   0  0  0  0  0  0  0  0  0  0  0  0
  149.7366  143.2322  159.2469 H   0  0  0  0  0  0  0  0  0  0  0  0
  150.9624  146.0026  159.0939 H   0  0  0  0  0  0  0  0  0  0  0  0
  150.2600  145.2252  160.5188 H   0  0  0  0  0  0  0  0  0  0  0  0
  152.9502  145.0809  160.0964 H   0  0  0  0  0  0  0  0  0  0  0  0
  152.0852  143.6454  160.6517 H   0  0  0  0  0  0  0  0  0  0  0  0
  1  2  1  0  0  0  0
  1 18  1  0  0  0  0
  1 19  1  0  0  0  0
  1 20  1  0  0  0  0
  2  3  1  0  0  0  0
  2 21  1  0  0  0  0
  2 22  1  0  0  0  0
  3  4  1  0  0  0  0
  4 17  1  0  0  0  0
  4  5  2  0  0  0  0
  5  6  1  0  0  0  0
  5 23  1  0  0  0  0
  6  7  2  0  0  0  0
  7  8  1  0  0  0  0
  7 24  1  0  0  0  0
  8  9  1  0  0  0  0
  8 17  2  0  0  0  0
  9 10  1  0  0  0  0
  9 25  1  0  0  0  0
 10 11  1  0  0  0  0
 10 12  1  0  0  0  0
 10 26  1  0  0  0  0
 11 27  1  0  0  0  0
 11 28  1  0  0  0  0
 11 29  1  0  0  0  0
 12 16  1  0  0  0  0
 12 13  1  0  0  0  0
 12 30  1  0  0  0  0
 13 14  1  0  0  0  0
 13 31  1  0  0  0  0
 13 32  1  0  0  0  0
 14 15  1  0  0  0  0
 14 33  1  0  0  0  0
 14 34  1  0  0  0  0
 15 16  1  0  0  0  0
 15 35  1  0  0  0  0
 15 36  1  0  0  0  0
M  END
> <s_m_source_file>
AV-unprocessed.smi

> <i_m_source_file_index>
2821

> <i_lp_mmshare_version>
43012

> <i_f3d_flags>
0

> <s_epik_input>
W0NIM11bQ0gyXU9jMVtjSF1uW2NIXWMobjEpW05IXVtDQEhdKFtDSDNdKVtDQEBIXTJbQ0gyXVtDSDJdW0NIMl1PMg==

> <s_epik_cmdline>
J2VwaWtfcHl0aG9uJywgJy1waCcsICc3LjAnLCAnLXRuJywgJzgnLCAnLW1hJywgJzIwMCcsICctbWV0YWxfYmluZGluZycsICctaW1hZScsICc8aW5maWxlLm1hZT4nLCAnLW9tYWUnLCAnPG91dGZpbGUubWFlPic=

> <r_lp_tautomer_probability>
1

> <r_epik_Ionization_Penalty>
4.69533e-05

> <r_epik_Ionization_Penalty_Charging>
0

> <r_epik_Ionization_Penalty_Neutral>
4.69533e-05

> <r_epik_State_Penalty>
-0

> <r_epik_Charging_Adjusted_Penalty>
0

> <i_epik_Tot_Q>
0

> <i_epik_Tot_abs_Q>
0

> <r_epik_Metal_State_Penalty>
-0

> <b_epik_Metal_Only>
0

> <s_lp_Force_Field>
OPLS_2005

> <r_lp_Energy>
29.921

> <b_lp_Chiralities_Consistent>
1

> <s_lp_Variant>
AV-unprocessed.smi:2821-3

> <Gold.Version>
5.8.1

> <Gold.Id.Protein>
6NUR|6NUR_protein|mol2

> <Gold.PLP.Fitness>
42.3932

> <Gold.PLP.PLP>
-35.0263

> <Gold.PLP.part.hbond>
-2.0000

> <Gold.PLP.part.metal>
0.0000

> <Gold.PLP.part.buried>
-5.5992

> <Gold.PLP.part.nonpolar>
-28.6562

> <Gold.PLP.part.repulsive>
0.5295

> <Gold.PLP.ligand.clash>
0.0000

> <Gold.PLP.ligand.torsion>
0.3886

> <Gold.PLP.Chemscore.Hbond>
1.7000

> <Gold.PLP.Chemscore.CHOScore>
0.9975

> <Gold.PLP.Chemscore.Metal>
0.0000

> <Gold.Chemscore.Hbonds>
donor molecule, donor type, donor heavy atom, donor atom, acceptor molecule, acceptor atom, score
      L1  H     9    25       P1  8028  1.00
      P1  H  7989  7998       L1    17  0.59
      L1  C     5    23       P1  7948  1.00

> <Gold.PLP.Chemscore.Internal.Correction>
0.0515

> <Gold.Rescore>
     Score         DG    S(hbond)    S(metal)    S(lipo)     H(rot)  DE(clash)    DE(int)     intcor
     13.28     -15.16       1.11        0.00      84.96       1.55       0.03       1.86       ----

> <Gold.Chemscore.Fitness>
13.2781

> <Gold.Chemscore.DG>
-15.1615

> <Gold.Chemscore.ZeroCoef>
-5.4800

> <Gold.Chemscore.Hbond>
1.1117

> <Gold.Chemscore.Metal>
0.0000

> <Gold.Chemscore.Lipo>
84.9563

> <Gold.Chemscore.Internal_Hbond>
0.0000

> <Gold.Chemscore.DEClash>
0.0276

> <Gold.Chemscore.DEInternal>
1.8558

> <Gold.Chemscore.Rot>
1.5514

> <Gold.Chemscore.Internal.Correction>
   9.000000E+99

> <Gold.Chemscore.Hbonds>
donor molecule, donor type, donor heavy atom, donor atom, acceptor molecule, acceptor atom, score
      L1  H     9    25       P1  8028  1.00
      P1  H  7989  7998       L1    17  0.01

> <Gold.Chemscore.Hbond.Weighted>
-3.7131

> <Gold.Chemscore.Metal.Weighted>
-0.0000

> <Gold.Chemscore.Lipo.Weighted>
-9.9399

> <Gold.Chemscore.Internal_Hbond.Weighted>
0.0000

> <Gold.Chemscore.DEClash.Weighted>
0.0276

> <Gold.Chemscore.DEInternal.Weighted>
1.8558

> <Gold.Chemscore.Rot.Weighted>
3.9715

> <Gold.Chemscore.Internal.Correction.Weighted>
   9.000000E+99

> <Gold.Protein.RotatedTorsions>
[ 6907 6896 6895 6894 ] final  -59.98 input  -60.11 | X-H torsion
[ 7974 7965 7964 7962 ] final -157.55 input  175.53 | X-H torsion
[ 8008 7997 7996 7995 ] final -165.80 input   59.86 | X-H torsion
[ 10167 10162 10161 10158 ] final  -56.71 input  -65.29 | X-H torsion
[ 10718 10713 10712 10709 ] final  179.49 input   66.30 | X-H torsion
[ 10763 10752 10751 10750 ] final   74.14 input  -60.55 | X-H torsion
[ 11005 11000 10999 10996 ] final -105.47 input  -57.11 | X-H torsion

> <Gold.Protein.ActiveResidues>
 VAL166  LYS551  ARG553  GLY616  TRP617  ASP618  TYR619  PRO620  LYS621  CYS622 
 ASP623  PHE694  ASN695  SER759  ASP760  ASP761  ALA762  ILE779  LEU786  VAL792 
 PHE793  MET794  SER795  GLU796  ALA797  LYS798  CYS799  TRP800  GLU811  SER814 

> <Gold.Protein.RotatedAtoms>
  150.7890  134.6897  159.6489 H   0  0  0  0  0  0  0  0  0  0  0  0  # atno 6907 bound_to 6896
  152.3992  134.6312  160.0086 H   0  0  0  0  0  0  0  0  0  0  0  0  # atno 6908 bound_to 6896
  151.6589  133.3281  159.3205 H   0  0  0  0  0  0  0  0  0  0  0  0  # atno 6909 bound_to 6896
  144.7543  140.3953  143.6024 H   0  0  0  0  0  0  0  0  0  0  0  0  # atno 7974 bound_to 7965
  155.8548  140.0969  157.1651 H   0  0  0  0  0  0  0  0  0  0  0  0  # atno 8008 bound_to 7997
  154.3987  140.1376  156.3951 H   0  0  0  0  0  0  0  0  0  0  0  0  # atno 8009 bound_to 7997
  155.7921  140.3455  155.5358 H   0  0  0  0  0  0  0  0  0  0  0  0  # atno 8010 bound_to 7997
  140.6301  143.2455  151.5263 H   0  0  0  0  0  0  0  0  0  0  0  0  # atno 10167 bound_to 10162
  156.8750  130.9796  151.3069 H   0  0  0  0  0  0  0  0  0  0  0  0  # atno 10718 bound_to 10713
  153.0567  135.5037  154.7997 H   0  0  0  0  0  0  0  0  0  0  0  0  # atno 10763 bound_to 10752
  154.6818  135.2969  154.9605 H   0  0  0  0  0  0  0  0  0  0  0  0  # atno 10764 bound_to 10752
  154.0388  135.6719  153.4840 H   0  0  0  0  0  0  0  0  0  0  0  0  # atno 10765 bound_to 10752
  141.1052  133.8810  157.1738 H   0  0  0  0  0  0  0  0  0  0  0  0  # atno 11005 bound_to 11000
  145.6832  139.1623  143.2689 LP  0  0  0  0  0  0  0  0  0  0  0  0  # atno 17320 bound_to 7965
  146.1535  140.6892  142.9311 LP  0  0  0  0  0  0  0  0  0  0  0  0  # atno 17321 bound_to 7965
  139.5516  144.2380  152.1541 LP  0  0  0  0  0  0  0  0  0  0  0  0  # atno 17342 bound_to 10162
  140.1622  144.5015  150.6626 LP  0  0  0  0  0  0  0  0  0  0  0  0  # atno 17343 bound_to 10162
  157.6173  130.8628  149.9050 LP  0  0  0  0  0  0  0  0  0  0  0  0  # atno 17370 bound_to 10713
  156.0706  130.3685  150.0783 LP  0  0  0  0  0  0  0  0  0  0  0  0  # atno 17371 bound_to 10713
  139.9919  135.0061  156.9994 LP  0  0  0  0  0  0  0  0  0  0  0  0  # atno 17394 bound_to 11000
  140.4921  134.1183  155.7234 LP  0  0  0  0  0  0  0  0  0  0  0  0  # atno 17395 bound_to 11000

$$$$
