AV-unprocessed.smi:2344|AV-procd|sdf|9360|dock1
  -GOLD-   2272012583D 1   1.00000     0.00000
 Structure written by MMmdl.
 35 36  0  0  0  0  0  0  0  0  1 V2000
  150.9713  142.1300  156.5522 C   0  0  0  0  0  0  0  0  0  0  0  0
  150.2307  141.1319  155.6872 C   0  0  0  0  0  0  0  0  0  0  0  0
  150.8506  139.9458  155.2510 C   0  0  0  0  0  0  0  0  0  0  0  0
  150.1155  139.0510  154.4496 C   0  0  0  0  0  0  0  0  0  0  0  0
  148.7809  139.3614  154.1046 C   0  0  0  0  0  0  0  0  0  0  0  0
  148.1301  138.3954  153.2920 N   0  0  0  0  0  0  0  0  0  0  0  0
  146.8194  138.0998  153.2397 C   0  0  0  0  0  0  0  0  0  0  0  0
  145.9394  138.6342  153.9154 O   0  0  0  0  0  0  0  0  0  0  0  0
  146.5773  137.1279  152.3488 N   0  0  0  0  0  0  0  0  0  0  0  0
  145.2640  136.5558  152.0753 C   0  0  1  0  0  0  0  0  0  0  0  0
  145.2757  135.8262  150.7589 C   0  0  0  0  0  0  0  0  0  0  0  0
  144.9576  134.5393  150.8800 C   0  0  0  0  0  0  0  0  0  0  0  0
  144.6796  134.1425  152.3068 C   0  0  1  0  0  0  0  0  0  0  0  0
  145.5637  132.9777  152.7924 C   0  0  0  0  0  0  0  0  0  0  0  0
  145.3488  132.6918  154.1610 O   0  0  0  0  0  0  0  0  0  0  0  0
  144.8676  135.4606  153.1013 C   0  0  0  0  0  0  0  0  0  0  0  0
  148.1919  140.5062  154.5313 N   0  0  0  0  0  0  0  0  0  0  0  0
  148.8966  141.3630  155.2994 C   0  0  0  0  0  0  0  0  0  0  0  0
  144.5086  137.3423  152.0319 H   0  0  0  0  0  0  0  0  0  0  0  0
  143.6344  133.8361  152.3631 H   0  0  0  0  0  0  0  0  0  0  0  0
  152.0503  142.0010  156.4629 H   0  0  0  0  0  0  0  0  0  0  0  0
  150.6947  141.9990  157.5983 H   0  0  0  0  0  0  0  0  0  0  0  0
  150.7268  143.1507  156.2568 H   0  0  0  0  0  0  0  0  0  0  0  0
  151.8714  139.7217  155.5238 H   0  0  0  0  0  0  0  0  0  0  0  0
  150.5763  138.1363  154.1057 H   0  0  0  0  0  0  0  0  0  0  0  0
  148.7337  137.8645  152.6818 H   0  0  0  0  0  0  0  0  0  0  0  0
  147.3571  136.7408  151.8378 H   0  0  0  0  0  0  0  0  0  0  0  0
  145.5100  136.3224  149.8285 H   0  0  0  0  0  0  0  0  0  0  0  0
  144.8981  133.8340  150.0642 H   0  0  0  0  0  0  0  0  0  0  0  0
  145.3591  132.0801  152.2085 H   0  0  0  0  0  0  0  0  0  0  0  0
  146.6174  133.2185  152.6478 H   0  0  0  0  0  0  0  0  0  0  0  0
  144.4528  132.4123  154.2723 H   0  0  0  0  0  0  0  0  0  0  0  0
  145.6172  135.3505  153.8866 H   0  0  0  0  0  0  0  0  0  0  0  0
  143.9381  135.7347  153.6015 H   0  0  0  0  0  0  0  0  0  0  0  0
  148.3794  142.2583  155.6121 H   0  0  0  0  0  0  0  0  0  0  0  0
  1  2  1  0  0  0  0
  1 21  1  0  0  0  0
  1 22  1  0  0  0  0
  1 23  1  0  0  0  0
  2 18  1  0  0  0  0
  2  3  2  0  0  0  0
  3  4  1  0  0  0  0
  3 24  1  0  0  0  0
  4  5  2  0  0  0  0
  4 25  1  0  0  0  0
  5  6  1  0  0  0  0
  5 17  1  0  0  0  0
  6  7  1  0  0  0  0
  6 26  1  0  0  0  0
  7  8  2  0  0  0  0
  7  9  1  0  0  0  0
  9 10  1  0  0  0  0
  9 27  1  0  0  0  0
 10 19  1  0  0  0  0
 10 16  1  0  0  0  0
 10 11  1  0  0  0  0
 11 12  2  0  0  0  0
 11 28  1  0  0  0  0
 12 13  1  0  0  0  0
 12 29  1  0  0  0  0
 13 20  1  0  0  0  0
 13 14  1  0  0  0  0
 13 16  1  0  0  0  0
 14 15  1  0  0  0  0
 14 30  1  0  0  0  0
 14 31  1  0  0  0  0
 15 32  1  0  0  0  0
 16 33  1  0  0  0  0
 16 34  1  0  0  0  0
 17 18  2  0  0  0  0
 18 35  1  0  0  0  0
M  END
> <s_m_source_file>
AV-unprocessed.smi

> <i_m_source_file_index>
2344

> <i_lp_mmshare_version>
43012

> <i_f3d_flags>
0

> <s_epik_input>
W0NIM11jMVtjSF1bY0hdYyhuW2NIXTEpW05IXUMoPU8pW05IXVtDQEBIXTJbQ0hdPVtDSF1bQ0BASF0oW0NIMl0yKVtDSDJdW09IXQ==

> <s_epik_cmdline>
J2VwaWtfcHl0aG9uJywgJy1waCcsICc3LjAnLCAnLXRuJywgJzgnLCAnLW1hJywgJzIwMCcsICctbWV0YWxfYmluZGluZycsICctaW1hZScsICc8aW5maWxlLm1hZT4nLCAnLW9tYWUnLCAnPG91dGZpbGUubWFlPic=

> <r_lp_tautomer_probability>
1

> <r_epik_Ionization_Penalty>
5.7643e-05

> <r_epik_Ionization_Penalty_Charging>
0

> <r_epik_Ionization_Penalty_Neutral>
5.7643e-05

> <r_epik_State_Penalty>
-0

> <r_epik_Charging_Adjusted_Penalty>
0

> <i_epik_Tot_Q>
0

> <i_epik_Tot_abs_Q>
0

> <r_epik_Metal_State_Penalty>
-0

> <b_epik_Metal_Only>
0

> <s_lp_Force_Field>
OPLS_2005

> <r_lp_Energy>
18.1017

> <b_lp_Chiralities_Consistent>
1

> <s_lp_Variant>
AV-unprocessed.smi:2344-4

> <Gold.Version>
5.8.1

> <Gold.Id.Protein>
6NUR|6NUR_protein|mol2

> <Gold.PLP.Fitness>
40.9300

> <Gold.PLP.PLP>
-30.1847

> <Gold.PLP.part.hbond>
-4.0000

> <Gold.PLP.part.metal>
0.0000

> <Gold.PLP.part.buried>
-1.6447

> <Gold.PLP.part.nonpolar>
-25.0658

> <Gold.PLP.part.repulsive>
0.3623

> <Gold.PLP.ligand.clash>
0.0000

> <Gold.PLP.ligand.torsion>
0.4682

> <Gold.PLP.Chemscore.Hbond>
2.8880

> <Gold.PLP.Chemscore.CHOScore>
1.0000

> <Gold.PLP.Chemscore.Metal>
0.0000

> <Gold.Chemscore.Hbonds>
donor molecule, donor type, donor heavy atom, donor atom, acceptor molecule, acceptor atom, score
      L1  H     6    26       P1  7948  0.91
      L1  H     9    27       P1  7948  0.99
      L1  H    15    32       P1 10957  1.00
      L1  C    18    35       P1  8028  1.00

> <Gold.PLP.Chemscore.Internal.Correction>
0.0177

> <Gold.Rescore>
     Score         DG    S(hbond)    S(metal)    S(lipo)     H(rot)  DE(clash)    DE(int)     intcor
     15.98     -17.46       2.83        0.00      61.32       1.82       0.06       1.42       ----

> <Gold.Chemscore.Fitness>
15.9762

> <Gold.Chemscore.DG>
-17.4612

> <Gold.Chemscore.ZeroCoef>
-5.4800

> <Gold.Chemscore.Hbond>
2.8327

> <Gold.Chemscore.Metal>
0.0000

> <Gold.Chemscore.Lipo>
61.3241

> <Gold.Chemscore.Internal_Hbond>
0.0000

> <Gold.Chemscore.DEClash>
0.0645

> <Gold.Chemscore.DEInternal>
1.4204

> <Gold.Chemscore.Rot>
1.8184

> <Gold.Chemscore.Internal.Correction>
   9.000000E+99

> <Gold.Chemscore.Hbonds>
donor molecule, donor type, donor heavy atom, donor atom, acceptor molecule, acceptor atom, score
      L1  H     6    26       P1  7948  0.88
      L1  H     9    27       P1  7948  0.93
      L1  H    15    32       P1 10957  0.60

> <Gold.Chemscore.Hbond.Weighted>
-9.4613

> <Gold.Chemscore.Metal.Weighted>
-0.0000

> <Gold.Chemscore.Lipo.Weighted>
-7.1749

> <Gold.Chemscore.Internal_Hbond.Weighted>
0.0000

> <Gold.Chemscore.DEClash.Weighted>
0.0645

> <Gold.Chemscore.DEInternal.Weighted>
1.4204

> <Gold.Chemscore.Rot.Weighted>
4.6551

> <Gold.Chemscore.Internal.Correction.Weighted>
   9.000000E+99

> <Gold.Protein.RotatedTorsions>
[ 6907 6896 6895 6894 ] final  -54.68 input  -60.11 | X-H torsion
[ 7974 7965 7964 7962 ] final  -44.97 input  175.53 | X-H torsion
[ 8008 7997 7996 7995 ] final  -87.30 input   59.86 | X-H torsion
[ 10167 10162 10161 10158 ] final  168.15 input  -65.29 | X-H torsion
[ 10718 10713 10712 10709 ] final   72.82 input   66.30 | X-H torsion
[ 10763 10752 10751 10750 ] final  138.43 input  -60.55 | X-H torsion
[ 11005 11000 10999 10996 ] final  113.66 input  -57.11 | X-H torsion

> <Gold.Protein.ActiveResidues>
 VAL166  LYS551  ARG553  GLY616  TRP617  ASP618  TYR619  PRO620  LYS621  CYS622 
 ASP623  PHE694  ASN695  SER759  ASP760  ASP761  ALA762  ILE779  LEU786  VAL792 
 PHE793  MET794  SER795  GLU796  ALA797  LYS798  CYS799  TRP800  GLU811  SER814 

> <Gold.Protein.RotatedAtoms>
  150.8317  134.7573  159.6858 H   0  0  0  0  0  0  0  0  0  0  0  0  # atno 6907 bound_to 6896
  152.4421  134.5567  159.9892 H   0  0  0  0  0  0  0  0  0  0  0  0  # atno 6908 bound_to 6896
  151.5727  133.3350  159.3028 H   0  0  0  0  0  0  0  0  0  0  0  0  # atno 6909 bound_to 6896
  145.9867  140.7225  142.9337 H   0  0  0  0  0  0  0  0  0  0  0  0  # atno 7974 bound_to 7965
  154.6617  140.0567  157.0069 H   0  0  0  0  0  0  0  0  0  0  0  0  # atno 8008 bound_to 7997
  155.1219  140.3248  155.4476 H   0  0  0  0  0  0  0  0  0  0  0  0  # atno 8009 bound_to 7997
  156.2621  140.1996  156.6341 H   0  0  0  0  0  0  0  0  0  0  0  0  # atno 8010 bound_to 7997
  139.4961  144.3846  151.9585 H   0  0  0  0  0  0  0  0  0  0  0  0  # atno 10167 bound_to 10162
  157.6519  130.9597  150.0982 H   0  0  0  0  0  0  0  0  0  0  0  0  # atno 10718 bound_to 10713
  153.8894  135.3035  155.3447 H   0  0  0  0  0  0  0  0  0  0  0  0  # atno 10763 bound_to 10752
  154.7723  135.4879  153.9677 H   0  0  0  0  0  0  0  0  0  0  0  0  # atno 10764 bound_to 10752
  153.1306  135.6803  153.9283 H   0  0  0  0  0  0  0  0  0  0  0  0  # atno 10765 bound_to 10752
  139.8959  134.9554  156.6773 H   0  0  0  0  0  0  0  0  0  0  0  0  # atno 11005 bound_to 11000
  144.6877  140.3000  143.7265 LP  0  0  0  0  0  0  0  0  0  0  0  0  # atno 17320 bound_to 7965
  145.7690  139.1850  143.2223 LP  0  0  0  0  0  0  0  0  0  0  0  0  # atno 17321 bound_to 7965
  140.3283  144.3347  150.5993 LP  0  0  0  0  0  0  0  0  0  0  0  0  # atno 17342 bound_to 10162
  140.5666  143.2185  151.7672 LP  0  0  0  0  0  0  0  0  0  0  0  0  # atno 17343 bound_to 10162
  156.1912  130.3655  149.8908 LP  0  0  0  0  0  0  0  0  0  0  0  0  # atno 17370 bound_to 10713
  156.6835  130.8868  151.3579 LP  0  0  0  0  0  0  0  0  0  0  0  0  # atno 17371 bound_to 10713
  140.7327  133.9045  155.8222 LP  0  0  0  0  0  0  0  0  0  0  0  0  # atno 17394 bound_to 11000
  141.0141  134.0980  157.4191 LP  0  0  0  0  0  0  0  0  0  0  0  0  # atno 17395 bound_to 11000

$$$$
