AV-unprocessed.smi:1784|AV-procd|sdf|7197|dock5
  -GOLD-   22720 8443D 1   1.00000     0.00000
 Structure written by MMmdl.
 43 45  0  0  0  0  0  0  0  0  1 V2000
  150.5475  134.6690  155.7809 O   0  0  0  0  0  0  0  0  0  0  0  0
  150.0822  135.1458  154.7456 C   0  0  0  0  0  0  0  0  0  0  0  0
  150.2198  136.4318  154.3955 N   0  0  0  0  0  0  0  0  0  0  0  0
  150.8946  137.4482  155.1942 C   0  0  0  0  0  0  0  0  0  0  0  0
  150.5668  138.8615  154.6870 C   0  0  1  0  0  0  0  0  0  0  0  0
  149.0969  139.0688  154.3302 C   0  0  0  0  0  0  0  0  0  0  0  0
  148.9010  140.5685  154.4944 C   0  0  0  0  0  0  0  0  0  0  0  0
  150.1234  141.0210  155.2995 C   0  0  0  0  0  0  0  0  0  0  0  0
  150.7633  139.8219  155.7125 O   0  0  0  0  0  0  0  0  0  0  0  0
  149.3565  134.4718  153.8384 N   0  0  0  0  0  0  0  0  0  0  0  0
  148.9667  133.1021  153.8611 C   0  0  0  0  0  0  0  0  0  0  0  0
  149.7637  132.0955  154.4586 C   0  0  0  0  0  0  0  0  0  0  0  0
  149.3208  130.7611  154.4292 C   0  0  0  0  0  0  0  0  0  0  0  0
  148.0989  130.4775  153.7951 C   0  0  0  0  0  0  0  0  0  0  0  0
  147.3371  131.4215  153.2066 N   0  0  0  0  0  0  0  0  0  0  0  0
  147.7535  132.7114  153.2328 C   0  0  0  0  0  0  0  0  0  0  0  0
  146.9538  133.6711  152.5772 N   0  0  0  0  0  0  0  0  0  0  0  0
  146.7915  133.4087  151.1490 C   0  0  0  0  0  0  0  0  0  0  0  0
  145.3294  133.7115  150.8099 C   0  0  0  0  0  0  0  0  0  0  0  0
  144.6139  133.5130  152.1403 C   0  0  0  0  0  0  0  0  0  0  0  0
  145.6504  134.0111  153.1443 C   0  0  0  0  0  0  0  0  0  0  0  0
  149.7983  136.7391  153.5313 H   0  0  0  0  0  0  0  0  0  0  0  0
  150.6112  137.3472  156.2432 H   0  0  0  0  0  0  0  0  0  0  0  0
  151.9691  137.2696  155.1453 H   0  0  0  0  0  0  0  0  0  0  0  0
  151.1917  139.1199  153.8296 H   0  0  0  0  0  0  0  0  0  0  0  0
  148.8547  138.7150  153.3278 H   0  0  0  0  0  0  0  0  0  0  0  0
  148.4583  138.5387  155.0379 H   0  0  0  0  0  0  0  0  0  0  0  0
  148.8699  141.0751  153.5292 H   0  0  0  0  0  0  0  0  0  0  0  0
  147.9690  140.7845  155.0175 H   0  0  0  0  0  0  0  0  0  0  0  0
  150.8069  141.5930  154.6703 H   0  0  0  0  0  0  0  0  0  0  0  0
  149.8552  141.6368  156.1582 H   0  0  0  0  0  0  0  0  0  0  0  0
  148.9541  135.0223  153.0940 H   0  0  0  0  0  0  0  0  0  0  0  0
  150.7107  132.3202  154.9246 H   0  0  0  0  0  0  0  0  0  0  0  0
  149.9071  129.9733  154.8780 H   0  0  0  0  0  0  0  0  0  0  0  0
  147.7269  129.4647  153.7505 H   0  0  0  0  0  0  0  0  0  0  0  0
  147.4701  134.0259  150.5601 H   0  0  0  0  0  0  0  0  0  0  0  0
  147.0157  132.3641  150.9265 H   0  0  0  0  0  0  0  0  0  0  0  0
  145.2307  134.7499  150.4908 H   0  0  0  0  0  0  0  0  0  0  0  0
  144.9382  133.0754  150.0155 H   0  0  0  0  0  0  0  0  0  0  0  0
  143.6675  134.0508  152.2035 H   0  0  0  0  0  0  0  0  0  0  0  0
  144.4162  132.4527  152.3033 H   0  0  0  0  0  0  0  0  0  0  0  0
  145.4769  133.6104  154.1433 H   0  0  0  0  0  0  0  0  0  0  0  0
  145.5971  135.0972  153.2262 H   0  0  0  0  0  0  0  0  0  0  0  0
  1  2  2  0  0  0  0
  2  3  1  0  0  0  0
  2 10  1  0  0  0  0
  3  4  1  0  0  0  0
  3 22  1  0  0  0  0
  4  5  1  0  0  0  0
  4 23  1  0  0  0  0
  4 24  1  0  0  0  0
  5  9  1  0  0  0  0
  5  6  1  0  0  0  0
  5 25  1  0  0  0  0
  6  7  1  0  0  0  0
  6 26  1  0  0  0  0
  6 27  1  0  0  0  0
  7  8  1  0  0  0  0
  7 28  1  0  0  0  0
  7 29  1  0  0  0  0
  8  9  1  0  0  0  0
  8 30  1  0  0  0  0
  8 31  1  0  0  0  0
 10 11  1  0  0  0  0
 10 32  1  0  0  0  0
 11 16  1  0  0  0  0
 11 12  2  0  0  0  0
 12 13  1  0  0  0  0
 12 33  1  0  0  0  0
 13 14  2  0  0  0  0
 13 34  1  0  0  0  0
 14 15  1  0  0  0  0
 14 35  1  0  0  0  0
 15 16  2  0  0  0  0
 16 17  1  0  0  0  0
 17 21  1  0  0  0  0
 17 18  1  0  0  0  0
 18 19  1  0  0  0  0
 18 36  1  0  0  0  0
 18 37  1  0  0  0  0
 19 20  1  0  0  0  0
 19 38  1  0  0  0  0
 19 39  1  0  0  0  0
 20 21  1  0  0  0  0
 20 40  1  0  0  0  0
 20 41  1  0  0  0  0
 21 42  1  0  0  0  0
 21 43  1  0  0  0  0
M  END
> <s_m_source_file>
AV-unprocessed.smi

> <i_m_source_file_index>
1784

> <i_lp_mmshare_version>
43012

> <i_f3d_flags>
0

> <s_epik_input>
TzFbQ0gyXVtDSDJdW0NIMl1bQ0BIXTFbQ0gyXVtOSF1DKD1PKVtOSF1jMltjSF1bY0hdW2NIXW5jMk4zW0NIMl1bQ0gyXVtDSDJdW0NIMl0z

> <s_epik_cmdline>
J2VwaWtfcHl0aG9uJywgJy1waCcsICc3LjAnLCAnLXRuJywgJzgnLCAnLW1hJywgJzIwMCcsICctbWV0YWxfYmluZGluZycsICctaW1hZScsICc8aW5maWxlLm1hZT4nLCAnLW9tYWUnLCAnPG91dGZpbGUubWFlPic=

> <r_lp_tautomer_probability>
1

> <r_epik_Ionization_Penalty>
0.0982482

> <r_epik_Ionization_Penalty_Charging>
0

> <r_epik_Ionization_Penalty_Neutral>
0.0982482

> <r_epik_State_Penalty>
0.0877864

> <r_epik_Charging_Adjusted_Penalty>
0.0877864

> <i_epik_Tot_Q>
0

> <i_epik_Tot_abs_Q>
0

> <r_epik_Metal_State_Penalty>
0.0752567

> <b_epik_Metal_Only>
0

> <s_lp_Force_Field>
OPLS_2005

> <r_lp_Energy>
44.9043

> <b_lp_Chiralities_Consistent>
1

> <s_lp_Variant>
AV-unprocessed.smi:1784-2

> <Gold.Version>
5.8.1

> <Gold.Id.Protein>
6NUR|6NUR_protein|mol2

> <Gold.PLP.Fitness>
39.8743

> <Gold.PLP.PLP>
-35.1765

> <Gold.PLP.part.hbond>
-2.9859

> <Gold.PLP.part.metal>
0.0000

> <Gold.PLP.part.buried>
-3.2184

> <Gold.PLP.part.nonpolar>
-29.4588

> <Gold.PLP.part.repulsive>
0.3829

> <Gold.PLP.ligand.clash>
0.0000

> <Gold.PLP.ligand.torsion>
0.5503

> <Gold.PLP.Chemscore.Hbond>
1.8940

> <Gold.PLP.Chemscore.CHOScore>
0.0000

> <Gold.PLP.Chemscore.Metal>
0.0000

> <Gold.Chemscore.Hbonds>
donor molecule, donor type, donor heavy atom, donor atom, acceptor molecule, acceptor atom, score
      L1  H     3    22       P1  7948  0.94
      L1  H    10    32       P1  7948  0.95

> <Gold.PLP.Chemscore.Internal.Correction>
0.1163

> <Gold.Rescore>
     Score         DG    S(hbond)    S(metal)    S(lipo)     H(rot)  DE(clash)    DE(int)     intcor
     14.17     -15.80       1.55        0.00      74.09       1.38       0.01       1.62       ----

> <Gold.Chemscore.Fitness>
14.1670

> <Gold.Chemscore.DG>
-15.7978

> <Gold.Chemscore.ZeroCoef>
-5.4800

> <Gold.Chemscore.Hbond>
1.5513

> <Gold.Chemscore.Metal>
0.0000

> <Gold.Chemscore.Lipo>
74.0868

> <Gold.Chemscore.Internal_Hbond>
0.0000

> <Gold.Chemscore.DEClash>
0.0102

> <Gold.Chemscore.DEInternal>
1.6207

> <Gold.Chemscore.Rot>
1.3796

> <Gold.Chemscore.Internal.Correction>
   9.000000E+99

> <Gold.Chemscore.Hbonds>
donor molecule, donor type, donor heavy atom, donor atom, acceptor molecule, acceptor atom, score
      L1  H     3    22       P1  7948  0.41
      L1  H    10    32       P1  7948  0.21

> <Gold.Chemscore.Hbond.Weighted>
-5.1814

> <Gold.Chemscore.Metal.Weighted>
-0.0000

> <Gold.Chemscore.Lipo.Weighted>
-8.6682

> <Gold.Chemscore.Internal_Hbond.Weighted>
0.0000

> <Gold.Chemscore.DEClash.Weighted>
0.0102

> <Gold.Chemscore.DEInternal.Weighted>
1.6207

> <Gold.Chemscore.Rot.Weighted>
3.5317

> <Gold.Chemscore.Internal.Correction.Weighted>
   9.000000E+99

> <Gold.Protein.RotatedTorsions>
[ 6907 6896 6895 6894 ] final  150.71 input  -60.11 | X-H torsion
[ 7974 7965 7964 7962 ] final  144.01 input  175.53 | X-H torsion
[ 8008 7997 7996 7995 ] final   76.40 input   59.86 | X-H torsion
[ 10167 10162 10161 10158 ] final    0.15 input  -65.29 | X-H torsion
[ 10718 10713 10712 10709 ] final  -22.87 input   66.30 | X-H torsion
[ 10763 10752 10751 10750 ] final  -60.46 input  -60.55 | X-H torsion
[ 11005 11000 10999 10996 ] final  143.56 input  -57.11 | X-H torsion

> <Gold.Protein.ActiveResidues>
 VAL166  LYS551  ARG553  GLY616  TRP617  ASP618  TYR619  PRO620  LYS621  CYS622 
 ASP623  PHE694  ASN695  SER759  ASP760  ASP761  ALA762  ILE779  LEU786  VAL792 
 PHE793  MET794  SER795  GLU796  ALA797  LYS798  CYS799  TRP800  GLU811  SER814 

> <Gold.Protein.RotatedAtoms>
  152.1107  133.4299  159.4629 H   0  0  0  0  0  0  0  0  0  0  0  0  # atno 6907 bound_to 6896
  150.6867  134.2651  159.4574 H   0  0  0  0  0  0  0  0  0  0  0  0  # atno 6908 bound_to 6896
  152.0520  134.9647  160.0625 H   0  0  0  0  0  0  0  0  0  0  0  0  # atno 6909 bound_to 6896
  144.8872  139.5611  143.5815 H   0  0  0  0  0  0  0  0  0  0  0  0  # atno 7974 bound_to 7965
  155.8268  140.3467  155.5547 H   0  0  0  0  0  0  0  0  0  0  0  0  # atno 8008 bound_to 7997
  155.8284  140.0923  157.1827 H   0  0  0  0  0  0  0  0  0  0  0  0  # atno 8009 bound_to 7997
  154.4004  140.1417  156.3572 H   0  0  0  0  0  0  0  0  0  0  0  0  # atno 8010 bound_to 7997
  140.6741  143.6965  150.7986 H   0  0  0  0  0  0  0  0  0  0  0  0  # atno 10167 bound_to 10162
  156.4987  130.4583  149.6713 H   0  0  0  0  0  0  0  0  0  0  0  0  # atno 10718 bound_to 10713
  154.2696  135.6293  153.5305 H   0  0  0  0  0  0  0  0  0  0  0  0  # atno 10763 bound_to 10752
  152.9882  135.5607  154.5615 H   0  0  0  0  0  0  0  0  0  0  0  0  # atno 10764 bound_to 10752
  154.5182  135.2881  155.1260 H   0  0  0  0  0  0  0  0  0  0  0  0  # atno 10765 bound_to 10752
  140.0563  134.9228  157.1107 H   0  0  0  0  0  0  0  0  0  0  0  0  # atno 11005 bound_to 11000
  146.3032  139.7493  142.9076 LP  0  0  0  0  0  0  0  0  0  0  0  0  # atno 17320 bound_to 7965
  145.3848  141.0363  143.3157 LP  0  0  0  0  0  0  0  0  0  0  0  0  # atno 17321 bound_to 7965
  140.0655  143.5113  152.2606 LP  0  0  0  0  0  0  0  0  0  0  0  0  # atno 17342 bound_to 10162
  139.6025  144.7586  151.3139 LP  0  0  0  0  0  0  0  0  0  0  0  0  # atno 17343 bound_to 10162
  156.3354  130.7353  151.2290 LP  0  0  0  0  0  0  0  0  0  0  0  0  # atno 17370 bound_to 10713
  157.7465  131.0418  150.4665 LP  0  0  0  0  0  0  0  0  0  0  0  0  # atno 17371 bound_to 10713
  140.3838  134.2258  155.7169 LP  0  0  0  0  0  0  0  0  0  0  0  0  # atno 17394 bound_to 11000
  141.1953  133.8107  157.0718 LP  0  0  0  0  0  0  0  0  0  0  0  0  # atno 17395 bound_to 11000

$$$$
