AV-unprocessed.smi:3032|AV-procd|sdf|11562|dock9
  -GOLD-   2272016533D 1   1.00000     0.00000
 Structure written by MMmdl.
 37 38  0  0  0  0  0  0  0  0  1 V2000
  151.5409  144.5223  159.1579 C   0  0  0  0  0  0  0  0  0  0  0  0
  152.6224  143.8541  160.0184 C   0  0  1  0  0  0  0  0  0  0  0  0
  152.2673  143.9132  161.5163 C   0  0  0  0  0  0  0  0  0  0  0  0
  153.3444  143.2358  162.3780 C   0  0  0  0  0  0  0  0  0  0  0  0
  153.5817  141.7843  161.9327 C   0  0  0  0  0  0  0  0  0  0  0  0
  153.9530  141.7126  160.4371 C   0  0  1  0  0  0  0  0  0  0  0  0
  154.1571  140.2609  159.9857 C   0  0  0  0  0  0  0  0  0  0  0  0
  153.7986  139.9057  158.8623 O   0  0  0  0  0  0  0  0  0  0  0  0
  154.7602  139.4405  160.8612 N   0  0  0  0  0  0  0  0  0  0  0  0
  155.1506  138.0573  160.5958 C   0  0  0  0  0  0  0  0  0  0  0  0
  154.7103  137.0973  161.7194 C   0  0  0  0  0  0  0  0  0  0  0  0
  155.2708  137.4411  163.0636 C   0  0  0  0  0  0  0  0  0  0  0  0
  154.9841  136.7043  164.1381 N   0  0  0  0  0  0  0  0  0  0  0  0
  155.7282  137.2992  165.0953 N   0  0  0  0  0  0  0  0  0  0  0  0
  156.3926  138.3175  164.5516 C   0  0  0  0  0  0  0  0  0  0  0  0
  156.1521  138.4711  163.2567 N   0  0  0  0  0  0  0  0  0  0  0  0
  152.8661  142.3971  159.5804 C   0  0  0  0  0  0  0  0  0  0  0  0
  150.5839  144.0081  159.2540 H   0  0  0  0  0  0  0  0  0  0  0  0
  151.8179  144.5138  158.1033 H   0  0  0  0  0  0  0  0  0  0  0  0
  151.3914  145.5617  159.4512 H   0  0  0  0  0  0  0  0  0  0  0  0
  153.5497  144.4096  159.8703 H   0  0  0  0  0  0  0  0  0  0  0  0
  152.1461  144.9502  161.8314 H   0  0  0  0  0  0  0  0  0  0  0  0
  151.3069  143.4247  161.6872 H   0  0  0  0  0  0  0  0  0  0  0  0
  154.2765  143.7978  162.3079 H   0  0  0  0  0  0  0  0  0  0  0  0
  153.0482  143.2584  163.4271 H   0  0  0  0  0  0  0  0  0  0  0  0
  154.3743  141.3428  162.5384 H   0  0  0  0  0  0  0  0  0  0  0  0
  152.6817  141.1985  162.1275 H   0  0  0  0  0  0  0  0  0  0  0  0
  154.8902  142.2534  160.2930 H   0  0  0  0  0  0  0  0  0  0  0  0
  155.0182  139.8200  161.7607 H   0  0  0  0  0  0  0  0  0  0  0  0
  154.6968  137.7489  159.6539 H   0  0  0  0  0  0  0  0  0  0  0  0
  156.2291  137.9820  160.4485 H   0  0  0  0  0  0  0  0  0  0  0  0
  153.6216  137.0933  161.7876 H   0  0  0  0  0  0  0  0  0  0  0  0
  154.9999  136.0774  161.4639 H   0  0  0  0  0  0  0  0  0  0  0  0
  157.0647  138.9530  165.1093 H   0  0  0  0  0  0  0  0  0  0  0  0
  151.9305  141.8389  159.6471 H   0  0  0  0  0  0  0  0  0  0  0  0
  153.1591  142.3772  158.5297 H   0  0  0  0  0  0  0  0  0  0  0  0
  155.7516  136.9859  166.0551 H   0  0  0  0  0  0  0  0  0  0  0  0
  1  2  1  0  0  0  0
  1 18  1  0  0  0  0
  1 19  1  0  0  0  0
  1 20  1  0  0  0  0
  2 17  1  0  0  0  0
  2  3  1  0  0  0  0
  2 21  1  0  0  0  0
  3  4  1  0  0  0  0
  3 22  1  0  0  0  0
  3 23  1  0  0  0  0
  4  5  1  0  0  0  0
  4 24  1  0  0  0  0
  4 25  1  0  0  0  0
  5  6  1  0  0  0  0
  5 26  1  0  0  0  0
  5 27  1  0  0  0  0
  6  7  1  0  0  0  0
  6 17  1  0  0  0  0
  6 28  1  0  0  0  0
  7  8  2  0  0  0  0
  7  9  1  0  0  0  0
  9 10  1  0  0  0  0
  9 29  1  0  0  0  0
 10 11  1  0  0  0  0
 10 30  1  0  0  0  0
 10 31  1  0  0  0  0
 11 32  1  0  0  0  0
 11 33  1  0  0  0  0
 11 12  1  0  0  0  0
 12 16  1  0  0  0  0
 12 13  2  0  0  0  0
 13 14  1  0  0  0  0
 14 15  1  0  0  0  0
 14 37  1  0  0  0  0
 15 16  2  0  0  0  0
 15 34  1  0  0  0  0
 17 35  1  0  0  0  0
 17 36  1  0  0  0  0
M  END
> <s_m_source_file>
AV-unprocessed.smi

> <i_m_source_file_index>
3032

> <i_lp_mmshare_version>
43012

> <i_f3d_flags>
0

> <s_epik_input>
W0NIM11bQ0BASF0xW0NIMl1bQ0gyXVtDSDJdW0NASF0oW0NIMl0xKUMoPU8pW05IXVtDSDJdW0NIMl1jMm5uW2NIXVtuSF0y

> <s_epik_cmdline>
J2VwaWtfcHl0aG9uJywgJy1waCcsICc3LjAnLCAnLXRuJywgJzgnLCAnLW1hJywgJzIwMCcsICctbWV0YWxfYmluZGluZycsICctaW1hZScsICc8aW5maWxlLm1hZT4nLCAnLW9tYWUnLCAnPG91dGZpbGUubWFlPic=

> <r_epik_Ionization_Penalty>
0.000752022

> <r_epik_Ionization_Penalty_Charging>
0

> <r_epik_Ionization_Penalty_Neutral>
0.000752022

> <r_epik_State_Penalty>
0.639926

> <r_epik_Charging_Adjusted_Penalty>
0.639926

> <i_epik_Tot_Q>
0

> <i_epik_Tot_abs_Q>
0

> <r_epik_Metal_State_Penalty>
0.76532

> <b_epik_Metal_Only>
0

> <s_lp_Force_Field>
OPLS_2005

> <r_lp_Energy>
8.74502

> <b_lp_Chiralities_Consistent>
1

> <s_lp_Variant>
AV-unprocessed.smi:3032-6

> <Gold.Version>
5.8.1

> <Gold.Id.Protein>
6NUR|6NUR_protein|mol2

> <Gold.PLP.Fitness>
44.1756

> <Gold.PLP.PLP>
-42.5008

> <Gold.PLP.part.hbond>
-2.0000

> <Gold.PLP.part.metal>
0.0000

> <Gold.PLP.part.buried>
-6.8602

> <Gold.PLP.part.nonpolar>
-33.4344

> <Gold.PLP.part.repulsive>
0.2757

> <Gold.PLP.ligand.clash>
0.0000

> <Gold.PLP.ligand.torsion>
0.6720

> <Gold.PLP.Chemscore.Hbond>
1.0000

> <Gold.PLP.Chemscore.CHOScore>
0.0000

> <Gold.PLP.Chemscore.Metal>
0.0000

> <Gold.Chemscore.Hbonds>
donor molecule, donor type, donor heavy atom, donor atom, acceptor molecule, acceptor atom, score
      P1  H  7997  8008       L1     8  1.00

> <Gold.PLP.Chemscore.Internal.Correction>
0.0189

> <Gold.Rescore>
     Score         DG    S(hbond)    S(metal)    S(lipo)     H(rot)  DE(clash)    DE(int)     intcor
     12.79     -13.62       0.97        0.00      90.95       2.25       0.02       0.80       ----

> <Gold.Chemscore.Fitness>
12.7912

> <Gold.Chemscore.DG>
-13.6159

> <Gold.Chemscore.ZeroCoef>
-5.4800

> <Gold.Chemscore.Hbond>
0.9746

> <Gold.Chemscore.Metal>
0.0000

> <Gold.Chemscore.Lipo>
90.9482

> <Gold.Chemscore.Internal_Hbond>
0.0000

> <Gold.Chemscore.DEClash>
0.0234

> <Gold.Chemscore.DEInternal>
0.8013

> <Gold.Chemscore.Rot>
2.2501

> <Gold.Chemscore.Internal.Correction>
   9.000000E+99

> <Gold.Chemscore.Hbonds>
donor molecule, donor type, donor heavy atom, donor atom, acceptor molecule, acceptor atom, score
      P1  H  7997  8008       L1     8  0.97

> <Gold.Chemscore.Hbond.Weighted>
-3.2553

> <Gold.Chemscore.Metal.Weighted>
-0.0000

> <Gold.Chemscore.Lipo.Weighted>
-10.6409

> <Gold.Chemscore.Internal_Hbond.Weighted>
0.0000

> <Gold.Chemscore.DEClash.Weighted>
0.0234

> <Gold.Chemscore.DEInternal.Weighted>
0.8013

> <Gold.Chemscore.Rot.Weighted>
5.7603

> <Gold.Chemscore.Internal.Correction.Weighted>
   9.000000E+99

> <Gold.Protein.RotatedTorsions>
[ 6907 6896 6895 6894 ] final -115.28 input  -60.11 | X-H torsion
[ 7974 7965 7964 7962 ] final  -10.25 input  175.53 | X-H torsion
[ 8008 7997 7996 7995 ] final -105.14 input   59.86 | X-H torsion
[ 10167 10162 10161 10158 ] final  -39.55 input  -65.29 | X-H torsion
[ 10718 10713 10712 10709 ] final -109.69 input   66.30 | X-H torsion
[ 10763 10752 10751 10750 ] final  115.78 input  -60.55 | X-H torsion
[ 11005 11000 10999 10996 ] final -155.93 input  -57.11 | X-H torsion

> <Gold.Protein.ActiveResidues>
 VAL166  LYS551  ARG553  GLY616  TRP617  ASP618  TYR619  PRO620  LYS621  CYS622 
 ASP623  PHE694  ASN695  SER759  ASP760  ASP761  ALA762  ILE779  LEU786  VAL792 
 PHE793  MET794  SER795  GLU796  ALA797  LYS798  CYS799  TRP800  GLU811  SER814 

> <Gold.Protein.RotatedAtoms>
  150.7965  133.8681  159.3250 H   0  0  0  0  0  0  0  0  0  0  0  0  # atno 6907 bound_to 6896
  151.6505  135.1000  160.0169 H   0  0  0  0  0  0  0  0  0  0  0  0  # atno 6908 bound_to 6896
  152.4048  133.6833  159.6382 H   0  0  0  0  0  0  0  0  0  0  0  0  # atno 6909 bound_to 6896
  146.2226  140.2736  142.8358 H   0  0  0  0  0  0  0  0  0  0  0  0  # atno 7974 bound_to 7965
  154.8955  140.0414  157.1863 H   0  0  0  0  0  0  0  0  0  0  0  0  # atno 8008 bound_to 7997
  154.8497  140.2927  155.5585 H   0  0  0  0  0  0  0  0  0  0  0  0  # atno 8009 bound_to 7997
  156.2995  140.2467  156.3454 H   0  0  0  0  0  0  0  0  0  0  0  0  # atno 8010 bound_to 7997
  140.7061  143.3207  151.2798 H   0  0  0  0  0  0  0  0  0  0  0  0  # atno 10167 bound_to 10162
  156.0550  130.5776  150.8134 H   0  0  0  0  0  0  0  0  0  0  0  0  # atno 10718 bound_to 10713
  153.5274  135.3585  155.2660 H   0  0  0  0  0  0  0  0  0  0  0  0  # atno 10763 bound_to 10752
  154.8730  135.4060  154.3190 H   0  0  0  0  0  0  0  0  0  0  0  0  # atno 10764 bound_to 10752
  153.3873  135.7070  153.6588 H   0  0  0  0  0  0  0  0  0  0  0  0  # atno 10765 bound_to 10752
  140.6811  134.4143  157.5226 H   0  0  0  0  0  0  0  0  0  0  0  0  # atno 11005 bound_to 11000
  144.9249  140.7910  143.5725 LP  0  0  0  0  0  0  0  0  0  0  0  0  # atno 17320 bound_to 7965
  145.2675  139.1967  143.4859 LP  0  0  0  0  0  0  0  0  0  0  0  0  # atno 17321 bound_to 7965
  139.6661  144.0103  152.2723 LP  0  0  0  0  0  0  0  0  0  0  0  0  # atno 17342 bound_to 10162
  139.9686  144.6509  150.8010 LP  0  0  0  0  0  0  0  0  0  0  0  0  # atno 17343 bound_to 10162
  157.5512  131.0944  150.9693 LP  0  0  0  0  0  0  0  0  0  0  0  0  # atno 17370 bound_to 10713
  156.9952  130.5579  149.5306 LP  0  0  0  0  0  0  0  0  0  0  0  0  # atno 17371 bound_to 10713
  139.8951  134.8690  156.2145 LP  0  0  0  0  0  0  0  0  0  0  0  0  # atno 17394 bound_to 11000
  141.0317  133.6985  156.1441 LP  0  0  0  0  0  0  0  0  0  0  0  0  # atno 17395 bound_to 11000

$$$$
