AV-unprocessed.smi:819|AV-procd|sdf|3835|dock9
  -GOLD-   22720 1283D 1   1.00000     0.00000
 Structure written by MMmdl.
 40 41  0  0  0  0  0  0  0  0  1 V2000
  146.7888  139.7505  151.6604 C   0  0  0  0  0  0  0  0  0  0  0  0
  146.6211  138.7585  152.8233 C   0  0  1  0  0  0  0  0  0  0  0  0
  146.7314  137.4029  152.2864 N   0  0  0  0  0  0  0  0  0  0  0  0
  145.6998  136.5755  152.0591 C   0  0  0  0  0  0  0  0  0  0  0  0
  144.5279  136.8835  152.2738 O   0  0  0  0  0  0  0  0  0  0  0  0
  146.1261  135.3912  151.5871 N   0  0  0  0  0  0  0  0  0  0  0  0
  145.3742  134.2424  151.2146 C   0  0  0  0  0  0  0  0  0  0  0  0
  145.8683  133.1648  150.4384 C   0  0  0  0  0  0  0  0  0  0  0  0
  145.0120  132.0841  150.1520 C   0  0  0  0  0  0  0  0  0  0  0  0
  143.6967  132.1153  150.6534 C   0  0  0  0  0  0  0  0  0  0  0  0
  143.2137  133.1307  151.3991 N   0  0  0  0  0  0  0  0  0  0  0  0
  144.0399  134.1638  151.6685 C   0  0  0  0  0  0  0  0  0  0  0  0
  147.7311  139.0199  153.8535 C   0  0  0  0  0  0  0  0  0  0  0  0
  147.6916  140.0156  154.5783 O   0  0  0  0  0  0  0  0  0  0  0  0
  148.7155  138.1104  153.9044 N   0  0  0  0  0  0  0  0  0  0  0  0
  149.8786  138.1764  154.7846 C   0  0  0  0  0  0  0  0  0  0  0  0
  149.4659  138.4762  156.2398 C   0  0  0  0  0  0  0  0  0  0  0  0
  149.8790  139.9243  156.5026 C   0  0  0  0  0  0  0  0  0  0  0  0
  151.1165  140.1204  155.6326 C   0  0  0  0  0  0  0  0  0  0  0  0
  150.8186  139.3223  154.3618 C   0  0  0  0  0  0  0  0  0  0  0  0
  146.7208  140.7826  152.0069 H   0  0  0  0  0  0  0  0  0  0  0  0
  146.0078  139.6084  150.9130 H   0  0  0  0  0  0  0  0  0  0  0  0
  147.7504  139.6313  151.1582 H   0  0  0  0  0  0  0  0  0  0  0  0
  145.6386  138.8962  153.2799 H   0  0  0  0  0  0  0  0  0  0  0  0
  147.6632  137.0675  152.0918 H   0  0  0  0  0  0  0  0  0  0  0  0
  147.1272  135.2891  151.5054 H   0  0  0  0  0  0  0  0  0  0  0  0
  146.8777  133.1322  150.0620 H   0  0  0  0  0  0  0  0  0  0  0  0
  145.3573  131.2478  149.5622 H   0  0  0  0  0  0  0  0  0  0  0  0
  143.0160  131.3012  150.4528 H   0  0  0  0  0  0  0  0  0  0  0  0
  143.6185  134.9572  152.2686 H   0  0  0  0  0  0  0  0  0  0  0  0
  148.6679  137.3264  153.2699 H   0  0  0  0  0  0  0  0  0  0  0  0
  150.4189  137.2286  154.7463 H   0  0  0  0  0  0  0  0  0  0  0  0
  148.4052  138.3123  156.4366 H   0  0  0  0  0  0  0  0  0  0  0  0
  150.0193  137.8179  156.9109 H   0  0  0  0  0  0  0  0  0  0  0  0
  149.0865  140.5982  156.1735 H   0  0  0  0  0  0  0  0  0  0  0  0
  150.0698  140.1221  157.5576 H   0  0  0  0  0  0  0  0  0  0  0  0
  151.3254  141.1710  155.4293 H   0  0  0  0  0  0  0  0  0  0  0  0
  151.9877  139.6985  156.1356 H   0  0  0  0  0  0  0  0  0  0  0  0
  151.7311  138.9534  153.8922 H   0  0  0  0  0  0  0  0  0  0  0  0
  150.3286  139.9773  153.6395 H   0  0  0  0  0  0  0  0  0  0  0  0
  1  2  1  0  0  0  0
  1 21  1  0  0  0  0
  1 22  1  0  0  0  0
  1 23  1  0  0  0  0
  2  3  1  0  0  0  0
  2 13  1  0  0  0  0
  2 24  1  0  0  0  0
  3  4  1  0  0  0  0
  3 25  1  0  0  0  0
  4  5  2  0  0  0  0
  4  6  1  0  0  0  0
  6  7  1  0  0  0  0
  6 26  1  0  0  0  0
  7 12  1  0  0  0  0
  7  8  2  0  0  0  0
  8  9  1  0  0  0  0
  8 27  1  0  0  0  0
  9 10  2  0  0  0  0
  9 28  1  0  0  0  0
 10 11  1  0  0  0  0
 10 29  1  0  0  0  0
 11 12  2  0  0  0  0
 12 30  1  0  0  0  0
 13 14  2  0  0  0  0
 13 15  1  0  0  0  0
 15 16  1  0  0  0  0
 15 31  1  0  0  0  0
 16 20  1  0  0  0  0
 16 17  1  0  0  0  0
 16 32  1  0  0  0  0
 17 18  1  0  0  0  0
 17 33  1  0  0  0  0
 17 34  1  0  0  0  0
 18 19  1  0  0  0  0
 18 35  1  0  0  0  0
 18 36  1  0  0  0  0
 19 20  1  0  0  0  0
 19 37  1  0  0  0  0
 19 38  1  0  0  0  0
 20 39  1  0  0  0  0
 20 40  1  0  0  0  0
M  END
> <s_m_source_file>
AV-unprocessed.smi

> <i_m_source_file_index>
819

> <i_lp_mmshare_version>
43012

> <i_f3d_flags>
0

> <s_epik_input>
W0NIMl0xW0NIMl1bQ0gyXVtDSDJdW0NIXTFbTkhdQyg9TylbQ0BIXShbQ0gzXSlbTkhdQyg9TylbTkhdYzJbY0hdW2NIXVtjSF1uW2NIXTI=

> <s_epik_cmdline>
J2VwaWtfcHl0aG9uJywgJy1waCcsICc3LjAnLCAnLXRuJywgJzgnLCAnLW1hJywgJzIwMCcsICctbWV0YWxfYmluZGluZycsICctaW1hZScsICc8aW5maWxlLm1hZT4nLCAnLW9tYWUnLCAnPG91dGZpbGUubWFlPic=

> <r_epik_Ionization_Penalty>
0.00416979

> <r_epik_Ionization_Penalty_Charging>
0

> <r_epik_Ionization_Penalty_Neutral>
0.00416979

> <r_epik_State_Penalty>
0.00297037

> <r_epik_Charging_Adjusted_Penalty>
0.00297037

> <i_epik_Tot_Q>
0

> <i_epik_Tot_abs_Q>
0

> <r_epik_Metal_State_Penalty>
-0

> <b_epik_Metal_Only>
0

> <s_lp_Force_Field>
OPLS_2005

> <r_lp_Energy>
20.1385

> <b_lp_Chiralities_Consistent>
1

> <s_lp_Variant>
AV-unprocessed.smi:819-2

> <Gold.Version>
5.8.1

> <Gold.Id.Protein>
6NUR|6NUR_protein|mol2

> <Gold.PLP.Fitness>
42.6311

> <Gold.PLP.PLP>
-32.3647

> <Gold.PLP.part.hbond>
-2.9948

> <Gold.PLP.part.metal>
0.0000

> <Gold.PLP.part.buried>
-2.1745

> <Gold.PLP.part.nonpolar>
-28.7723

> <Gold.PLP.part.repulsive>
1.1350

> <Gold.PLP.ligand.clash>
0.0000

> <Gold.PLP.ligand.torsion>
0.6735

> <Gold.PLP.Chemscore.Hbond>
2.8892

> <Gold.PLP.Chemscore.CHOScore>
0.9765

> <Gold.PLP.Chemscore.Metal>
0.0000

> <Gold.Chemscore.Hbonds>
donor molecule, donor type, donor heavy atom, donor atom, acceptor molecule, acceptor atom, score
      L1  H     3    25       P1  7948  1.00
      L1  H     6    26       P1  7948  0.89
      L1  H    15    31       P1  7948  1.00
      L1  C    10    29       P1 10952  0.95

> <Gold.PLP.Chemscore.Internal.Correction>
0.0162

> <Gold.Rescore>
     Score         DG    S(hbond)    S(metal)    S(lipo)     H(rot)  DE(clash)    DE(int)     intcor
     15.12     -20.52       2.89        0.00      79.26       1.52       0.89       4.51       ----

> <Gold.Chemscore.Fitness>
15.1204

> <Gold.Chemscore.DG>
-20.5217

> <Gold.Chemscore.ZeroCoef>
-5.4800

> <Gold.Chemscore.Hbond>
2.8939

> <Gold.Chemscore.Metal>
0.0000

> <Gold.Chemscore.Lipo>
79.2643

> <Gold.Chemscore.Internal_Hbond>
0.0000

> <Gold.Chemscore.DEClash>
0.8866

> <Gold.Chemscore.DEInternal>
4.5146

> <Gold.Chemscore.Rot>
1.5225

> <Gold.Chemscore.Internal.Correction>
   9.000000E+99

> <Gold.Chemscore.Hbonds>
donor molecule, donor type, donor heavy atom, donor atom, acceptor molecule, acceptor atom, score
      L1  H     3    25       P1  7948  0.93
      L1  H     6    26       P1  7948  0.77
      L1  H    15    31       P1  7948  1.00

> <Gold.Chemscore.Hbond.Weighted>
-9.6655

> <Gold.Chemscore.Metal.Weighted>
-0.0000

> <Gold.Chemscore.Lipo.Weighted>
-9.2739

> <Gold.Chemscore.Internal_Hbond.Weighted>
0.0000

> <Gold.Chemscore.DEClash.Weighted>
0.8866

> <Gold.Chemscore.DEInternal.Weighted>
4.5146

> <Gold.Chemscore.Rot.Weighted>
3.8977

> <Gold.Chemscore.Internal.Correction.Weighted>
   9.000000E+99

> <Gold.Protein.RotatedTorsions>
[ 6907 6896 6895 6894 ] final -121.47 input  -60.11 | X-H torsion
[ 7974 7965 7964 7962 ] final   60.25 input  175.53 | X-H torsion
[ 8008 7997 7996 7995 ] final   76.60 input   59.86 | X-H torsion
[ 10167 10162 10161 10158 ] final   50.79 input  -65.29 | X-H torsion
[ 10718 10713 10712 10709 ] final -139.46 input   66.30 | X-H torsion
[ 10763 10752 10751 10750 ] final  -56.16 input  -60.55 | X-H torsion
[ 11005 11000 10999 10996 ] final   21.94 input  -57.11 | X-H torsion

> <Gold.Protein.ActiveResidues>
 VAL166  LYS551  ARG553  GLY616  TRP617  ASP618  TYR619  PRO620  LYS621  CYS622 
 ASP623  PHE694  ASN695  SER759  ASP760  ASP761  ALA762  ILE779  LEU786  VAL792 
 PHE793  MET794  SER795  GLU796  ALA797  LYS798  CYS799  TRP800  GLU811  SER814 

> <Gold.Protein.RotatedAtoms>
  150.8486  133.7822  159.3033 H   0  0  0  0  0  0  0  0  0  0  0  0  # atno 6907 bound_to 6896
  151.5502  135.1066  159.9957 H   0  0  0  0  0  0  0  0  0  0  0  0  # atno 6908 bound_to 6896
  152.4534  133.7631  159.6814 H   0  0  0  0  0  0  0  0  0  0  0  0  # atno 6909 bound_to 6896
  145.8981  139.3561  143.0609 H   0  0  0  0  0  0  0  0  0  0  0  0  # atno 7974 bound_to 7965
  155.8296  140.3466  155.5564 H   0  0  0  0  0  0  0  0  0  0  0  0  # atno 8008 bound_to 7997
  155.8256  140.0919  157.1843 H   0  0  0  0  0  0  0  0  0  0  0  0  # atno 8009 bound_to 7997
  154.4004  140.1422  156.3539 H   0  0  0  0  0  0  0  0  0  0  0  0  # atno 8010 bound_to 7997
  140.2687  144.3290  150.6296 H   0  0  0  0  0  0  0  0  0  0  0  0  # atno 10167 bound_to 10162
  156.3111  130.7482  151.1558 H   0  0  0  0  0  0  0  0  0  0  0  0  # atno 10718 bound_to 10713
  154.2022  135.6409  153.5090 H   0  0  0  0  0  0  0  0  0  0  0  0  # atno 10763 bound_to 10752
  153.0009  135.5454  154.6303 H   0  0  0  0  0  0  0  0  0  0  0  0  # atno 10764 bound_to 10752
  154.5719  135.2917  155.0792 H   0  0  0  0  0  0  0  0  0  0  0  0  # atno 10765 bound_to 10752
  140.3860  134.1869  155.7663 H   0  0  0  0  0  0  0  0  0  0  0  0  # atno 11005 bound_to 11000
  145.8825  140.9354  143.0594 LP  0  0  0  0  0  0  0  0  0  0  0  0  # atno 17320 bound_to 7965
  144.6734  140.0798  143.7469 LP  0  0  0  0  0  0  0  0  0  0  0  0  # atno 17321 bound_to 7965
  140.5907  143.2168  151.7258 LP  0  0  0  0  0  0  0  0  0  0  0  0  # atno 17342 bound_to 10162
  139.4995  144.3943  152.0247 LP  0  0  0  0  0  0  0  0  0  0  0  0  # atno 17343 bound_to 10162
  157.7391  131.0533  150.5253 LP  0  0  0  0  0  0  0  0  0  0  0  0  # atno 17370 bound_to 10713
  156.5393  130.4204  149.6162 LP  0  0  0  0  0  0  0  0  0  0  0  0  # atno 17371 bound_to 10713
  141.1907  133.8211  157.0908 LP  0  0  0  0  0  0  0  0  0  0  0  0  # atno 17394 bound_to 11000
  140.0442  134.9839  157.1018 LP  0  0  0  0  0  0  0  0  0  0  0  0  # atno 17395 bound_to 11000

$$$$
