AV-unprocessed.smi:573|AV-procd|sdf|2967|dock4
  -GOLD-   2262023473D 1   1.00000     0.00000
 Structure written by MMmdl.
 45 47  0  0  0  0  0  0  0  0  2 V2000
  145.3148  135.7956  151.1323 C   0  0  0  0  0  0  0  0  0  0  0  0
  145.4202  136.9934  152.0878 C   0  0  2  0  0  0  0  0  0  0  0  0
  144.1308  137.5422  152.2551 O   0  0  0  0  0  0  0  0  0  0  0  0
  146.3465  138.1049  151.5613 C   0  0  0  0  0  0  0  0  0  0  0  0
  146.3685  139.2744  152.4282 N   0  0  0  0  0  0  0  0  0  0  0  0
  147.5057  139.5580  153.1937 C   0  0  0  0  0  0  0  0  0  0  0  0
  148.5789  138.7410  153.3691 N   0  3  0  0  0  0  0  0  0  0  0  0
  149.4890  139.3852  154.2118 C   0  0  0  0  0  0  0  0  0  0  0  0
  150.7285  138.9736  154.6919 C   0  0  0  0  0  0  0  0  0  0  0  0
  151.4066  139.8682  155.5456 C   0  0  0  0  0  0  0  0  0  0  0  0
  150.8508  141.1164  155.8937 C   0  0  0  0  0  0  0  0  0  0  0  0
  149.5950  141.5269  155.4004 C   0  0  0  0  0  0  0  0  0  0  0  0
  148.9297  140.6403  154.5536 C   0  0  0  0  0  0  0  0  0  0  0  0
  147.6968  140.7075  153.8904 N   0  0  0  0  0  0  0  0  0  0  0  0
  146.8466  141.8993  154.0280 C   0  0  0  0  0  0  0  0  0  0  0  0
  146.0100  141.8737  155.3179 C   0  0  2  0  0  0  0  0  0  0  0  0
  146.8579  142.2087  156.5598 C   0  0  0  0  0  0  0  0  0  0  0  0
  146.0109  142.1121  157.8337 C   0  0  0  0  0  0  0  0  0  0  0  0
  145.3184  140.7463  157.8920 C   0  0  0  0  0  0  0  0  0  0  0  0
  144.5516  140.4794  156.5871 C   0  0  0  0  0  0  0  0  0  0  0  0
  145.4361  140.5772  155.4754 O   0  0  0  0  0  0  0  0  0  0  0  0
  146.2824  135.3113  150.9976 H   0  0  0  0  0  0  0  0  0  0  0  0
  144.9572  136.1021  150.1487 H   0  0  0  0  0  0  0  0  0  0  0  0
  144.6253  135.0440  151.5184 H   0  0  0  0  0  0  0  0  0  0  0  0
  145.7612  136.6511  153.0655 H   0  0  0  0  0  0  0  0  0  0  0  0
  143.9660  138.1473  151.5479 H   0  0  0  0  0  0  0  0  0  0  0  0
  147.3654  137.7276  151.4691 H   0  0  0  0  0  0  0  0  0  0  0  0
  146.0433  138.4069  150.5579 H   0  0  0  0  0  0  0  0  0  0  0  0
  145.6374  139.9653  152.3370 H   0  0  0  0  0  0  0  0  0  0  0  0
  151.1555  138.0164  154.4305 H   0  0  0  0  0  0  0  0  0  0  0  0
  152.3716  139.5902  155.9437 H   0  0  0  0  0  0  0  0  0  0  0  0
  151.3985  141.7735  156.5539 H   0  0  0  0  0  0  0  0  0  0  0  0
  149.1771  142.4829  155.6793 H   0  0  0  0  0  0  0  0  0  0  0  0
  147.4705  142.7917  153.9791 H   0  0  0  0  0  0  0  0  0  0  0  0
  146.1912  141.9369  153.1572 H   0  0  0  0  0  0  0  0  0  0  0  0
  145.2051  142.6050  155.2217 H   0  0  0  0  0  0  0  0  0  0  0  0
  147.6983  141.5169  156.6293 H   0  0  0  0  0  0  0  0  0  0  0  0
  147.2828  143.2091  156.4706 H   0  0  0  0  0  0  0  0  0  0  0  0
  146.6323  142.2621  158.7172 H   0  0  0  0  0  0  0  0  0  0  0  0
  145.2616  142.9047  157.8378 H   0  0  0  0  0  0  0  0  0  0  0  0
  146.0629  139.9636  158.0434 H   0  0  0  0  0  0  0  0  0  0  0  0
  144.6401  140.7031  158.7447 H   0  0  0  0  0  0  0  0  0  0  0  0
  144.1195  139.4788  156.6052 H   0  0  0  0  0  0  0  0  0  0  0  0
  143.7243  141.1809  156.4698 H   0  0  0  0  0  0  0  0  0  0  0  0
  148.6764  137.8238  152.9532 H   0  0  0  0  0  0  0  0  0  0  0  0
  1  2  1  0  0  0  0
  1 22  1  0  0  0  0
  1 23  1  0  0  0  0
  1 24  1  0  0  0  0
  2  3  1  0  0  0  0
  2  4  1  0  0  0  0
  2 25  1  0  0  0  0
  3 26  1  0  0  0  0
  4  5  1  0  0  0  0
  4 27  1  0  0  0  0
  4 28  1  0  0  0  0
  5  6  1  0  0  0  0
  5 29  1  0  0  0  0
  6 14  1  0  0  0  0
  6  7  2  0  0  0  0
  7  8  1  0  0  0  0
  7 45  1  0  0  0  0
  8 13  2  0  0  0  0
  8  9  1  0  0  0  0
  9 10  2  0  0  0  0
  9 30  1  0  0  0  0
 10 11  1  0  0  0  0
 10 31  1  0  0  0  0
 11 12  2  0  0  0  0
 11 32  1  0  0  0  0
 12 13  1  0  0  0  0
 12 33  1  0  0  0  0
 13 14  1  0  0  0  0
 14 15  1  0  0  0  0
 15 16  1  0  0  0  0
 15 34  1  0  0  0  0
 15 35  1  0  0  0  0
 16 21  1  0  0  0  0
 16 17  1  0  0  0  0
 16 36  1  0  0  0  0
 17 18  1  0  0  0  0
 17 37  1  0  0  0  0
 17 38  1  0  0  0  0
 18 19  1  0  0  0  0
 18 39  1  0  0  0  0
 18 40  1  0  0  0  0
 19 20  1  0  0  0  0
 19 41  1  0  0  0  0
 19 42  1  0  0  0  0
 20 21  1  0  0  0  0
 20 43  1  0  0  0  0
 20 44  1  0  0  0  0
M  CHG  1   7   1
M  END
> <s_m_source_file>
AV-unprocessed.smi

> <i_m_source_file_index>
573

> <i_lp_mmshare_version>
43012

> <i_f3d_flags>
0

> <s_epik_input>
W0NIM11bQ0BIXShbT0hdKVtDSDJdW05IXWMobjEpbihjKGMxMilbY0hdW2NIXVtjSF1bY0hdMilbQ0gyXVtDQEBIXTNbQ0gyXVtDSDJdW0NIMl1bQ0gyXU8z

> <s_epik_cmdline>
J2VwaWtfcHl0aG9uJywgJy1waCcsICc3LjAnLCAnLXRuJywgJzgnLCAnLW1hJywgJzIwMCcsICctbWV0YWxfYmluZGluZycsICctaW1hZScsICc8aW5maWxlLm1hZT4nLCAnLW9tYWUnLCAnPG91dGZpbGUubWFlPic=

> <r_epik_Ionization_Penalty>
0.0692245

> <r_epik_Ionization_Penalty_Charging>
0.0692223

> <r_epik_Ionization_Penalty_Neutral>
2.1869e-06

> <r_epik_State_Penalty>
0.0606215

> <r_epik_Charging_Adjusted_Penalty>
0.129844

> <i_epik_Tot_Q>
1

> <i_epik_Tot_abs_Q>
1

> <r_epik_Metal_State_Penalty>
2.77811

> <b_epik_Metal_Only>
0

> <s_lp_Force_Field>
OPLS_2005

> <r_lp_Energy>
19.8097

> <b_lp_Chiralities_Consistent>
1

> <s_lp_Variant>
AV-unprocessed.smi:573-1

> <Gold.Version>
5.8.1

> <Gold.Id.Protein>
6NUR|6NUR_protein|mol2

> <Gold.PLP.Fitness>
54.6715

> <Gold.PLP.PLP>
-40.7145

> <Gold.PLP.part.hbond>
-5.0000

> <Gold.PLP.part.metal>
0.0000

> <Gold.PLP.part.buried>
-0.0904

> <Gold.PLP.part.nonpolar>
-36.8247

> <Gold.PLP.part.repulsive>
0.1849

> <Gold.PLP.ligand.clash>
0.0000

> <Gold.PLP.ligand.torsion>
0.5000

> <Gold.PLP.Chemscore.Hbond>
4.9825

> <Gold.PLP.Chemscore.CHOScore>
0.0000

> <Gold.PLP.Chemscore.Metal>
0.0000

> <Gold.Chemscore.Hbonds>
donor molecule, donor type, donor heavy atom, donor atom, acceptor molecule, acceptor atom, score
      L1  H     3    26       P1 10171  1.00
      L1  H     5    29       P1 10175  2.00
      L1  H     7    45       P1  7948  2.00

> <Gold.PLP.Chemscore.Internal.Correction>
0.0095

> <Gold.Rescore>
     Score         DG    S(hbond)    S(metal)    S(lipo)     H(rot)  DE(clash)    DE(int)     intcor
     18.03     -18.69       2.90        0.00      75.43       2.07       0.15       0.51       ----

> <Gold.Chemscore.Fitness>
18.0262

> <Gold.Chemscore.DG>
-18.6874

> <Gold.Chemscore.ZeroCoef>
-5.4800

> <Gold.Chemscore.Hbond>
2.8987

> <Gold.Chemscore.Metal>
0.0000

> <Gold.Chemscore.Lipo>
75.4258

> <Gold.Chemscore.Internal_Hbond>
0.0000

> <Gold.Chemscore.DEClash>
0.1544

> <Gold.Chemscore.DEInternal>
0.5068

> <Gold.Chemscore.Rot>
2.0699

> <Gold.Chemscore.Internal.Correction>
   9.000000E+99

> <Gold.Chemscore.Hbonds>
donor molecule, donor type, donor heavy atom, donor atom, acceptor molecule, acceptor atom, score
      L1  H     3    26       P1 10171  0.97
      L1  H     5    29       P1 10175  0.79
      L1  H     7    45       P1  7948  0.99

> <Gold.Chemscore.Hbond.Weighted>
-9.6816

> <Gold.Chemscore.Metal.Weighted>
-0.0000

> <Gold.Chemscore.Lipo.Weighted>
-8.8248

> <Gold.Chemscore.Internal_Hbond.Weighted>
0.0000

> <Gold.Chemscore.DEClash.Weighted>
0.1544

> <Gold.Chemscore.DEInternal.Weighted>
0.5068

> <Gold.Chemscore.Rot.Weighted>
5.2991

> <Gold.Chemscore.Internal.Correction.Weighted>
   9.000000E+99

> <Gold.Protein.RotatedTorsions>
[ 6907 6896 6895 6894 ] final  -98.32 input  -60.11 | X-H torsion
[ 7974 7965 7964 7962 ] final  -31.32 input  175.53 | X-H torsion
[ 8008 7997 7996 7995 ] final  -45.28 input   59.86 | X-H torsion
[ 10167 10162 10161 10158 ] final   40.47 input  -65.29 | X-H torsion
[ 10718 10713 10712 10709 ] final   94.93 input   66.30 | X-H torsion
[ 10763 10752 10751 10750 ] final -176.88 input  -60.55 | X-H torsion
[ 11005 11000 10999 10996 ] final  -62.95 input  -57.11 | X-H torsion

> <Gold.Protein.ActiveResidues>
 VAL166  LYS551  ARG553  GLY616  TRP617  ASP618  TYR619  PRO620  LYS621  CYS622 
 ASP623  PHE694  ASN695  SER759  ASP760  ASP761  ALA762  ILE779  LEU786  VAL792 
 PHE793  MET794  SER795  GLU796  ALA797  LYS798  CYS799  TRP800  GLU811  SER814 

> <Gold.Protein.RotatedAtoms>
  150.7043  134.1213  159.4035 H   0  0  0  0  0  0  0  0  0  0  0  0  # atno 6907 bound_to 6896
  151.9199  135.0300  160.0530 H   0  0  0  0  0  0  0  0  0  0  0  0  # atno 6908 bound_to 6896
  152.2265  133.4989  159.5228 H   0  0  0  0  0  0  0  0  0  0  0  0  # atno 6909 bound_to 6896
  146.1076  140.5652  142.8792 H   0  0  0  0  0  0  0  0  0  0  0  0  # atno 7974 bound_to 7965
  154.4000  140.1401  156.3821 H   0  0  0  0  0  0  0  0  0  0  0  0  # atno 8008 bound_to 7997
  155.7994  140.3476  155.5373 H   0  0  0  0  0  0  0  0  0  0  0  0  # atno 8009 bound_to 7997
  155.8499  140.0940  157.1672 H   0  0  0  0  0  0  0  0  0  0  0  0  # atno 8010 bound_to 7997
  140.3739  144.2069  150.6132 H   0  0  0  0  0  0  0  0  0  0  0  0  # atno 10167 bound_to 10162
  157.6943  131.0528  150.4261 H   0  0  0  0  0  0  0  0  0  0  0  0  # atno 10718 bound_to 10713
  154.5670  135.2825  155.0864 H   0  0  0  0  0  0  0  0  0  0  0  0  # atno 10763 bound_to 10752
  154.2251  135.6384  153.5161 H   0  0  0  0  0  0  0  0  0  0  0  0  # atno 10764 bound_to 10752
  153.0046  135.5524  154.6281 H   0  0  0  0  0  0  0  0  0  0  0  0  # atno 10765 bound_to 10752
  141.1377  133.6646  156.5606 H   0  0  0  0  0  0  0  0  0  0  0  0  # atno 11005 bound_to 11000
  144.7484  140.5128  143.6819 LP  0  0  0  0  0  0  0  0  0  0  0  0  # atno 17320 bound_to 7965
  145.5728  139.1484  143.3278 LP  0  0  0  0  0  0  0  0  0  0  0  0  # atno 17321 bound_to 7965
  140.5006  143.2319  151.8684 LP  0  0  0  0  0  0  0  0  0  0  0  0  # atno 17342 bound_to 10162
  139.4801  144.5064  151.8992 LP  0  0  0  0  0  0  0  0  0  0  0  0  # atno 17343 bound_to 10162
  156.4631  130.4036  149.6564 LP  0  0  0  0  0  0  0  0  0  0  0  0  # atno 17370 bound_to 10713
  156.3671  130.7511  151.2490 LP  0  0  0  0  0  0  0  0  0  0  0  0  # atno 17371 bound_to 10713
  140.3991  134.7372  157.4769 LP  0  0  0  0  0  0  0  0  0  0  0  0  # atno 17394 bound_to 11000
  140.0509  134.6132  155.8863 LP  0  0  0  0  0  0  0  0  0  0  0  0  # atno 17395 bound_to 11000

$$$$
