#       Name:                AV-unprocessed.smi:2569
#       Creating user name   scv26
#       Creation time:       Fri Mar 27 14:12:12 2020


#       File generated by GOLD software.
#

@<TRIPOS>MOLECULE
AV-unprocessed.smi:2569
    45    47     1
SMALL
NO_CHARGES


@<TRIPOS>ATOM
      1 ****        -2.1805   4.0266   3.1910 C.3            1 S1                 0.0000
      2 ****        -1.7511   2.9739   2.1831 C.ar           1 S1                 0.0000
      3 ****        -1.7854   3.3016   0.8090 C.ar           1 S1                 0.0000
      4 ****        -1.3830   2.3189  -0.0878 C.ar           1 S1                 0.0000
      5 ****        -1.2994   2.3319  -1.4817 N.pl3          1 S1                 1.0000
      6 ****        -0.8472   1.1250  -1.9213 C.2            1 S1                 0.0000
      7 ****        -0.6382   0.3419  -0.8284 N.pl3          1 S1                 0.0000
      8 ****        -0.1629  -1.0466  -0.7480 C.3            1 S1                 0.0000
      9 ****         1.3772  -1.1582  -0.7264 C.3            1 S1                 0.0000
     10 ****         1.9070  -0.4202   0.3561 O.3            1 S1                 0.0000
     11 ****         1.8896  -2.6071  -0.6099 C.3            1 S1                 0.0000
     12 ****         1.4364  -3.4523  -1.7019 N.pl3          1 S1                 0.0000
     13 ****         0.3692  -4.2758  -1.5534 N.2            1 S1                 0.0000
     14 ****         0.2054  -4.8852  -2.6923 N.2            1 S1                 0.0000
     15 ****         1.1541  -4.4877  -3.6161 N.2            1 S1                 0.0000
     16 ****         1.8902  -3.6059  -2.9528 C.2            1 S1                 0.0000
     17 ****         3.0642  -2.8675  -3.5058 C.3            1 S1                 0.0000
     18 ****        -0.9602   1.0448   0.3388 C.ar           1 S1                 0.0000
     19 ****        -0.9215   0.7056   1.6892 C.ar           1 S1                 0.0000
     20 ****        -1.3241   1.6922   2.6173 C.ar           1 S1                 0.0000
     21 ****        -1.2887   1.3512   4.0972 C.3            1 S1                 0.0000
     22 ****        -2.4659   4.9569   2.6993 H              1 S1                 0.0000
     23 ****        -1.3665   4.2516   3.8802 H              1 S1                 0.0000
     24 ****        -3.0376   3.6777   3.7677 H              1 S1                 0.0000
     25 ****        -2.1086   4.2756   0.4713 H              1 S1                 0.0000
     26 ****        -0.6857   0.8398  -2.9510 H              1 S1                 0.0000
     27 ****        -0.6069  -1.5290   0.1232 H              1 S1                 0.0000
     28 ****        -0.5656  -1.5641  -1.6193 H              1 S1                 0.0000
     29 ****         1.7736  -0.7156  -1.6407 H              1 S1                 0.0000
     30 ****         1.6510   0.4840   0.2564 H              1 S1                 0.0000
     31 ****         2.9801  -2.6237  -0.5940 H              1 S1                 0.0000
     32 ****         1.5621  -3.0487   0.3329 H              1 S1                 0.0000
     33 ****         3.3377  -3.2662  -4.4831 H              1 S1                 0.0000
     34 ****         3.9222  -2.9670  -2.8407 H              1 S1                 0.0000
     35 ****         2.8233  -1.8104  -3.6169 H              1 S1                 0.0000
     36 ****        -0.5916  -0.2675   2.0218 H              1 S1                 0.0000
     37 ****        -0.9513   0.3277   4.2627 H              1 S1                 0.0000
     38 ****        -2.2814   1.4495   4.5372 H              1 S1                 0.0000
     39 ****        -0.6063   2.0160   4.6270 H              1 S1                 0.0000
     40 ****        -1.5344   3.1052  -2.0910 H              1 S1                 0.0000
     41 ****         2.9046  -0.4903   0.3561 LP             1 S1                 0.0000
     42 ****         1.5476  -0.7795   1.2174 LP             1 S1                 0.0000
     43 ****        -0.1846  -4.3924  -0.7289 LP             1 S1                 0.0000
     44 ****        -0.5143  -5.5549  -2.8753 LP             1 S1                 0.0000
     45 ****         1.2604  -4.7933  -4.5623 LP             1 S1                 0.0000
@<TRIPOS>BOND
    1    1    2 1     
    2    1   22 1     
    3    1   23 1     
    4    1   24 1     
    5    2   20 ar    
    6    2    3 ar    
    7    3    4 ar    
    8    3   25 1     
    9    4   18 ar    
   10    4    5 1     
   11    5    6 2     
   12    5   40 1     
   13    6    7 1     
   14    6   26 1     
   15    7    8 1     
   16    7   18 1     
   17    8    9 1     
   18    8   27 1     
   19    8   28 1     
   20    9   10 1     
   21    9   11 1     
   22    9   29 1     
   23   10   30 1     
   24   11   12 1     
   25   11   31 1     
   26   11   32 1     
   27   12   16 1     
   28   12   13 1     
   29   13   14 2     
   30   14   15 1     
   31   15   16 2     
   32   16   17 1     
   33   17   33 1     
   34   17   34 1     
   35   17   35 1     
   36   18   19 ar    
   37   19   20 ar    
   38   19   36 1     
   39   20   21 1     
   40   21   37 1     
   41   21   38 1     
   42   21   39 1     
   43   10   41 1     
   44   10   42 1     
   45   13   43 1     
   46   14   44 1     
   47   15   45 1     
@<TRIPOS>SUBSTRUCTURE
      1 S1             1
@<TRIPOS>SET
LONE_PAIRS      STATIC     ATOMS    <user>   **** ""
5 41 42 43 44 45
DONOR_HYDROGENS      STATIC     ATOMS    <user>   **** ""
2 40 30
ATOM$BLUE        STATIC     ATOMS    COLORGROUP SYSTEM
5 41 42 43 44 45
ATOM$RED        STATIC     ATOMS    COLORGROUP SYSTEM
2 40 30
