#       Name:                AV-unprocessed.smi:1682
#       Creating user name   scv26
#       Creation time:       Fri Mar 27 07:49:51 2020


#       File generated by GOLD software.
#

@<TRIPOS>MOLECULE
AV-unprocessed.smi:1682
    43    44     1
SMALL
NO_CHARGES


@<TRIPOS>ATOM
      1 ****        -0.1005   0.9436   0.7579 O.2            1 S1                 0.0000
      2 ****         0.2620   0.8064  -0.4111 C.2            1 S1                 0.0000
      3 ****        -0.5542   0.3853  -1.3893 N.am           1 S1                 0.0000
      4 ****        -1.9591   0.0366  -1.2134 C.3            1 S1                 0.0000
      5 ****        -2.1234  -1.3802  -0.6380 C.3            1 S1                 0.0000
      6 ****        -3.5806  -1.7621  -0.4605 C.ar           1 S1                 0.0000
      7 ****        -4.1878  -1.7151   0.8126 C.ar           1 S1                 0.0000
      8 ****        -5.5454  -2.0741   0.9222 C.ar           1 S1                 0.0000
      9 ****        -6.2398  -2.4626  -0.2397 C.ar           1 S1                 0.0000
     10 ****        -5.5427  -2.4758  -1.4644 C.ar           1 S1                 0.0000
     11 ****        -4.2412  -2.1343  -1.5803 N.ar           1 S1                 0.0000
     12 ****         1.7126   1.1156  -0.8130 C.3            1 S1                 0.0000
     13 ****         2.0744   2.5883  -0.5358 C.3            1 S1                 0.0000
     14 ****         3.0977   2.5120   0.5845 C.2            1 S1                 0.0000
     15 ****         3.5339   3.5102   1.1559 O.2            1 S1                 0.0000
     16 ****         3.4246   1.2434   0.8521 N.am           1 S1                 0.0000
     17 ****         4.3455   0.7854   1.8915 C.3            1 S1                 0.0000
     18 ****         5.8191   0.8760   1.4555 C.3            1 S1                 0.0000
     19 ****         6.1770   2.1377   1.2182 F              1 S1                 0.0000
     20 ****         6.5892   0.3954   2.4307 F              1 S1                 0.0000
     21 ****         6.0230   0.1488   0.3570 F              1 S1                 0.0000
     22 ****         2.7356   0.2898  -0.0025 C.3            1 S1                 0.0000
     23 ****        -0.1759   0.2999  -2.3217 H              1 S1                 0.0000
     24 ****        -2.4495   0.7696  -0.5703 H              1 S1                 0.0000
     25 ****        -2.4465   0.1025  -2.1865 H              1 S1                 0.0000
     26 ****        -1.6445  -2.1087  -1.2938 H              1 S1                 0.0000
     27 ****        -1.6172  -1.4571   0.3252 H              1 S1                 0.0000
     28 ****        -3.6291  -1.4100   1.6854 H              1 S1                 0.0000
     29 ****        -6.0444  -2.0511   1.8797 H              1 S1                 0.0000
     30 ****        -7.2816  -2.7433  -0.1942 H              1 S1                 0.0000
     31 ****        -6.0439  -2.7677  -2.3753 H              1 S1                 0.0000
     32 ****         1.8393   0.9031  -1.8762 H              1 S1                 0.0000
     33 ****         2.5288   3.0528  -1.4115 H              1 S1                 0.0000
     34 ****         1.2233   3.2010  -0.2335 H              1 S1                 0.0000
     35 ****         4.1886   1.3695   2.7998 H              1 S1                 0.0000
     36 ****         4.1046  -0.2461   2.1517 H              1 S1                 0.0000
     37 ****         2.2706  -0.4960   0.5957 H              1 S1                 0.0000
     38 ****         3.4572  -0.1884  -0.6659 H              1 S1                 0.0000
     39 ****        -1.0443   0.7376   1.0162 LP             1 S1                 0.0000
     40 ****         0.5490   1.2610   1.4489 LP             1 S1                 0.0000
     41 ****        -3.7799  -2.1560  -2.4673 LP             1 S1                 0.0000
     42 ****         3.2152   4.4193   0.8876 LP             1 S1                 0.0000
     43 ****         4.2073   3.4126   1.8888 LP             1 S1                 0.0000
@<TRIPOS>BOND
    1    1    2 2     
    2    2    3 am    
    3    2   12 1     
    4    3    4 1     
    5    3   23 1     
    6    4    5 1     
    7    4   24 1     
    8    4   25 1     
    9    5    6 1     
   10    5   26 1     
   11    5   27 1     
   12    6   11 ar    
   13    6    7 ar    
   14    7    8 ar    
   15    7   28 1     
   16    8    9 ar    
   17    8   29 1     
   18    9   10 ar    
   19    9   30 1     
   20   10   11 ar    
   21   10   31 1     
   22   12   22 1     
   23   12   13 1     
   24   12   32 1     
   25   13   14 1     
   26   13   33 1     
   27   13   34 1     
   28   14   15 2     
   29   14   16 am    
   30   16   17 1     
   31   16   22 1     
   32   17   18 1     
   33   17   35 1     
   34   17   36 1     
   35   18   19 1     
   36   18   20 1     
   37   18   21 1     
   38   22   37 1     
   39   22   38 1     
   40    1   39 1     
   41    1   40 1     
   42   11   41 1     
   43   15   42 1     
   44   15   43 1     
@<TRIPOS>SUBSTRUCTURE
      1 S1             1
@<TRIPOS>SET
LONE_PAIRS      STATIC     ATOMS    <user>   **** ""
5 39 40 41 42 43
DONOR_HYDROGENS      STATIC     ATOMS    <user>   **** ""
1 23
ATOM$BLUE        STATIC     ATOMS    COLORGROUP SYSTEM
5 39 40 41 42 43
ATOM$RED        STATIC     ATOMS    COLORGROUP SYSTEM
1 23
