AV-unprocessed.smi:543|AV-procd|sdf|2875|dock2
  -GOLD-   2262023363D 1   1.00000     0.00000
 Structure written by MMmdl.
 46 48  0  0  0  0  0  0  0  0  1 V2000
  156.2329  137.9195  157.3782 C   0  0  0  0  0  0  0  0  0  0  0  0
  155.1209  138.4510  158.0752 O   0  0  0  0  0  0  0  0  0  0  0  0
  153.9537  137.6589  157.9258 C   0  0  0  0  0  0  0  0  0  0  0  0
  153.0499  137.8373  159.1536 C   0  0  0  0  0  0  0  0  0  0  0  0
  153.8139  138.2227  160.3394 N   0  0  0  0  0  0  0  0  0  0  0  0
  154.0148  139.4611  160.8757 C   0  0  0  0  0  0  0  0  0  0  0  0
  153.5028  140.6289  160.2962 N   0  0  0  0  0  0  0  0  0  0  0  0
  152.7067  140.6948  159.0767 C   0  0  0  0  0  0  0  0  0  0  0  0
  153.8490  141.9813  160.7353 C   0  0  0  0  0  0  0  0  0  0  0  0
  152.7725  143.0338  160.5211 C   0  0  0  0  0  0  0  0  0  0  0  0
  152.6666  143.6879  159.2754 C   0  0  0  0  0  0  0  0  0  0  0  0
  151.6649  144.6553  159.0654 C   0  0  0  0  0  0  0  0  0  0  0  0
  150.7660  144.9753  160.1009 C   0  0  0  0  0  0  0  0  0  0  0  0
  150.8699  144.3282  161.3472 C   0  0  0  0  0  0  0  0  0  0  0  0
  151.8718  143.3610  161.5577 C   0  0  0  0  0  0  0  0  0  0  0  0
  154.7024  139.4553  162.0219 N   0  0  0  0  0  0  0  0  0  0  0  0
  154.9825  138.1156  162.2251 C   0  0  0  0  0  0  0  0  0  0  0  0
  154.4496  137.3583  161.2343 C   0  0  0  0  0  0  0  0  0  0  0  0
  154.5563  135.8924  161.2239 C   0  0  0  0  0  0  0  0  0  0  0  0
  154.0630  135.1815  160.3510 O   0  0  0  0  0  0  0  0  0  0  0  0
  155.2485  135.4013  162.2806 N   0  0  0  0  0  0  0  0  0  0  0  0
  155.8181  136.1093  163.3032 C   0  0  0  0  0  0  0  0  0  0  0  0
  156.4215  135.5193  164.1991 O   0  0  0  0  0  0  0  0  0  0  0  0
  155.6868  137.4741  163.2832 N   0  0  0  0  0  0  0  0  0  0  0  0
  156.2772  138.2834  164.3512 C   0  0  0  0  0  0  0  0  0  0  0  0
  155.3530  134.3981  162.3200 H   0  0  0  0  0  0  0  0  0  0  0  0
  157.1022  138.5575  157.5371 H   0  0  0  0  0  0  0  0  0  0  0  0
  156.0397  137.8745  156.3058 H   0  0  0  0  0  0  0  0  0  0  0  0
  156.4797  136.9180  157.7330 H   0  0  0  0  0  0  0  0  0  0  0  0
  153.4165  137.9500  157.0219 H   0  0  0  0  0  0  0  0  0  0  0  0
  154.2282  136.6088  157.8178 H   0  0  0  0  0  0  0  0  0  0  0  0
  152.2883  138.5905  158.9579 H   0  0  0  0  0  0  0  0  0  0  0  0
  152.4933  136.9238  159.3348 H   0  0  0  0  0  0  0  0  0  0  0  0
  152.7269  139.7401  158.5507 H   0  0  0  0  0  0  0  0  0  0  0  0
  153.0932  141.4476  158.3885 H   0  0  0  0  0  0  0  0  0  0  0  0
  151.6710  140.9433  159.3099 H   0  0  0  0  0  0  0  0  0  0  0  0
  154.1357  141.9964  161.7881 H   0  0  0  0  0  0  0  0  0  0  0  0
  154.7435  142.2786  160.1868 H   0  0  0  0  0  0  0  0  0  0  0  0
  153.3487  143.4452  158.4739 H   0  0  0  0  0  0  0  0  0  0  0  0
  151.5855  145.1507  158.1090 H   0  0  0  0  0  0  0  0  0  0  0  0
  149.9970  145.7162  159.9395 H   0  0  0  0  0  0  0  0  0  0  0  0
  150.1804  144.5725  162.1415 H   0  0  0  0  0  0  0  0  0  0  0  0
  151.9418  142.8671  162.5153 H   0  0  0  0  0  0  0  0  0  0  0  0
  155.8664  137.9984  165.3204 H   0  0  0  0  0  0  0  0  0  0  0  0
  156.0927  139.3497  164.2212 H   0  0  0  0  0  0  0  0  0  0  0  0
  157.3581  138.1421  164.3845 H   0  0  0  0  0  0  0  0  0  0  0  0
  1  2  1  0  0  0  0
  1 27  1  0  0  0  0
  1 28  1  0  0  0  0
  1 29  1  0  0  0  0
  2  3  1  0  0  0  0
  3  4  1  0  0  0  0
  3 30  1  0  0  0  0
  3 31  1  0  0  0  0
  4  5  1  0  0  0  0
  4 32  1  0  0  0  0
  4 33  1  0  0  0  0
  5 18  1  0  0  0  0
  5  6  1  0  0  0  0
  6  7  1  0  0  0  0
  6 16  2  0  0  0  0
  7  8  1  0  0  0  0
  7  9  1  0  0  0  0
  8 34  1  0  0  0  0
  8 35  1  0  0  0  0
  8 36  1  0  0  0  0
  9 10  1  0  0  0  0
  9 37  1  0  0  0  0
  9 38  1  0  0  0  0
 10 15  1  0  0  0  0
 10 11  2  0  0  0  0
 11 12  1  0  0  0  0
 11 39  1  0  0  0  0
 12 13  2  0  0  0  0
 12 40  1  0  0  0  0
 13 14  1  0  0  0  0
 13 41  1  0  0  0  0
 14 15  2  0  0  0  0
 14 42  1  0  0  0  0
 15 43  1  0  0  0  0
 16 17  1  0  0  0  0
 17 24  1  0  0  0  0
 17 18  2  0  0  0  0
 18 19  1  0  0  0  0
 19 20  2  0  0  0  0
 19 21  1  0  0  0  0
 21 26  1  0  0  0  0
 21 22  1  0  0  0  0
 22 23  2  0  0  0  0
 22 24  1  0  0  0  0
 24 25  1  0  0  0  0
 25 44  1  0  0  0  0
 25 45  1  0  0  0  0
 25 46  1  0  0  0  0
M  END
> <s_m_source_file>
AV-unprocessed.smi

> <i_m_source_file_index>
543

> <i_lp_mmshare_version>
43012

> <i_f3d_flags>
0

> <s_epik_input>
W0NIM11uMWMoPU8pW25IXWMoPU8pYyhjMTIpbihbQ0gyXVtDSDJdT1tDSDNdKWMobjIpTihbQ0gzXSlbQ0gyXWMzW2NIXVtjSF1bY0hdW2NIXVtjSF0z

> <s_epik_cmdline>
J2VwaWtfcHl0aG9uJywgJy1waCcsICc3LjAnLCAnLXRuJywgJzgnLCAnLW1hJywgJzIwMCcsICctbWV0YWxfYmluZGluZycsICctaW1hZScsICc8aW5maWxlLm1hZT4nLCAnLW9tYWUnLCAnPG91dGZpbGUubWFlPic=

> <r_lp_tautomer_probability>
1

> <r_epik_Ionization_Penalty>
3.94324e-05

> <r_epik_Ionization_Penalty_Charging>
1.70393e-05

> <r_epik_Ionization_Penalty_Neutral>
2.23931e-05

> <r_epik_State_Penalty>
-0

> <r_epik_Charging_Adjusted_Penalty>
1.70393e-05

> <i_epik_Tot_Q>
0

> <i_epik_Tot_abs_Q>
0

> <r_epik_Metal_State_Penalty>
0.0163311

> <b_epik_Metal_Only>
0

> <s_lp_Force_Field>
OPLS_2005

> <r_lp_Energy>
32.7304

> <b_lp_Chiralities_Consistent>
1

> <s_lp_Variant>
AV-unprocessed.smi:543-1

> <Gold.Version>
5.8.1

> <Gold.Id.Protein>
6NUR|6NUR_protein|mol2

> <Gold.PLP.Fitness>
50.4838

> <Gold.PLP.PLP>
-47.4200

> <Gold.PLP.part.hbond>
-2.0000

> <Gold.PLP.part.metal>
0.0000

> <Gold.PLP.part.buried>
-4.9267

> <Gold.PLP.part.nonpolar>
-40.4202

> <Gold.PLP.part.repulsive>
0.1454

> <Gold.PLP.ligand.clash>
3.9583

> <Gold.PLP.ligand.torsion>
1.4560

> <Gold.PLP.Chemscore.Hbond>
1.9440

> <Gold.PLP.Chemscore.CHOScore>
0.0000

> <Gold.PLP.Chemscore.Metal>
0.0000

> <Gold.Chemscore.Hbonds>
donor molecule, donor type, donor heavy atom, donor atom, acceptor molecule, acceptor atom, score
      P1  H  6896  6907       L1    20  1.00
      P1  H  7997  8008       L1     2  0.17

> <Gold.PLP.Chemscore.Internal.Correction>
4.1021

> <Gold.Rescore>
     Score         DG    S(hbond)    S(metal)    S(lipo)     H(rot)  DE(clash)    DE(int)     intcor
     14.75     -17.40       0.99        0.00     114.19       1.86       0.18       2.48       ----

> <Gold.Chemscore.Fitness>
14.7473

> <Gold.Chemscore.DG>
-17.4048

> <Gold.Chemscore.ZeroCoef>
-5.4800

> <Gold.Chemscore.Hbond>
0.9943

> <Gold.Chemscore.Metal>
0.0000

> <Gold.Chemscore.Lipo>
114.1901

> <Gold.Chemscore.Internal_Hbond>
0.0000

> <Gold.Chemscore.DEClash>
0.1759

> <Gold.Chemscore.DEInternal>
2.4816

> <Gold.Chemscore.Rot>
1.8580

> <Gold.Chemscore.Internal.Correction>
   9.000000E+99

> <Gold.Chemscore.Hbonds>
donor molecule, donor type, donor heavy atom, donor atom, acceptor molecule, acceptor atom, score
      P1  H  6896  6907       L1    20  0.96

> <Gold.Chemscore.Hbond.Weighted>
-3.3209

> <Gold.Chemscore.Metal.Weighted>
-0.0000

> <Gold.Chemscore.Lipo.Weighted>
-13.3602

> <Gold.Chemscore.Internal_Hbond.Weighted>
0.0000

> <Gold.Chemscore.DEClash.Weighted>
0.1759

> <Gold.Chemscore.DEInternal.Weighted>
2.4816

> <Gold.Chemscore.Rot.Weighted>
4.7564

> <Gold.Chemscore.Internal.Correction.Weighted>
   9.000000E+99

> <Gold.Protein.RotatedTorsions>
[ 6907 6896 6895 6894 ] final   50.58 input  -60.11 | X-H torsion
[ 7974 7965 7964 7962 ] final   -2.97 input  175.53 | X-H torsion
[ 8008 7997 7996 7995 ] final -148.67 input   59.86 | X-H torsion
[ 10167 10162 10161 10158 ] final  -91.82 input  -65.29 | X-H torsion
[ 10718 10713 10712 10709 ] final   65.27 input   66.30 | X-H torsion
[ 10763 10752 10751 10750 ] final -139.64 input  -60.55 | X-H torsion
[ 11005 11000 10999 10996 ] final  -87.98 input  -57.11 | X-H torsion

> <Gold.Protein.ActiveResidues>
 VAL166  LYS551  ARG553  GLY616  TRP617  ASP618  TYR619  PRO620  LYS621  CYS622 
 ASP623  PHE694  ASN695  SER759  ASP760  ASP761  ALA762  ILE779  LEU786  VAL792 
 PHE793  MET794  SER795  GLU796  ALA797  LYS798  CYS799  TRP800  GLU811  SER814 

> <Gold.Protein.RotatedAtoms>
  152.3034  134.7584  160.0352 H   0  0  0  0  0  0  0  0  0  0  0  0  # atno 6907 bound_to 6896
  151.8090  133.3374  159.3558 H   0  0  0  0  0  0  0  0  0  0  0  0  # atno 6908 bound_to 6896
  150.7284  134.5612  159.5887 H   0  0  0  0  0  0  0  0  0  0  0  0  # atno 6909 bound_to 6896
  146.2397  140.1650  142.8332 H   0  0  0  0  0  0  0  0  0  0  0  0  # atno 7974 bound_to 7965
  155.5954  140.0656  157.2747 H   0  0  0  0  0  0  0  0  0  0  0  0  # atno 8008 bound_to 7997
  154.4293  140.1828  156.1164 H   0  0  0  0  0  0  0  0  0  0  0  0  # atno 8009 bound_to 7997
  156.0201  140.3317  155.7033 H   0  0  0  0  0  0  0  0  0  0  0  0  # atno 8010 bound_to 7997
  140.3410  143.2942  151.9835 H   0  0  0  0  0  0  0  0  0  0  0  0  # atno 10167 bound_to 10162
  157.6095  130.9205  149.9955 H   0  0  0  0  0  0  0  0  0  0  0  0  # atno 10718 bound_to 10713
  154.8603  135.3576  154.5579 H   0  0  0  0  0  0  0  0  0  0  0  0  # atno 10763 bound_to 10752
  153.6196  135.7006  153.5320 H   0  0  0  0  0  0  0  0  0  0  0  0  # atno 10764 bound_to 10752
  153.3140  135.4170  155.1321 H   0  0  0  0  0  0  0  0  0  0  0  0  # atno 10765 bound_to 10752
  141.1609  133.7543  156.9385 H   0  0  0  0  0  0  0  0  0  0  0  0  # atno 11005 bound_to 11000
  145.0058  140.8671  143.5254 LP  0  0  0  0  0  0  0  0  0  0  0  0  # atno 17320 bound_to 7965
  145.1676  139.2422  143.5359 LP  0  0  0  0  0  0  0  0  0  0  0  0  # atno 17321 bound_to 7965
  139.4840  144.6156  151.7352 LP  0  0  0  0  0  0  0  0  0  0  0  0  # atno 17342 bound_to 10162
  140.5309  144.0732  150.6053 LP  0  0  0  0  0  0  0  0  0  0  0  0  # atno 17343 bound_to 10162
  156.1192  130.3646  149.9916 LP  0  0  0  0  0  0  0  0  0  0  0  0  # atno 17370 bound_to 10713
  156.7999  130.9287  151.3646 LP  0  0  0  0  0  0  0  0  0  0  0  0  # atno 17371 bound_to 10713
  140.1338  134.9339  157.2373 LP  0  0  0  0  0  0  0  0  0  0  0  0  # atno 17394 bound_to 11000
  140.2921  134.3229  155.7312 LP  0  0  0  0  0  0  0  0  0  0  0  0  # atno 17395 bound_to 11000

$$$$
