AV-unprocessed.smi:1514|AV-procd|sdf|6116|dock8
  -GOLD-   22720 6253D 1   1.00000     0.00000
 Structure written by MMmdl.
 47 48  0  0  0  0  0  0  0  0  1 V2000
  144.6621  134.8679  152.1065 C   0  0  0  0  0  0  0  0  0  0  0  0
  145.1318  136.2165  151.5427 C   0  0  0  0  0  0  0  0  0  0  0  0
  145.9107  137.0340  152.4705 N   0  0  0  0  0  0  0  0  0  0  0  0
  145.0660  137.5526  153.5463 C   0  0  0  0  0  0  0  0  0  0  0  0
  145.8732  138.4013  154.5461 C   0  0  0  0  0  0  0  0  0  0  0  0
  146.5236  139.5369  153.8866 N   0  0  0  0  0  0  0  0  0  0  0  0
  147.3066  140.3497  154.8148 C   0  0  0  0  0  0  0  0  0  0  0  0
  148.0595  141.5252  154.1713 C   0  0  0  0  0  0  0  0  0  0  0  0
  148.8573  142.2198  155.1716 N   0  0  0  0  0  0  0  0  0  0  0  0
  149.6896  141.6163  156.0304 C   0  0  0  0  0  0  0  0  0  0  0  0
  149.8726  140.3990  156.0537 O   0  0  0  0  0  0  0  0  0  0  0  0
  150.2823  142.5114  156.8399 N   0  0  0  0  0  0  0  0  0  0  0  0
  151.1522  142.2900  157.8608 C   0  0  0  0  0  0  0  0  0  0  0  0
  151.4451  141.1186  158.5044 C   0  0  0  0  0  0  0  0  0  0  0  0
  152.4090  141.5254  159.4724 C   0  0  0  0  0  0  0  0  0  0  0  0
  153.1105  140.6774  160.4920 C   0  0  0  0  0  0  0  0  0  0  0  0
  152.6759  142.8253  159.4150 N   0  0  0  0  0  0  0  0  0  0  0  0
  151.8982  143.3035  158.4198 N   0  0  0  0  0  0  0  0  0  0  0  0
  151.9363  144.7131  158.0824 C   0  0  0  0  0  0  0  0  0  0  0  0
  147.3665  139.0182  152.8091 C   0  0  0  0  0  0  0  0  0  0  0  0
  146.5582  138.1700  151.8099 C   0  0  0  0  0  0  0  0  0  0  0  0
  144.0021  134.3669  151.3984 H   0  0  0  0  0  0  0  0  0  0  0  0
  144.1084  135.0020  153.0362 H   0  0  0  0  0  0  0  0  0  0  0  0
  145.4961  134.1945  152.3027 H   0  0  0  0  0  0  0  0  0  0  0  0
  145.6999  136.0507  150.6261 H   0  0  0  0  0  0  0  0  0  0  0  0
  144.2417  136.7735  151.2470 H   0  0  0  0  0  0  0  0  0  0  0  0
  144.2548  138.1518  153.1296 H   0  0  0  0  0  0  0  0  0  0  0  0
  144.5984  136.7241  154.0792 H   0  0  0  0  0  0  0  0  0  0  0  0
  145.1964  138.7536  155.3235 H   0  0  0  0  0  0  0  0  0  0  0  0
  146.6192  137.7762  155.0396 H   0  0  0  0  0  0  0  0  0  0  0  0
  146.6616  140.7209  155.6130 H   0  0  0  0  0  0  0  0  0  0  0  0
  148.0457  139.7101  155.2996 H   0  0  0  0  0  0  0  0  0  0  0  0
  148.7100  141.1596  153.3750 H   0  0  0  0  0  0  0  0  0  0  0  0
  147.3663  142.2384  153.7248 H   0  0  0  0  0  0  0  0  0  0  0  0
  148.7637  143.2239  155.2158 H   0  0  0  0  0  0  0  0  0  0  0  0
  150.0413  143.4789  156.6838 H   0  0  0  0  0  0  0  0  0  0  0  0
  151.0477  140.1300  158.3308 H   0  0  0  0  0  0  0  0  0  0  0  0
  152.6985  139.6685  160.5162 H   0  0  0  0  0  0  0  0  0  0  0  0
  153.0094  141.0999  161.4920 H   0  0  0  0  0  0  0  0  0  0  0  0
  154.1747  140.5967  160.2694 H   0  0  0  0  0  0  0  0  0  0  0  0
  150.9267  145.1237  158.1063 H   0  0  0  0  0  0  0  0  0  0  0  0
  152.3487  144.8376  157.0810 H   0  0  0  0  0  0  0  0  0  0  0  0
  152.5569  145.2618  158.7924 H   0  0  0  0  0  0  0  0  0  0  0  0
  147.8329  139.8470  152.2755 H   0  0  0  0  0  0  0  0  0  0  0  0
  148.1785  138.4190  153.2240 H   0  0  0  0  0  0  0  0  0  0  0  0
  147.2336  137.8179  151.0308 H   0  0  0  0  0  0  0  0  0  0  0  0
  145.8107  138.7946  151.3182 H   0  0  0  0  0  0  0  0  0  0  0  0
  1  2  1  0  0  0  0
  1 22  1  0  0  0  0
  1 23  1  0  0  0  0
  1 24  1  0  0  0  0
  2  3  1  0  0  0  0
  2 25  1  0  0  0  0
  2 26  1  0  0  0  0
  3 21  1  0  0  0  0
  3  4  1  0  0  0  0
  4  5  1  0  0  0  0
  4 27  1  0  0  0  0
  4 28  1  0  0  0  0
  5  6  1  0  0  0  0
  5 29  1  0  0  0  0
  5 30  1  0  0  0  0
  6  7  1  0  0  0  0
  6 20  1  0  0  0  0
  7  8  1  0  0  0  0
  7 31  1  0  0  0  0
  7 32  1  0  0  0  0
  8  9  1  0  0  0  0
  8 33  1  0  0  0  0
  8 34  1  0  0  0  0
  9 10  1  0  0  0  0
  9 35  1  0  0  0  0
 10 11  2  0  0  0  0
 10 12  1  0  0  0  0
 12 13  1  0  0  0  0
 12 36  1  0  0  0  0
 13 18  1  0  0  0  0
 13 14  2  0  0  0  0
 14 15  1  0  0  0  0
 14 37  1  0  0  0  0
 15 16  1  0  0  0  0
 15 17  2  0  0  0  0
 16 38  1  0  0  0  0
 16 39  1  0  0  0  0
 16 40  1  0  0  0  0
 17 18  1  0  0  0  0
 18 19  1  0  0  0  0
 19 41  1  0  0  0  0
 19 42  1  0  0  0  0
 19 43  1  0  0  0  0
 20 21  1  0  0  0  0
 20 44  1  0  0  0  0
 20 45  1  0  0  0  0
 21 46  1  0  0  0  0
 21 47  1  0  0  0  0
M  END
> <s_m_source_file>
AV-unprocessed.smi

> <i_m_source_file_index>
1514

> <i_lp_mmshare_version>
43012

> <i_f3d_flags>
0

> <s_epik_input>
W0NIM11bQ0gyXU4xW0NIMl1bQ0gyXU4oW0NIMl1bQ0gyXTEpW0NIMl1bQ0gyXVtOSF1DKD1PKVtOSF1jMltjSF1jKFtDSDNdKW5uMltDSDNd

> <s_epik_cmdline>
J2VwaWtfcHl0aG9uJywgJy1waCcsICc3LjAnLCAnLXRuJywgJzgnLCAnLW1hJywgJzIwMCcsICctbWV0YWxfYmluZGluZycsICctaW1hZScsICc8aW5maWxlLm1hZT4nLCAnLW9tYWUnLCAnPG91dGZpbGUubWFlPic=

> <r_lp_tautomer_probability>
1

> <r_epik_Ionization_Penalty>
2.12169

> <r_epik_Ionization_Penalty_Charging>
0

> <r_epik_Ionization_Penalty_Neutral>
2.12169

> <r_epik_State_Penalty>
1.63644

> <r_epik_Charging_Adjusted_Penalty>
1.63644

> <i_epik_Tot_Q>
0

> <i_epik_Tot_abs_Q>
0

> <r_epik_Metal_State_Penalty>
1.63644

> <b_epik_Metal_Only>
0

> <s_lp_Force_Field>
OPLS_2005

> <r_lp_Energy>
34.6539

> <b_lp_Chiralities_Consistent>
1

> <s_lp_Variant>
AV-unprocessed.smi:1514-3

> <Gold.Version>
5.8.1

> <Gold.Id.Protein>
6NUR|6NUR_protein|mol2

> <Gold.PLP.Fitness>
41.4927

> <Gold.PLP.PLP>
-36.0376

> <Gold.PLP.part.hbond>
-1.9666

> <Gold.PLP.part.metal>
0.0000

> <Gold.PLP.part.buried>
-3.2069

> <Gold.PLP.part.nonpolar>
-32.2249

> <Gold.PLP.part.repulsive>
0.6386

> <Gold.PLP.ligand.clash>
0.0000

> <Gold.PLP.ligand.torsion>
0.1666

> <Gold.PLP.Chemscore.Hbond>
1.9120

> <Gold.PLP.Chemscore.CHOScore>
0.0000

> <Gold.PLP.Chemscore.Metal>
0.0000

> <Gold.Chemscore.Hbonds>
donor molecule, donor type, donor heavy atom, donor atom, acceptor molecule, acceptor atom, score
      L1  H     9    35       P1  8028  1.00
      L1  H    12    36       P1  8028  0.91

> <Gold.PLP.Chemscore.Internal.Correction>
0.0523

> <Gold.Rescore>
     Score         DG    S(hbond)    S(metal)    S(lipo)     H(rot)  DE(clash)    DE(int)     intcor
     13.95     -17.26       1.96        0.00      80.58       1.64       0.72       2.59       ----

> <Gold.Chemscore.Fitness>
13.9467

> <Gold.Chemscore.DG>
-17.2638

> <Gold.Chemscore.ZeroCoef>
-5.4800

> <Gold.Chemscore.Hbond>
1.9648

> <Gold.Chemscore.Metal>
0.0000

> <Gold.Chemscore.Lipo>
80.5790

> <Gold.Chemscore.Internal_Hbond>
0.0000

> <Gold.Chemscore.DEClash>
0.7247

> <Gold.Chemscore.DEInternal>
2.5923

> <Gold.Chemscore.Rot>
1.6432

> <Gold.Chemscore.Internal.Correction>
   9.000000E+99

> <Gold.Chemscore.Hbonds>
donor molecule, donor type, donor heavy atom, donor atom, acceptor molecule, acceptor atom, score
      L1  H     9    35       P1  8028  0.95
      L1  H    12    36       P1  8028  0.88

> <Gold.Chemscore.Hbond.Weighted>
-6.5625

> <Gold.Chemscore.Metal.Weighted>
-0.0000

> <Gold.Chemscore.Lipo.Weighted>
-9.4277

> <Gold.Chemscore.Internal_Hbond.Weighted>
0.0000

> <Gold.Chemscore.DEClash.Weighted>
0.7247

> <Gold.Chemscore.DEInternal.Weighted>
2.5923

> <Gold.Chemscore.Rot.Weighted>
4.2065

> <Gold.Chemscore.Internal.Correction.Weighted>
   9.000000E+99

> <Gold.Protein.RotatedTorsions>
[ 6907 6896 6895 6894 ] final   81.05 input  -60.11 | X-H torsion
[ 7974 7965 7964 7962 ] final -144.05 input  175.53 | X-H torsion
[ 8008 7997 7996 7995 ] final -110.98 input   59.86 | X-H torsion
[ 10167 10162 10161 10158 ] final  108.94 input  -65.29 | X-H torsion
[ 10718 10713 10712 10709 ] final -108.44 input   66.30 | X-H torsion
[ 10763 10752 10751 10750 ] final   50.89 input  -60.55 | X-H torsion
[ 11005 11000 10999 10996 ] final -176.63 input  -57.11 | X-H torsion

> <Gold.Protein.ActiveResidues>
 VAL166  LYS551  ARG553  GLY616  TRP617  ASP618  TYR619  PRO620  LYS621  CYS622 
 ASP623  PHE694  ASN695  SER759  ASP760  ASP761  ALA762  ILE779  LEU786  VAL792 
 PHE793  MET794  SER795  GLU796  ALA797  LYS798  CYS799  TRP800  GLU811  SER814 

> <Gold.Protein.RotatedAtoms>
  152.5255  134.3264  159.9166 H   0  0  0  0  0  0  0  0  0  0  0  0  # atno 6907 bound_to 6896
  151.3213  133.4032  159.2662 H   0  0  0  0  0  0  0  0  0  0  0  0  # atno 6908 bound_to 6896
  150.9957  134.9298  159.7982 H   0  0  0  0  0  0  0  0  0  0  0  0  # atno 6909 bound_to 6896
  144.8325  140.5758  143.5505 H   0  0  0  0  0  0  0  0  0  0  0  0  # atno 7974 bound_to 7965
  154.9828  140.0396  157.2285 H   0  0  0  0  0  0  0  0  0  0  0  0  # atno 8008 bound_to 7997
  154.7699  140.2800  155.6124 H   0  0  0  0  0  0  0  0  0  0  0  0  # atno 8009 bound_to 7997
  156.2919  140.2612  156.2498 H   0  0  0  0  0  0  0  0  0  0  0  0  # atno 8010 bound_to 7997
  139.6806  144.7118  151.1523 H   0  0  0  0  0  0  0  0  0  0  0  0  # atno 10167 bound_to 10162
  156.0486  130.5713  150.7962 H   0  0  0  0  0  0  0  0  0  0  0  0  # atno 10718 bound_to 10713
  152.9784  135.5864  154.4326 H   0  0  0  0  0  0  0  0  0  0  0  0  # atno 10763 bound_to 10752
  154.3937  135.2768  155.2141 H   0  0  0  0  0  0  0  0  0  0  0  0  # atno 10764 bound_to 10752
  154.4002  135.6105  153.5947 H   0  0  0  0  0  0  0  0  0  0  0  0  # atno 10765 bound_to 10752
  140.4500  134.6352  157.4797 H   0  0  0  0  0  0  0  0  0  0  0  0  # atno 11005 bound_to 11000
  145.4865  139.1491  143.3733 LP  0  0  0  0  0  0  0  0  0  0  0  0  # atno 17320 bound_to 7965
  146.2627  140.5002  142.8847 LP  0  0  0  0  0  0  0  0  0  0  0  0  # atno 17321 bound_to 7965
  140.7651  143.5705  150.9000 LP  0  0  0  0  0  0  0  0  0  0  0  0  # atno 17342 bound_to 10162
  139.9377  143.6418  152.3061 LP  0  0  0  0  0  0  0  0  0  0  0  0  # atno 17343 bound_to 10162
  157.5388  131.0940  150.9855 LP  0  0  0  0  0  0  0  0  0  0  0  0  # atno 17370 bound_to 10713
  157.0143  130.5649  149.5324 LP  0  0  0  0  0  0  0  0  0  0  0  0  # atno 17371 bound_to 10713
  140.0013  134.6832  155.9526 LP  0  0  0  0  0  0  0  0  0  0  0  0  # atno 17394 bound_to 11000
  141.1668  133.6537  156.4509 LP  0  0  0  0  0  0  0  0  0  0  0  0  # atno 17395 bound_to 11000

$$$$
