#       Name:                AV-unprocessed.smi:2124
#       Creating user name   scv26
#       Creation time:       Fri Mar 27 11:41:49 2020


#       File generated by GOLD software.
#

@<TRIPOS>MOLECULE
AV-unprocessed.smi:2124
    52    54     1
SMALL
NO_CHARGES


@<TRIPOS>ATOM
      1 ****        -4.1002   5.9414   0.8238 C.3            1 S1                 0.0000
      2 ****        -3.5183   4.5443   0.7878 C.2            1 S1                 0.0000
      3 ****        -3.1973   4.0286  -0.3374 N.2            1 S1                 0.0000
      4 ****        -2.6596   2.7307  -0.3752 C.2            1 S1                 0.0000
      5 ****        -2.3127   2.1961  -1.7538 C.3            1 S1                 0.0000
      6 ****        -2.4731   2.0111   0.7683 C.2            1 S1                 0.0000
      7 ****        -1.9023   0.5930   0.7855 C.3            1 S1                 0.0000
      8 ****        -0.3763   0.4710   0.7994 C.2            1 S1                 0.0000
      9 ****         0.3383   1.4570   0.6155 O.2            1 S1                 0.0000
     10 ****         0.1067  -0.7620   1.0145 N.am           1 S1                 0.0000
     11 ****         1.5198  -1.1315   1.0451 C.3            1 S1                 0.0000
     12 ****         2.0090  -1.1410   2.5025 C.3            1 S1                 0.0000
     13 ****         1.7164  -2.5005   0.3526 C.3            1 S1                 0.0000
     14 ****         3.1893  -2.9029   0.1146 C.3            1 S1                 0.0000
     15 ****         3.2039  -3.3042  -1.3727 C.3            1 S1                 0.0000
     16 ****         3.1131  -2.0336  -2.2379 C.3            1 S1                 0.0000
     17 ****         1.6504  -1.5960  -2.0420 C.3            1 S1                 0.0000
     18 ****         1.1044  -2.6563  -1.0630 C.3            1 S1                 0.0000
     19 ****         1.8176  -3.9108  -1.5570 C.3            1 S1                 0.0000
     20 ****        -2.8443   2.6462   2.0451 C.2            1 S1                 0.0000
     21 ****        -2.6766   2.0481   3.1073 O.2            1 S1                 0.0000
     22 ****        -3.3677   3.9045   1.9977 N.pl3          1 S1                -1.0000
     23 ****        -4.2546   6.3293  -0.1839 H              1 S1                 0.0000
     24 ****        -3.4263   6.6170   1.3513 H              1 S1                 0.0000
     25 ****        -5.0613   5.9388   1.3391 H              1 S1                 0.0000
     26 ****        -1.2742   1.8670  -1.7901 H              1 S1                 0.0000
     27 ****        -2.4463   2.9615  -2.5189 H              1 S1                 0.0000
     28 ****        -2.9540   1.3525  -2.0079 H              1 S1                 0.0000
     29 ****        -2.3089   0.0362   1.6308 H              1 S1                 0.0000
     30 ****        -2.2641   0.0600  -0.0936 H              1 S1                 0.0000
     31 ****        -0.5588  -1.5074   1.1592 H              1 S1                 0.0000
     32 ****         2.1058  -0.3848   0.5077 H              1 S1                 0.0000
     33 ****         3.0690  -1.3865   2.5649 H              1 S1                 0.0000
     34 ****         1.4627  -1.8708   3.1009 H              1 S1                 0.0000
     35 ****         1.8740  -0.1635   2.9670 H              1 S1                 0.0000
     36 ****         1.2565  -3.2610   0.9868 H              1 S1                 0.0000
     37 ****         3.8929  -2.0952   0.3200 H              1 S1                 0.0000
     38 ****         3.4620  -3.7461   0.7505 H              1 S1                 0.0000
     39 ****         4.0345  -3.9571  -1.6421 H              1 S1                 0.0000
     40 ****         3.8226  -1.2667  -1.9245 H              1 S1                 0.0000
     41 ****         3.3076  -2.2609  -3.2868 H              1 S1                 0.0000
     42 ****         1.5598  -0.5753  -1.6719 H              1 S1                 0.0000
     43 ****         1.1129  -1.6431  -2.9899 H              1 S1                 0.0000
     44 ****         0.0163  -2.7280  -1.0633 H              1 S1                 0.0000
     45 ****         1.5884  -4.1608  -2.5945 H              1 S1                 0.0000
     46 ****         1.6421  -4.7876  -0.9310 H              1 S1                 0.0000
     47 ****        -3.3278   4.5448  -1.1839 LP             1 S1                 0.0000
     48 ****        -0.0769   2.3523   0.4543 LP             1 S1                 0.0000
     49 ****         1.3338   1.3623   0.6273 LP             1 S1                 0.0000
     50 ****        -2.2869   1.1271   3.1064 LP             1 S1                 0.0000
     51 ****        -2.9299   2.4830   3.9714 LP             1 S1                 0.0000
     52 ****        -3.6425   4.3632   2.8427 LP             1 S1                 0.0000
@<TRIPOS>BOND
    1    1    2 1     
    2    1   23 1     
    3    1   24 1     
    4    1   25 1     
    5    2   22 1     
    6    2    3 2     
    7    3    4 1     
    8    4    5 1     
    9    4    6 2     
   10    5   26 1     
   11    5   27 1     
   12    5   28 1     
   13    6    7 1     
   14    6   20 1     
   15    7    8 1     
   16    7   29 1     
   17    7   30 1     
   18    8    9 2     
   19    8   10 am    
   20   10   11 1     
   21   10   31 1     
   22   11   12 1     
   23   11   13 1     
   24   11   32 1     
   25   12   33 1     
   26   12   34 1     
   27   12   35 1     
   28   13   18 1     
   29   13   14 1     
   30   13   36 1     
   31   14   15 1     
   32   14   37 1     
   33   14   38 1     
   34   15   19 1     
   35   15   16 1     
   36   15   39 1     
   37   16   17 1     
   38   16   40 1     
   39   16   41 1     
   40   17   18 1     
   41   17   42 1     
   42   17   43 1     
   43   18   19 1     
   44   18   44 1     
   45   19   45 1     
   46   19   46 1     
   47   20   21 2     
   48   20   22 1     
   49    3   47 1     
   50    9   48 1     
   51    9   49 1     
   52   21   50 1     
   53   21   51 1     
   54   22   52 1     
@<TRIPOS>SUBSTRUCTURE
      1 S1             1
@<TRIPOS>SET
LONE_PAIRS      STATIC     ATOMS    <user>   **** ""
6 47 48 49 50 51 52
DONOR_HYDROGENS      STATIC     ATOMS    <user>   **** ""
1 31
ATOM$BLUE        STATIC     ATOMS    COLORGROUP SYSTEM
6 47 48 49 50 51 52
ATOM$RED        STATIC     ATOMS    COLORGROUP SYSTEM
1 31
