AV-unprocessed.smi:2330|AV-procd|sdf|9313|dock4
  -GOLD-   2272012533D 1   1.00000     0.00000
 Structure written by MMmdl.
 42 43  0  0  0  0  0  0  0  0  1 V2000
  144.6906  133.9664  151.7602 C   0  0  0  0  0  0  0  0  0  0  0  0
  145.7357  133.2676  152.6412 C   0  0  2  0  0  0  0  0  0  0  0  0
  145.8773  133.9636  154.0083 C   0  0  0  0  0  0  0  0  0  0  0  0
  146.9213  133.2633  154.8963 C   0  0  0  0  0  0  0  0  0  0  0  0
  148.2916  133.1384  154.2023 C   0  0  2  0  0  0  0  0  0  0  0  0
  148.9263  134.4511  154.0905 N   0  0  0  0  0  0  0  0  0  0  0  0
  149.5417  135.1159  155.0781 C   0  0  0  0  0  0  0  0  0  0  0  0
  149.6768  134.6911  156.2256 O   0  0  0  0  0  0  0  0  0  0  0  0
  149.9768  136.3148  154.6682 N   0  0  0  0  0  0  0  0  0  0  0  0
  150.6141  137.3125  155.5232 C   0  0  0  0  0  0  0  0  0  0  0  0
  150.9412  138.6238  154.7743 C   0  0  1  0  0  0  0  0  0  0  0  0
  149.9794  138.9045  153.6110 C   0  0  0  0  0  0  0  0  0  0  0  0
  151.0863  139.8042  155.6870 C   0  0  0  0  0  0  0  0  0  0  0  0
  150.6687  141.0367  155.3802 N   0  0  0  0  0  0  0  0  0  0  0  0
  150.9022  141.9524  156.4089 C   0  0  0  0  0  0  0  0  0  0  0  0
  151.5019  141.3975  157.5104 C   0  0  0  0  0  0  0  0  0  0  0  0
  151.7984  139.6946  157.2944 S   0  0  0  0  0  0  0  0  0  0  0  0
  148.1537  132.4823  152.8146 C   0  0  0  0  0  0  0  0  0  0  0  0
  147.1033  133.1854  151.9364 C   0  0  0  0  0  0  0  0  0  0  0  0
  144.9792  134.9952  151.5422 H   0  0  0  0  0  0  0  0  0  0  0  0
  143.7168  133.9898  152.2502 H   0  0  0  0  0  0  0  0  0  0  0  0
  144.5676  133.4462  150.8099 H   0  0  0  0  0  0  0  0  0  0  0  0
  145.3871  132.2489  152.8178 H   0  0  0  0  0  0  0  0  0  0  0  0
  146.1587  135.0076  153.8643 H   0  0  0  0  0  0  0  0  0  0  0  0
  144.9149  133.9748  154.5216 H   0  0  0  0  0  0  0  0  0  0  0  0
  147.0251  133.7954  155.8428 H   0  0  0  0  0  0  0  0  0  0  0  0
  146.5586  132.2661  155.1491 H   0  0  0  0  0  0  0  0  0  0  0  0
  148.9136  132.4864  154.8180 H   0  0  0  0  0  0  0  0  0  0  0  0
  148.8725  134.8979  153.1869 H   0  0  0  0  0  0  0  0  0  0  0  0
  149.8209  136.5751  153.7053 H   0  0  0  0  0  0  0  0  0  0  0  0
  149.9906  137.5130  156.3959 H   0  0  0  0  0  0  0  0  0  0  0  0
  151.5364  136.8693  155.8999 H   0  0  0  0  0  0  0  0  0  0  0  0
  151.9211  138.4807  154.3170 H   0  0  0  0  0  0  0  0  0  0  0  0
  150.2966  139.7789  153.0419 H   0  0  0  0  0  0  0  0  0  0  0  0
  148.9666  139.0897  153.9698 H   0  0  0  0  0  0  0  0  0  0  0  0
  149.9389  138.0596  152.9231 H   0  0  0  0  0  0  0  0  0  0  0  0
  150.6073  142.9824  156.2726 H   0  0  0  0  0  0  0  0  0  0  0  0
  151.7858  141.8845  158.4315 H   0  0  0  0  0  0  0  0  0  0  0  0
  149.1186  132.4692  152.3061 H   0  0  0  0  0  0  0  0  0  0  0  0
  147.8657  131.4379  152.9419 H   0  0  0  0  0  0  0  0  0  0  0  0
  147.0033  132.6492  150.9921 H   0  0  0  0  0  0  0  0  0  0  0  0
  147.4495  134.1883  151.6828 H   0  0  0  0  0  0  0  0  0  0  0  0
  1  2  1  0  0  0  0
  1 20  1  0  0  0  0
  1 21  1  0  0  0  0
  1 22  1  0  0  0  0
  2 19  1  0  0  0  0
  2  3  1  0  0  0  0
  2 23  1  0  0  0  0
  3  4  1  0  0  0  0
  3 24  1  0  0  0  0
  3 25  1  0  0  0  0
  4  5  1  0  0  0  0
  4 26  1  0  0  0  0
  4 27  1  0  0  0  0
  5  6  1  0  0  0  0
  5 18  1  0  0  0  0
  5 28  1  0  0  0  0
  6  7  1  0  0  0  0
  6 29  1  0  0  0  0
  7  8  2  0  0  0  0
  7  9  1  0  0  0  0
  9 10  1  0  0  0  0
  9 30  1  0  0  0  0
 10 11  1  0  0  0  0
 10 31  1  0  0  0  0
 10 32  1  0  0  0  0
 11 12  1  0  0  0  0
 11 13  1  0  0  0  0
 11 33  1  0  0  0  0
 12 34  1  0  0  0  0
 12 35  1  0  0  0  0
 12 36  1  0  0  0  0
 13 17  1  0  0  0  0
 13 14  2  0  0  0  0
 14 15  1  0  0  0  0
 15 16  2  0  0  0  0
 15 37  1  0  0  0  0
 16 17  1  0  0  0  0
 16 38  1  0  0  0  0
 18 19  1  0  0  0  0
 18 39  1  0  0  0  0
 18 40  1  0  0  0  0
 19 41  1  0  0  0  0
 19 42  1  0  0  0  0
M  END
> <s_m_source_file>
AV-unprocessed.smi

> <i_m_source_file_index>
2330

> <i_lp_mmshare_version>
43012

> <i_f3d_flags>
0

> <s_epik_input>
W0NIM11bQ0BASF0xW0NIMl1bQ0gyXVtDQEhdKFtDSDJdW0NIMl0xKVtOSF1DKD1PKVtOSF1bQ0gyXVtDQEhdKFtDSDNdKWMybltjSF1bY0hdczI=

> <s_epik_cmdline>
J2VwaWtfcHl0aG9uJywgJy1waCcsICc3LjAnLCAnLXRuJywgJzgnLCAnLW1hJywgJzIwMCcsICctbWV0YWxfYmluZGluZycsICctaW1hZScsICc8aW5maWxlLm1hZT4nLCAnLW9tYWUnLCAnPG91dGZpbGUubWFlPic=

> <r_lp_tautomer_probability>
1

> <r_epik_Ionization_Penalty>
0.000331107

> <r_epik_Ionization_Penalty_Charging>
0

> <r_epik_Ionization_Penalty_Neutral>
0.000331107

> <r_epik_State_Penalty>
-0

> <r_epik_Charging_Adjusted_Penalty>
0

> <i_epik_Tot_Q>
0

> <i_epik_Tot_abs_Q>
0

> <r_epik_Metal_State_Penalty>
-0

> <b_epik_Metal_Only>
0

> <s_lp_Force_Field>
OPLS_2005

> <r_lp_Energy>
-2.32189

> <b_lp_Chiralities_Consistent>
1

> <s_lp_Variant>
AV-unprocessed.smi:2330-4

> <Gold.Version>
5.8.1

> <Gold.Id.Protein>
6NUR|6NUR_protein|mol2

> <Gold.PLP.Fitness>
35.8286

> <Gold.PLP.PLP>
-27.8578

> <Gold.PLP.part.hbond>
-3.0000

> <Gold.PLP.part.metal>
0.0000

> <Gold.PLP.part.buried>
0.0979

> <Gold.PLP.part.nonpolar>
-24.7678

> <Gold.PLP.part.repulsive>
0.1391

> <Gold.PLP.ligand.clash>
0.0000

> <Gold.PLP.ligand.torsion>
1.0856

> <Gold.PLP.Chemscore.Hbond>
2.3398

> <Gold.PLP.Chemscore.CHOScore>
0.9988

> <Gold.PLP.Chemscore.Metal>
0.0000

> <Gold.Chemscore.Hbonds>
donor molecule, donor type, donor heavy atom, donor atom, acceptor molecule, acceptor atom, score
      L1  H     6    29       P1  7948  1.00
      L1  H     9    30       P1  7948  1.00
      P1  H  7989  7998       L1    14  0.28
      L1  C    15    37       P1  8028  1.00

> <Gold.PLP.Chemscore.Internal.Correction>
0.1263

> <Gold.Rescore>
     Score         DG    S(hbond)    S(metal)    S(lipo)     H(rot)  DE(clash)    DE(int)     intcor
     14.27     -15.64       1.68        0.00      70.64       1.45       0.52       0.85       ----

> <Gold.Chemscore.Fitness>
14.2694

> <Gold.Chemscore.DG>
-15.6408

> <Gold.Chemscore.ZeroCoef>
-5.4800

> <Gold.Chemscore.Hbond>
1.6818

> <Gold.Chemscore.Metal>
0.0000

> <Gold.Chemscore.Lipo>
70.6401

> <Gold.Chemscore.Internal_Hbond>
0.0000

> <Gold.Chemscore.DEClash>
0.5184

> <Gold.Chemscore.DEInternal>
0.8530

> <Gold.Chemscore.Rot>
1.4536

> <Gold.Chemscore.Internal.Correction>
   9.000000E+99

> <Gold.Chemscore.Hbonds>
donor molecule, donor type, donor heavy atom, donor atom, acceptor molecule, acceptor atom, score
      L1  H     6    29       P1  7948  0.26
      L1  H     9    30       P1  7948  0.35
      P1  H  7989  7998       L1    14  0.01

> <Gold.Chemscore.Hbond.Weighted>
-5.6171

> <Gold.Chemscore.Metal.Weighted>
-0.0000

> <Gold.Chemscore.Lipo.Weighted>
-8.2649

> <Gold.Chemscore.Internal_Hbond.Weighted>
0.0000

> <Gold.Chemscore.DEClash.Weighted>
0.5184

> <Gold.Chemscore.DEInternal.Weighted>
0.8530

> <Gold.Chemscore.Rot.Weighted>
3.7212

> <Gold.Chemscore.Internal.Correction.Weighted>
   9.000000E+99

> <Gold.Protein.RotatedTorsions>
[ 6907 6896 6895 6894 ] final   45.73 input  -60.11 | X-H torsion
[ 7974 7965 7964 7962 ] final -158.71 input  175.53 | X-H torsion
[ 8008 7997 7996 7995 ] final  -74.69 input   59.86 | X-H torsion
[ 10167 10162 10161 10158 ] final -120.40 input  -65.29 | X-H torsion
[ 10718 10713 10712 10709 ] final -157.41 input   66.30 | X-H torsion
[ 10763 10752 10751 10750 ] final -131.27 input  -60.55 | X-H torsion
[ 11005 11000 10999 10996 ] final   53.05 input  -57.11 | X-H torsion

> <Gold.Protein.ActiveResidues>
 VAL166  LYS551  ARG553  GLY616  TRP617  ASP618  TYR619  PRO620  LYS621  CYS622 
 ASP623  PHE694  ASN695  SER759  ASP760  ASP761  ALA762  ILE779  LEU786  VAL792 
 PHE793  MET794  SER795  GLU796  ALA797  LYS798  CYS799  TRP800  GLU811  SER814 

> <Gold.Protein.RotatedAtoms>
  152.2480  134.8161  160.0450 H   0  0  0  0  0  0  0  0  0  0  0  0  # atno 6907 bound_to 6896
  151.8852  133.3499  159.3788 H   0  0  0  0  0  0  0  0  0  0  0  0  # atno 6908 bound_to 6896
  150.7075  134.4905  159.5558 H   0  0  0  0  0  0  0  0  0  0  0  0  # atno 6909 bound_to 6896
  144.7494  140.3788  143.6059 H   0  0  0  0  0  0  0  0  0  0  0  0  # atno 7974 bound_to 7965
  154.5352  140.0757  156.8415 H   0  0  0  0  0  0  0  0  0  0  0  0  # atno 8008 bound_to 7997
  155.3292  140.3401  155.4221 H   0  0  0  0  0  0  0  0  0  0  0  0  # atno 8009 bound_to 7997
  156.1821  140.1656  156.8241 H   0  0  0  0  0  0  0  0  0  0  0  0  # atno 8010 bound_to 7997
  140.0363  143.5198  152.2152 H   0  0  0  0  0  0  0  0  0  0  0  0  # atno 10167 bound_to 10162
  156.5399  130.8559  151.2745 H   0  0  0  0  0  0  0  0  0  0  0  0  # atno 10718 bound_to 10713
  154.8751  135.3835  154.4220 H   0  0  0  0  0  0  0  0  0  0  0  0  # atno 10763 bound_to 10752
  153.4922  135.7030  153.5883 H   0  0  0  0  0  0  0  0  0  0  0  0  # atno 10764 bound_to 10752
  153.4251  135.3892  155.2103 H   0  0  0  0  0  0  0  0  0  0  0  0  # atno 10765 bound_to 10752
  140.0798  134.5354  155.8958 H   0  0  0  0  0  0  0  0  0  0  0  0  # atno 11005 bound_to 11000
  145.6999  139.1659  143.2599 LP  0  0  0  0  0  0  0  0  0  0  0  0  # atno 17320 bound_to 7965
  146.1423  140.7041  142.9361 LP  0  0  0  0  0  0  0  0  0  0  0  0  # atno 17321 bound_to 7965
  139.6043  144.7592  151.3099 LP  0  0  0  0  0  0  0  0  0  0  0  0  # atno 17342 bound_to 10162
  140.7280  143.6948  150.7893 LP  0  0  0  0  0  0  0  0  0  0  0  0  # atno 17343 bound_to 10162
  157.7407  130.9855  150.2395 LP  0  0  0  0  0  0  0  0  0  0  0  0  # atno 17370 bound_to 10713
  156.2981  130.3754  149.7777 LP  0  0  0  0  0  0  0  0  0  0  0  0  # atno 17371 bound_to 10713
  141.2043  133.6638  156.6111 LP  0  0  0  0  0  0  0  0  0  0  0  0  # atno 17394 bound_to 11000
  140.3504  134.7773  157.4462 LP  0  0  0  0  0  0  0  0  0  0  0  0  # atno 17395 bound_to 11000

$$$$
