AV-unprocessed.smi:2772|AV-procd|sdf|10664|dock2
  -GOLD-   2272015113D 1   1.00000     0.00000
 Structure written by MMmdl.
 55 57  0  0  0  0  0  0  0  0  3 V2000
  152.8733  142.9685  160.7952 C   0  0  0  0  0  0  0  0  0  0  0  0
  152.1163  142.6193  159.5309 C   0  0  0  0  0  0  0  0  0  0  0  0
  152.0247  143.5388  158.4661 C   0  0  0  0  0  0  0  0  0  0  0  0
  151.3058  143.1659  157.3139 C   0  0  0  0  0  0  0  0  0  0  0  0
  150.6961  141.8885  157.2712 C   0  0  0  0  0  0  0  0  0  0  0  0
  149.9593  141.3865  156.1640 N   0  0  0  0  0  0  0  0  0  0  0  0
  149.0309  140.4148  156.1436 C   0  0  0  0  0  0  0  0  0  0  0  0
  148.6649  139.7556  157.1164 O   0  0  0  0  0  0  0  0  0  0  0  0
  148.5517  140.2279  154.9052 N   0  0  0  0  0  0  0  0  0  0  0  0
  147.5326  139.2481  154.5399 C   0  0  2  0  0  0  0  0  0  0  0  0
  147.9928  137.8207  154.8735 C   0  0  0  0  0  0  0  0  0  0  0  0
  146.9522  136.7877  154.4144 C   0  0  0  0  0  0  0  0  0  0  0  0
  146.6756  136.8882  152.9520 N   0  3  1  0  0  0  0  0  0  0  0  0
  145.7960  135.7726  152.4675 C   0  0  2  0  0  0  0  0  0  0  0  0
  146.4320  134.3970  152.7810 C   0  0  0  0  0  0  0  0  0  0  0  0
  145.5553  133.2286  152.2989 C   0  0  0  0  0  0  0  0  0  0  0  0
  145.2838  133.3289  150.8458 N   0  3  1  0  0  0  0  0  0  0  0  0
  144.5371  132.1615  150.3289 C   0  0  0  0  0  0  0  0  0  0  0  0
  144.6321  134.6142  150.5006 C   0  0  0  0  0  0  0  0  0  0  0  0
  145.4885  135.8116  150.9486 C   0  0  0  0  0  0  0  0  0  0  0  0
  146.2188  138.2648  152.5998 C   0  0  0  0  0  0  0  0  0  0  0  0
  147.2336  139.3357  153.0380 C   0  0  0  0  0  0  0  0  0  0  0  0
  150.8630  141.0442  158.3895 C   0  0  0  0  0  0  0  0  0  0  0  0
  151.5499  141.3940  159.4978 N   0  0  0  0  0  0  0  0  0  0  0  0
  153.4959  143.8515  160.6489 H   0  0  0  0  0  0  0  0  0  0  0  0
  153.5208  142.1442  161.0960 H   0  0  0  0  0  0  0  0  0  0  0  0
  152.1756  143.1723  161.6079 H   0  0  0  0  0  0  0  0  0  0  0  0
  152.4974  144.5080  158.5249 H   0  0  0  0  0  0  0  0  0  0  0  0
  151.2502  143.8590  156.4895 H   0  0  0  0  0  0  0  0  0  0  0  0
  150.2059  141.7833  155.2690 H   0  0  0  0  0  0  0  0  0  0  0  0
  148.9130  140.8108  154.1642 H   0  0  0  0  0  0  0  0  0  0  0  0
  146.6139  139.4677  155.0882 H   0  0  0  0  0  0  0  0  0  0  0  0
  148.9509  137.6133  154.3941 H   0  0  0  0  0  0  0  0  0  0  0  0
  148.1563  137.7185  155.9471 H   0  0  0  0  0  0  0  0  0  0  0  0
  147.3214  135.7981  154.6764 H   0  0  0  0  0  0  0  0  0  0  0  0
  146.0233  136.9282  154.9698 H   0  0  0  0  0  0  0  0  0  0  0  0
  144.8415  135.8494  152.9916 H   0  0  0  0  0  0  0  0  0  0  0  0
  147.4139  134.3308  152.3096 H   0  0  0  0  0  0  0  0  0  0  0  0
  146.6004  134.2704  153.8492 H   0  0  0  0  0  0  0  0  0  0  0  0
  146.0598  132.2849  152.5102 H   0  0  0  0  0  0  0  0  0  0  0  0
  144.6124  133.2140  152.8485 H   0  0  0  0  0  0  0  0  0  0  0  0
  143.5492  132.0939  150.7865 H   0  0  0  0  0  0  0  0  0  0  0  0
  145.0752  131.2360  150.5378 H   0  0  0  0  0  0  0  0  0  0  0  0
  144.4090  132.2337  149.2483 H   0  0  0  0  0  0  0  0  0  0  0  0
  144.4739  134.6639  149.4224 H   0  0  0  0  0  0  0  0  0  0  0  0
  143.6466  134.6620  150.9674 H   0  0  0  0  0  0  0  0  0  0  0  0
  144.9419  136.7179  150.6867 H   0  0  0  0  0  0  0  0  0  0  0  0
  146.4187  135.8244  150.3783 H   0  0  0  0  0  0  0  0  0  0  0  0
  146.0995  138.3710  151.5224 H   0  0  0  0  0  0  0  0  0  0  0  0
  145.2457  138.4561  153.0552 H   0  0  0  0  0  0  0  0  0  0  0  0
  146.8501  140.3267  152.7919 H   0  0  0  0  0  0  0  0  0  0  0  0
  148.1564  139.2124  152.4688 H   0  0  0  0  0  0  0  0  0  0  0  0
  150.4273  140.0556  158.3990 H   0  0  0  0  0  0  0  0  0  0  0  0
  147.5611  136.7695  152.4806 H   0  0  0  0  0  0  0  0  0  0  0  0
  146.1804  133.3216  150.3801 H   0  0  0  0  0  0  0  0  0  0  0  0
  1  2  1  0  0  0  0
  1 25  1  0  0  0  0
  1 26  1  0  0  0  0
  1 27  1  0  0  0  0
  2 24  1  0  0  0  0
  2  3  2  0  0  0  0
  3  4  1  0  0  0  0
  3 28  1  0  0  0  0
  4  5  2  0  0  0  0
  4 29  1  0  0  0  0
  5  6  1  0  0  0  0
  5 23  1  0  0  0  0
  6  7  1  0  0  0  0
  6 30  1  0  0  0  0
  7  8  2  0  0  0  0
  7  9  1  0  0  0  0
  9 10  1  0  0  0  0
  9 31  1  0  0  0  0
 10 22  1  0  0  0  0
 10 11  1  0  0  0  0
 10 32  1  0  0  0  0
 11 12  1  0  0  0  0
 11 33  1  0  0  0  0
 11 34  1  0  0  0  0
 12 13  1  0  0  0  0
 12 35  1  0  0  0  0
 12 36  1  0  0  0  0
 13 14  1  0  0  0  0
 13 21  1  0  0  0  0
 13 54  1  0  0  0  0
 14 20  1  0  0  0  0
 14 15  1  0  0  0  0
 14 37  1  0  0  0  0
 15 16  1  0  0  0  0
 15 38  1  0  0  0  0
 15 39  1  0  0  0  0
 16 17  1  0  0  0  0
 16 40  1  0  0  0  0
 16 41  1  0  0  0  0
 17 18  1  0  0  0  0
 17 19  1  0  0  0  0
 17 55  1  0  0  0  0
 18 42  1  0  0  0  0
 18 43  1  0  0  0  0
 18 44  1  0  0  0  0
 19 20  1  0  0  0  0
 19 45  1  0  0  0  0
 19 46  1  0  0  0  0
 20 47  1  0  0  0  0
 20 48  1  0  0  0  0
 21 22  1  0  0  0  0
 21 49  1  0  0  0  0
 21 50  1  0  0  0  0
 22 51  1  0  0  0  0
 22 52  1  0  0  0  0
 23 24  2  0  0  0  0
 23 53  1  0  0  0  0
M  CHG  1  13   1
M  CHG  1  17   1
M  END
> <s_m_source_file>
AV-unprocessed.smi

> <i_m_source_file_index>
2772

> <i_lp_mmshare_version>
43012

> <i_f3d_flags>
0

> <s_epik_input>
W0NIM11jMVtjSF1bY0hdYyhbY0hdbjEpW05IXUMoPU8pW05IXVtDSF0yW0NIMl1bQ0gyXU4oW0NIMl1bQ0gyXTIpW0NIXTNbQ0gyXVtDSDJdTihbQ0gzXSlbQ0gyXVtDSDJdMw==

> <s_epik_cmdline>
J2VwaWtfcHl0aG9uJywgJy1waCcsICc3LjAnLCAnLXRuJywgJzgnLCAnLW1hJywgJzIwMCcsICctbWV0YWxfYmluZGluZycsICctaW1hZScsICc8aW5maWxlLm1hZT4nLCAnLW9tYWUnLCAnPG91dGZpbGUubWFlPic=

> <r_epik_Ionization_Penalty>
0.196786

> <r_epik_Ionization_Penalty_Charging>
0.180787

> <r_epik_Ionization_Penalty_Neutral>
0.0159988

> <r_epik_State_Penalty>
0.163322

> <r_epik_Charging_Adjusted_Penalty>
0.344109

> <i_epik_Tot_Q>
2

> <i_epik_Tot_abs_Q>
2

> <r_epik_Metal_State_Penalty>
0.163596

> <b_epik_Metal_Only>
0

> <s_lp_Force_Field>
OPLS_2005

> <r_lp_Energy>
43.2769

> <b_lp_Chiralities_Consistent>
1

> <s_lp_Variant>
AV-unprocessed.smi:2772-1

> <Gold.Version>
5.8.1

> <Gold.Id.Protein>
6NUR|6NUR_protein|mol2

> <Gold.PLP.Fitness>
44.6033

> <Gold.PLP.PLP>
-38.8414

> <Gold.PLP.part.hbond>
-1.1458

> <Gold.PLP.part.metal>
0.0000

> <Gold.PLP.part.buried>
-4.4095

> <Gold.PLP.part.nonpolar>
-33.4929

> <Gold.PLP.part.repulsive>
0.1970

> <Gold.PLP.ligand.clash>
0.0000

> <Gold.PLP.ligand.torsion>
0.1356

> <Gold.PLP.Chemscore.Hbond>
2.0000

> <Gold.PLP.Chemscore.CHOScore>
0.0000

> <Gold.PLP.Chemscore.Metal>
0.0000

> <Gold.Chemscore.Hbonds>
donor molecule, donor type, donor heavy atom, donor atom, acceptor molecule, acceptor atom, score
      L1  H    13    54       P1  7948  2.00

> <Gold.PLP.Chemscore.Internal.Correction>
0.0330

> <Gold.Rescore>
     Score         DG    S(hbond)    S(metal)    S(lipo)     H(rot)  DE(clash)    DE(int)     intcor
     17.37     -18.86       1.00        0.00     112.39       1.21       0.01       1.49       ----

> <Gold.Chemscore.Fitness>
17.3721

> <Gold.Chemscore.DG>
-18.8632

> <Gold.Chemscore.ZeroCoef>
-5.4800

> <Gold.Chemscore.Hbond>
0.9968

> <Gold.Chemscore.Metal>
0.0000

> <Gold.Chemscore.Lipo>
112.3874

> <Gold.Chemscore.Internal_Hbond>
0.0000

> <Gold.Chemscore.DEClash>
0.0051

> <Gold.Chemscore.DEInternal>
1.4861

> <Gold.Chemscore.Rot>
1.2092

> <Gold.Chemscore.Internal.Correction>
   9.000000E+99

> <Gold.Chemscore.Hbonds>
donor molecule, donor type, donor heavy atom, donor atom, acceptor molecule, acceptor atom, score
      L1  H    13    54       P1  7948  0.99

> <Gold.Chemscore.Hbond.Weighted>
-3.3294

> <Gold.Chemscore.Metal.Weighted>
-0.0000

> <Gold.Chemscore.Lipo.Weighted>
-13.1493

> <Gold.Chemscore.Internal_Hbond.Weighted>
0.0000

> <Gold.Chemscore.DEClash.Weighted>
0.0051

> <Gold.Chemscore.DEInternal.Weighted>
1.4861

> <Gold.Chemscore.Rot.Weighted>
3.0955

> <Gold.Chemscore.Internal.Correction.Weighted>
   9.000000E+99

> <Gold.Protein.RotatedTorsions>
[ 6907 6896 6895 6894 ] final  114.29 input  -60.11 | X-H torsion
[ 7974 7965 7964 7962 ] final -141.01 input  175.53 | X-H torsion
[ 8008 7997 7996 7995 ] final  139.86 input   59.86 | X-H torsion
[ 10167 10162 10161 10158 ] final  140.27 input  -65.29 | X-H torsion
[ 10718 10713 10712 10709 ] final   93.14 input   66.30 | X-H torsion
[ 10763 10752 10751 10750 ] final  -62.47 input  -60.55 | X-H torsion
[ 11005 11000 10999 10996 ] final   20.91 input  -57.11 | X-H torsion

> <Gold.Protein.ActiveResidues>
 VAL166  LYS551  ARG553  GLY616  TRP617  ASP618  TYR619  PRO620  LYS621  CYS622 
 ASP623  PHE694  ASN695  SER759  ASP760  ASP761  ALA762  ILE779  LEU786  VAL792 
 PHE793  MET794  SER795  GLU796  ALA797  LYS798  CYS799  TRP800  GLU811  SER814 

> <Gold.Protein.RotatedAtoms>
  152.4811  133.8256  159.7076 H   0  0  0  0  0  0  0  0  0  0  0  0  # atno 6907 bound_to 6896
  150.8861  133.7296  159.2924 H   0  0  0  0  0  0  0  0  0  0  0  0  # atno 6908 bound_to 6896
  151.4784  135.1054  159.9823 H   0  0  0  0  0  0  0  0  0  0  0  0  # atno 6909 bound_to 6896
  144.8552  140.6131  143.5364 H   0  0  0  0  0  0  0  0  0  0  0  0  # atno 7974 bound_to 7965
  156.2985  140.2356  156.4306 H   0  0  0  0  0  0  0  0  0  0  0  0  # atno 8008 bound_to 7997
  154.8274  140.0435  157.1473 H   0  0  0  0  0  0  0  0  0  0  0  0  # atno 8009 bound_to 7997
  154.9247  140.3008  155.5202 H   0  0  0  0  0  0  0  0  0  0  0  0  # atno 8010 bound_to 7997
  139.5054  144.6244  151.5972 H   0  0  0  0  0  0  0  0  0  0  0  0  # atno 10167 bound_to 10162
  157.6956  131.0468  150.3989 H   0  0  0  0  0  0  0  0  0  0  0  0  # atno 10718 bound_to 10713
  154.3004  135.6235  153.5422 H   0  0  0  0  0  0  0  0  0  0  0  0  # atno 10763 bound_to 10752
  152.9841  135.5677  154.5290 H   0  0  0  0  0  0  0  0  0  0  0  0  # atno 10764 bound_to 10752
  154.4919  135.2868  155.1466 H   0  0  0  0  0  0  0  0  0  0  0  0  # atno 10765 bound_to 10752
  140.3974  134.1755  155.7663 H   0  0  0  0  0  0  0  0  0  0  0  0  # atno 11005 bound_to 11000
  145.4420  139.1534  143.3965 LP  0  0  0  0  0  0  0  0  0  0  0  0  # atno 17320 bound_to 7965
  146.2817  140.4541  142.8773 LP  0  0  0  0  0  0  0  0  0  0  0  0  # atno 17321 bound_to 7965
  140.5957  143.9701  150.6353 LP  0  0  0  0  0  0  0  0  0  0  0  0  # atno 17342 bound_to 10162
  140.2896  143.3333  152.1075 LP  0  0  0  0  0  0  0  0  0  0  0  0  # atno 17343 bound_to 10162
  156.4384  130.3986  149.6713 LP  0  0  0  0  0  0  0  0  0  0  0  0  # atno 17370 bound_to 10713
  156.3905  130.7625  151.2625 LP  0  0  0  0  0  0  0  0  0  0  0  0  # atno 17371 bound_to 10713
  141.1869  133.8292  157.1051 LP  0  0  0  0  0  0  0  0  0  0  0  0  # atno 17394 bound_to 11000
  140.0362  134.9877  157.0875 LP  0  0  0  0  0  0  0  0  0  0  0  0  # atno 17395 bound_to 11000

$$$$
