AV-unprocessed.smi:227|AV-procd|sdf|1740|dock3
  -GOLD-   2262020243D 1   1.00000     0.00000
 Structure written by MMmdl.
 54 58  0  0  0  0  0  0  0  0  1 V2000
  147.7906  137.1375  163.0705 O   0  0  0  0  0  0  0  0  0  0  0  0
  146.6074  136.8007  162.3765 C   0  0  0  0  0  0  0  0  0  0  0  0
  146.8071  135.5276  161.5150 C   0  0  1  0  0  0  0  0  0  0  0  0
  148.1701  135.5812  160.7632 C   0  0  0  0  0  0  0  0  0  0  0  0
  148.2247  136.5601  159.6860 N   0  0  0  0  0  0  0  0  0  0  0  0
  147.1586  137.1975  159.0927 C   0  0  0  0  0  0  0  0  0  0  0  0
  147.4686  138.0323  158.1402 N   0  0  0  0  0  0  0  0  0  0  0  0
  148.8558  137.9821  158.0759 C   0  0  0  0  0  0  0  0  0  0  0  0
  149.8406  138.6206  157.2670 C   0  0  0  0  0  0  0  0  0  0  0  0
  149.5469  139.4938  156.2658 N   0  0  0  0  0  0  0  0  0  0  0  0
  150.1592  140.8124  156.2096 C   0  0  2  0  0  0  0  0  0  0  0  0
  149.3613  141.4921  155.0835 C   0  0  0  0  0  0  0  0  0  0  0  0
  149.1018  140.3055  154.1403 C   0  0  0  0  0  0  0  0  0  0  0  0
  149.8330  139.1675  154.8758 C   0  0  1  0  0  0  0  0  0  0  0  0
  151.3595  139.3815  154.7153 C   0  0  2  0  0  0  0  0  0  0  0  0
  152.2073  138.1241  154.9907 C   0  0  0  0  0  0  0  0  0  0  0  0
  151.8273  137.0811  154.1188 O   0  0  0  0  0  0  0  0  0  0  0  0
  151.5938  140.5319  155.7156 C   0  0  0  0  0  0  0  0  0  0  0  0
  151.1433  138.3386  157.5348 N   0  0  0  0  0  0  0  0  0  0  0  0
  151.4654  137.4737  158.4999 C   0  0  0  0  0  0  0  0  0  0  0  0
  150.6564  136.7893  159.3089 N   0  0  0  0  0  0  0  0  0  0  0  0
  149.3471  137.0768  159.0599 C   0  0  0  0  0  0  0  0  0  0  0  0
  146.6196  134.2310  162.3642 C   0  0  1  0  0  0  0  0  0  0  0  0
  145.1668  133.8635  162.6578 C   0  0  0  0  0  0  0  0  0  0  0  0
  144.7305  133.0752  161.4232 C   0  0  0  0  0  0  0  0  0  0  0  0
  145.9267  132.5762  160.8369 O   0  0  0  0  0  0  0  0  0  0  0  0
  147.0343  132.9354  161.6505 C   0  0  0  0  0  0  0  0  0  0  0  0
  147.5530  137.5514  163.8863 H   0  0  0  0  0  0  0  0  0  0  0  0
  145.7908  136.6730  163.0871 H   0  0  0  0  0  0  0  0  0  0  0  0
  146.3555  137.6684  161.7719 H   0  0  0  0  0  0  0  0  0  0  0  0
  146.0287  135.5315  160.7505 H   0  0  0  0  0  0  0  0  0  0  0  0
  148.9888  135.7862  161.4512 H   0  0  0  0  0  0  0  0  0  0  0  0
  148.4085  134.6035  160.3436 H   0  0  0  0  0  0  0  0  0  0  0  0
  146.1337  137.0220  159.3831 H   0  0  0  0  0  0  0  0  0  0  0  0
  150.1247  141.3759  157.1428 H   0  0  0  0  0  0  0  0  0  0  0  0
  148.4204  141.8962  155.4592 H   0  0  0  0  0  0  0  0  0  0  0  0
  149.9144  142.3023  154.6069 H   0  0  0  0  0  0  0  0  0  0  0  0
  148.0329  140.0978  154.0746 H   0  0  0  0  0  0  0  0  0  0  0  0
  149.4750  140.4733  153.1294 H   0  0  0  0  0  0  0  0  0  0  0  0
  149.4950  138.1901  154.5361 H   0  0  0  0  0  0  0  0  0  0  0  0
  151.5735  139.7129  153.6979 H   0  0  0  0  0  0  0  0  0  0  0  0
  153.2720  138.3154  154.8622 H   0  0  0  0  0  0  0  0  0  0  0  0
  152.0625  137.7873  156.0176 H   0  0  0  0  0  0  0  0  0  0  0  0
  151.5587  137.4596  153.2955 H   0  0  0  0  0  0  0  0  0  0  0  0
  152.0573  141.4037  155.2527 H   0  0  0  0  0  0  0  0  0  0  0  0
  152.2324  140.2176  156.5421 H   0  0  0  0  0  0  0  0  0  0  0  0
  152.5224  137.3025  158.6409 H   0  0  0  0  0  0  0  0  0  0  0  0
  147.1709  134.3402  163.2986 H   0  0  0  0  0  0  0  0  0  0  0  0
  145.1367  133.2059  163.5281 H   0  0  0  0  0  0  0  0  0  0  0  0
  144.5006  134.6954  162.8746 H   0  0  0  0  0  0  0  0  0  0  0  0
  144.0490  132.2636  161.6794 H   0  0  0  0  0  0  0  0  0  0  0  0
  144.2313  133.7230  160.7020 H   0  0  0  0  0  0  0  0  0  0  0  0
  147.9470  133.0001  161.0629 H   0  0  0  0  0  0  0  0  0  0  0  0
  147.1877  132.1433  162.3854 H   0  0  0  0  0  0  0  0  0  0  0  0
  1  2  1  0  0  0  0
  1 28  1  0  0  0  0
  2  3  1  0  0  0  0
  2 29  1  0  0  0  0
  2 30  1  0  0  0  0
  3  4  1  0  0  0  0
  3 23  1  0  0  0  0
  3 31  1  0  0  0  0
  4  5  1  0  0  0  0
  4 32  1  0  0  0  0
  4 33  1  0  0  0  0
  5 22  1  0  0  0  0
  5  6  1  0  0  0  0
  6  7  2  0  0  0  0
  6 34  1  0  0  0  0
  7  8  1  0  0  0  0
  8 22  2  0  0  0  0
  8  9  1  0  0  0  0
  9 10  1  0  0  0  0
  9 19  2  0  0  0  0
 10 14  1  0  0  0  0
 10 11  1  0  0  0  0
 11 18  1  0  0  0  0
 11 12  1  0  0  0  0
 11 35  1  0  0  0  0
 12 13  1  0  0  0  0
 12 36  1  0  0  0  0
 12 37  1  0  0  0  0
 13 14  1  0  0  0  0
 13 38  1  0  0  0  0
 13 39  1  0  0  0  0
 14 15  1  0  0  0  0
 14 40  1  0  0  0  0
 15 16  1  0  0  0  0
 15 18  1  0  0  0  0
 15 41  1  0  0  0  0
 16 17  1  0  0  0  0
 16 42  1  0  0  0  0
 16 43  1  0  0  0  0
 17 44  1  0  0  0  0
 18 45  1  0  0  0  0
 18 46  1  0  0  0  0
 19 20  1  0  0  0  0
 20 21  2  0  0  0  0
 20 47  1  0  0  0  0
 21 22  1  0  0  0  0
 23 27  1  0  0  0  0
 23 24  1  0  0  0  0
 23 48  1  0  0  0  0
 24 25  1  0  0  0  0
 24 49  1  0  0  0  0
 24 50  1  0  0  0  0
 25 26  1  0  0  0  0
 25 51  1  0  0  0  0
 25 52  1  0  0  0  0
 26 27  1  0  0  0  0
 27 53  1  0  0  0  0
 27 54  1  0  0  0  0
M  END
> <s_m_source_file>
AV-unprocessed.smi

> <i_m_source_file_index>
227

> <i_lp_mmshare_version>
43012

> <i_f3d_flags>
0

> <s_epik_input>
W0NIMl0xT1tDSDJdW0NIMl1bQ0BIXTFbQ0BIXShbQ0gyXVtPSF0pW0NIMl1uKFtjSF1uMiljKGMyMyluW2NIXW5jM04oW0NASF00NSlbQ0BASF0oW0NIMl1bQ0gyXTQpW0NASF0oW0NIMl01KVtDSDJdW09IXQ==

> <s_epik_cmdline>
J2VwaWtfcHl0aG9uJywgJy1waCcsICc3LjAnLCAnLXRuJywgJzgnLCAnLW1hJywgJzIwMCcsICctbWV0YWxfYmluZGluZycsICctaW1hZScsICc8aW5maWxlLm1hZT4nLCAnLW9tYWUnLCAnPG91dGZpbGUubWFlPic=

> <r_lp_tautomer_probability>
1

> <r_epik_Ionization_Penalty>
0.0055791

> <r_epik_Ionization_Penalty_Charging>
0

> <r_epik_Ionization_Penalty_Neutral>
0.0055791

> <r_epik_State_Penalty>
0.00401299

> <r_epik_Charging_Adjusted_Penalty>
0.00401299

> <i_epik_Tot_Q>
0

> <i_epik_Tot_abs_Q>
0

> <r_epik_Metal_State_Penalty>
-0

> <b_epik_Metal_Only>
0

> <s_lp_Force_Field>
OPLS_2005

> <r_lp_Energy>
90.2099

> <b_lp_Chiralities_Consistent>
1

> <s_lp_Variant>
AV-unprocessed.smi:227-14

> <Gold.Version>
5.8.1

> <Gold.Id.Protein>
6NUR|6NUR_protein|mol2

> <Gold.PLP.Fitness>
53.5908

> <Gold.PLP.PLP>
-46.9121

> <Gold.PLP.part.hbond>
-4.0000

> <Gold.PLP.part.metal>
0.0000

> <Gold.PLP.part.buried>
-2.5330

> <Gold.PLP.part.nonpolar>
-40.1285

> <Gold.PLP.part.repulsive>
0.0197

> <Gold.PLP.ligand.clash>
0.0000

> <Gold.PLP.ligand.torsion>
0.8761

> <Gold.PLP.Chemscore.Hbond>
2.7487

> <Gold.PLP.Chemscore.CHOScore>
0.0000

> <Gold.PLP.Chemscore.Metal>
0.0000

> <Gold.Chemscore.Hbonds>
donor molecule, donor type, donor heavy atom, donor atom, acceptor molecule, acceptor atom, score
      L1  H    17    44       P1  7949  0.06
      P1  H  6896  6908       L1    21  1.00
      P1  H  6931  6943       L1     1  0.69
      P1  H 10752 10764       L1    17  1.00

> <Gold.PLP.Chemscore.Internal.Correction>
0.1848

> <Gold.Rescore>
     Score         DG    S(hbond)    S(metal)    S(lipo)     H(rot)  DE(clash)    DE(int)     intcor
     11.84     -16.59       2.41        0.00     105.01       3.61       0.44       4.32       ----

> <Gold.Chemscore.Fitness>
11.8364

> <Gold.Chemscore.DG>
-16.5926

> <Gold.Chemscore.ZeroCoef>
-5.4800

> <Gold.Chemscore.Hbond>
2.4133

> <Gold.Chemscore.Metal>
0.0000

> <Gold.Chemscore.Lipo>
105.0112

> <Gold.Chemscore.Internal_Hbond>
0.0000

> <Gold.Chemscore.DEClash>
0.4380

> <Gold.Chemscore.DEInternal>
4.3182

> <Gold.Chemscore.Rot>
3.6071

> <Gold.Chemscore.Internal.Correction>
   9.000000E+99

> <Gold.Chemscore.Hbonds>
donor molecule, donor type, donor heavy atom, donor atom, acceptor molecule, acceptor atom, score
      L1  H    17    44       P1  7949  0.06
      P1  H  6896  6908       L1    21  0.93
      P1  H  6931  6943       L1     1  0.46
      P1  H 10752 10764       L1    17  0.76

> <Gold.Chemscore.Hbond.Weighted>
-8.0605

> <Gold.Chemscore.Metal.Weighted>
-0.0000

> <Gold.Chemscore.Lipo.Weighted>
-12.2863

> <Gold.Chemscore.Internal_Hbond.Weighted>
0.0000

> <Gold.Chemscore.DEClash.Weighted>
0.4380

> <Gold.Chemscore.DEInternal.Weighted>
4.3182

> <Gold.Chemscore.Rot.Weighted>
9.2342

> <Gold.Chemscore.Internal.Correction.Weighted>
   9.000000E+99

> <Gold.Protein.RotatedTorsions>
[ 6907 6896 6895 6894 ] final -153.79 input  -60.11 | X-H torsion
[ 7974 7965 7964 7962 ] final   90.12 input  175.53 | X-H torsion
[ 8008 7997 7996 7995 ] final  139.01 input   59.86 | X-H torsion
[ 10167 10162 10161 10158 ] final  -55.00 input  -65.29 | X-H torsion
[ 10718 10713 10712 10709 ] final    0.25 input   66.30 | X-H torsion
[ 10763 10752 10751 10750 ] final  -96.77 input  -60.55 | X-H torsion
[ 11005 11000 10999 10996 ] final   -7.26 input  -57.11 | X-H torsion

> <Gold.Protein.ActiveResidues>
 VAL166  LYS551  ARG553  GLY616  TRP617  ASP618  TYR619  PRO620  LYS621  CYS622 
 ASP623  PHE694  ASN695  SER759  ASP760  ASP761  ALA762  ILE779  LEU786  VAL792 
 PHE793  MET794  SER795  GLU796  ALA797  LYS798  CYS799  TRP800  GLU811  SER814 

> <Gold.Protein.RotatedAtoms>
  151.2479  133.4365  159.2609 H   0  0  0  0  0  0  0  0  0  0  0  0  # atno 6907 bound_to 6896
  151.0645  134.9758  159.8287 H   0  0  0  0  0  0  0  0  0  0  0  0  # atno 6908 bound_to 6896
  152.5403  134.2427  159.8921 H   0  0  0  0  0  0  0  0  0  0  0  0  # atno 6909 bound_to 6896
  145.5233  139.2280  143.2659 H   0  0  0  0  0  0  0  0  0  0  0  0  # atno 7974 bound_to 7965
  156.2993  140.2379  156.4167 H   0  0  0  0  0  0  0  0  0  0  0  0  # atno 8008 bound_to 7997
  154.8392  140.0429  157.1550 H   0  0  0  0  0  0  0  0  0  0  0  0  # atno 8009 bound_to 7997
  154.9121  140.2992  155.5264 H   0  0  0  0  0  0  0  0  0  0  0  0  # atno 8010 bound_to 7997
  140.6399  143.2502  151.5017 H   0  0  0  0  0  0  0  0  0  0  0  0  # atno 10167 bound_to 10162
  156.8306  130.5487  149.5687 H   0  0  0  0  0  0  0  0  0  0  0  0  # atno 10718 bound_to 10713
  154.7269  135.5071  153.8900 H   0  0  0  0  0  0  0  0  0  0  0  0  # atno 10763 bound_to 10752
  153.0913  135.6660  153.9858 H   0  0  0  0  0  0  0  0  0  0  0  0  # atno 10764 bound_to 10752
  153.9668  135.3042  155.3409 H   0  0  0  0  0  0  0  0  0  0  0  0  # atno 10765 bound_to 10752
  140.7109  133.8909  155.8750 H   0  0  0  0  0  0  0  0  0  0  0  0  # atno 11005 bound_to 11000
  146.2092  140.6046  142.9067 LP  0  0  0  0  0  0  0  0  0  0  0  0  # atno 17320 bound_to 7965
  144.7664  140.5540  143.6700 LP  0  0  0  0  0  0  0  0  0  0  0  0  # atno 17321 bound_to 7965
  139.5608  144.2160  152.1688 LP  0  0  0  0  0  0  0  0  0  0  0  0  # atno 17342 bound_to 10162
  140.1428  144.5187  150.6734 LP  0  0  0  0  0  0  0  0  0  0  0  0  # atno 17343 bound_to 10162
  156.0936  130.5915  150.9775 LP  0  0  0  0  0  0  0  0  0  0  0  0  # atno 17370 bound_to 10713
  157.6408  131.0910  150.8254 LP  0  0  0  0  0  0  0  0  0  0  0  0  # atno 17371 bound_to 10713
  141.0085  134.1053  157.4246 LP  0  0  0  0  0  0  0  0  0  0  0  0  # atno 17394 bound_to 11000
  139.8872  135.0088  156.6545 LP  0  0  0  0  0  0  0  0  0  0  0  0  # atno 17395 bound_to 11000

$$$$
