AV-unprocessed.smi:2532|AV-procd|sdf|9971|dock7
  -GOLD-   2272014 13D 1   1.00000     0.00000
 Structure written by MMmdl.
 37 39  0  0  0  0  0  0  0  0  2 V2000
  149.4127  138.1833  157.0667 O   0  0  0  0  0  0  0  0  0  0  0  0
  149.8562  138.9350  158.1791 C   0  0  1  0  0  0  0  0  0  0  0  0
  150.0050  137.9827  159.3756 C   0  0  0  0  0  0  0  0  0  0  0  0
  148.7298  137.7875  159.9630 O   0  0  0  0  0  0  0  0  0  0  0  0
  148.2653  136.4529  159.8432 C   0  0  0  0  0  0  0  0  0  0  0  0
  147.8162  136.0104  161.1987 C   0  0  0  0  0  0  0  0  0  0  0  0
  147.7953  136.7574  162.3491 C   0  0  0  0  0  0  0  0  0  0  0  0
  147.2910  136.0435  163.4757 C   0  0  0  0  0  0  0  0  0  0  0  0
  146.9220  134.7608  163.1698 C   0  0  0  0  0  0  0  0  0  0  0  0
  147.1891  134.4035  161.4858 S   0  0  0  0  0  0  0  0  0  0  0  0
  151.1850  139.6322  157.8266 C   0  0  0  0  0  0  0  0  0  0  0  0
  151.0143  141.0594  157.5166 N   0  0  0  0  0  0  0  0  0  0  0  0
  150.2384  141.6536  156.5699 C   0  0  0  0  0  0  0  0  0  0  0  0
  150.4206  142.9993  156.6727 N   0  3  0  0  0  0  0  0  0  0  0  0
  151.3272  143.2700  157.6997 C   0  0  0  0  0  0  0  0  0  0  0  0
  151.8253  144.4776  158.1790 C   0  0  0  0  0  0  0  0  0  0  0  0
  152.7462  144.4041  159.2447 C   0  0  0  0  0  0  0  0  0  0  0  0
  153.1385  143.1653  159.7921 C   0  0  0  0  0  0  0  0  0  0  0  0
  152.6267  141.9473  159.2985 C   0  0  0  0  0  0  0  0  0  0  0  0
  151.7148  142.0279  158.2461 C   0  0  0  0  0  0  0  0  0  0  0  0
  148.9886  137.4015  157.3870 H   0  0  0  0  0  0  0  0  0  0  0  0
  149.1098  139.6968  158.4091 H   0  0  0  0  0  0  0  0  0  0  0  0
  150.4579  137.0362  159.0743 H   0  0  0  0  0  0  0  0  0  0  0  0
  150.6598  138.4305  160.1250 H   0  0  0  0  0  0  0  0  0  0  0  0
  147.4391  136.4010  159.1322 H   0  0  0  0  0  0  0  0  0  0  0  0
  149.0613  135.7997  159.4830 H   0  0  0  0  0  0  0  0  0  0  0  0
  148.1243  137.7836  162.4210 H   0  0  0  0  0  0  0  0  0  0  0  0
  147.2151  136.4903  164.4561 H   0  0  0  0  0  0  0  0  0  0  0  0
  146.5089  134.0087  163.8257 H   0  0  0  0  0  0  0  0  0  0  0  0
  151.8700  139.5721  158.6732 H   0  0  0  0  0  0  0  0  0  0  0  0
  151.6862  139.1370  156.9947 H   0  0  0  0  0  0  0  0  0  0  0  0
  149.5951  141.1486  155.8638 H   0  0  0  0  0  0  0  0  0  0  0  0
  151.5275  145.4279  157.7606 H   0  0  0  0  0  0  0  0  0  0  0  0
  153.1608  145.3160  159.6491 H   0  0  0  0  0  0  0  0  0  0  0  0
  153.8477  143.1479  160.6070 H   0  0  0  0  0  0  0  0  0  0  0  0
  152.9397  141.0045  159.7214 H   0  0  0  0  0  0  0  0  0  0  0  0
  149.9602  143.6805  156.0829 H   0  0  0  0  0  0  0  0  0  0  0  0
  1  2  1  0  0  0  0
  1 21  1  0  0  0  0
  2  3  1  0  0  0  0
  2 11  1  0  0  0  0
  2 22  1  0  0  0  0
  3  4  1  0  0  0  0
  3 23  1  0  0  0  0
  3 24  1  0  0  0  0
  4  5  1  0  0  0  0
  5  6  1  0  0  0  0
  5 25  1  0  0  0  0
  5 26  1  0  0  0  0
  6 10  1  0  0  0  0
  6  7  2  0  0  0  0
  7  8  1  0  0  0  0
  7 27  1  0  0  0  0
  8  9  2  0  0  0  0
  8 28  1  0  0  0  0
  9 10  1  0  0  0  0
  9 29  1  0  0  0  0
 11 12  1  0  0  0  0
 11 30  1  0  0  0  0
 11 31  1  0  0  0  0
 12 20  1  0  0  0  0
 12 13  1  0  0  0  0
 13 14  2  0  0  0  0
 13 32  1  0  0  0  0
 14 15  1  0  0  0  0
 14 37  1  0  0  0  0
 15 20  2  0  0  0  0
 15 16  1  0  0  0  0
 16 17  2  0  0  0  0
 16 33  1  0  0  0  0
 17 18  1  0  0  0  0
 17 34  1  0  0  0  0
 18 19  2  0  0  0  0
 18 35  1  0  0  0  0
 19 20  1  0  0  0  0
 19 36  1  0  0  0  0
M  CHG  1  14   1
M  END
> <s_m_source_file>
AV-unprocessed.smi

> <i_m_source_file_index>
2532

> <i_lp_mmshare_version>
43012

> <i_f3d_flags>
0

> <s_epik_input>
W2NIXTFbY0hdW2NIXVtjSF1jKGMxMiluKFtjSF1uMilbQ0gyXVtDQEhdKFtPSF0pW0NIMl1PW0NIMl1jM1tjSF1bY0hdW2NIXXMz

> <s_epik_cmdline>
J2VwaWtfcHl0aG9uJywgJy1waCcsICc3LjAnLCAnLXRuJywgJzgnLCAnLW1hJywgJzIwMCcsICctbWV0YWxfYmluZGluZycsICctaW1hZScsICc8aW5maWxlLm1hZT4nLCAnLW9tYWUnLCAnPG91dGZpbGUubWFlPic=

> <r_epik_Ionization_Penalty>
1.31758

> <r_epik_Ionization_Penalty_Charging>
1.31758

> <r_epik_Ionization_Penalty_Neutral>
1.26231e-06

> <r_epik_State_Penalty>
1.39289

> <r_epik_Charging_Adjusted_Penalty>
2.71047

> <i_epik_Tot_Q>
1

> <i_epik_Tot_abs_Q>
1

> <r_epik_Metal_State_Penalty>
5.42637

> <b_epik_Metal_Only>
0

> <s_lp_Force_Field>
OPLS_2005

> <r_lp_Energy>
15.1458

> <b_lp_Chiralities_Consistent>
1

> <s_lp_Variant>
AV-unprocessed.smi:2532-4

> <Gold.Version>
5.8.1

> <Gold.Id.Protein>
6NUR|6NUR_protein|mol2

> <Gold.PLP.Fitness>
52.8585

> <Gold.PLP.PLP>
-49.8447

> <Gold.PLP.part.hbond>
-2.2202

> <Gold.PLP.part.metal>
0.0000

> <Gold.PLP.part.buried>
-5.5818

> <Gold.PLP.part.nonpolar>
-42.4808

> <Gold.PLP.part.repulsive>
0.0824

> <Gold.PLP.ligand.clash>
0.0000

> <Gold.PLP.ligand.torsion>
1.5468

> <Gold.PLP.Chemscore.Hbond>
2.0000

> <Gold.PLP.Chemscore.CHOScore>
0.0000

> <Gold.PLP.Chemscore.Metal>
0.0000

> <Gold.Chemscore.Hbonds>
donor molecule, donor type, donor heavy atom, donor atom, acceptor molecule, acceptor atom, score
      L1  H    14    37       P1  8028  2.00
      P1  H  6931  6943       L1     4  0.26
      P1  H  6934  6947       L1     4  0.15

> <Gold.PLP.Chemscore.Internal.Correction>
0.1075

> <Gold.Rescore>
     Score         DG    S(hbond)    S(metal)    S(lipo)     H(rot)  DE(clash)    DE(int)     intcor
     15.93     -17.57       1.00        0.00     128.64       2.46       0.05       1.59       ----

> <Gold.Chemscore.Fitness>
15.9315

> <Gold.Chemscore.DG>
-17.5708

> <Gold.Chemscore.ZeroCoef>
-5.4800

> <Gold.Chemscore.Hbond>
0.9997

> <Gold.Chemscore.Metal>
0.0000

> <Gold.Chemscore.Lipo>
128.6449

> <Gold.Chemscore.Internal_Hbond>
0.0000

> <Gold.Chemscore.DEClash>
0.0542

> <Gold.Chemscore.DEInternal>
1.5851

> <Gold.Chemscore.Rot>
2.4608

> <Gold.Chemscore.Internal.Correction>
   9.000000E+99

> <Gold.Chemscore.Hbonds>
donor molecule, donor type, donor heavy atom, donor atom, acceptor molecule, acceptor atom, score
      L1  H    14    37       P1  8028  0.94
      P1  H  6931  6943       L1     4  0.07
      P1  H  6934  6947       L1     4  0.12

> <Gold.Chemscore.Hbond.Weighted>
-3.3390

> <Gold.Chemscore.Metal.Weighted>
-0.0000

> <Gold.Chemscore.Lipo.Weighted>
-15.0514

> <Gold.Chemscore.Internal_Hbond.Weighted>
0.0000

> <Gold.Chemscore.DEClash.Weighted>
0.0542

> <Gold.Chemscore.DEInternal.Weighted>
1.5851

> <Gold.Chemscore.Rot.Weighted>
6.2996

> <Gold.Chemscore.Internal.Correction.Weighted>
   9.000000E+99

> <Gold.Protein.RotatedTorsions>
[ 6907 6896 6895 6894 ] final  -23.47 input  -60.11 | X-H torsion
[ 7974 7965 7964 7962 ] final  -49.04 input  175.53 | X-H torsion
[ 8008 7997 7996 7995 ] final   48.64 input   59.86 | X-H torsion
[ 10167 10162 10161 10158 ] final  -82.24 input  -65.29 | X-H torsion
[ 10718 10713 10712 10709 ] final  -82.92 input   66.30 | X-H torsion
[ 10763 10752 10751 10750 ] final  -23.23 input  -60.55 | X-H torsion
[ 11005 11000 10999 10996 ] final  -74.06 input  -57.11 | X-H torsion

> <Gold.Protein.ActiveResidues>
 VAL166  LYS551  ARG553  GLY616  TRP617  ASP618  TYR619  PRO620  LYS621  CYS622 
 ASP623  PHE694  ASN695  SER759  ASP760  ASP761  ALA762  ILE779  LEU786  VAL792 
 PHE793  MET794  SER795  GLU796  ALA797  LYS798  CYS799  TRP800  GLU811  SER814 

> <Gold.Protein.RotatedAtoms>
  151.2035  135.0452  159.8881 H   0  0  0  0  0  0  0  0  0  0  0  0  # atno 6907 bound_to 6896
  152.5431  134.0824  159.8251 H   0  0  0  0  0  0  0  0  0  0  0  0  # atno 6908 bound_to 6896
  151.0967  133.5226  159.2644 H   0  0  0  0  0  0  0  0  0  0  0  0  # atno 6909 bound_to 6896
  145.9448  140.7628  142.9534 H   0  0  0  0  0  0  0  0  0  0  0  0  # atno 7974 bound_to 7965
  155.3890  140.3432  155.4250 H   0  0  0  0  0  0  0  0  0  0  0  0  # atno 8008 bound_to 7997
  156.1568  140.1588  156.8712 H   0  0  0  0  0  0  0  0  0  0  0  0  # atno 8009 bound_to 7997
  154.5102  140.0792  156.7956 H   0  0  0  0  0  0  0  0  0  0  0  0  # atno 8010 bound_to 7997
  140.4338  143.2539  151.8722 H   0  0  0  0  0  0  0  0  0  0  0  0  # atno 10167 bound_to 10162
  156.0026  130.4649  150.4178 H   0  0  0  0  0  0  0  0  0  0  0  0  # atno 10718 bound_to 10713
  153.6646  135.6975  153.5166 H   0  0  0  0  0  0  0  0  0  0  0  0  # atno 10763 bound_to 10752
  153.2605  135.4246  155.0889 H   0  0  0  0  0  0  0  0  0  0  0  0  # atno 10764 bound_to 10752
  154.8443  135.3554  154.6190 H   0  0  0  0  0  0  0  0  0  0  0  0  # atno 10765 bound_to 10752
  141.1630  133.6899  156.7307 H   0  0  0  0  0  0  0  0  0  0  0  0  # atno 11005 bound_to 11000
  144.6785  140.2338  143.7352 LP  0  0  0  0  0  0  0  0  0  0  0  0  # atno 17320 bound_to 7965
  145.8251  139.2061  143.1915 LP  0  0  0  0  0  0  0  0  0  0  0  0  # atno 17321 bound_to 7965
  139.4786  144.5305  151.8673 LP  0  0  0  0  0  0  0  0  0  0  0  0  # atno 17342 bound_to 10162
  140.4397  144.2003  150.5891 LP  0  0  0  0  0  0  0  0  0  0  0  0  # atno 17343 bound_to 10162
  157.2236  131.0488  151.2532 LP  0  0  0  0  0  0  0  0  0  0  0  0  # atno 17370 bound_to 10713
  157.3777  130.7215  149.6608 LP  0  0  0  0  0  0  0  0  0  0  0  0  # atno 17371 bound_to 10713
  140.2747  134.8364  157.3879 LP  0  0  0  0  0  0  0  0  0  0  0  0  # atno 17394 bound_to 11000
  140.1489  134.4876  155.7976 LP  0  0  0  0  0  0  0  0  0  0  0  0  # atno 17395 bound_to 11000

$$$$
