AV-unprocessed.smi:1512|AV-procd|sdf|6103|dock5
  -GOLD-   22720 6233D 1   1.00000     0.00000
 Structure written by MMmdl.
 44 46  0  0  0  0  0  0  0  0  3 V2000
  153.1205  139.7351  158.9094 C   0  0  0  0  0  0  0  0  0  0  0  0
  152.4196  140.8933  158.1789 C   0  0  1  0  0  0  0  0  0  0  0  0
  151.3561  140.3680  157.3298 N   0  0  0  0  0  0  0  0  0  0  0  0
  151.4488  140.0972  156.0170 C   0  0  0  0  0  0  0  0  0  0  0  0
  152.4914  140.2360  155.3788 O   0  0  0  0  0  0  0  0  0  0  0  0
  150.1849  139.6065  155.2892 C   0  0  0  0  0  0  0  0  0  0  0  0
  149.0369  140.5305  155.3573 N   0  0  0  0  0  0  0  0  0  0  0  0
  148.6134  141.1003  154.1419 C   0  0  0  0  0  0  0  0  0  0  0  0
  147.5919  141.9661  154.0826 C   0  0  0  0  0  0  0  0  0  0  0  0
  146.9234  142.3177  155.3114 C   0  0  0  0  0  0  0  0  0  0  0  0
  147.3162  141.7884  156.4932 C   0  0  0  0  0  0  0  0  0  0  0  0
  146.6139  142.1985  157.6879 N   0  3  0  0  0  0  0  0  0  0  0  0
  146.8931  141.6596  158.7545 O   0  0  0  0  0  0  0  0  0  0  0  0
  145.7711  143.0862  157.5967 O   0  5  0  0  0  0  0  0  0  0  0  0
  148.4359  140.8255  156.5522 C   0  0  0  0  0  0  0  0  0  0  0  0
  148.8204  140.3103  157.6034 O   0  0  0  0  0  0  0  0  0  0  0  0
  151.8209  141.9223  159.1662 C   0  0  1  0  0  0  0  0  0  0  0  0
  152.8600  142.7902  159.9105 C   0  0  0  0  0  0  0  0  0  0  0  0
  152.3270  144.2207  159.7050 C   0  0  1  0  0  0  0  0  0  0  0  0
  152.5886  144.6505  158.2498 C   0  0  0  0  0  0  0  0  0  0  0  0
  151.5636  143.8151  157.4616 C   0  0  0  0  0  0  0  0  0  0  0  0
  150.8712  142.9914  158.5671 C   0  0  2  0  0  0  0  0  0  0  0  0
  150.8176  144.0073  159.7036 C   0  0  0  0  0  0  0  0  0  0  0  0
  153.9317  140.0978  159.5407 H   0  0  0  0  0  0  0  0  0  0  0  0
  153.5524  139.0255  158.2029 H   0  0  0  0  0  0  0  0  0  0  0  0
  152.4244  139.1872  159.5453 H   0  0  0  0  0  0  0  0  0  0  0  0
  153.1592  141.3944  157.5528 H   0  0  0  0  0  0  0  0  0  0  0  0
  150.4617  140.2220  157.7742 H   0  0  0  0  0  0  0  0  0  0  0  0
  150.4483  139.4188  154.2472 H   0  0  0  0  0  0  0  0  0  0  0  0
  149.9165  138.6266  155.6874 H   0  0  0  0  0  0  0  0  0  0  0  0
  149.1732  140.7939  153.2698 H   0  0  0  0  0  0  0  0  0  0  0  0
  147.2828  142.3952  153.1410 H   0  0  0  0  0  0  0  0  0  0  0  0
  146.1087  143.0264  155.2745 H   0  0  0  0  0  0  0  0  0  0  0  0
  151.2472  141.3681  159.9121 H   0  0  0  0  0  0  0  0  0  0  0  0
  152.8862  142.5295  160.9692 H   0  0  0  0  0  0  0  0  0  0  0  0
  153.8714  142.6775  159.5181 H   0  0  0  0  0  0  0  0  0  0  0  0
  152.6933  144.9343  160.4436 H   0  0  0  0  0  0  0  0  0  0  0  0
  152.3972  145.7161  158.1171 H   0  0  0  0  0  0  0  0  0  0  0  0
  153.6150  144.4534  157.9381 H   0  0  0  0  0  0  0  0  0  0  0  0
  150.8434  144.4695  156.9690 H   0  0  0  0  0  0  0  0  0  0  0  0
  152.0233  143.2020  156.6873 H   0  0  0  0  0  0  0  0  0  0  0  0
  149.8985  142.5966  158.2709 H   0  0  0  0  0  0  0  0  0  0  0  0
  150.4371  143.5943  160.6397 H   0  0  0  0  0  0  0  0  0  0  0  0
  150.2534  144.9082  159.4552 H   0  0  0  0  0  0  0  0  0  0  0  0
  1  2  1  0  0  0  0
  1 24  1  0  0  0  0
  1 25  1  0  0  0  0
  1 26  1  0  0  0  0
  2  3  1  0  0  0  0
  2 17  1  0  0  0  0
  2 27  1  0  0  0  0
  3  4  1  0  0  0  0
  3 28  1  0  0  0  0
  4  5  2  0  0  0  0
  4  6  1  0  0  0  0
  6  7  1  0  0  0  0
  6 29  1  0  0  0  0
  6 30  1  0  0  0  0
  7 15  1  0  0  0  0
  7  8  1  0  0  0  0
  8  9  2  0  0  0  0
  8 31  1  0  0  0  0
  9 10  1  0  0  0  0
  9 32  1  0  0  0  0
 10 11  2  0  0  0  0
 10 33  1  0  0  0  0
 11 12  1  0  0  0  0
 11 15  1  0  0  0  0
 12 13  2  0  0  0  0
 12 14  1  0  0  0  0
 15 16  2  0  0  0  0
 17 22  1  0  0  0  0
 17 18  1  0  0  0  0
 17 34  1  0  0  0  0
 18 19  1  0  0  0  0
 18 35  1  0  0  0  0
 18 36  1  0  0  0  0
 19 23  1  0  0  0  0
 19 20  1  0  0  0  0
 19 37  1  0  0  0  0
 20 21  1  0  0  0  0
 20 38  1  0  0  0  0
 20 39  1  0  0  0  0
 21 22  1  0  0  0  0
 21 40  1  0  0  0  0
 21 41  1  0  0  0  0
 22 23  1  0  0  0  0
 22 42  1  0  0  0  0
 23 43  1  0  0  0  0
 23 44  1  0  0  0  0
M  CHG  1  12   1
M  CHG  1  14  -1
M  END
> <s_m_source_file>
AV-unprocessed.smi

> <i_m_source_file_index>
1512

> <i_lp_mmshare_version>
43012

> <i_f3d_flags>
0

> <s_epik_input>
W0NIMl0xW0NIMl1bQ0BIXShbQ0gyXTIpW0NAQEhdKFtDSDJdW0NAQEhdMTIpW0NASF0oW0NIM10pW05IXUMoPU8pW0NIMl1uM1tjSF1bY0hdW2NIXWMoW04rXSg9TylbTy1dKWMzPU8=

> <s_epik_cmdline>
J2VwaWtfcHl0aG9uJywgJy1waCcsICc3LjAnLCAnLXRuJywgJzgnLCAnLW1hJywgJzIwMCcsICctbWV0YWxfYmluZGluZycsICctaW1hZScsICc8aW5maWxlLm1hZT4nLCAnLW9tYWUnLCAnPG91dGZpbGUubWFlPic=

> <r_lp_tautomer_probability>
1

> <r_epik_Ionization_Penalty>
2.17697e-08

> <r_epik_Ionization_Penalty_Charging>
1.42735e-10

> <r_epik_Ionization_Penalty_Neutral>
2.16269e-08

> <r_epik_State_Penalty>
-0

> <r_epik_Charging_Adjusted_Penalty>
1.42735e-10

> <i_epik_Tot_Q>
0

> <i_epik_Tot_abs_Q>
2

> <r_epik_Metal_State_Penalty>
-0

> <b_epik_Metal_Only>
0

> <s_lp_Force_Field>
OPLS_2005

> <r_lp_Energy>
64.3313

> <b_lp_Chiralities_Consistent>
1

> <s_lp_Variant>
AV-unprocessed.smi:1512-4

> <Gold.Version>
5.8.1

> <Gold.Id.Protein>
6NUR|6NUR_protein|mol2

> <Gold.PLP.Fitness>
52.0901

> <Gold.PLP.PLP>
-44.4732

> <Gold.PLP.part.hbond>
-3.0000

> <Gold.PLP.part.metal>
0.0000

> <Gold.PLP.part.buried>
-3.6443

> <Gold.PLP.part.nonpolar>
-38.3359

> <Gold.PLP.part.repulsive>
0.2469

> <Gold.PLP.ligand.clash>
0.0000

> <Gold.PLP.ligand.torsion>
0.4991

> <Gold.PLP.Chemscore.Hbond>
1.8518

> <Gold.PLP.Chemscore.CHOScore>
1.0000

> <Gold.PLP.Chemscore.Metal>
0.0000

> <Gold.Chemscore.Hbonds>
donor molecule, donor type, donor heavy atom, donor atom, acceptor molecule, acceptor atom, score
      P1  H  6934  6946       L1    13  0.46
      P1  H  7989  7998       L1     5  0.40
      P1  H  7997  8009       L1     5  1.00
      L1  C     8    31       P1  7957  1.00

> <Gold.PLP.Chemscore.Internal.Correction>
0.0598

> <Gold.Rescore>
     Score         DG    S(hbond)    S(metal)    S(lipo)     H(rot)  DE(clash)    DE(int)     intcor
     16.81     -20.69       1.57        0.00     123.30       1.75       0.22       3.66       ----

> <Gold.Chemscore.Fitness>
16.8130

> <Gold.Chemscore.DG>
-20.6864

> <Gold.Chemscore.ZeroCoef>
-5.4800

> <Gold.Chemscore.Hbond>
1.5729

> <Gold.Chemscore.Metal>
0.0000

> <Gold.Chemscore.Lipo>
123.3010

> <Gold.Chemscore.Internal_Hbond>
0.0000

> <Gold.Chemscore.DEClash>
0.2172

> <Gold.Chemscore.DEInternal>
3.6562

> <Gold.Chemscore.Rot>
1.7474

> <Gold.Chemscore.Internal.Correction>
   9.000000E+99

> <Gold.Chemscore.Hbonds>
donor molecule, donor type, donor heavy atom, donor atom, acceptor molecule, acceptor atom, score
      P1  H  6934  6946       L1    13  0.44
      P1  H  7989  7998       L1     5  0.10
      P1  H  7997  8009       L1     5  0.95

> <Gold.Chemscore.Hbond.Weighted>
-5.2535

> <Gold.Chemscore.Metal.Weighted>
-0.0000

> <Gold.Chemscore.Lipo.Weighted>
-14.4262

> <Gold.Chemscore.Internal_Hbond.Weighted>
0.0000

> <Gold.Chemscore.DEClash.Weighted>
0.2172

> <Gold.Chemscore.DEInternal.Weighted>
3.6562

> <Gold.Chemscore.Rot.Weighted>
4.4733

> <Gold.Chemscore.Internal.Correction.Weighted>
   9.000000E+99

> <Gold.Protein.RotatedTorsions>
[ 6907 6896 6895 6894 ] final   96.05 input  -60.11 | X-H torsion
[ 7974 7965 7964 7962 ] final  -81.57 input  175.53 | X-H torsion
[ 8008 7997 7996 7995 ] final -144.31 input   59.86 | X-H torsion
[ 10167 10162 10161 10158 ] final -177.30 input  -65.29 | X-H torsion
[ 10718 10713 10712 10709 ] final  -11.06 input   66.30 | X-H torsion
[ 10763 10752 10751 10750 ] final  136.69 input  -60.55 | X-H torsion
[ 11005 11000 10999 10996 ] final   91.00 input  -57.11 | X-H torsion

> <Gold.Protein.ActiveResidues>
 VAL166  LYS551  ARG553  GLY616  TRP617  ASP618  TYR619  PRO620  LYS621  CYS622 
 ASP623  PHE694  ASN695  SER759  ASP760  ASP761  ALA762  ILE779  LEU786  VAL792 
 PHE793  MET794  SER795  GLU796  ALA797  LYS798  CYS799  TRP800  GLU811  SER814 

> <Gold.Protein.RotatedAtoms>
  152.5438  134.0945  159.8290 H   0  0  0  0  0  0  0  0  0  0  0  0  # atno 6907 bound_to 6896
  151.1031  133.5221  159.2616 H   0  0  0  0  0  0  0  0  0  0  0  0  # atno 6908 bound_to 6896
  151.1969  135.0435  159.8910 H   0  0  0  0  0  0  0  0  0  0  0  0  # atno 6909 bound_to 6896
  145.5448  140.9505  143.1531 H   0  0  0  0  0  0  0  0  0  0  0  0  # atno 7974 bound_to 7965
  155.5248  140.0594  157.2900 H   0  0  0  0  0  0  0  0  0  0  0  0  # atno 8008 bound_to 7997
  154.4505  140.1946  156.0480 H   0  0  0  0  0  0  0  0  0  0  0  0  # atno 8009 bound_to 7997
  156.0694  140.3262  155.7561 H   0  0  0  0  0  0  0  0  0  0  0  0  # atno 8010 bound_to 7997
  139.5487  144.2167  152.1036 H   0  0  0  0  0  0  0  0  0  0  0  0  # atno 10167 bound_to 10162
  156.6645  130.4991  149.6020 H   0  0  0  0  0  0  0  0  0  0  0  0  # atno 10718 bound_to 10713
  153.8608  135.3067  155.3437 H   0  0  0  0  0  0  0  0  0  0  0  0  # atno 10763 bound_to 10752
  154.7850  135.4815  153.9929 H   0  0  0  0  0  0  0  0  0  0  0  0  # atno 10764 bound_to 10752
  153.1463  135.6834  153.9044 H   0  0  0  0  0  0  0  0  0  0  0  0  # atno 10765 bound_to 10752
  139.8846  134.8648  156.3366 H   0  0  0  0  0  0  0  0  0  0  0  0  # atno 11005 bound_to 11000
  144.7559  139.7077  143.7254 LP  0  0  0  0  0  0  0  0  0  0  0  0  # atno 17320 bound_to 7965
  146.1956  139.5221  142.9776 LP  0  0  0  0  0  0  0  0  0  0  0  0  # atno 17321 bound_to 7965
  140.1658  144.4982  150.6607 LP  0  0  0  0  0  0  0  0  0  0  0  0  # atno 17342 bound_to 10162
  140.6743  143.2298  151.5547 LP  0  0  0  0  0  0  0  0  0  0  0  0  # atno 17343 bound_to 10162
  156.1985  130.6605  151.1141 LP  0  0  0  0  0  0  0  0  0  0  0  0  # atno 17370 bound_to 10713
  157.7098  131.0739  150.6540 LP  0  0  0  0  0  0  0  0  0  0  0  0  # atno 17371 bound_to 10713
  140.9687  133.7341  156.0504 LP  0  0  0  0  0  0  0  0  0  0  0  0  # atno 17394 bound_to 11000
  140.7898  134.3630  157.5467 LP  0  0  0  0  0  0  0  0  0  0  0  0  # atno 17395 bound_to 11000

$$$$
