#       Name:                AV-unprocessed.smi:1627
#       Creating user name   scv26
#       Creation time:       Fri Mar 27 07:19:07 2020


#       File generated by GOLD software.
#

@<TRIPOS>MOLECULE
AV-unprocessed.smi:1627
    49    50     1
SMALL
NO_CHARGES


@<TRIPOS>ATOM
      1 ****         1.4367  -4.7616   2.8554 C.3            1 S1                 0.0000
      2 ****         1.8846  -3.9600   1.6242 C.3            1 S1                 0.0000
      3 ****         3.3095  -3.9338   1.6251 O.3            1 S1                 0.0000
      4 ****         3.9164  -3.5083   0.4089 C.3            1 S1                 0.0000
      5 ****         5.4406  -3.6163   0.5374 C.3            1 S1                 0.0000
      6 ****         6.0057  -3.2364  -0.6079 F              1 S1                 0.0000
      7 ****         5.8768  -2.8218   1.5144 F              1 S1                 0.0000
      8 ****         5.7942  -4.8760   0.7914 F              1 S1                 0.0000
      9 ****         1.3238  -2.5288   1.6568 C.2            1 S1                 0.0000
     10 ****         1.5224  -1.8233   2.6447 O.2            1 S1                 0.0000
     11 ****         0.6430  -2.1448   0.5602 N.am           1 S1                 0.0000
     12 ****         0.0123  -0.9017   0.2746 C.ar           1 S1                 0.0000
     13 ****        -0.7477  -0.8187  -0.9129 C.ar           1 S1                 0.0000
     14 ****        -1.3894   0.3894  -1.2543 C.ar           1 S1                 0.0000
     15 ****        -1.2591   1.5069  -0.3993 C.ar           1 S1                 0.0000
     16 ****        -1.8540   2.7491  -0.6555 N.3            1 S1                 0.0000
     17 ****        -3.3120   2.7094  -0.5748 C.3            1 S1                 0.0000
     18 ****        -3.9051   4.1257  -0.6753 C.3            1 S1                 0.0000
     19 ****        -3.4056   4.8431  -1.9397 C.3            1 S1                 0.0000
     20 ****        -1.8693   4.8305  -1.9842 C.3            1 S1                 0.0000
     21 ****        -1.3291   3.3959  -1.8554 C.3            1 S1                 0.0000
     22 ****        -0.5229   1.3917   0.7266 N.pl3          1 S1                 1.0000
     23 ****         0.1077   0.2537   1.0903 C.ar           1 S1                 0.0000
     24 ****         0.3493  -4.8082   2.9239 H              1 S1                 0.0000
     25 ****         1.8125  -4.3230   3.7807 H              1 S1                 0.0000
     26 ****         1.8069  -5.7857   2.8044 H              1 S1                 0.0000
     27 ****         1.5315  -4.4800   0.7314 H              1 S1                 0.0000
     28 ****         3.5722  -4.1335  -0.4163 H              1 S1                 0.0000
     29 ****         3.6440  -2.4787   0.1742 H              1 S1                 0.0000
     30 ****         0.5487  -2.8488  -0.1576 H              1 S1                 0.0000
     31 ****        -0.8413  -1.6762  -1.5634 H              1 S1                 0.0000
     32 ****        -1.9719   0.4532  -2.1621 H              1 S1                 0.0000
     33 ****        -3.7053   2.0863  -1.3793 H              1 S1                 0.0000
     34 ****        -3.6160   2.2475   0.3655 H              1 S1                 0.0000
     35 ****        -4.9944   4.0763  -0.6771 H              1 S1                 0.0000
     36 ****        -3.6228   4.7029   0.2064 H              1 S1                 0.0000
     37 ****        -3.8033   4.3468  -2.8257 H              1 S1                 0.0000
     38 ****        -3.7757   5.8687  -1.9636 H              1 S1                 0.0000
     39 ****        -1.5163   5.2815  -2.9121 H              1 S1                 0.0000
     40 ****        -1.4755   5.4432  -1.1722 H              1 S1                 0.0000
     41 ****        -0.2390   3.4129  -1.8168 H              1 S1                 0.0000
     42 ****        -1.6095   2.8162  -2.7359 H              1 S1                 0.0000
     43 ****         0.6617   0.3292   2.0129 H              1 S1                 0.0000
     44 ****        -0.4359   2.2075   1.3334 H              1 S1                 0.0000
     45 ****         3.6344  -4.8584   1.8244 LP             1 S1                 0.0000
     46 ****         3.6056  -3.3128   2.3508 LP             1 S1                 0.0000
     47 ****         2.0450  -2.1819   3.4182 LP             1 S1                 0.0000
     48 ****         1.1613  -0.8913   2.6742 LP             1 S1                 0.0000
     49 ****        -1.5794   3.3532   0.0926 LP             1 S1                 0.0000
@<TRIPOS>BOND
    1    1    2 1     
    2    1   24 1     
    3    1   25 1     
    4    1   26 1     
    5    2    3 1     
    6    2    9 1     
    7    2   27 1     
    8    3    4 1     
    9    4    5 1     
   10    4   28 1     
   11    4   29 1     
   12    5    6 1     
   13    5    7 1     
   14    5    8 1     
   15    9   10 2     
   16    9   11 am    
   17   11   12 1     
   18   11   30 1     
   19   12   23 ar    
   20   12   13 ar    
   21   13   14 ar    
   22   13   31 1     
   23   14   15 ar    
   24   14   32 1     
   25   15   16 1     
   26   15   22 ar    
   27   16   21 1     
   28   16   17 1     
   29   17   18 1     
   30   17   33 1     
   31   17   34 1     
   32   18   19 1     
   33   18   35 1     
   34   18   36 1     
   35   19   20 1     
   36   19   37 1     
   37   19   38 1     
   38   20   21 1     
   39   20   39 1     
   40   20   40 1     
   41   21   41 1     
   42   21   42 1     
   43   22   23 ar    
   44   22   44 1     
   45   23   43 1     
   46    3   45 1     
   47    3   46 1     
   48   10   47 1     
   49   10   48 1     
   50   16   49 1     
@<TRIPOS>SUBSTRUCTURE
      1 S1             1
@<TRIPOS>SET
LONE_PAIRS      STATIC     ATOMS    <user>   **** ""
5 45 46 47 48 49
DONOR_HYDROGENS      STATIC     ATOMS    <user>   **** ""
2 30 44
ATOM$BLUE        STATIC     ATOMS    COLORGROUP SYSTEM
5 45 46 47 48 49
ATOM$RED        STATIC     ATOMS    COLORGROUP SYSTEM
2 30 44
