AV-unprocessed.smi:3100|AV-procd|sdf|11807|dock1
  -GOLD-   2272017183D 1   1.00000     0.00000
 Structure written by MMmdl.
 28 29  0  0  0  0  0  0  0  0  1 V2000
  148.2994  140.8046  153.7955 C   0  0  0  0  0  0  0  0  0  0  0  0
  149.2010  140.1810  154.8656 C   0  0  1  0  0  0  0  0  0  0  0  0
  149.2024  138.6574  154.8739 C   0  0  0  0  0  0  0  0  0  0  0  0
  150.5051  138.3300  155.5828 C   0  0  0  0  0  0  0  0  0  0  0  0
  151.3888  139.5722  155.3440 C   0  0  2  0  0  0  0  0  0  0  0  0
  151.8891  140.2325  156.6420 C   0  0  0  0  0  0  0  0  0  0  0  0
  152.6683  139.6184  157.3715 O   0  0  0  0  0  0  0  0  0  0  0  0
  151.4498  141.4819  156.8865 N   0  0  0  0  0  0  0  0  0  0  0  0
  151.7367  142.3136  158.0002 C   0  0  0  0  0  0  0  0  0  0  0  0
  151.4140  143.6823  157.8435 C   0  0  0  0  0  0  0  0  0  0  0  0
  151.6257  144.5976  158.8150 N   0  0  0  0  0  0  0  0  0  0  0  0
  152.1690  144.1432  159.9644 C   0  0  0  0  0  0  0  0  0  0  0  0
  152.4969  142.7837  160.1383 C   0  0  0  0  0  0  0  0  0  0  0  0
  152.2822  141.8740  159.1630 N   0  0  0  0  0  0  0  0  0  0  0  0
  150.5646  140.4820  154.6104 O   0  0  0  0  0  0  0  0  0  0  0  0
  147.2541  140.5458  153.9654 H   0  0  0  0  0  0  0  0  0  0  0  0
  148.5721  140.4602  152.7975 H   0  0  0  0  0  0  0  0  0  0  0  0
  148.3794  141.8918  153.8056 H   0  0  0  0  0  0  0  0  0  0  0  0
  148.9316  140.5606  155.8528 H   0  0  0  0  0  0  0  0  0  0  0  0
  148.3285  138.2337  155.3699 H   0  0  0  0  0  0  0  0  0  0  0  0
  149.2331  138.2735  153.8532 H   0  0  0  0  0  0  0  0  0  0  0  0
  150.3101  138.1605  156.6430 H   0  0  0  0  0  0  0  0  0  0  0  0
  150.9593  137.4216  155.1856 H   0  0  0  0  0  0  0  0  0  0  0  0
  152.2539  139.3194  154.7300 H   0  0  0  0  0  0  0  0  0  0  0  0
  150.8256  141.8744  156.1964 H   0  0  0  0  0  0  0  0  0  0  0  0
  150.9789  144.0510  156.9260 H   0  0  0  0  0  0  0  0  0  0  0  0
  152.3428  144.8660  160.7476 H   0  0  0  0  0  0  0  0  0  0  0  0
  152.9312  142.4258  161.0599 H   0  0  0  0  0  0  0  0  0  0  0  0
  1  2  1  0  0  0  0
  1 16  1  0  0  0  0
  1 17  1  0  0  0  0
  1 18  1  0  0  0  0
  2 15  1  0  0  0  0
  2  3  1  0  0  0  0
  2 19  1  0  0  0  0
  3  4  1  0  0  0  0
  3 20  1  0  0  0  0
  3 21  1  0  0  0  0
  4  5  1  0  0  0  0
  4 22  1  0  0  0  0
  4 23  1  0  0  0  0
  5  6  1  0  0  0  0
  5 15  1  0  0  0  0
  5 24  1  0  0  0  0
  6  7  2  0  0  0  0
  6  8  1  0  0  0  0
  8  9  1  0  0  0  0
  8 25  1  0  0  0  0
  9 14  1  0  0  0  0
  9 10  2  0  0  0  0
 10 11  1  0  0  0  0
 10 26  1  0  0  0  0
 11 12  2  0  0  0  0
 12 13  1  0  0  0  0
 12 27  1  0  0  0  0
 13 14  2  0  0  0  0
 13 28  1  0  0  0  0
M  END
> <s_m_source_file>
AV-unprocessed.smi

> <i_m_source_file_index>
3100

> <i_lp_mmshare_version>
43012

> <i_f3d_flags>
0

> <s_epik_input>
W0NIM11bQ0BASF0xW0NIMl1bQ0gyXVtDQEhdKE8xKUMoPU8pW05IXWMyW2NIXW5bY0hdW2NIXW4y

> <s_epik_cmdline>
J2VwaWtfcHl0aG9uJywgJy1waCcsICc3LjAnLCAnLXRuJywgJzgnLCAnLW1hJywgJzIwMCcsICctbWV0YWxfYmluZGluZycsICctaW1hZScsICc8aW5maWxlLm1hZT4nLCAnLW9tYWUnLCAnPG91dGZpbGUubWFlPic=

> <r_lp_tautomer_probability>
1

> <r_epik_Ionization_Penalty>
2.81186e-06

> <r_epik_Ionization_Penalty_Charging>
0

> <r_epik_Ionization_Penalty_Neutral>
2.81186e-06

> <r_epik_State_Penalty>
-0

> <r_epik_Charging_Adjusted_Penalty>
0

> <i_epik_Tot_Q>
0

> <i_epik_Tot_abs_Q>
0

> <r_epik_Metal_State_Penalty>
-0

> <b_epik_Metal_Only>
0

> <s_lp_Force_Field>
OPLS_2005

> <r_lp_Energy>
25.84

> <b_lp_Chiralities_Consistent>
1

> <s_lp_Variant>
AV-unprocessed.smi:3100-4

> <Gold.Version>
5.8.1

> <Gold.Id.Protein>
6NUR|6NUR_protein|mol2

> <Gold.PLP.Fitness>
35.9600

> <Gold.PLP.PLP>
-27.1254

> <Gold.PLP.part.hbond>
-1.9884

> <Gold.PLP.part.metal>
0.0000

> <Gold.PLP.part.buried>
-2.1296

> <Gold.PLP.part.nonpolar>
-23.2203

> <Gold.PLP.part.repulsive>
0.2847

> <Gold.PLP.ligand.clash>
0.0000

> <Gold.PLP.ligand.torsion>
0.0861

> <Gold.PLP.Chemscore.Hbond>
2.0000

> <Gold.PLP.Chemscore.CHOScore>
1.0000

> <Gold.PLP.Chemscore.Metal>
0.0000

> <Gold.Chemscore.Hbonds>
donor molecule, donor type, donor heavy atom, donor atom, acceptor molecule, acceptor atom, score
      P1  H  7989  7998       L1    15  0.90
      P1  H  7997  8010       L1     7  1.00
      L1  C    10    26       P1  8028  1.00

> <Gold.PLP.Chemscore.Internal.Correction>
0.0069

> <Gold.Rescore>
     Score         DG    S(hbond)    S(metal)    S(lipo)     H(rot)  DE(clash)    DE(int)     intcor
     13.97     -15.55       1.59        0.00      62.59       1.00       0.19       1.40       ----

> <Gold.Chemscore.Fitness>
13.9673

> <Gold.Chemscore.DG>
-15.5523

> <Gold.Chemscore.ZeroCoef>
-5.4800

> <Gold.Chemscore.Hbond>
1.5897

> <Gold.Chemscore.Metal>
0.0000

> <Gold.Chemscore.Lipo>
62.5871

> <Gold.Chemscore.Internal_Hbond>
0.0000

> <Gold.Chemscore.DEClash>
0.1893

> <Gold.Chemscore.DEInternal>
1.3957

> <Gold.Chemscore.Rot>
1.0000

> <Gold.Chemscore.Internal.Correction>
   9.000000E+99

> <Gold.Chemscore.Hbonds>
donor molecule, donor type, donor heavy atom, donor atom, acceptor molecule, acceptor atom, score
      P1  H  7989  7998       L1    15  0.17
      P1  H  7997  8010       L1     7  0.78

> <Gold.Chemscore.Hbond.Weighted>
-5.3096

> <Gold.Chemscore.Metal.Weighted>
-0.0000

> <Gold.Chemscore.Lipo.Weighted>
-7.3227

> <Gold.Chemscore.Internal_Hbond.Weighted>
0.0000

> <Gold.Chemscore.DEClash.Weighted>
0.1893

> <Gold.Chemscore.DEInternal.Weighted>
1.3957

> <Gold.Chemscore.Rot.Weighted>
2.5600

> <Gold.Chemscore.Internal.Correction.Weighted>
   9.000000E+99

> <Gold.Protein.RotatedTorsions>
[ 6907 6896 6895 6894 ] final -177.54 input  -60.11 | X-H torsion
[ 7974 7965 7964 7962 ] final  -81.59 input  175.53 | X-H torsion
[ 8008 7997 7996 7995 ] final   37.02 input   59.86 | X-H torsion
[ 10167 10162 10161 10158 ] final   58.14 input  -65.29 | X-H torsion
[ 10718 10713 10712 10709 ] final  144.79 input   66.30 | X-H torsion
[ 10763 10752 10751 10750 ] final   27.40 input  -60.55 | X-H torsion
[ 11005 11000 10999 10996 ] final   81.01 input  -57.11 | X-H torsion

> <Gold.Protein.ActiveResidues>
 VAL166  LYS551  ARG553  GLY616  TRP617  ASP618  TYR619  PRO620  LYS621  CYS622 
 ASP623  PHE694  ASN695  SER759  ASP760  ASP761  ALA762  ILE779  LEU786  VAL792 
 PHE793  MET794  SER795  GLU796  ALA797  LYS798  CYS799  TRP800  GLU811  SER814 

> <Gold.Protein.RotatedAtoms>
  151.6227  133.3338  159.3091 H   0  0  0  0  0  0  0  0  0  0  0  0  # atno 6907 bound_to 6896
  150.8097  134.7249  159.6688 H   0  0  0  0  0  0  0  0  0  0  0  0  # atno 6908 bound_to 6896
  152.4194  134.5988  160.0046 H   0  0  0  0  0  0  0  0  0  0  0  0  # atno 6909 bound_to 6896
  145.5447  140.9505  143.1532 H   0  0  0  0  0  0  0  0  0  0  0  0  # atno 7974 bound_to 7965
  155.1969  140.3312  155.4349 H   0  0  0  0  0  0  0  0  0  0  0  0  # atno 8008 bound_to 7997
  156.2421  140.1900  156.7008 H   0  0  0  0  0  0  0  0  0  0  0  0  # atno 8009 bound_to 7997
  154.6168  140.0601  156.9550 H   0  0  0  0  0  0  0  0  0  0  0  0  # atno 8010 bound_to 7997
  140.1904  144.4091  150.6573 H   0  0  0  0  0  0  0  0  0  0  0  0  # atno 10167 bound_to 10162
  157.3530  131.0953  151.0983 H   0  0  0  0  0  0  0  0  0  0  0  0  # atno 10718 bound_to 10713
  153.0558  135.6538  154.0581 H   0  0  0  0  0  0  0  0  0  0  0  0  # atno 10763 bound_to 10752
  154.0259  135.2916  155.3376 H   0  0  0  0  0  0  0  0  0  0  0  0  # atno 10764 bound_to 10752
  154.6872  135.5297  153.8410 H   0  0  0  0  0  0  0  0  0  0  0  0  # atno 10765 bound_to 10752
  139.9113  134.7964  156.1984 H   0  0  0  0  0  0  0  0  0  0  0  0  # atno 11005 bound_to 11000
  144.7559  139.7075  143.7254 LP  0  0  0  0  0  0  0  0  0  0  0  0  # atno 17320 bound_to 7965
  146.1958  139.5223  142.9776 LP  0  0  0  0  0  0  0  0  0  0  0  0  # atno 17321 bound_to 7965
  140.6459  143.2213  151.6186 LP  0  0  0  0  0  0  0  0  0  0  0  0  # atno 17342 bound_to 10162
  139.5258  144.3064  152.1030 LP  0  0  0  0  0  0  0  0  0  0  0  0  # atno 17343 bound_to 10162
  157.2151  130.6456  149.5789 LP  0  0  0  0  0  0  0  0  0  0  0  0  # atno 17370 bound_to 10713
  155.9724  130.4647  150.6228 LP  0  0  0  0  0  0  0  0  0  0  0  0  # atno 17371 bound_to 10713
  141.0540  133.6874  156.1825 LP  0  0  0  0  0  0  0  0  0  0  0  0  # atno 17394 bound_to 11000
  140.6766  134.4811  157.5588 LP  0  0  0  0  0  0  0  0  0  0  0  0  # atno 17395 bound_to 11000

$$$$
