AV-unprocessed.smi:349|AV-procd|sdf|2396|dock1
  -GOLD-   2262022323D 1   1.00000     0.00000
 Structure written by MMmdl.
 43 44  0  0  0  0  0  0  0  0  1 V2000
  151.9021  145.6551  160.2309 C   0  0  0  0  0  0  0  0  0  0  0  0
  152.0875  144.6141  159.1155 C   0  0  0  0  0  0  0  0  0  0  0  0
  150.7678  144.0941  158.5027 C   0  0  2  0  0  0  0  0  0  0  0  0
  149.6803  143.9497  159.5808 C   0  0  0  0  0  0  0  0  0  0  0  0
  150.9652  142.7595  157.7685 C   0  0  0  0  0  0  0  0  0  0  0  0
  151.5732  141.8367  158.3120 O   0  0  0  0  0  0  0  0  0  0  0  0
  150.4563  142.6761  156.5293 N   0  0  0  0  0  0  0  0  0  0  0  0
  150.5764  141.5139  155.6552 C   0  0  0  0  0  0  0  0  0  0  0  0
  149.2668  141.1079  154.9757 C   0  0  0  0  0  0  0  0  0  0  0  0
  148.3460  142.1018  154.5720 C   0  0  0  0  0  0  0  0  0  0  0  0
  147.1346  141.7204  153.9688 C   0  0  0  0  0  0  0  0  0  0  0  0
  146.8801  140.3487  153.7978 C   0  0  0  0  0  0  0  0  0  0  0  0
  147.7405  139.3856  154.1857 N   0  0  0  0  0  0  0  0  0  0  0  0
  148.9116  139.7474  154.7653 C   0  0  0  0  0  0  0  0  0  0  0  0
  149.7896  138.7128  155.1335 N   0  0  0  0  0  0  0  0  0  0  0  0
  151.0838  138.8044  154.4695 C   0  0  0  0  0  0  0  0  0  0  0  0
  152.0605  137.7862  155.0821 C   0  0  0  0  0  0  0  0  0  0  0  0
  151.4995  136.4780  155.0086 O   0  0  0  0  0  0  0  0  0  0  0  0
  150.2686  136.3805  155.7204 C   0  0  0  0  0  0  0  0  0  0  0  0
  149.2463  137.3588  155.1172 C   0  0  0  0  0  0  0  0  0  0  0  0
  152.8620  145.9198  160.6745 H   0  0  0  0  0  0  0  0  0  0  0  0
  151.2638  145.2707  161.0268 H   0  0  0  0  0  0  0  0  0  0  0  0
  151.4539  146.5746  159.8540 H   0  0  0  0  0  0  0  0  0  0  0  0
  152.7237  145.0328  158.3344 H   0  0  0  0  0  0  0  0  0  0  0  0
  152.6410  143.7692  159.5267 H   0  0  0  0  0  0  0  0  0  0  0  0
  150.4166  144.8340  157.7812 H   0  0  0  0  0  0  0  0  0  0  0  0
  148.7501  143.5663  159.1593 H   0  0  0  0  0  0  0  0  0  0  0  0
  149.4564  144.9132  160.0395 H   0  0  0  0  0  0  0  0  0  0  0  0
  149.9906  143.2708  160.3763 H   0  0  0  0  0  0  0  0  0  0  0  0
  149.9680  143.4788  156.1596 H   0  0  0  0  0  0  0  0  0  0  0  0
  151.3729  141.7020  154.9355 H   0  0  0  0  0  0  0  0  0  0  0  0
  150.9125  140.6724  156.2610 H   0  0  0  0  0  0  0  0  0  0  0  0
  148.5584  143.1498  154.7232 H   0  0  0  0  0  0  0  0  0  0  0  0
  146.4173  142.4613  153.6484 H   0  0  0  0  0  0  0  0  0  0  0  0
  145.9610  140.0150  153.3392 H   0  0  0  0  0  0  0  0  0  0  0  0
  150.9568  138.6065  153.4042 H   0  0  0  0  0  0  0  0  0  0  0  0
  151.4894  139.8121  154.5607 H   0  0  0  0  0  0  0  0  0  0  0  0
  153.0060  137.7988  154.5400 H   0  0  0  0  0  0  0  0  0  0  0  0
  152.2843  138.0396  156.1197 H   0  0  0  0  0  0  0  0  0  0  0  0
  149.8973  135.3580  155.6515 H   0  0  0  0  0  0  0  0  0  0  0  0
  150.4311  136.5906  156.7789 H   0  0  0  0  0  0  0  0  0  0  0  0
  148.3147  137.3274  155.6834 H   0  0  0  0  0  0  0  0  0  0  0  0
  149.0161  137.0623  154.0929 H   0  0  0  0  0  0  0  0  0  0  0  0
  1  2  1  0  0  0  0
  1 21  1  0  0  0  0
  1 22  1  0  0  0  0
  1 23  1  0  0  0  0
  2  3  1  0  0  0  0
  2 24  1  0  0  0  0
  2 25  1  0  0  0  0
  3  4  1  0  0  0  0
  3  5  1  0  0  0  0
  3 26  1  0  0  0  0
  4 27  1  0  0  0  0
  4 28  1  0  0  0  0
  4 29  1  0  0  0  0
  5  6  2  0  0  0  0
  5  7  1  0  0  0  0
  7  8  1  0  0  0  0
  7 30  1  0  0  0  0
  8  9  1  0  0  0  0
  8 31  1  0  0  0  0
  8 32  1  0  0  0  0
  9 14  1  0  0  0  0
  9 10  2  0  0  0  0
 10 11  1  0  0  0  0
 10 33  1  0  0  0  0
 11 12  2  0  0  0  0
 11 34  1  0  0  0  0
 12 13  1  0  0  0  0
 12 35  1  0  0  0  0
 13 14  2  0  0  0  0
 14 15  1  0  0  0  0
 15 20  1  0  0  0  0
 15 16  1  0  0  0  0
 16 17  1  0  0  0  0
 16 36  1  0  0  0  0
 16 37  1  0  0  0  0
 17 18  1  0  0  0  0
 17 38  1  0  0  0  0
 17 39  1  0  0  0  0
 18 19  1  0  0  0  0
 19 20  1  0  0  0  0
 19 40  1  0  0  0  0
 19 41  1  0  0  0  0
 20 42  1  0  0  0  0
 20 43  1  0  0  0  0
M  END
> <s_m_source_file>
AV-unprocessed.smi

> <i_m_source_file_index>
349

> <i_lp_mmshare_version>
43012

> <i_f3d_flags>
0

> <s_epik_input>
W0NIM11bQ0gyXVtDQEhdKFtDSDNdKUMoPU8pW05IXVtDSDJdYzFbY0hdW2NIXVtjSF1uYzFOMltDSDJdW0NIMl1PW0NIMl1bQ0gyXTI=

> <s_epik_cmdline>
J2VwaWtfcHl0aG9uJywgJy1waCcsICc3LjAnLCAnLXRuJywgJzgnLCAnLW1hJywgJzIwMCcsICctbWV0YWxfYmluZGluZycsICctaW1hZScsICc8aW5maWxlLm1hZT4nLCAnLW9tYWUnLCAnPG91dGZpbGUubWFlPic=

> <r_lp_tautomer_probability>
1

> <r_epik_Ionization_Penalty>
0.00513869

> <r_epik_Ionization_Penalty_Charging>
0

> <r_epik_Ionization_Penalty_Neutral>
0.00513869

> <r_epik_State_Penalty>
0.00374265

> <r_epik_Charging_Adjusted_Penalty>
0.00374265

> <i_epik_Tot_Q>
0

> <i_epik_Tot_abs_Q>
0

> <r_epik_Metal_State_Penalty>
-0

> <b_epik_Metal_Only>
0

> <s_lp_Force_Field>
OPLS_2005

> <r_lp_Energy>
18.1158

> <b_lp_Chiralities_Consistent>
1

> <s_lp_Variant>
AV-unprocessed.smi:349-1

> <Gold.Version>
5.8.1

> <Gold.Id.Protein>
6NUR|6NUR_protein|mol2

> <Gold.PLP.Fitness>
44.7253

> <Gold.PLP.PLP>
-37.6141

> <Gold.PLP.part.hbond>
-2.0000

> <Gold.PLP.part.metal>
0.0000

> <Gold.PLP.part.buried>
-2.4434

> <Gold.PLP.part.nonpolar>
-33.8576

> <Gold.PLP.part.repulsive>
0.4399

> <Gold.PLP.ligand.clash>
0.0000

> <Gold.PLP.ligand.torsion>
1.0561

> <Gold.PLP.Chemscore.Hbond>
2.0000

> <Gold.PLP.Chemscore.CHOScore>
1.0000

> <Gold.PLP.Chemscore.Metal>
0.0000

> <Gold.Chemscore.Hbonds>
donor molecule, donor type, donor heavy atom, donor atom, acceptor molecule, acceptor atom, score
      L1  H     7    30       P1  8028  1.00
      P1  H 10752 10763       L1    18  0.95
      L1  C    12    35       P1 10175  1.00

> <Gold.PLP.Chemscore.Internal.Correction>
0.2235

> <Gold.Rescore>
     Score         DG    S(hbond)    S(metal)    S(lipo)     H(rot)  DE(clash)    DE(int)     intcor
     16.56     -18.79       1.87        0.00      96.39       1.64       0.01       2.22       ----

> <Gold.Chemscore.Fitness>
16.5588

> <Gold.Chemscore.DG>
-18.7879

> <Gold.Chemscore.ZeroCoef>
-5.4800

> <Gold.Chemscore.Hbond>
1.8652

> <Gold.Chemscore.Metal>
0.0000

> <Gold.Chemscore.Lipo>
96.3940

> <Gold.Chemscore.Internal_Hbond>
0.0000

> <Gold.Chemscore.DEClash>
0.0117

> <Gold.Chemscore.DEInternal>
2.2174

> <Gold.Chemscore.Rot>
1.6407

> <Gold.Chemscore.Internal.Correction>
   9.000000E+99

> <Gold.Chemscore.Hbonds>
donor molecule, donor type, donor heavy atom, donor atom, acceptor molecule, acceptor atom, score
      L1  H     7    30       P1  8028  1.00
      P1  H 10752 10763       L1    18  0.20

> <Gold.Chemscore.Hbond.Weighted>
-6.2299

> <Gold.Chemscore.Metal.Weighted>
-0.0000

> <Gold.Chemscore.Lipo.Weighted>
-11.2781

> <Gold.Chemscore.Internal_Hbond.Weighted>
0.0000

> <Gold.Chemscore.DEClash.Weighted>
0.0117

> <Gold.Chemscore.DEInternal.Weighted>
2.2174

> <Gold.Chemscore.Rot.Weighted>
4.2001

> <Gold.Chemscore.Internal.Correction.Weighted>
   9.000000E+99

> <Gold.Protein.RotatedTorsions>
[ 6907 6896 6895 6894 ] final   52.13 input  -60.11 | X-H torsion
[ 7974 7965 7964 7962 ] final -115.95 input  175.53 | X-H torsion
[ 8008 7997 7996 7995 ] final -157.58 input   59.86 | X-H torsion
[ 10167 10162 10161 10158 ] final   97.88 input  -65.29 | X-H torsion
[ 10718 10713 10712 10709 ] final  138.20 input   66.30 | X-H torsion
[ 10763 10752 10751 10750 ] final   79.65 input  -60.55 | X-H torsion
[ 11005 11000 10999 10996 ] final -116.77 input  -57.11 | X-H torsion

> <Gold.Protein.ActiveResidues>
 VAL166  LYS551  ARG553  GLY616  TRP617  ASP618  TYR619  PRO620  LYS621  CYS622 
 ASP623  PHE694  ASN695  SER759  ASP760  ASP761  ALA762  ILE779  LEU786  VAL792 
 PHE793  MET794  SER795  GLU796  ALA797  LYS798  CYS799  TRP800  GLU811  SER814 

> <Gold.Protein.RotatedAtoms>
  152.3200  134.7392  160.0315 H   0  0  0  0  0  0  0  0  0  0  0  0  # atno 6907 bound_to 6896
  151.7844  133.3347  159.3489 H   0  0  0  0  0  0  0  0  0  0  0  0  # atno 6908 bound_to 6896
  150.7365  134.5832  159.5994 H   0  0  0  0  0  0  0  0  0  0  0  0  # atno 6909 bound_to 6896
  145.1024  140.8560  143.3918 H   0  0  0  0  0  0  0  0  0  0  0  0  # atno 7974 bound_to 7965
  155.7346  140.0806  157.2273 H   0  0  0  0  0  0  0  0  0  0  0  0  # atno 8008 bound_to 7997
  154.4029  140.1589  156.2602 H   0  0  0  0  0  0  0  0  0  0  0  0  # atno 8009 bound_to 7997
  155.9077  140.3406  155.6077 H   0  0  0  0  0  0  0  0  0  0  0  0  # atno 8010 bound_to 7997
  139.7760  144.6905  151.0089 H   0  0  0  0  0  0  0  0  0  0  0  0  # atno 10167 bound_to 10162
  157.4279  131.1045  151.0282 H   0  0  0  0  0  0  0  0  0  0  0  0  # atno 10718 bound_to 10713
  153.0970  135.4832  154.8796 H   0  0  0  0  0  0  0  0  0  0  0  0  # atno 10763 bound_to 10752
  154.7335  135.3065  154.8853 H   0  0  0  0  0  0  0  0  0  0  0  0  # atno 10764 bound_to 10752
  153.9482  135.6826  153.4797 H   0  0  0  0  0  0  0  0  0  0  0  0  # atno 10765 bound_to 10752
  141.0400  133.9851  157.3010 H   0  0  0  0  0  0  0  0  0  0  0  0  # atno 11005 bound_to 11000
  145.0940  139.2870  143.5720 LP  0  0  0  0  0  0  0  0  0  0  0  0  # atno 17320 bound_to 7965
  146.3529  140.0486  142.8637 LP  0  0  0  0  0  0  0  0  0  0  0  0  # atno 17321 bound_to 7965
  140.7816  143.4536  151.0378 LP  0  0  0  0  0  0  0  0  0  0  0  0  # atno 17342 bound_to 10162
  139.8218  143.7810  152.3177 LP  0  0  0  0  0  0  0  0  0  0  0  0  # atno 17343 bound_to 10162
  157.1189  130.6053  149.5500 LP  0  0  0  0  0  0  0  0  0  0  0  0  # atno 17370 bound_to 10713
  155.9903  130.4953  150.7250 LP  0  0  0  0  0  0  0  0  0  0  0  0  # atno 17371 bound_to 10713
  139.9268  135.0201  156.8263 LP  0  0  0  0  0  0  0  0  0  0  0  0  # atno 17394 bound_to 11000
  140.6252  133.9956  155.7636 LP  0  0  0  0  0  0  0  0  0  0  0  0  # atno 17395 bound_to 11000

$$$$
