#       Name:                AV-unprocessed.smi:1978
#       Creating user name   scv26
#       Creation time:       Fri Mar 27 10:17:48 2020


#       File generated by GOLD software.
#

@<TRIPOS>MOLECULE
AV-unprocessed.smi:1978
    50    51     1
SMALL
NO_CHARGES


@<TRIPOS>ATOM
      1 ****        -3.0846   7.0513   2.4654 C.3            1 S1                 0.0000
      2 ****        -2.6073   5.6992   2.0602 C.2            1 S1                 0.0000
      3 ****        -2.4348   5.0997   0.8443 C.2            1 S1                 0.0000
      4 ****        -1.9561   3.8083   1.1901 C.2            1 S1                 0.0000
      5 ****        -1.6473   2.8542   0.1873 N.am           1 S1                 0.0000
      6 ****        -1.2345   1.5879   0.3639 C.2            1 S1                 0.0000
      7 ****        -1.0624   1.0416   1.4539 O.2            1 S1                 0.0000
      8 ****        -1.0264   0.9724  -0.8091 N.am           1 S1                 0.0000
      9 ****        -0.5858  -0.4113  -0.9533 C.3            1 S1                 0.0000
     10 ****         0.9269  -0.5869  -0.6613 C.3            1 S1                 0.0000
     11 ****         1.8096   0.3094  -1.5543 C.3            1 S1                 0.0000
     12 ****         1.3696  -2.0180  -0.7062 N.4            1 S1                 1.0000
     13 ****         1.2340  -2.6500  -2.0514 C.3            1 S1                 0.0000
     14 ****         1.9530  -4.0054  -2.1089 C.3            1 S1                 0.0000
     15 ****         1.4108  -4.9485  -1.0331 C.3            1 S1                 0.0000
     16 ****         1.5240  -4.2805   0.3410 C.3            1 S1                 0.0000
     17 ****         0.8201  -2.9063   0.3726 C.3            1 S1                 0.0000
     18 ****         0.9424  -2.3110   1.7900 C.3            1 S1                 0.0000
     19 ****        -1.8436   3.6356   2.4981 N.2            1 S1                 0.0000
     20 ****        -2.2602   4.8469   3.0626 O.3            1 S1                 0.0000
     21 ****        -3.3041   7.6646   1.5913 H              1 S1                 0.0000
     22 ****        -2.3289   7.5667   3.0583 H              1 S1                 0.0000
     23 ****        -3.9928   6.9773   3.0637 H              1 S1                 0.0000
     24 ****        -2.6247   5.5194  -0.1324 H              1 S1                 0.0000
     25 ****        -1.7569   3.1694  -0.7651 H              1 S1                 0.0000
     26 ****        -1.1920   1.4919  -1.6591 H              1 S1                 0.0000
     27 ****        -1.1898  -1.0408  -0.2990 H              1 S1                 0.0000
     28 ****        -0.8167  -0.7177  -1.9734 H              1 S1                 0.0000
     29 ****         1.1243  -0.2196   0.3436 H              1 S1                 0.0000
     30 ****         1.6509   1.3641  -1.3282 H              1 S1                 0.0000
     31 ****         1.5965   0.1782  -2.6148 H              1 S1                 0.0000
     32 ****         2.8685   0.1045  -1.3938 H              1 S1                 0.0000
     33 ****         0.1794  -2.7863  -2.2934 H              1 S1                 0.0000
     34 ****         1.6557  -2.0151  -2.8282 H              1 S1                 0.0000
     35 ****         1.8260  -4.4536  -3.0948 H              1 S1                 0.0000
     36 ****         3.0252  -3.8611  -1.9690 H              1 S1                 0.0000
     37 ****         0.3685  -5.1922  -1.2432 H              1 S1                 0.0000
     38 ****         1.9612  -5.8897  -1.0429 H              1 S1                 0.0000
     39 ****         1.0948  -4.9403   1.0961 H              1 S1                 0.0000
     40 ****         2.5770  -4.1611   0.6005 H              1 S1                 0.0000
     41 ****        -0.2392  -3.0727   0.1727 H              1 S1                 0.0000
     42 ****         0.6629  -3.0453   2.5460 H              1 S1                 0.0000
     43 ****         0.2787  -1.4592   1.9367 H              1 S1                 0.0000
     44 ****         1.9634  -1.9927   2.0034 H              1 S1                 0.0000
     45 ****         2.3627  -1.9792  -0.5267 H              1 S1                 0.0000
     46 ****        -1.2328   1.5478   2.2993 LP             1 S1                 0.0000
     47 ****        -0.7522   0.0918   1.4937 LP             1 S1                 0.0000
     48 ****        -1.5290   2.8170   2.9787 LP             1 S1                 0.0000
     49 ****        -3.0485   4.6877   3.6569 LP             1 S1                 0.0000
     50 ****        -1.5140   5.2430   3.5977 LP             1 S1                 0.0000
@<TRIPOS>BOND
    1    1    2 1     
    2    1   21 1     
    3    1   22 1     
    4    1   23 1     
    5    2   20 1     
    6    2    3 2     
    7    3    4 1     
    8    3   24 1     
    9    4    5 1     
   10    4   19 2     
   11    5    6 am    
   12    5   25 1     
   13    6    7 2     
   14    6    8 am    
   15    8    9 1     
   16    8   26 1     
   17    9   10 1     
   18    9   27 1     
   19    9   28 1     
   20   10   11 1     
   21   10   12 1     
   22   10   29 1     
   23   11   30 1     
   24   11   31 1     
   25   11   32 1     
   26   12   17 1     
   27   12   13 1     
   28   12   45 1     
   29   13   14 1     
   30   13   33 1     
   31   13   34 1     
   32   14   15 1     
   33   14   35 1     
   34   14   36 1     
   35   15   16 1     
   36   15   37 1     
   37   15   38 1     
   38   16   17 1     
   39   16   39 1     
   40   16   40 1     
   41   17   18 1     
   42   17   41 1     
   43   18   42 1     
   44   18   43 1     
   45   18   44 1     
   46   19   20 1     
   47    7   46 1     
   48    7   47 1     
   49   19   48 1     
   50   20   49 1     
   51   20   50 1     
@<TRIPOS>SUBSTRUCTURE
      1 S1             1
@<TRIPOS>SET
LONE_PAIRS      STATIC     ATOMS    <user>   **** ""
5 46 47 48 49 50
DONOR_HYDROGENS      STATIC     ATOMS    <user>   **** ""
3 25 26 45
ATOM$BLUE        STATIC     ATOMS    COLORGROUP SYSTEM
5 46 47 48 49 50
ATOM$RED        STATIC     ATOMS    COLORGROUP SYSTEM
3 25 26 45
