AV-unprocessed.smi:1701|AV-procd|sdf|6837|dock1
  -GOLD-   22720 8 13D 1   1.00000     0.00000
 Structure written by MMmdl.
 54 56  0  0  0  0  0  0  0  0  4 V2000
  152.4299  140.7752  158.5296 C   0  0  0  0  0  0  0  0  0  0  0  0
  151.1121  141.4942  158.2019 C   0  0  0  0  0  0  0  0  0  0  0  0
  151.1007  142.0773  156.8607 N   0  0  0  0  0  0  0  0  0  0  0  0
  150.9869  143.5344  156.7682 C   0  0  0  0  0  0  0  0  0  0  0  0
  151.9458  144.2754  157.7140 C   0  0  0  0  0  0  0  0  0  0  0  0
  150.4709  141.2853  155.8747 C   0  0  0  0  0  0  0  0  0  0  0  0
  150.9010  139.9701  155.5800 C   0  0  0  0  0  0  0  0  0  0  0  0
  150.2297  139.2171  154.5954 C   0  0  0  0  0  0  0  0  0  0  0  0
  149.1392  139.7830  153.9038 C   0  0  0  0  0  0  0  0  0  0  0  0
  148.4791  138.9807  152.9349 N   0  0  0  0  0  0  0  0  0  0  0  0
  147.3412  139.2344  152.2424 C   0  0  0  0  0  0  0  0  0  0  0  0
  146.7780  140.3167  152.3951 O   0  0  0  0  0  0  0  0  0  0  0  0
  146.8542  138.3012  151.3694 N   0  5  0  0  0  0  0  0  0  0  0  0
  145.5668  137.5836  151.3948 C   0  0  2  0  0  0  0  0  0  0  0  0
  145.0734  137.4466  152.8476 C   0  0  0  0  0  0  0  0  0  0  0  0
  145.6088  136.0932  153.3490 C   0  0  0  0  0  0  0  0  0  0  0  0
  146.3117  135.4859  152.1992 N   0  3  1  0  0  0  0  0  0  0  0  0
  146.4171  134.0047  152.1824 C   0  0  0  0  0  0  0  0  0  0  0  0
  145.1289  133.3246  151.6896 C   0  0  0  0  0  0  0  0  0  0  0  0
  144.6937  133.9013  150.3378 C   0  0  0  0  0  0  0  0  0  0  0  0
  144.4911  135.4151  150.4697 C   0  0  0  0  0  0  0  0  0  0  0  0
  145.7852  136.1186  150.9675 C   0  0  1  0  0  0  0  0  0  0  0  0
  148.7354  141.0949  154.2464 C   0  0  0  0  0  0  0  0  0  0  0  0
  149.4065  141.7804  155.1967 N   0  3  0  0  0  0  0  0  0  0  0  0
  152.3908  140.3379  159.5274 H   0  0  0  0  0  0  0  0  0  0  0  0
  153.2764  141.4622  158.5046 H   0  0  0  0  0  0  0  0  0  0  0  0
  152.6310  139.9685  157.8244 H   0  0  0  0  0  0  0  0  0  0  0  0
  150.2881  140.7840  158.2759 H   0  0  0  0  0  0  0  0  0  0  0  0
  150.9088  142.2538  158.9557 H   0  0  0  0  0  0  0  0  0  0  0  0
  151.1507  143.8547  155.7386 H   0  0  0  0  0  0  0  0  0  0  0  0
  149.9647  143.8247  157.0134 H   0  0  0  0  0  0  0  0  0  0  0  0
  151.7934  145.3526  157.6454 H   0  0  0  0  0  0  0  0  0  0  0  0
  152.9919  144.0795  157.4803 H   0  0  0  0  0  0  0  0  0  0  0  0
  151.7753  143.9841  158.7508 H   0  0  0  0  0  0  0  0  0  0  0  0
  151.7467  139.5343  156.0905 H   0  0  0  0  0  0  0  0  0  0  0  0
  150.5582  138.2130  154.3688 H   0  0  0  0  0  0  0  0  0  0  0  0
  148.9490  138.1211  152.6914 H   0  0  0  0  0  0  0  0  0  0  0  0
  144.8140  138.0633  150.7677 H   0  0  0  0  0  0  0  0  0  0  0  0
  145.3843  138.2761  153.4849 H   0  0  0  0  0  0  0  0  0  0  0  0
  143.9830  137.4302  152.8625 H   0  0  0  0  0  0  0  0  0  0  0  0
  146.2996  136.2116  154.1846 H   0  0  0  0  0  0  0  0  0  0  0  0
  144.7848  135.4618  153.6843 H   0  0  0  0  0  0  0  0  0  0  0  0
  147.2381  133.7388  151.5155 H   0  0  0  0  0  0  0  0  0  0  0  0
  146.6928  133.6420  153.1732 H   0  0  0  0  0  0  0  0  0  0  0  0
  145.2892  132.2497  151.6015 H   0  0  0  0  0  0  0  0  0  0  0  0
  144.3318  133.4574  152.4217 H   0  0  0  0  0  0  0  0  0  0  0  0
  145.4476  133.6898  149.5783 H   0  0  0  0  0  0  0  0  0  0  0  0
  143.7699  133.4263  150.0061 H   0  0  0  0  0  0  0  0  0  0  0  0
  144.1863  135.8225  149.5040 H   0  0  0  0  0  0  0  0  0  0  0  0
  143.6510  135.5821  151.1481 H   0  0  0  0  0  0  0  0  0  0  0  0
  146.5375  136.0450  150.1801 H   0  0  0  0  0  0  0  0  0  0  0  0
  147.8977  141.6197  153.8120 H   0  0  0  0  0  0  0  0  0  0  0  0
  147.2559  135.8380  152.2750 H   0  0  0  0  0  0  0  0  0  0  0  0
  149.0897  142.7242  155.4188 H   0  0  0  0  0  0  0  0  0  0  0  0
  1  2  1  0  0  0  0
  1 25  1  0  0  0  0
  1 26  1  0  0  0  0
  1 27  1  0  0  0  0
  2  3  1  0  0  0  0
  2 28  1  0  0  0  0
  2 29  1  0  0  0  0
  3  4  1  0  0  0  0
  3  6  1  0  0  0  0
  4  5  1  0  0  0  0
  4 30  1  0  0  0  0
  4 31  1  0  0  0  0
  5 32  1  0  0  0  0
  5 33  1  0  0  0  0
  5 34  1  0  0  0  0
  6 24  1  0  0  0  0
  6  7  2  0  0  0  0
  7  8  1  0  0  0  0
  7 35  1  0  0  0  0
  8  9  2  0  0  0  0
  8 36  1  0  0  0  0
  9 10  1  0  0  0  0
  9 23  1  0  0  0  0
 10 11  1  0  0  0  0
 10 37  1  0  0  0  0
 11 12  2  0  0  0  0
 11 13  1  0  0  0  0
 13 14  1  0  0  0  0
 14 22  1  0  0  0  0
 14 15  1  0  0  0  0
 14 38  1  0  0  0  0
 15 16  1  0  0  0  0
 15 39  1  0  0  0  0
 15 40  1  0  0  0  0
 16 17  1  0  0  0  0
 16 41  1  0  0  0  0
 16 42  1  0  0  0  0
 17 22  1  0  0  0  0
 17 18  1  0  0  0  0
 17 53  1  0  0  0  0
 18 19  1  0  0  0  0
 18 43  1  0  0  0  0
 18 44  1  0  0  0  0
 19 20  1  0  0  0  0
 19 45  1  0  0  0  0
 19 46  1  0  0  0  0
 20 21  1  0  0  0  0
 20 47  1  0  0  0  0
 20 48  1  0  0  0  0
 21 22  1  0  0  0  0
 21 49  1  0  0  0  0
 21 50  1  0  0  0  0
 22 51  1  0  0  0  0
 23 24  2  0  0  0  0
 23 52  1  0  0  0  0
 24 54  1  0  0  0  0
M  CHG  1  13  -1
M  CHG  1  17   1
M  CHG  1  24   1
M  END
> <s_m_source_file>
AV-unprocessed.smi

> <i_m_source_file_index>
1701

> <i_lp_mmshare_version>
43012

> <i_f3d_flags>
0

> <s_epik_input>
W0NIM11bQ0gyXU4oW0NIMl1bQ0gzXSljMVtjSF1bY0hdYyhbY0hdbjEpW05IXUMoPU8pW05IXVtDQEhdKFtDSDJdW0NIMl0yKVtDQEBIXShOMjMpW0NIMl1bQ0gyXVtDSDJdW0NIMl0z

> <s_epik_cmdline>
J2VwaWtfcHl0aG9uJywgJy1waCcsICc3LjAnLCAnLXRuJywgJzgnLCAnLW1hJywgJzIwMCcsICctbWV0YWxfYmluZGluZycsICctaW1hZScsICc8aW5maWxlLm1hZT4nLCAnLW9tYWUnLCAnPG91dGZpbGUubWFlPic=

> <r_lp_tautomer_probability>
0.999994

> <r_epik_Ionization_Penalty>
7.37095

> <r_epik_Ionization_Penalty_Charging>
7.37095

> <r_epik_Ionization_Penalty_Neutral>
3.78969e-06

> <r_epik_State_Penalty>
6.83842

> <r_epik_Charging_Adjusted_Penalty>
14.2094

> <i_epik_Tot_Q>
1

> <i_epik_Tot_abs_Q>
3

> <r_epik_Metal_State_Penalty>
2.78552

> <b_epik_Metal_Only>
1

> <s_lp_Force_Field>
OPLS_2005

> <r_lp_Energy>
52.1931

> <b_lp_Chiralities_Consistent>
1

> <s_lp_Variant>
AV-unprocessed.smi:1701-17

> <Gold.Version>
5.8.1

> <Gold.Id.Protein>
6NUR|6NUR_protein|mol2

> <Gold.PLP.Fitness>
56.6087

> <Gold.PLP.PLP>
-41.4615

> <Gold.PLP.part.hbond>
-4.4073

> <Gold.PLP.part.metal>
0.0000

> <Gold.PLP.part.buried>
6.4563

> <Gold.PLP.part.nonpolar>
-46.7512

> <Gold.PLP.part.repulsive>
2.7704

> <Gold.PLP.ligand.clash>
0.0000

> <Gold.PLP.ligand.torsion>
1.9072

> <Gold.PLP.Chemscore.Hbond>
5.9913

> <Gold.PLP.Chemscore.CHOScore>
0.0000

> <Gold.PLP.Chemscore.Metal>
0.0000

> <Gold.Chemscore.Hbonds>
donor molecule, donor type, donor heavy atom, donor atom, acceptor molecule, acceptor atom, score
      L1  H    10    37       P1  7948  1.00
      L1  H    17    53       P1  7948  2.00
      L1  H    24    54       P1  8028  2.00
      P1  H  7954  7966       L1    13  1.00

> <Gold.PLP.Chemscore.Internal.Correction>
0.9878

> <Gold.Rescore>
     Score         DG    S(hbond)    S(metal)    S(lipo)     H(rot)  DE(clash)    DE(int)     intcor
     17.80     -28.07       3.66        0.00     116.82       1.28       7.03       3.25       ----

> <Gold.Chemscore.Fitness>
17.7951

> <Gold.Chemscore.DG>
-28.0709

> <Gold.Chemscore.ZeroCoef>
-5.4800

> <Gold.Chemscore.Hbond>
3.6555

> <Gold.Chemscore.Metal>
0.0000

> <Gold.Chemscore.Lipo>
116.8201

> <Gold.Chemscore.Internal_Hbond>
0.0000

> <Gold.Chemscore.DEClash>
7.0260

> <Gold.Chemscore.DEInternal>
3.2499

> <Gold.Chemscore.Rot>
1.2838

> <Gold.Chemscore.Internal.Correction>
   9.000000E+99

> <Gold.Chemscore.Hbonds>
donor molecule, donor type, donor heavy atom, donor atom, acceptor molecule, acceptor atom, score
      L1  H    10    37       P1  7948  0.90
      L1  H    17    53       P1  7948  0.99
      L1  H    24    54       P1  8028  0.94
      P1  H  7954  7966       L1    13  0.75

> <Gold.Chemscore.Hbond.Weighted>
-12.2095

> <Gold.Chemscore.Metal.Weighted>
-0.0000

> <Gold.Chemscore.Lipo.Weighted>
-13.6680

> <Gold.Chemscore.Internal_Hbond.Weighted>
0.0000

> <Gold.Chemscore.DEClash.Weighted>
7.0260

> <Gold.Chemscore.DEInternal.Weighted>
3.2499

> <Gold.Chemscore.Rot.Weighted>
3.2865

> <Gold.Chemscore.Internal.Correction.Weighted>
   9.000000E+99

> <Gold.Protein.RotatedTorsions>
[ 6907 6896 6895 6894 ] final    0.43 input  -60.11 | X-H torsion
[ 7974 7965 7964 7962 ] final  108.20 input  175.53 | X-H torsion
[ 8008 7997 7996 7995 ] final   54.64 input   59.86 | X-H torsion
[ 10167 10162 10161 10158 ] final -179.62 input  -65.29 | X-H torsion
[ 10718 10713 10712 10709 ] final  140.54 input   66.30 | X-H torsion
[ 10763 10752 10751 10750 ] final  -38.53 input  -60.55 | X-H torsion
[ 11005 11000 10999 10996 ] final  -73.32 input  -57.11 | X-H torsion

> <Gold.Protein.ActiveResidues>
 VAL166  LYS551  ARG553  GLY616  TRP617  ASP618  TYR619  PRO620  LYS621  CYS622 
 ASP623  PHE694  ASN695  SER759  ASP760  ASP761  ALA762  ILE779  LEU786  VAL792 
 PHE793  MET794  SER795  GLU796  ALA797  LYS798  CYS799  TRP800  GLU811  SER814 

> <Gold.Protein.RotatedAtoms>
  151.5763  135.1060  160.0006 H   0  0  0  0  0  0  0  0  0  0  0  0  # atno 6907 bound_to 6896
  152.4376  133.7385  159.6638 H   0  0  0  0  0  0  0  0  0  0  0  0  # atno 6908 bound_to 6896
  150.8276  133.8076  159.3135 H   0  0  0  0  0  0  0  0  0  0  0  0  # atno 6909 bound_to 6896
  145.2837  139.2624  143.3902 H   0  0  0  0  0  0  0  0  0  0  0  0  # atno 7974 bound_to 7965
  155.4880  140.3470  155.4350 H   0  0  0  0  0  0  0  0  0  0  0  0  # atno 8008 bound_to 7997
  156.0996  140.1432  156.9514 H   0  0  0  0  0  0  0  0  0  0  0  0  # atno 8009 bound_to 7997
  154.4685  140.0909  156.7061 H   0  0  0  0  0  0  0  0  0  0  0  0  # atno 8010 bound_to 7997
  139.5378  144.2448  152.0831 H   0  0  0  0  0  0  0  0  0  0  0  0  # atno 10167 bound_to 10162
  157.4021  131.1018  151.0541 H   0  0  0  0  0  0  0  0  0  0  0  0  # atno 10718 bound_to 10713
  153.9143  135.6789  153.4750 H   0  0  0  0  0  0  0  0  0  0  0  0  # atno 10763 bound_to 10752
  153.1062  135.4804  154.8952 H   0  0  0  0  0  0  0  0  0  0  0  0  # atno 10764 bound_to 10752
  154.7511  135.3185  154.8512 H   0  0  0  0  0  0  0  0  0  0  0  0  # atno 10765 bound_to 10752
  141.1621  133.6874  156.7194 H   0  0  0  0  0  0  0  0  0  0  0  0  # atno 11005 bound_to 11000
  146.3208  140.3311  142.8640 LP  0  0  0  0  0  0  0  0  0  0  0  0  # atno 17320 bound_to 7965
  144.9231  140.7891  143.5736 LP  0  0  0  0  0  0  0  0  0  0  0  0  # atno 17321 bound_to 7965
  140.1921  144.4741  150.6473 LP  0  0  0  0  0  0  0  0  0  0  0  0  # atno 17342 bound_to 10162
  140.6593  143.2247  151.5893 LP  0  0  0  0  0  0  0  0  0  0  0  0  # atno 17343 bound_to 10162
  157.1536  130.6195  149.5589 LP  0  0  0  0  0  0  0  0  0  0  0  0  # atno 17370 bound_to 10713
  155.9826  130.4841  150.6890 LP  0  0  0  0  0  0  0  0  0  0  0  0  # atno 17371 bound_to 10713
  140.2828  134.8303  157.3948 LP  0  0  0  0  0  0  0  0  0  0  0  0  # atno 17394 bound_to 11000
  140.1418  134.4962  155.8026 LP  0  0  0  0  0  0  0  0  0  0  0  0  # atno 17395 bound_to 11000

$$$$
