AV-unprocessed.smi:849|AV-procd|sdf|3944|dock4
  -GOLD-   22720 1413D 1   1.00000     0.00000
 Structure written by MMmdl.
 36 38  0  0  0  0  0  0  0  0  1 V2000
  153.5134  139.8319  154.4670 O   0  0  0  0  0  0  0  0  0  0  0  0
  152.5716  139.2754  155.3620 C   0  0  0  0  0  0  0  0  0  0  0  0
  151.2106  139.9084  155.2901 C   0  0  0  0  0  0  0  0  0  0  0  0
  150.4885  139.9483  154.1676 N   0  0  0  0  0  0  0  0  0  0  0  0
  149.3383  140.6001  154.5642 C   0  0  0  0  0  0  0  0  0  0  0  0
  148.1831  140.9527  153.8307 C   0  0  0  0  0  0  0  0  0  0  0  0
  147.1170  141.6282  154.4601 C   0  0  0  0  0  0  0  0  0  0  0  0
  147.1901  141.9585  155.8287 C   0  0  0  0  0  0  0  0  0  0  0  0
  148.3320  141.6152  156.5777 C   0  0  0  0  0  0  0  0  0  0  0  0
  149.3940  140.9427  155.9440 C   0  0  0  0  0  0  0  0  0  0  0  0
  150.6331  140.4810  156.3777 N   0  0  0  0  0  0  0  0  0  0  0  0
  151.1610  140.6030  157.7302 C   0  0  0  0  0  0  0  0  0  0  0  0
  151.9987  141.8842  157.9273 C   0  0  1  0  0  0  0  0  0  0  0  0
  151.2103  142.9856  157.5222 O   0  0  0  0  0  0  0  0  0  0  0  0
  152.5117  142.0359  159.3592 C   0  0  0  0  0  0  0  0  0  0  0  0
  153.3689  141.0454  159.8928 C   0  0  0  0  0  0  0  0  0  0  0  0
  153.8757  141.1606  161.2007 C   0  0  0  0  0  0  0  0  0  0  0  0
  153.5314  142.2710  161.9915 C   0  0  0  0  0  0  0  0  0  0  0  0
  152.6815  143.2641  161.4718 C   0  0  0  0  0  0  0  0  0  0  0  0
  152.1704  143.1550  160.1629 C   0  0  0  0  0  0  0  0  0  0  0  0
  151.1384  144.4164  159.5850 Cl  0  0  0  0  0  0  0  0  0  0  0  0
  153.0732  140.4658  153.9222 H   0  0  0  0  0  0  0  0  0  0  0  0
  152.4821  138.2100  155.1498 H   0  0  0  0  0  0  0  0  0  0  0  0
  152.9633  139.3783  156.3727 H   0  0  0  0  0  0  0  0  0  0  0  0
  148.1182  140.7038  152.7820 H   0  0  0  0  0  0  0  0  0  0  0  0
  146.2392  141.8943  153.8896 H   0  0  0  0  0  0  0  0  0  0  0  0
  146.3696  142.4766  156.3030 H   0  0  0  0  0  0  0  0  0  0  0  0
  148.3926  141.8696  157.6255 H   0  0  0  0  0  0  0  0  0  0  0  0
  150.3062  140.6148  158.4083 H   0  0  0  0  0  0  0  0  0  0  0  0
  151.7378  139.7158  157.9908 H   0  0  0  0  0  0  0  0  0  0  0  0
  152.8376  141.8734  157.2331 H   0  0  0  0  0  0  0  0  0  0  0  0
  151.5003  143.2648  156.6675 H   0  0  0  0  0  0  0  0  0  0  0  0
  153.6507  140.1908  159.2957 H   0  0  0  0  0  0  0  0  0  0  0  0
  154.5303  140.3979  161.5960 H   0  0  0  0  0  0  0  0  0  0  0  0
  153.9192  142.3624  162.9954 H   0  0  0  0  0  0  0  0  0  0  0  0
  152.4212  144.1165  162.0822 H   0  0  0  0  0  0  0  0  0  0  0  0
  1  2  1  0  0  0  0
  1 22  1  0  0  0  0
  2  3  1  0  0  0  0
  2 23  1  0  0  0  0
  2 24  1  0  0  0  0
  3 11  1  0  0  0  0
  3  4  2  0  0  0  0
  4  5  1  0  0  0  0
  5 10  2  0  0  0  0
  5  6  1  0  0  0  0
  6  7  2  0  0  0  0
  6 25  1  0  0  0  0
  7  8  1  0  0  0  0
  7 26  1  0  0  0  0
  8  9  2  0  0  0  0
  8 27  1  0  0  0  0
  9 10  1  0  0  0  0
  9 28  1  0  0  0  0
 10 11  1  0  0  0  0
 11 12  1  0  0  0  0
 12 13  1  0  0  0  0
 12 29  1  0  0  0  0
 12 30  1  0  0  0  0
 13 14  1  0  0  0  0
 13 15  1  0  0  0  0
 13 31  1  0  0  0  0
 14 32  1  0  0  0  0
 15 20  1  0  0  0  0
 15 16  2  0  0  0  0
 16 17  1  0  0  0  0
 16 33  1  0  0  0  0
 17 18  2  0  0  0  0
 17 34  1  0  0  0  0
 18 19  1  0  0  0  0
 18 35  1  0  0  0  0
 19 20  2  0  0  0  0
 19 36  1  0  0  0  0
 20 21  1  0  0  0  0
M  END
> <s_m_source_file>
AV-unprocessed.smi

> <i_m_source_file_index>
849

> <i_lp_mmshare_version>
43012

> <i_f3d_flags>
0

> <s_epik_input>
W2NIXTFbY0hdW2NIXVtjSF1jKGMxMiluKGMobjIpW0NIMl1bT0hdKVtDSDJdW0NASF0oW09IXSljM1tjSF1bY0hdW2NIXVtjSF1jM0Ns

> <s_epik_cmdline>
J2VwaWtfcHl0aG9uJywgJy1waCcsICc3LjAnLCAnLXRuJywgJzgnLCAnLW1hJywgJzIwMCcsICctbWV0YWxfYmluZGluZycsICctaW1hZScsICc8aW5maWxlLm1hZT4nLCAnLW9tYWUnLCAnPG91dGZpbGUubWFlPic=

> <r_epik_Ionization_Penalty>
0.0634742

> <r_epik_Ionization_Penalty_Charging>
0

> <r_epik_Ionization_Penalty_Neutral>
0.0634742

> <r_epik_State_Penalty>
0.0551572

> <r_epik_Charging_Adjusted_Penalty>
0.0551572

> <i_epik_Tot_Q>
0

> <i_epik_Tot_abs_Q>
0

> <r_epik_Metal_State_Penalty>
5.78034e-05

> <b_epik_Metal_Only>
0

> <s_lp_Force_Field>
OPLS_2005

> <r_lp_Energy>
13.628

> <b_lp_Chiralities_Consistent>
1

> <s_lp_Variant>
AV-unprocessed.smi:849-2

> <Gold.Version>
5.8.1

> <Gold.Id.Protein>
6NUR|6NUR_protein|mol2

> <Gold.PLP.Fitness>
54.5311

> <Gold.PLP.PLP>
-50.1978

> <Gold.PLP.part.hbond>
-3.0000

> <Gold.PLP.part.metal>
0.0000

> <Gold.PLP.part.buried>
-3.5978

> <Gold.PLP.part.nonpolar>
-42.8185

> <Gold.PLP.part.repulsive>
0.1311

> <Gold.PLP.ligand.clash>
0.0000

> <Gold.PLP.ligand.torsion>
0.3938

> <Gold.PLP.Chemscore.Hbond>
1.7000

> <Gold.PLP.Chemscore.CHOScore>
0.0000

> <Gold.PLP.Chemscore.Metal>
0.0000

> <Gold.Chemscore.Hbonds>
donor molecule, donor type, donor heavy atom, donor atom, acceptor molecule, acceptor atom, score
      P1  H  7989  7998       L1     4  0.50
      P1  H  7997  8009       L1     1  0.70

> <Gold.PLP.Chemscore.Internal.Correction>
0.0209

> <Gold.Rescore>
     Score         DG    S(hbond)    S(metal)    S(lipo)     H(rot)  DE(clash)    DE(int)     intcor
     14.08     -16.43       0.95        0.00     123.90       2.62       0.24       2.11       ----

> <Gold.Chemscore.Fitness>
14.0770

> <Gold.Chemscore.DG>
-16.4317

> <Gold.Chemscore.ZeroCoef>
-5.4800

> <Gold.Chemscore.Hbond>
0.9494

> <Gold.Chemscore.Metal>
0.0000

> <Gold.Chemscore.Lipo>
123.8980

> <Gold.Chemscore.Internal_Hbond>
0.0000

> <Gold.Chemscore.DEClash>
0.2437

> <Gold.Chemscore.DEInternal>
2.1110

> <Gold.Chemscore.Rot>
2.6232

> <Gold.Chemscore.Internal.Correction>
   9.000000E+99

> <Gold.Chemscore.Hbonds>
donor molecule, donor type, donor heavy atom, donor atom, acceptor molecule, acceptor atom, score
      P1  H  7989  7998       L1     4  0.02
      P1  H  7997  8009       L1     1  0.07

> <Gold.Chemscore.Hbond.Weighted>
-3.1710

> <Gold.Chemscore.Metal.Weighted>
-0.0000

> <Gold.Chemscore.Lipo.Weighted>
-14.4961

> <Gold.Chemscore.Internal_Hbond.Weighted>
0.0000

> <Gold.Chemscore.DEClash.Weighted>
0.2437

> <Gold.Chemscore.DEInternal.Weighted>
2.1110

> <Gold.Chemscore.Rot.Weighted>
6.7154

> <Gold.Chemscore.Internal.Correction.Weighted>
   9.000000E+99

> <Gold.Protein.RotatedTorsions>
[ 6907 6896 6895 6894 ] final    8.70 input  -60.11 | X-H torsion
[ 7974 7965 7964 7962 ] final   71.15 input  175.53 | X-H torsion
[ 8008 7997 7996 7995 ] final -121.98 input   59.86 | X-H torsion
[ 10167 10162 10161 10158 ] final -134.78 input  -65.29 | X-H torsion
[ 10718 10713 10712 10709 ] final  163.07 input   66.30 | X-H torsion
[ 10763 10752 10751 10750 ] final   89.86 input  -60.55 | X-H torsion
[ 11005 11000 10999 10996 ] final  107.44 input  -57.11 | X-H torsion

> <Gold.Protein.ActiveResidues>
 VAL166  LYS551  ARG553  GLY616  TRP617  ASP618  TYR619  PRO620  LYS621  CYS622 
 ASP623  PHE694  ASN695  SER759  ASP760  ASP761  ALA762  ILE779  LEU786  VAL792 
 PHE793  MET794  SER795  GLU796  ALA797  LYS798  CYS799  TRP800  GLU811  SER814 

> <Gold.Protein.RotatedAtoms>
  151.7102  135.0914  160.0266 H   0  0  0  0  0  0  0  0  0  0  0  0  # atno 6907 bound_to 6896
  152.3666  133.6360  159.6063 H   0  0  0  0  0  0  0  0  0  0  0  0  # atno 6908 bound_to 6896
  150.7642  133.9254  159.3452 H   0  0  0  0  0  0  0  0  0  0  0  0  # atno 6909 bound_to 6896
  145.7694  139.2836  143.1330 H   0  0  0  0  0  0  0  0  0  0  0  0  # atno 7974 bound_to 7965
  155.1567  140.0405  157.2833 H   0  0  0  0  0  0  0  0  0  0  0  0  # atno 8008 bound_to 7997
  154.6365  140.2536  155.7345 H   0  0  0  0  0  0  0  0  0  0  0  0  # atno 8009 bound_to 7997
  156.2511  140.2864  156.0740 H   0  0  0  0  0  0  0  0  0  0  0  0  # atno 8010 bound_to 7997
  139.8846  143.6797  152.2622 H   0  0  0  0  0  0  0  0  0  0  0  0  # atno 10167 bound_to 10162
  157.1136  131.0474  151.2446 H   0  0  0  0  0  0  0  0  0  0  0  0  # atno 10718 bound_to 10713
  153.1915  135.4455  155.0155 H   0  0  0  0  0  0  0  0  0  0  0  0  # atno 10763 bound_to 10752
  154.8093  135.3287  154.7351 H   0  0  0  0  0  0  0  0  0  0  0  0  # atno 10764 bound_to 10752
  153.7805  135.6978  153.4944 H   0  0  0  0  0  0  0  0  0  0  0  0  # atno 10765 bound_to 10752
  139.8828  134.9401  156.5819 H   0  0  0  0  0  0  0  0  0  0  0  0  # atno 11005 bound_to 11000
  146.0185  140.8370  142.9935 LP  0  0  0  0  0  0  0  0  0  0  0  0  # atno 17320 bound_to 7965
  144.6815  140.2594  143.7321 LP  0  0  0  0  0  0  0  0  0  0  0  0  # atno 17321 bound_to 7965
  139.7165  144.7611  151.1025 LP  0  0  0  0  0  0  0  0  0  0  0  0  # atno 17342 bound_to 10162
  140.7738  143.5263  150.9477 LP  0  0  0  0  0  0  0  0  0  0  0  0  # atno 17343 bound_to 10162
  157.4537  130.7613  149.7174 LP  0  0  0  0  0  0  0  0  0  0  0  0  # atno 17370 bound_to 10713
  155.9844  130.3991  150.3311 LP  0  0  0  0  0  0  0  0  0  0  0  0  # atno 17371 bound_to 10713
  140.8020  133.8497  155.8735 LP  0  0  0  0  0  0  0  0  0  0  0  0  # atno 17394 bound_to 11000
  140.9584  134.1688  157.4674 LP  0  0  0  0  0  0  0  0  0  0  0  0  # atno 17395 bound_to 11000

$$$$
