AV-unprocessed.smi:923|AV-procd|sdf|4178|dock8
  -GOLD-   22720 2 83D 1   1.00000     0.00000
 Structure written by MMmdl.
 34 35  0  0  0  0  0  0  0  0  2 V2000
  149.7834  134.4705  154.8071 C   0  0  0  0  0  0  0  0  0  0  0  0
  150.2364  135.8621  155.0891 C   0  0  0  0  0  0  0  0  0  0  0  0
  151.5199  136.1800  155.2740 N   0  0  0  0  0  0  0  0  0  0  0  0
  151.6930  137.5350  155.5170 N   0  0  0  0  0  0  0  0  0  0  0  0
  150.5425  138.2233  155.5012 C   0  0  0  0  0  0  0  0  0  0  0  0
  150.4916  139.5489  155.7127 N   0  5  0  0  0  0  0  0  0  0  0  0
  151.4579  140.1536  156.4412 C   0  0  0  0  0  0  0  0  0  0  0  0
  152.6108  139.7469  156.6034 O   0  0  0  0  0  0  0  0  0  0  0  0
  151.0632  141.3002  157.0151 N   0  0  0  0  0  0  0  0  0  0  0  0
  151.8804  142.1800  157.8496 C   0  0  0  0  0  0  0  0  0  0  0  0
  151.8724  141.6529  159.2993 C   0  0  0  0  0  0  0  0  0  0  0  0
  152.6580  142.5032  160.3128 C   0  0  0  0  0  0  0  0  0  0  0  0
  151.9357  143.8090  160.6813 C   0  0  0  0  0  0  0  0  0  0  0  0
  152.2073  144.9994  159.7453 C   0  0  0  0  0  0  0  0  0  0  0  0
  152.3403  144.6796  158.2458 C   0  0  0  0  0  0  0  0  0  0  0  0
  151.3622  143.6254  157.7001 C   0  0  0  0  0  0  0  0  0  0  0  0
  149.1259  137.2171  155.2009 S   0  0  0  0  0  0  0  0  0  0  0  0
  150.0099  134.2079  153.7737 H   0  0  0  0  0  0  0  0  0  0  0  0
  148.7079  134.3834  154.9633 H   0  0  0  0  0  0  0  0  0  0  0  0
  150.2897  133.7670  155.4684 H   0  0  0  0  0  0  0  0  0  0  0  0
  150.1090  141.5878  156.8551 H   0  0  0  0  0  0  0  0  0  0  0  0
  152.9058  142.1555  157.4764 H   0  0  0  0  0  0  0  0  0  0  0  0
  150.8443  141.5340  159.6447 H   0  0  0  0  0  0  0  0  0  0  0  0
  152.2980  140.6485  159.3016 H   0  0  0  0  0  0  0  0  0  0  0  0
  152.7650  141.9119  161.2229 H   0  0  0  0  0  0  0  0  0  0  0  0
  153.6728  142.6974  159.9638 H   0  0  0  0  0  0  0  0  0  0  0  0
  150.8620  143.6253  160.7357 H   0  0  0  0  0  0  0  0  0  0  0  0
  152.2260  144.1032  161.6905 H   0  0  0  0  0  0  0  0  0  0  0  0
  151.4101  145.7299  159.8860 H   0  0  0  0  0  0  0  0  0  0  0  0
  153.1216  145.5014  160.0642 H   0  0  0  0  0  0  0  0  0  0  0  0
  152.1987  145.6096  157.6943 H   0  0  0  0  0  0  0  0  0  0  0  0
  153.3635  144.3729  158.0261 H   0  0  0  0  0  0  0  0  0  0  0  0
  151.2280  143.8272  156.6363 H   0  0  0  0  0  0  0  0  0  0  0  0
  150.3750  143.7397  158.1503 H   0  0  0  0  0  0  0  0  0  0  0  0
  1  2  1  0  0  0  0
  1 18  1  0  0  0  0
  1 19  1  0  0  0  0
  1 20  1  0  0  0  0
  2 17  1  0  0  0  0
  2  3  2  0  0  0  0
  3  4  1  0  0  0  0
  4  5  2  0  0  0  0
  5  6  1  0  0  0  0
  5 17  1  0  0  0  0
  6  7  1  0  0  0  0
  7  8  2  0  0  0  0
  7  9  1  0  0  0  0
  9 10  1  0  0  0  0
  9 21  1  0  0  0  0
 10 16  1  0  0  0  0
 10 11  1  0  0  0  0
 10 22  1  0  0  0  0
 11 12  1  0  0  0  0
 11 23  1  0  0  0  0
 11 24  1  0  0  0  0
 12 13  1  0  0  0  0
 12 25  1  0  0  0  0
 12 26  1  0  0  0  0
 13 14  1  0  0  0  0
 13 27  1  0  0  0  0
 13 28  1  0  0  0  0
 14 15  1  0  0  0  0
 14 29  1  0  0  0  0
 14 30  1  0  0  0  0
 15 16  1  0  0  0  0
 15 31  1  0  0  0  0
 15 32  1  0  0  0  0
 16 33  1  0  0  0  0
 16 34  1  0  0  0  0
M  CHG  1   6  -1
M  END
> <s_m_source_file>
AV-unprocessed.smi

> <i_m_source_file_index>
923

> <i_lp_mmshare_version>
43012

> <i_f3d_flags>
0

> <s_epik_input>
W0NIM11jMW5uYyhzMSlbTkhdQyg9TylbTkhdW0NIXTJbQ0gyXVtDSDJdW0NIMl1bQ0gyXVtDSDJdW0NIMl0y

> <s_epik_cmdline>
J2VwaWtfcHl0aG9uJywgJy1waCcsICc3LjAnLCAnLXRuJywgJzgnLCAnLW1hJywgJzIwMCcsICctbWV0YWxfYmluZGluZycsICctaW1hZScsICc8aW5maWxlLm1hZT4nLCAnLW9tYWUnLCAnPG91dGZpbGUubWFlPic=

> <r_lp_tautomer_probability>
1

> <r_epik_Ionization_Penalty>
4.57867

> <r_epik_Ionization_Penalty_Charging>
4.42407

> <r_epik_Ionization_Penalty_Neutral>
0.154599

> <r_epik_State_Penalty>
4.42373

> <r_epik_Charging_Adjusted_Penalty>
8.84779

> <i_epik_Tot_Q>
-1

> <i_epik_Tot_abs_Q>
1

> <r_epik_Metal_State_Penalty>
0.782603

> <b_epik_Metal_Only>
1

> <s_lp_Force_Field>
OPLS_2005

> <r_lp_Energy>
12.5708

> <b_lp_Chiralities_Consistent>
1

> <s_lp_Variant>
AV-unprocessed.smi:923-2

> <Gold.Version>
5.8.1

> <Gold.Id.Protein>
6NUR|6NUR_protein|mol2

> <Gold.PLP.Fitness>
39.1723

> <Gold.PLP.PLP>
-34.4226

> <Gold.PLP.part.hbond>
-2.0000

> <Gold.PLP.part.metal>
0.0000

> <Gold.PLP.part.buried>
-5.5442

> <Gold.PLP.part.nonpolar>
-27.1788

> <Gold.PLP.part.repulsive>
0.2534

> <Gold.PLP.ligand.clash>
0.0000

> <Gold.PLP.ligand.torsion>
0.6328

> <Gold.PLP.Chemscore.Hbond>
2.0000

> <Gold.PLP.Chemscore.CHOScore>
0.0000

> <Gold.PLP.Chemscore.Metal>
0.0000

> <Gold.Chemscore.Hbonds>
donor molecule, donor type, donor heavy atom, donor atom, acceptor molecule, acceptor atom, score
      P1  H  7997  8010       L1     8  1.00
      P1  H 10752 10764       L1     3  1.00

> <Gold.PLP.Chemscore.Internal.Correction>
0.0154

> <Gold.Rescore>
     Score         DG    S(hbond)    S(metal)    S(lipo)     H(rot)  DE(clash)    DE(int)     intcor
     18.38     -20.55       1.95        0.00      94.97       1.00       0.03       2.15       ----

> <Gold.Chemscore.Fitness>
18.3814

> <Gold.Chemscore.DG>
-20.5549

> <Gold.Chemscore.ZeroCoef>
-5.4800

> <Gold.Chemscore.Hbond>
1.9532

> <Gold.Chemscore.Metal>
0.0000

> <Gold.Chemscore.Lipo>
94.9664

> <Gold.Chemscore.Internal_Hbond>
0.0000

> <Gold.Chemscore.DEClash>
0.0254

> <Gold.Chemscore.DEInternal>
2.1481

> <Gold.Chemscore.Rot>
1.0000

> <Gold.Chemscore.Internal.Correction>
   9.000000E+99

> <Gold.Chemscore.Hbonds>
donor molecule, donor type, donor heavy atom, donor atom, acceptor molecule, acceptor atom, score
      P1  H  7997  8010       L1     8  1.00
      P1  H 10752 10764       L1     3  0.65

> <Gold.Chemscore.Hbond.Weighted>
-6.5238

> <Gold.Chemscore.Metal.Weighted>
-0.0000

> <Gold.Chemscore.Lipo.Weighted>
-11.1111

> <Gold.Chemscore.Internal_Hbond.Weighted>
0.0000

> <Gold.Chemscore.DEClash.Weighted>
0.0254

> <Gold.Chemscore.DEInternal.Weighted>
2.1481

> <Gold.Chemscore.Rot.Weighted>
2.5600

> <Gold.Chemscore.Internal.Correction.Weighted>
   9.000000E+99

> <Gold.Protein.RotatedTorsions>
[ 6907 6896 6895 6894 ] final -132.71 input  -60.11 | X-H torsion
[ 7974 7965 7964 7962 ] final   59.73 input  175.53 | X-H torsion
[ 8008 7997 7996 7995 ] final   73.76 input   59.86 | X-H torsion
[ 10167 10162 10161 10158 ] final  145.79 input  -65.29 | X-H torsion
[ 10718 10713 10712 10709 ] final  -23.69 input   66.30 | X-H torsion
[ 10763 10752 10751 10750 ] final  -51.32 input  -60.55 | X-H torsion
[ 11005 11000 10999 10996 ] final  -16.95 input  -57.11 | X-H torsion

> <Gold.Protein.ActiveResidues>
 VAL166  LYS551  ARG553  GLY616  TRP617  ASP618  TYR619  PRO620  LYS621  CYS622 
 ASP623  PHE694  ASN695  SER759  ASP760  ASP761  ALA762  ILE779  LEU786  VAL792 
 PHE793  MET794  SER795  GLU796  ALA797  LYS798  CYS799  TRP800  GLU811  SER814 

> <Gold.Protein.RotatedAtoms>
  150.9655  133.6399  159.2746 H   0  0  0  0  0  0  0  0  0  0  0  0  # atno 6907 bound_to 6896
  151.3707  135.0921  159.9474 H   0  0  0  0  0  0  0  0  0  0  0  0  # atno 6908 bound_to 6896
  152.5164  133.9210  159.7589 H   0  0  0  0  0  0  0  0  0  0  0  0  # atno 6909 bound_to 6896
  145.9039  139.3602  143.0576 H   0  0  0  0  0  0  0  0  0  0  0  0  # atno 7974 bound_to 7965
  155.7883  140.3480  155.5335 H   0  0  0  0  0  0  0  0  0  0  0  0  # atno 8008 bound_to 7997
  155.8659  140.0979  157.1603 H   0  0  0  0  0  0  0  0  0  0  0  0  # atno 8009 bound_to 7997
  154.4014  140.1349  156.4006 H   0  0  0  0  0  0  0  0  0  0  0  0  # atno 8010 bound_to 7997
  139.4919  144.5876  151.6747 H   0  0  0  0  0  0  0  0  0  0  0  0  # atno 10167 bound_to 10162
  156.4877  130.4559  149.6774 H   0  0  0  0  0  0  0  0  0  0  0  0  # atno 10718 bound_to 10713
  154.1246  135.6529  153.4910 H   0  0  0  0  0  0  0  0  0  0  0  0  # atno 10763 bound_to 10752
  153.0214  135.5278  154.7062 H   0  0  0  0  0  0  0  0  0  0  0  0  # atno 10764 bound_to 10752
  154.6279  135.2972  155.0220 H   0  0  0  0  0  0  0  0  0  0  0  0  # atno 10765 bound_to 10752
  140.8119  133.8134  155.9572 H   0  0  0  0  0  0  0  0  0  0  0  0  # atno 11005 bound_to 11000
  145.8757  140.9393  143.0627 LP  0  0  0  0  0  0  0  0  0  0  0  0  # atno 17320 bound_to 7965
  144.6738  140.0713  143.7473 LP  0  0  0  0  0  0  0  0  0  0  0  0  # atno 17321 bound_to 7965
  140.5496  144.0448  150.6121 LP  0  0  0  0  0  0  0  0  0  0  0  0  # atno 17342 bound_to 10162
  140.3497  143.2970  152.0500 LP  0  0  0  0  0  0  0  0  0  0  0  0  # atno 17343 bound_to 10162
  156.3458  130.7406  151.2358 LP  0  0  0  0  0  0  0  0  0  0  0  0  # atno 17370 bound_to 10713
  157.7477  131.0391  150.4534 LP  0  0  0  0  0  0  0  0  0  0  0  0  # atno 17371 bound_to 10713
  140.9189  134.2167  157.4939 LP  0  0  0  0  0  0  0  0  0  0  0  0  # atno 17394 bound_to 11000
  139.8713  134.9783  156.4993 LP  0  0  0  0  0  0  0  0  0  0  0  0  # atno 17395 bound_to 11000

$$$$
