AV-unprocessed.smi:2865|AV-procd|sdf|11015|dock5
  -GOLD-   2272015473D 1   1.00000     0.00000
 Structure written by MMmdl.
 38 41  0  0  0  0  0  0  0  0  1 V2000
  146.4478  137.0245  153.1962 O   0  0  0  0  0  0  0  0  0  0  0  0
  145.7630  137.9570  152.7823 C   0  0  0  0  0  0  0  0  0  0  0  0
  146.0365  139.2608  152.9838 N   0  0  0  0  0  0  0  0  0  0  0  0
  147.1600  139.8471  153.6259 C   0  0  0  0  0  0  0  0  0  0  0  0
  147.2267  141.1777  154.1085 C   0  0  0  0  0  0  0  0  0  0  0  0
  148.3295  141.6533  154.7268 N   0  0  0  0  0  0  0  0  0  0  0  0
  149.3608  140.8147  154.8590 C   0  0  0  0  0  0  0  0  0  0  0  0
  150.5643  141.3372  155.5809 C   0  0  0  0  0  0  0  0  0  0  0  0
  151.7462  140.4355  155.8733 C   0  0  0  0  0  0  0  0  0  0  0  0
  150.8675  140.9019  157.0002 C   0  0  0  0  0  0  0  0  0  0  0  0
  149.4044  139.5392  154.4649 N   0  0  0  0  0  0  0  0  0  0  0  0
  148.3063  139.0551  153.8461 C   0  0  0  0  0  0  0  0  0  0  0  0
  144.6285  137.7342  152.0955 N   0  0  0  0  0  0  0  0  0  0  0  0
  144.0461  136.4478  151.7093 C   0  0  2  0  0  0  0  0  0  0  0  0
  143.7407  135.5452  152.9120 C   0  0  0  0  0  0  0  0  0  0  0  0
  144.5826  134.3018  152.5962 C   0  0  1  0  0  0  0  0  0  0  0  0
  144.0274  133.5146  151.3999 C   0  0  0  0  0  0  0  0  0  0  0  0
  144.3980  134.4212  150.2258 C   0  0  0  0  0  0  0  0  0  0  0  0
  145.0739  135.5964  150.9441 C   0  0  2  0  0  0  0  0  0  0  0  0
  145.7168  134.9092  152.0050 O   0  0  0  0  0  0  0  0  0  0  0  0
  145.3397  139.9120  152.6530 H   0  0  0  0  0  0  0  0  0  0  0  0
  146.4055  141.8724  154.0304 H   0  0  0  0  0  0  0  0  0  0  0  0
  150.7697  142.3715  155.3113 H   0  0  0  0  0  0  0  0  0  0  0  0
  151.6724  139.3895  155.5815 H   0  0  0  0  0  0  0  0  0  0  0  0
  152.7398  140.8722  155.7962 H   0  0  0  0  0  0  0  0  0  0  0  0
  151.2731  141.6502  157.6780 H   0  0  0  0  0  0  0  0  0  0  0  0
  150.2094  140.1659  157.4580 H   0  0  0  0  0  0  0  0  0  0  0  0
  148.3440  138.0240  153.5263 H   0  0  0  0  0  0  0  0  0  0  0  0
  144.0952  138.5500  151.8312 H   0  0  0  0  0  0  0  0  0  0  0  0
  143.1624  136.6121  151.0899 H   0  0  0  0  0  0  0  0  0  0  0  0
  144.0721  135.9971  153.8483 H   0  0  0  0  0  0  0  0  0  0  0  0
  142.6791  135.3144  153.0068 H   0  0  0  0  0  0  0  0  0  0  0  0
  144.8052  133.6859  153.4678 H   0  0  0  0  0  0  0  0  0  0  0  0
  144.5233  132.5479  151.3059 H   0  0  0  0  0  0  0  0  0  0  0  0
  142.9538  133.3424  151.4805 H   0  0  0  0  0  0  0  0  0  0  0  0
  145.1013  133.9180  149.5613 H   0  0  0  0  0  0  0  0  0  0  0  0
  143.5334  134.7304  149.6373 H   0  0  0  0  0  0  0  0  0  0  0  0
  145.7468  136.1682  150.3038 H   0  0  0  0  0  0  0  0  0  0  0  0
  1  2  2  0  0  0  0
  2  3  1  0  0  0  0
  2 13  1  0  0  0  0
  3  4  1  0  0  0  0
  3 21  1  0  0  0  0
  4 12  1  0  0  0  0
  4  5  2  0  0  0  0
  5  6  1  0  0  0  0
  5 22  1  0  0  0  0
  6  7  2  0  0  0  0
  7  8  1  0  0  0  0
  7 11  1  0  0  0  0
  8 10  1  0  0  0  0
  8  9  1  0  0  0  0
  8 23  1  0  0  0  0
  9 10  1  0  0  0  0
  9 24  1  0  0  0  0
  9 25  1  0  0  0  0
 10 26  1  0  0  0  0
 10 27  1  0  0  0  0
 11 12  2  0  0  0  0
 12 28  1  0  0  0  0
 13 14  1  0  0  0  0
 13 29  1  0  0  0  0
 14 19  1  0  0  0  0
 14 15  1  0  0  0  0
 14 30  1  0  0  0  0
 15 16  1  0  0  0  0
 15 31  1  0  0  0  0
 15 32  1  0  0  0  0
 16 20  1  0  0  0  0
 16 17  1  0  0  0  0
 16 33  1  0  0  0  0
 17 18  1  0  0  0  0
 17 34  1  0  0  0  0
 17 35  1  0  0  0  0
 18 19  1  0  0  0  0
 18 36  1  0  0  0  0
 18 37  1  0  0  0  0
 19 20  1  0  0  0  0
 19 38  1  0  0  0  0
M  END
> <s_m_source_file>
AV-unprocessed.smi

> <i_m_source_file_index>
2865

> <i_lp_mmshare_version>
43012

> <i_f3d_flags>
0

> <s_epik_input>
W0NIMl0xW0NIMl1bQ0BIXShPMilbQ0BASF0oW0NIMl1bQ0BASF0xMilbTkhdQyg9TylbTkhdYzNbY0hdbmMobltjSF0zKVtDSF00W0NIMl1bQ0gyXTQ=

> <s_epik_cmdline>
J2VwaWtfcHl0aG9uJywgJy1waCcsICc3LjAnLCAnLXRuJywgJzgnLCAnLW1hJywgJzIwMCcsICctbWV0YWxfYmluZGluZycsICctaW1hZScsICc8aW5maWxlLm1hZT4nLCAnLW9tYWUnLCAnPG91dGZpbGUubWFlPic=

> <r_lp_tautomer_probability>
1

> <r_epik_Ionization_Penalty>
2.43104e-05

> <r_epik_Ionization_Penalty_Charging>
0

> <r_epik_Ionization_Penalty_Neutral>
2.43104e-05

> <r_epik_State_Penalty>
-0

> <r_epik_Charging_Adjusted_Penalty>
0

> <i_epik_Tot_Q>
0

> <i_epik_Tot_abs_Q>
0

> <r_epik_Metal_State_Penalty>
-0

> <b_epik_Metal_Only>
0

> <s_lp_Force_Field>
OPLS_2005

> <r_lp_Energy>
45.9934

> <b_lp_Chiralities_Consistent>
1

> <s_lp_Variant>
AV-unprocessed.smi:2865-1

> <Gold.Version>
5.8.1

> <Gold.Id.Protein>
6NUR|6NUR_protein|mol2

> <Gold.PLP.Fitness>
39.5331

> <Gold.PLP.PLP>
-31.3511

> <Gold.PLP.part.hbond>
-3.0000

> <Gold.PLP.part.metal>
0.0000

> <Gold.PLP.part.buried>
-1.8521

> <Gold.PLP.part.nonpolar>
-26.3979

> <Gold.PLP.part.repulsive>
1.5564

> <Gold.PLP.ligand.clash>
0.0000

> <Gold.PLP.ligand.torsion>
0.2541

> <Gold.PLP.Chemscore.Hbond>
1.8480

> <Gold.PLP.Chemscore.CHOScore>
1.0000

> <Gold.PLP.Chemscore.Metal>
0.0000

> <Gold.Chemscore.Hbonds>
donor molecule, donor type, donor heavy atom, donor atom, acceptor molecule, acceptor atom, score
      L1  H     3    21       P1 10175  1.00
      L1  H    13    29       P1 10175  0.85
      L1  C    12    28       P1  7948  1.00

> <Gold.PLP.Chemscore.Internal.Correction>
0.1462

> <Gold.Rescore>
     Score         DG    S(hbond)    S(metal)    S(lipo)     H(rot)  DE(clash)    DE(int)     intcor
     11.86     -16.36       1.95        0.00      63.60       1.20       0.21       4.29       ----

> <Gold.Chemscore.Fitness>
11.8602

> <Gold.Chemscore.DG>
-16.3564

> <Gold.Chemscore.ZeroCoef>
-5.4800

> <Gold.Chemscore.Hbond>
1.9490

> <Gold.Chemscore.Metal>
0.0000

> <Gold.Chemscore.Lipo>
63.6048

> <Gold.Chemscore.Internal_Hbond>
0.0000

> <Gold.Chemscore.DEClash>
0.2053

> <Gold.Chemscore.DEInternal>
4.2909

> <Gold.Chemscore.Rot>
1.2012

> <Gold.Chemscore.Internal.Correction>
   9.000000E+99

> <Gold.Chemscore.Hbonds>
donor molecule, donor type, donor heavy atom, donor atom, acceptor molecule, acceptor atom, score
      L1  H     3    21       P1 10175  0.96
      L1  H    13    29       P1 10175  0.79

> <Gold.Chemscore.Hbond.Weighted>
-6.5098

> <Gold.Chemscore.Metal.Weighted>
-0.0000

> <Gold.Chemscore.Lipo.Weighted>
-7.4418

> <Gold.Chemscore.Internal_Hbond.Weighted>
0.0000

> <Gold.Chemscore.DEClash.Weighted>
0.2053

> <Gold.Chemscore.DEInternal.Weighted>
4.2909

> <Gold.Chemscore.Rot.Weighted>
3.0752

> <Gold.Chemscore.Internal.Correction.Weighted>
   9.000000E+99

> <Gold.Protein.RotatedTorsions>
[ 6907 6896 6895 6894 ] final -135.88 input  -60.11 | X-H torsion
[ 7974 7965 7964 7962 ] final  156.11 input  175.53 | X-H torsion
[ 8008 7997 7996 7995 ] final  -56.45 input   59.86 | X-H torsion
[ 10167 10162 10161 10158 ] final   82.35 input  -65.29 | X-H torsion
[ 10718 10713 10712 10709 ] final  -93.93 input   66.30 | X-H torsion
[ 10763 10752 10751 10750 ] final   20.44 input  -60.55 | X-H torsion
[ 11005 11000 10999 10996 ] final  -36.19 input  -57.11 | X-H torsion

> <Gold.Protein.ActiveResidues>
 VAL166  LYS551  ARG553  GLY616  TRP617  ASP618  TYR619  PRO620  LYS621  CYS622 
 ASP623  PHE694  ASN695  SER759  ASP760  ASP761  ALA762  ILE779  LEU786  VAL792 
 PHE793  MET794  SER795  GLU796  ALA797  LYS798  CYS799  TRP800  GLU811  SER814 

> <Gold.Protein.RotatedAtoms>
  151.0033  133.6035  159.2691 H   0  0  0  0  0  0  0  0  0  0  0  0  # atno 6907 bound_to 6896
  151.3214  135.0818  159.9317 H   0  0  0  0  0  0  0  0  0  0  0  0  # atno 6908 bound_to 6896
  152.5280  133.9679  159.7802 H   0  0  0  0  0  0  0  0  0  0  0  0  # atno 6909 bound_to 6896
  144.7983  139.7159  143.6192 H   0  0  0  0  0  0  0  0  0  0  0  0  # atno 7974 bound_to 7965
  154.4231  140.1129  156.5640 H   0  0  0  0  0  0  0  0  0  0  0  0  # atno 8008 bound_to 7997
  155.6282  140.3495  155.4655 H   0  0  0  0  0  0  0  0  0  0  0  0  # atno 8009 bound_to 7997
  155.9969  140.1191  157.0574 H   0  0  0  0  0  0  0  0  0  0  0  0  # atno 8010 bound_to 7997
  139.9297  144.6160  150.8357 H   0  0  0  0  0  0  0  0  0  0  0  0  # atno 10167 bound_to 10162
  156.0020  130.5047  150.5850 H   0  0  0  0  0  0  0  0  0  0  0  0  # atno 10718 bound_to 10713
  153.1077  135.6689  153.9557 H   0  0  0  0  0  0  0  0  0  0  0  0  # atno 10763 bound_to 10752
  153.9109  135.3025  155.3450 H   0  0  0  0  0  0  0  0  0  0  0  0  # atno 10764 bound_to 10752
  154.7498  135.5040  153.9344 H   0  0  0  0  0  0  0  0  0  0  0  0  # atno 10765 bound_to 10752
  140.9855  133.7033  156.1758 H   0  0  0  0  0  0  0  0  0  0  0  0  # atno 11005 bound_to 11000
  146.2257  139.5719  142.9588 LP  0  0  0  0  0  0  0  0  0  0  0  0  # atno 17320 bound_to 7965
  145.5617  141.0403  143.2222 LP  0  0  0  0  0  0  0  0  0  0  0  0  # atno 17321 bound_to 7965
  140.7641  143.3239  151.2560 LP  0  0  0  0  0  0  0  0  0  0  0  0  # atno 17342 bound_to 10162
  139.6793  143.9883  152.2799 LP  0  0  0  0  0  0  0  0  0  0  0  0  # atno 17343 bound_to 10162
  157.3724  131.0768  151.1546 LP  0  0  0  0  0  0  0  0  0  0  0  0  # atno 17370 bound_to 10713
  157.2295  130.6518  149.5844 LP  0  0  0  0  0  0  0  0  0  0  0  0  # atno 17371 bound_to 10713
  140.7120  134.4451  157.5581 LP  0  0  0  0  0  0  0  0  0  0  0  0  # atno 17394 bound_to 11000
  139.8969  134.8649  156.2068 LP  0  0  0  0  0  0  0  0  0  0  0  0  # atno 17395 bound_to 11000

$$$$
