#       Name:                AV-unprocessed.smi:494
#       Creating user name   scv26
#       Creation time:       Thu Mar 26 23:15:53 2020


#       File generated by GOLD software.
#

@<TRIPOS>MOLECULE
AV-unprocessed.smi:494
    54    55     1
SMALL
NO_CHARGES


@<TRIPOS>ATOM
      1 ****        -3.4008   4.2062   0.7788 C.3            1 S1                 0.0000
      2 ****        -3.5185   2.8652   1.4446 C.2            1 S1                 0.0000
      3 ****        -3.9459   2.7976   2.6940 N.2            1 S1                 0.0000
      4 ****        -3.9461   1.4397   3.0268 O.3            1 S1                 0.0000
      5 ****        -3.5162   0.7339   1.9505 C.2            1 S1                 0.0000
      6 ****        -3.4398  -0.7476   2.1074 C.3            1 S1                 0.0000
      7 ****        -3.2264   1.5761   0.9120 C.2            1 S1                 0.0000
      8 ****        -2.7183   1.2322  -0.4652 C.3            1 S1                 0.0000
      9 ****        -1.1935   1.3395  -0.5019 C.2            1 S1                 0.0000
     10 ****        -0.6538   2.2216  -1.1679 O.2            1 S1                 0.0000
     11 ****        -0.5129   0.4274   0.2096 N.am           1 S1                 0.0000
     12 ****         0.9405   0.3492   0.3504 C.3            1 S1                 0.0000
     13 ****         1.6033  -0.6822  -0.6190 C.3            1 S1                 0.0000
     14 ****         1.3139  -0.2481  -2.0381 N.4            1 S1                 1.0000
     15 ****         1.3523  -1.3066  -3.0794 C.3            1 S1                 0.0000
     16 ****         2.0610   0.9505  -2.5027 C.3            1 S1                 0.0000
     17 ****         3.1399  -0.7437  -0.3609 C.3            1 S1                 0.0000
     18 ****         3.5242  -1.3214   1.0161 C.3            1 S1                 0.0000
     19 ****         2.8953  -2.7003   1.2560 C.3            1 S1                 0.0000
     20 ****         1.3742  -2.6601   1.0605 C.3            1 S1                 0.0000
     21 ****         1.0193  -2.1063  -0.3310 C.3            1 S1                 0.0000
     22 ****        -4.3674   4.5393   0.4007 H              1 S1                 0.0000
     23 ****        -2.7091   4.1722  -0.0628 H              1 S1                 0.0000
     24 ****        -3.0341   4.9634   1.4724 H              1 S1                 0.0000
     25 ****        -2.4080  -1.0667   2.2540 H              1 S1                 0.0000
     26 ****        -3.8275  -1.2515   1.2219 H              1 S1                 0.0000
     27 ****        -4.0224  -1.0825   2.9659 H              1 S1                 0.0000
     28 ****        -3.0066   0.2216  -0.7568 H              1 S1                 0.0000
     29 ****        -3.1432   1.8953  -1.2197 H              1 S1                 0.0000
     30 ****        -1.0509  -0.2534   0.7262 H              1 S1                 0.0000
     31 ****         1.3823   1.3397   0.2440 H              1 S1                 0.0000
     32 ****         1.1290   0.0903   1.3901 H              1 S1                 0.0000
     33 ****         2.3147  -1.8193  -3.0914 H              1 S1                 0.0000
     34 ****         1.1922  -0.8799  -4.0701 H              1 S1                 0.0000
     35 ****         0.5596  -2.0407  -2.9369 H              1 S1                 0.0000
     36 ****         3.1050   0.7131  -2.7100 H              1 S1                 0.0000
     37 ****         2.0340   1.7692  -1.7862 H              1 S1                 0.0000
     38 ****         1.6221   1.3293  -3.4261 H              1 S1                 0.0000
     39 ****         3.6151  -1.3534  -1.1304 H              1 S1                 0.0000
     40 ****         3.5863   0.2475  -0.4430 H              1 S1                 0.0000
     41 ****         4.6094  -1.3999   1.0877 H              1 S1                 0.0000
     42 ****         3.2250  -0.6376   1.8103 H              1 S1                 0.0000
     43 ****         3.3321  -3.4233   0.5659 H              1 S1                 0.0000
     44 ****         3.1340  -3.0505   2.2608 H              1 S1                 0.0000
     45 ****         0.9693  -3.6671   1.1656 H              1 S1                 0.0000
     46 ****         0.9062  -2.0697   1.8476 H              1 S1                 0.0000
     47 ****        -0.0626  -2.1199  -0.4666 H              1 S1                 0.0000
     48 ****         1.4184  -2.8332  -1.0379 H              1 S1                 0.0000
     49 ****         0.3474   0.0450  -2.0145 H              1 S1                 0.0000
     50 ****        -4.2142   3.5615   3.2809 LP             1 S1                 0.0000
     51 ****        -4.8722   1.1521   3.2710 LP             1 S1                 0.0000
     52 ****        -3.3330   1.2818   3.8008 LP             1 S1                 0.0000
     53 ****        -1.2124   2.8694  -1.6860 LP             1 S1                 0.0000
     54 ****         0.3435   2.2910  -1.1913 LP             1 S1                 0.0000
@<TRIPOS>BOND
    1    1    2 1     
    2    1   22 1     
    3    1   23 1     
    4    1   24 1     
    5    2    7 1     
    6    2    3 2     
    7    3    4 1     
    8    4    5 1     
    9    5    6 1     
   10    5    7 2     
   11    6   25 1     
   12    6   26 1     
   13    6   27 1     
   14    7    8 1     
   15    8    9 1     
   16    8   28 1     
   17    8   29 1     
   18    9   10 2     
   19    9   11 am    
   20   11   12 1     
   21   11   30 1     
   22   12   13 1     
   23   12   31 1     
   24   12   32 1     
   25   13   21 1     
   26   13   14 1     
   27   13   17 1     
   28   14   15 1     
   29   14   16 1     
   30   14   49 1     
   31   15   33 1     
   32   15   34 1     
   33   15   35 1     
   34   16   36 1     
   35   16   37 1     
   36   16   38 1     
   37   17   18 1     
   38   17   39 1     
   39   17   40 1     
   40   18   19 1     
   41   18   41 1     
   42   18   42 1     
   43   19   20 1     
   44   19   43 1     
   45   19   44 1     
   46   20   21 1     
   47   20   45 1     
   48   20   46 1     
   49   21   47 1     
   50   21   48 1     
   51    3   50 1     
   52    4   51 1     
   53    4   52 1     
   54   10   53 1     
   55   10   54 1     
@<TRIPOS>SUBSTRUCTURE
      1 S1             1
@<TRIPOS>SET
LONE_PAIRS      STATIC     ATOMS    <user>   **** ""
5 50 51 52 53 54
DONOR_HYDROGENS      STATIC     ATOMS    <user>   **** ""
2 30 49
ATOM$BLUE        STATIC     ATOMS    COLORGROUP SYSTEM
5 50 51 52 53 54
ATOM$RED        STATIC     ATOMS    COLORGROUP SYSTEM
2 30 49
