AV-unprocessed.smi:1507|AV-procd|sdf|6085|dock7
  -GOLD-   22720 6203D 1   1.00000     0.00000
 Structure written by MMmdl.
 33 34  0  0  0  0  0  0  0  0  4 V2000
  150.7241  135.6713  154.0306 N   0  5  0  0  0  0  0  0  0  0  0  0
  151.1255  136.7709  155.1494 S   0  0  0  0  0  0  0  0  0  0  0  0
  149.9500  137.0883  155.9736 O   0  0  0  0  0  0  0  0  0  0  0  0
  152.3265  136.3576  155.8969 O   0  0  0  0  0  0  0  0  0  0  0  0
  151.4108  137.9880  154.0978 N   0  5  0  0  0  0  0  0  0  0  0  0
  150.5509  139.1659  153.9953 C   0  0  0  0  0  0  0  0  0  0  0  0
  150.7903  140.1674  155.1171 C   0  0  0  0  0  0  0  0  0  0  0  0
  151.7780  139.9332  156.1002 C   0  0  0  0  0  0  0  0  0  0  0  0
  151.9503  140.8621  157.1473 C   0  0  0  0  0  0  0  0  0  0  0  0
  151.1364  142.0193  157.2075 C   0  0  0  0  0  0  0  0  0  0  0  0
  151.2569  142.9769  158.2384 N   0  0  0  0  0  0  0  0  0  0  0  0
  151.5639  144.3546  157.8576 C   0  0  0  0  0  0  0  0  0  0  0  0
  151.3656  145.3000  159.0538 C   0  0  0  0  0  0  0  0  0  0  0  0
  152.1417  144.8446  160.1564 O   0  0  0  0  0  0  0  0  0  0  0  0
  151.7391  143.5490  160.5863 C   0  0  0  0  0  0  0  0  0  0  0  0
  151.9457  142.5347  159.4484 C   0  0  0  0  0  0  0  0  0  0  0  0
  150.2032  142.1976  156.2398 N   0  3  0  0  0  0  0  0  0  0  0  0
  150.0037  141.3354  155.2191 C   0  0  0  0  0  0  0  0  0  0  0  0
  150.1311  136.1289  153.3283 H   0  0  0  0  0  0  0  0  0  0  0  0
  150.7175  139.6906  153.0539 H   0  0  0  0  0  0  0  0  0  0  0  0
  149.4940  138.8973  153.9850 H   0  0  0  0  0  0  0  0  0  0  0  0
  152.3937  139.0444  156.0760 H   0  0  0  0  0  0  0  0  0  0  0  0
  152.6908  140.6569  157.9049 H   0  0  0  0  0  0  0  0  0  0  0  0
  152.5943  144.4095  157.5039 H   0  0  0  0  0  0  0  0  0  0  0  0
  150.9186  144.6751  157.0387 H   0  0  0  0  0  0  0  0  0  0  0  0
  151.6800  146.3097  158.7901 H   0  0  0  0  0  0  0  0  0  0  0  0
  150.3126  145.3580  159.3342 H   0  0  0  0  0  0  0  0  0  0  0  0
  152.3325  143.2636  161.4549 H   0  0  0  0  0  0  0  0  0  0  0  0
  150.6960  143.5674  160.9063 H   0  0  0  0  0  0  0  0  0  0  0  0
  151.5938  141.5599  159.7819 H   0  0  0  0  0  0  0  0  0  0  0  0
  153.0093  142.4316  159.2292 H   0  0  0  0  0  0  0  0  0  0  0  0
  149.2097  141.6026  154.5349 H   0  0  0  0  0  0  0  0  0  0  0  0
  149.6087  143.0248  156.2874 H   0  0  0  0  0  0  0  0  0  0  0  0
  1  2  1  0  0  0  0
  1 19  1  0  0  0  0
  2  3  2  0  0  0  0
  2  4  2  0  0  0  0
  2  5  1  0  0  0  0
  5  6  1  0  0  0  0
  6  7  1  0  0  0  0
  6 20  1  0  0  0  0
  6 21  1  0  0  0  0
  7 18  1  0  0  0  0
  7  8  2  0  0  0  0
  8  9  1  0  0  0  0
  8 22  1  0  0  0  0
  9 10  2  0  0  0  0
  9 23  1  0  0  0  0
 10 11  1  0  0  0  0
 10 17  1  0  0  0  0
 11 16  1  0  0  0  0
 11 12  1  0  0  0  0
 12 13  1  0  0  0  0
 12 24  1  0  0  0  0
 12 25  1  0  0  0  0
 13 14  1  0  0  0  0
 13 26  1  0  0  0  0
 13 27  1  0  0  0  0
 14 15  1  0  0  0  0
 15 16  1  0  0  0  0
 15 28  1  0  0  0  0
 15 29  1  0  0  0  0
 16 30  1  0  0  0  0
 16 31  1  0  0  0  0
 17 18  2  0  0  0  0
 17 33  1  0  0  0  0
 18 32  1  0  0  0  0
M  CHG  1   1  -1
M  CHG  1   5  -1
M  CHG  1  17   1
M  END
> <s_m_source_file>
AV-unprocessed.smi

> <i_m_source_file_index>
1507

> <i_lp_mmshare_version>
43012

> <i_f3d_flags>
0

> <s_epik_input>
W05IMl1TKD1PKSg9TylbTkhdW0NIMl1jMVtjSF1bY0hdYyhuW2NIXTEpTjJbQ0gyXVtDSDJdT1tDSDJdW0NIMl0y

> <s_epik_cmdline>
J2VwaWtfcHl0aG9uJywgJy1waCcsICc3LjAnLCAnLXRuJywgJzgnLCAnLW1hJywgJzIwMCcsICctbWV0YWxfYmluZGluZycsICctaW1hZScsICc8aW5maWxlLm1hZT4nLCAnLW9tYWUnLCAnPG91dGZpbGUubWFlPic=

> <r_epik_Ionization_Penalty>
8.77184

> <r_epik_Ionization_Penalty_Charging>
8.77184

> <r_epik_Ionization_Penalty_Neutral>
3.18726e-12

> <r_epik_State_Penalty>
5.60098

> <r_epik_Charging_Adjusted_Penalty>
14.3728

> <i_epik_Tot_Q>
-1

> <i_epik_Tot_abs_Q>
3

> <r_epik_Metal_State_Penalty>
2.46454

> <b_epik_Metal_Only>
1

> <s_lp_Force_Field>
OPLS_2005

> <r_lp_Energy>
15.9769

> <b_lp_Chiralities_Consistent>
1

> <s_lp_Variant>
AV-unprocessed.smi:1507-6

> <Gold.Version>
5.8.1

> <Gold.Id.Protein>
6NUR|6NUR_protein|mol2

> <Gold.PLP.Fitness>
46.8054

> <Gold.PLP.PLP>
-35.2512

> <Gold.PLP.part.hbond>
-3.9126

> <Gold.PLP.part.metal>
0.0000

> <Gold.PLP.part.buried>
-3.0148

> <Gold.PLP.part.nonpolar>
-28.6676

> <Gold.PLP.part.repulsive>
0.4690

> <Gold.PLP.ligand.clash>
0.0000

> <Gold.PLP.ligand.torsion>
0.9171

> <Gold.PLP.Chemscore.Hbond>
4.0000

> <Gold.PLP.Chemscore.CHOScore>
0.0000

> <Gold.PLP.Chemscore.Metal>
0.0000

> <Gold.Chemscore.Hbonds>
donor molecule, donor type, donor heavy atom, donor atom, acceptor molecule, acceptor atom, score
      L1  H     1    19       P1  7948  0.30
      L1  H    17    33       P1  8028  2.00
      P1  H 10752 10764       L1     4  0.93

> <Gold.PLP.Chemscore.Internal.Correction>
1.3885

> <Gold.Rescore>
     Score         DG    S(hbond)    S(metal)    S(lipo)     H(rot)  DE(clash)    DE(int)     intcor
     17.95     -19.11       2.64        0.00      82.66       1.89       0.18       0.98       ----

> <Gold.Chemscore.Fitness>
17.9534

> <Gold.Chemscore.DG>
-19.1129

> <Gold.Chemscore.ZeroCoef>
-5.4800

> <Gold.Chemscore.Hbond>
2.6366

> <Gold.Chemscore.Metal>
0.0000

> <Gold.Chemscore.Lipo>
82.6563

> <Gold.Chemscore.Internal_Hbond>
0.0000

> <Gold.Chemscore.DEClash>
0.1839

> <Gold.Chemscore.DEInternal>
0.9756

> <Gold.Chemscore.Rot>
1.8922

> <Gold.Chemscore.Internal.Correction>
   9.000000E+99

> <Gold.Chemscore.Hbonds>
donor molecule, donor type, donor heavy atom, donor atom, acceptor molecule, acceptor atom, score
      L1  H    17    33       P1  8028  0.97
      P1  H 10752 10764       L1     4  0.22

> <Gold.Chemscore.Hbond.Weighted>
-8.8062

> <Gold.Chemscore.Metal.Weighted>
-0.0000

> <Gold.Chemscore.Lipo.Weighted>
-9.6708

> <Gold.Chemscore.Internal_Hbond.Weighted>
0.0000

> <Gold.Chemscore.DEClash.Weighted>
0.1839

> <Gold.Chemscore.DEInternal.Weighted>
0.9756

> <Gold.Chemscore.Rot.Weighted>
4.8441

> <Gold.Chemscore.Internal.Correction.Weighted>
   9.000000E+99

> <Gold.Protein.RotatedTorsions>
[ 6907 6896 6895 6894 ] final  -11.22 input  -60.11 | X-H torsion
[ 7974 7965 7964 7962 ] final  172.89 input  175.53 | X-H torsion
[ 8008 7997 7996 7995 ] final  -18.68 input   59.86 | X-H torsion
[ 10167 10162 10161 10158 ] final -168.06 input  -65.29 | X-H torsion
[ 10718 10713 10712 10709 ] final  171.61 input   66.30 | X-H torsion
[ 10763 10752 10751 10750 ] final  -44.97 input  -60.55 | X-H torsion
[ 11005 11000 10999 10996 ] final -120.33 input  -57.11 | X-H torsion

> <Gold.Protein.ActiveResidues>
 VAL166  LYS551  ARG553  GLY616  TRP617  ASP618  TYR619  PRO620  LYS621  CYS622 
 ASP623  PHE694  ASN695  SER759  ASP760  ASP761  ALA762  ILE779  LEU786  VAL792 
 PHE793  MET794  SER795  GLU796  ALA797  LYS798  CYS799  TRP800  GLU811  SER814 

> <Gold.Protein.RotatedAtoms>
  151.3896  135.0954  159.9521 H   0  0  0  0  0  0  0  0  0  0  0  0  # atno 6907 bound_to 6896
  152.5084  133.8993  159.7443 H   0  0  0  0  0  0  0  0  0  0  0  0  # atno 6908 bound_to 6896
  150.9443  133.6565  159.2813 H   0  0  0  0  0  0  0  0  0  0  0  0  # atno 6909 bound_to 6896
  144.7257  139.9567  143.6433 H   0  0  0  0  0  0  0  0  0  0  0  0  # atno 7974 bound_to 7965
  154.4889  140.2109  155.9593 H   0  0  0  0  0  0  0  0  0  0  0  0  # atno 8008 bound_to 7997
  156.1276  140.3202  155.8269 H   0  0  0  0  0  0  0  0  0  0  0  0  # atno 8009 bound_to 7997
  155.4355  140.0506  157.3005 H   0  0  0  0  0  0  0  0  0  0  0  0  # atno 8010 bound_to 7997
  139.6009  144.1013  152.1741 H   0  0  0  0  0  0  0  0  0  0  0  0  # atno 10167 bound_to 10162
  156.9910  131.0147  151.2856 H   0  0  0  0  0  0  0  0  0  0  0  0  # atno 10718 bound_to 10713
  154.0208  135.6669  153.4772 H   0  0  0  0  0  0  0  0  0  0  0  0  # atno 10763 bound_to 10752
  153.0581  135.5044  154.8025 H   0  0  0  0  0  0  0  0  0  0  0  0  # atno 10764 bound_to 10752
  154.6939  135.3066  154.9405 H   0  0  0  0  0  0  0  0  0  0  0  0  # atno 10765 bound_to 10752
  141.0151  134.0207  157.3361 H   0  0  0  0  0  0  0  0  0  0  0  0  # atno 11005 bound_to 11000
  146.0669  139.3660  143.0546 LP  0  0  0  0  0  0  0  0  0  0  0  0  # atno 17320 bound_to 7965
  145.8019  140.9767  143.0994 LP  0  0  0  0  0  0  0  0  0  0  0  0  # atno 17321 bound_to 7965
  140.0609  144.5857  150.7264 LP  0  0  0  0  0  0  0  0  0  0  0  0  # atno 17342 bound_to 10162
  140.7249  143.2625  151.4155 LP  0  0  0  0  0  0  0  0  0  0  0  0  # atno 17343 bound_to 10162
  157.5459  130.8150  149.8085 LP  0  0  0  0  0  0  0  0  0  0  0  0  # atno 17370 bound_to 10713
  156.0207  130.3796  150.1971 LP  0  0  0  0  0  0  0  0  0  0  0  0  # atno 17371 bound_to 10713
  139.9112  135.0190  156.7699 LP  0  0  0  0  0  0  0  0  0  0  0  0  # atno 17394 bound_to 11000
  140.6668  133.9595  155.7835 LP  0  0  0  0  0  0  0  0  0  0  0  0  # atno 17395 bound_to 11000

$$$$
