AV-unprocessed.smi:193|AV-procd|sdf|1516|dock2
  -GOLD-   2262019353D 1   1.00000     0.00000
 Structure written by MMmdl.
 61 65  0  0  0  0  0  0  0  0  1 V2000
  146.7670  141.9080  153.6662 C   0  0  0  0  0  0  0  0  0  0  0  0
  147.4426  140.6546  154.2408 C   0  0  2  0  0  0  0  0  0  0  0  0
  146.5600  140.0141  155.3330 C   0  0  0  0  0  0  0  0  0  0  0  0
  146.8307  138.5806  155.4673 N   0  0  0  0  0  0  0  0  0  0  0  0
  146.2359  137.7219  154.5888 C   0  0  0  0  0  0  0  0  0  0  0  0
  145.4423  138.2611  153.6253 N   0  0  0  0  0  0  0  0  0  0  0  0
  144.8207  137.4871  152.7329 C   0  0  0  0  0  0  0  0  0  0  0  0
  144.8502  136.1602  152.6193 N   0  0  0  0  0  0  0  0  0  0  0  0
  145.6421  135.6013  153.5770 C   0  0  0  0  0  0  0  0  0  0  0  0
  146.3684  136.2970  154.5892 C   0  0  0  0  0  0  0  0  0  0  0  0
  147.0746  135.3751  155.3570 N   0  0  0  0  0  0  0  0  0  0  0  0
  146.7794  134.2160  154.8389 C   0  0  0  0  0  0  0  0  0  0  0  0
  145.9130  134.2579  153.7727 N   0  0  0  0  0  0  0  0  0  0  0  0
  145.4162  133.1232  153.0088 C   0  0  0  0  0  0  0  0  0  0  0  0
  146.1012  132.9341  151.6267 C   0  0  0  0  0  0  0  0  0  0  0  0
  147.4865  132.7557  151.8548 O   0  0  0  0  0  0  0  0  0  0  0  0
  145.5850  131.6726  150.9069 C   0  0  0  0  0  0  0  0  0  0  0  0
  144.1693  131.8838  150.3388 C   0  0  0  0  0  0  0  0  0  0  0  0
  144.1516  133.0156  149.4748 O   0  0  0  0  0  0  0  0  0  0  0  0
  144.5026  134.2295  150.1306 C   0  0  0  0  0  0  0  0  0  0  0  0
  145.9405  134.1344  150.6696 C   0  0  0  0  0  0  0  0  0  0  0  0
  148.0648  138.2137  156.1504 C   0  0  0  0  0  0  0  0  0  0  0  0
  149.3213  138.7024  155.4077 C   0  0  0  0  0  0  0  0  0  0  0  0
  149.5024  140.1227  155.6910 N   0  0  0  0  0  0  0  0  0  0  0  0
  150.9213  140.4430  155.7717 C   0  0  2  0  0  0  0  0  0  0  0  0
  151.8594  139.3572  156.2503 C   0  0  0  0  0  0  0  0  0  0  0  0
  151.5740  140.5443  157.1390 C   0  0  2  0  0  0  0  0  0  0  0  0
  150.8084  140.3571  158.4349 C   0  0  0  0  0  0  0  0  0  0  0  0
  148.8873  140.9992  154.6888 C   0  0  0  0  0  0  0  0  0  0  0  0
  146.6323  142.6724  154.4323 H   0  0  0  0  0  0  0  0  0  0  0  0
  145.7850  141.6722  153.2551 H   0  0  0  0  0  0  0  0  0  0  0  0
  147.3624  142.3414  152.8621 H   0  0  0  0  0  0  0  0  0  0  0  0
  147.5135  139.9454  153.4145 H   0  0  0  0  0  0  0  0  0  0  0  0
  146.7359  140.5063  156.2904 H   0  0  0  0  0  0  0  0  0  0  0  0
  145.5060  140.1870  155.1167 H   0  0  0  0  0  0  0  0  0  0  0  0
  144.2111  138.0051  152.0073 H   0  0  0  0  0  0  0  0  0  0  0  0
  147.1835  133.2925  155.2273 H   0  0  0  0  0  0  0  0  0  0  0  0
  145.5435  132.2252  153.6150 H   0  0  0  0  0  0  0  0  0  0  0  0
  144.3402  133.2507  152.8939 H   0  0  0  0  0  0  0  0  0  0  0  0
  147.7954  132.0545  151.3019 H   0  0  0  0  0  0  0  0  0  0  0  0
  146.2507  131.4233  150.0790 H   0  0  0  0  0  0  0  0  0  0  0  0
  145.5984  130.8133  151.5786 H   0  0  0  0  0  0  0  0  0  0  0  0
  143.8644  131.0064  149.7686 H   0  0  0  0  0  0  0  0  0  0  0  0
  143.4344  132.0086  151.1347 H   0  0  0  0  0  0  0  0  0  0  0  0
  144.4281  135.0466  149.4128 H   0  0  0  0  0  0  0  0  0  0  0  0
  143.7918  134.4464  150.9286 H   0  0  0  0  0  0  0  0  0  0  0  0
  146.2336  135.0695  151.1461 H   0  0  0  0  0  0  0  0  0  0  0  0
  146.6126  134.0140  149.8185 H   0  0  0  0  0  0  0  0  0  0  0  0
  148.0432  138.6322  157.1576 H   0  0  0  0  0  0  0  0  0  0  0  0
  148.1039  137.1355  156.2997 H   0  0  0  0  0  0  0  0  0  0  0  0
  150.1674  138.1444  155.8105 H   0  0  0  0  0  0  0  0  0  0  0  0
  149.2972  138.4967  154.3369 H   0  0  0  0  0  0  0  0  0  0  0  0
  151.3400  141.1000  155.0110 H   0  0  0  0  0  0  0  0  0  0  0  0
  151.4257  138.3987  156.5301 H   0  0  0  0  0  0  0  0  0  0  0  0
  152.8424  139.3035  155.7867 H   0  0  0  0  0  0  0  0  0  0  0  0
  152.3723  141.2798  157.2182 H   0  0  0  0  0  0  0  0  0  0  0  0
  150.0454  139.5845  158.3346 H   0  0  0  0  0  0  0  0  0  0  0  0
  150.3246  141.2904  158.7221 H   0  0  0  0  0  0  0  0  0  0  0  0
  151.4919  140.0626  159.2311 H   0  0  0  0  0  0  0  0  0  0  0  0
  149.5171  141.0297  153.7981 H   0  0  0  0  0  0  0  0  0  0  0  0
  148.9025  142.0086  155.1009 H   0  0  0  0  0  0  0  0  0  0  0  0
  1  2  1  0  0  0  0
  1 30  1  0  0  0  0
  1 31  1  0  0  0  0
  1 32  1  0  0  0  0
  2 29  1  0  0  0  0
  2  3  1  0  0  0  0
  2 33  1  0  0  0  0
  3  4  1  0  0  0  0
  3 34  1  0  0  0  0
  3 35  1  0  0  0  0
  4  5  1  0  0  0  0
  4 22  1  0  0  0  0
  5 10  1  0  0  0  0
  5  6  2  0  0  0  0
  6  7  1  0  0  0  0
  7  8  2  0  0  0  0
  7 36  1  0  0  0  0
  8  9  1  0  0  0  0
  9 13  1  0  0  0  0
  9 10  2  0  0  0  0
 10 11  1  0  0  0  0
 11 12  2  0  0  0  0
 12 13  1  0  0  0  0
 12 37  1  0  0  0  0
 13 14  1  0  0  0  0
 14 15  1  0  0  0  0
 14 38  1  0  0  0  0
 14 39  1  0  0  0  0
 15 21  1  0  0  0  0
 15 16  1  0  0  0  0
 15 17  1  0  0  0  0
 16 40  1  0  0  0  0
 17 18  1  0  0  0  0
 17 41  1  0  0  0  0
 17 42  1  0  0  0  0
 18 19  1  0  0  0  0
 18 43  1  0  0  0  0
 18 44  1  0  0  0  0
 19 20  1  0  0  0  0
 20 21  1  0  0  0  0
 20 45  1  0  0  0  0
 20 46  1  0  0  0  0
 21 47  1  0  0  0  0
 21 48  1  0  0  0  0
 22 23  1  0  0  0  0
 22 49  1  0  0  0  0
 22 50  1  0  0  0  0
 23 24  1  0  0  0  0
 23 51  1  0  0  0  0
 23 52  1  0  0  0  0
 24 25  1  0  0  0  0
 24 29  1  0  0  0  0
 25 27  1  0  0  0  0
 25 26  1  0  0  0  0
 25 53  1  0  0  0  0
 26 27  1  0  0  0  0
 26 54  1  0  0  0  0
 26 55  1  0  0  0  0
 27 28  1  0  0  0  0
 27 56  1  0  0  0  0
 28 57  1  0  0  0  0
 28 58  1  0  0  0  0
 28 59  1  0  0  0  0
 29 60  1  0  0  0  0
 29 61  1  0  0  0  0
M  END
> <s_m_source_file>
AV-unprocessed.smi

> <i_m_source_file_index>
193

> <i_lp_mmshare_version>
43012

> <i_f3d_flags>
0

> <s_epik_input>
W0NIM11bQ0BASF0xW0NIMl1bQ0BIXTFOKFtDSDJdMilbQ0gyXVtDSDJdTihbQ0gyXVtDQEhdMltDSDNdKWMobltjSF1uMyljKGMzNCluW2NIXW40W0NIMl1DNShbT0hdKVtDSDJdW0NIMl1PW0NIMl1bQ0gyXTU=

> <s_epik_cmdline>
J2VwaWtfcHl0aG9uJywgJy1waCcsICc3LjAnLCAnLXRuJywgJzgnLCAnLW1hJywgJzIwMCcsICctbWV0YWxfYmluZGluZycsICctaW1hZScsICc8aW5maWxlLm1hZT4nLCAnLW9tYWUnLCAnPG91dGZpbGUubWFlPic=

> <r_lp_tautomer_probability>
1

> <r_epik_Ionization_Penalty>
1.45227

> <r_epik_Ionization_Penalty_Charging>
0

> <r_epik_Ionization_Penalty_Neutral>
1.45227

> <r_epik_State_Penalty>
2.02377

> <r_epik_Charging_Adjusted_Penalty>
2.02377

> <i_epik_Tot_Q>
0

> <i_epik_Tot_abs_Q>
0

> <r_epik_Metal_State_Penalty>
2.01937

> <b_epik_Metal_Only>
0

> <s_lp_Force_Field>
OPLS_2005

> <r_lp_Energy>
54.596

> <b_lp_Chiralities_Consistent>
1

> <s_lp_Variant>
AV-unprocessed.smi:193-21

> <Gold.Version>
5.8.1

> <Gold.Id.Protein>
6NUR|6NUR_protein|mol2

> <Gold.PLP.Fitness>
43.6546

> <Gold.PLP.PLP>
-36.1877

> <Gold.PLP.part.hbond>
-1.0000

> <Gold.PLP.part.metal>
0.0000

> <Gold.PLP.part.buried>
-4.7135

> <Gold.PLP.part.nonpolar>
-30.5875

> <Gold.PLP.part.repulsive>
0.6231

> <Gold.PLP.ligand.clash>
0.0000

> <Gold.PLP.ligand.torsion>
1.2675

> <Gold.PLP.Chemscore.Hbond>
1.0000

> <Gold.PLP.Chemscore.CHOScore>
1.8848

> <Gold.PLP.Chemscore.Metal>
0.0000

> <Gold.Chemscore.Hbonds>
donor molecule, donor type, donor heavy atom, donor atom, acceptor molecule, acceptor atom, score
      L1  H    16    40       P1 10747  1.00
      L1  C     7    36       P1 10171  1.00
      L1  C     7    36       P1 10175  0.77

> <Gold.PLP.Chemscore.Internal.Correction>
1.3477

> <Gold.Rescore>
     Score         DG    S(hbond)    S(metal)    S(lipo)     H(rot)  DE(clash)    DE(int)     intcor
     13.67     -15.14       1.00        0.00      95.74       1.91       0.09       1.38       ----

> <Gold.Chemscore.Fitness>
13.6689

> <Gold.Chemscore.DG>
-15.1400

> <Gold.Chemscore.ZeroCoef>
-5.4800

> <Gold.Chemscore.Hbond>
0.9999

> <Gold.Chemscore.Metal>
0.0000

> <Gold.Chemscore.Lipo>
95.7401

> <Gold.Chemscore.Internal_Hbond>
0.0000

> <Gold.Chemscore.DEClash>
0.0878

> <Gold.Chemscore.DEInternal>
1.3833

> <Gold.Chemscore.Rot>
1.9068

> <Gold.Chemscore.Internal.Correction>
   9.000000E+99

> <Gold.Chemscore.Hbonds>
donor molecule, donor type, donor heavy atom, donor atom, acceptor molecule, acceptor atom, score
      L1  H    16    40       P1 10747  0.98

> <Gold.Chemscore.Hbond.Weighted>
-3.3398

> <Gold.Chemscore.Metal.Weighted>
-0.0000

> <Gold.Chemscore.Lipo.Weighted>
-11.2016

> <Gold.Chemscore.Internal_Hbond.Weighted>
0.0000

> <Gold.Chemscore.DEClash.Weighted>
0.0878

> <Gold.Chemscore.DEInternal.Weighted>
1.3833

> <Gold.Chemscore.Rot.Weighted>
4.8814

> <Gold.Chemscore.Internal.Correction.Weighted>
   9.000000E+99

> <Gold.Protein.RotatedTorsions>
[ 6907 6896 6895 6894 ] final -157.50 input  -60.11 | X-H torsion
[ 7974 7965 7964 7962 ] final -158.04 input  175.53 | X-H torsion
[ 8008 7997 7996 7995 ] final   56.33 input   59.86 | X-H torsion
[ 10167 10162 10161 10158 ] final   89.01 input  -65.29 | X-H torsion
[ 10718 10713 10712 10709 ] final   -5.42 input   66.30 | X-H torsion
[ 10763 10752 10751 10750 ] final   97.52 input  -60.55 | X-H torsion
[ 11005 11000 10999 10996 ] final   37.04 input  -57.11 | X-H torsion

> <Gold.Protein.ActiveResidues>
 VAL166  LYS551  ARG553  GLY616  TRP617  ASP618  TYR619  PRO620  LYS621  CYS622 
 ASP623  PHE694  ASN695  SER759  ASP760  ASP761  ALA762  ILE779  LEU786  VAL792 
 PHE793  MET794  SER795  GLU796  ALA797  LYS798  CYS799  TRP800  GLU811  SER814 

> <Gold.Protein.RotatedAtoms>
  151.3038  133.4110  159.2641 H   0  0  0  0  0  0  0  0  0  0  0  0  # atno 6907 bound_to 6896
  151.0172  134.9442  159.8050 H   0  0  0  0  0  0  0  0  0  0  0  0  # atno 6908 bound_to 6896
  152.5315  134.3002  159.9128 H   0  0  0  0  0  0  0  0  0  0  0  0  # atno 6909 bound_to 6896
  144.7522  140.3884  143.6039 H   0  0  0  0  0  0  0  0  0  0  0  0  # atno 7974 bound_to 7965
  155.5156  140.3478  155.4397 H   0  0  0  0  0  0  0  0  0  0  0  0  # atno 8008 bound_to 7997
  156.0819  140.1389  156.9728 H   0  0  0  0  0  0  0  0  0  0  0  0  # atno 8009 bound_to 7997
  154.4585  140.0944  156.6801 H   0  0  0  0  0  0  0  0  0  0  0  0  # atno 8010 bound_to 7997
  139.8615  144.6541  150.9053 H   0  0  0  0  0  0  0  0  0  0  0  0  # atno 10167 bound_to 10162
  156.7469  130.5227  149.5812 H   0  0  0  0  0  0  0  0  0  0  0  0  # atno 10718 bound_to 10713
  153.2779  135.4180  155.1050 H   0  0  0  0  0  0  0  0  0  0  0  0  # atno 10763 bound_to 10752
  154.8479  135.3488  154.6153 H   0  0  0  0  0  0  0  0  0  0  0  0  # atno 10764 bound_to 10752
  153.6574  135.7050  153.5246 H   0  0  0  0  0  0  0  0  0  0  0  0  # atno 10765 bound_to 10752
  140.2265  134.3579  155.7982 H   0  0  0  0  0  0  0  0  0  0  0  0  # atno 11005 bound_to 11000
  145.6903  139.1637  143.2651 LP  0  0  0  0  0  0  0  0  0  0  0  0  # atno 17320 bound_to 7965
  146.1488  140.6955  142.9332 LP  0  0  0  0  0  0  0  0  0  0  0  0  # atno 17321 bound_to 7965
  140.7774  143.3740  151.1597 LP  0  0  0  0  0  0  0  0  0  0  0  0  # atno 17342 bound_to 10162
  139.7369  143.8985  152.3038 LP  0  0  0  0  0  0  0  0  0  0  0  0  # atno 17343 bound_to 10162
  156.1427  130.6256  151.0489 LP  0  0  0  0  0  0  0  0  0  0  0  0  # atno 17370 bound_to 10713
  157.6794  131.0842  150.7409 LP  0  0  0  0  0  0  0  0  0  0  0  0  # atno 17371 bound_to 10713
  141.2220  133.7222  156.8661 LP  0  0  0  0  0  0  0  0  0  0  0  0  # atno 17394 bound_to 11000
  140.1795  134.9043  157.2931 LP  0  0  0  0  0  0  0  0  0  0  0  0  # atno 17395 bound_to 11000

$$$$
