AV-unprocessed.smi:574|AV-procd|sdf|2975|dock4
  -GOLD-   2262023483D 1   1.00000     0.00000
 Structure written by MMmdl.
 40 41  0  0  0  0  0  0  0  0  1 V2000
  151.6165  134.3311  153.8281 C   0  0  0  0  0  0  0  0  0  0  0  0
  151.8658  135.5598  154.6958 C   0  0  0  0  0  0  0  0  0  0  0  0
  152.6464  136.4338  154.3203 O   0  0  0  0  0  0  0  0  0  0  0  0
  151.1963  135.6119  155.8567 N   0  0  0  0  0  0  0  0  0  0  0  0
  151.2893  136.6941  156.8289 C   0  0  0  0  0  0  0  0  0  0  0  0
  152.7500  137.1187  157.0631 C   0  0  0  0  0  0  0  0  0  0  0  0
  152.8325  138.2949  157.9194 N   0  0  0  0  0  0  0  0  0  0  0  0
  153.1397  139.5336  157.5031 C   0  0  0  0  0  0  0  0  0  0  0  0
  153.3450  139.8241  156.3241 O   0  0  0  0  0  0  0  0  0  0  0  0
  153.1459  140.5946  158.5661 C   0  0  0  0  0  0  0  0  0  0  0  0
  152.5486  141.7656  158.2469 N   0  0  0  0  0  0  0  0  0  0  0  0
  152.5359  142.7484  159.1556 C   0  0  0  0  0  0  0  0  0  0  0  0
  151.9116  143.9511  158.7997 N   0  0  0  0  0  0  0  0  0  0  0  0
  152.1152  145.1818  159.5632 C   0  0  0  0  0  0  0  0  0  0  0  0
  150.9853  145.3363  160.5974 C   0  0  0  0  0  0  0  0  0  0  0  0
  149.7256  145.3398  159.9283 O   0  0  0  0  0  0  0  0  0  0  0  0
  149.4979  144.1467  159.1806 C   0  0  0  0  0  0  0  0  0  0  0  0
  150.6114  143.9785  158.1307 C   0  0  0  0  0  0  0  0  0  0  0  0
  153.0759  142.6660  160.3775 N   0  0  0  0  0  0  0  0  0  0  0  0
  153.6898  141.5134  160.7158 C   0  0  0  0  0  0  0  0  0  0  0  0
  153.7647  140.4198  159.8316 C   0  0  0  0  0  0  0  0  0  0  0  0
  154.6106  138.9866  160.3078 Cl  0  0  0  0  0  0  0  0  0  0  0  0
  150.5495  134.1990  153.6477 H   0  0  0  0  0  0  0  0  0  0  0  0
  151.9981  133.4361  154.3200 H   0  0  0  0  0  0  0  0  0  0  0  0
  152.1153  134.4293  152.8635 H   0  0  0  0  0  0  0  0  0  0  0  0
  150.5762  134.8472  156.0818 H   0  0  0  0  0  0  0  0  0  0  0  0
  150.6899  137.5457  156.5017 H   0  0  0  0  0  0  0  0  0  0  0  0
  150.8449  136.3431  157.7605 H   0  0  0  0  0  0  0  0  0  0  0  0
  153.3244  136.2986  157.4972 H   0  0  0  0  0  0  0  0  0  0  0  0
  153.2272  137.3642  156.1141 H   0  0  0  0  0  0  0  0  0  0  0  0
  152.6586  138.1569  158.9046 H   0  0  0  0  0  0  0  0  0  0  0  0
  153.0883  145.2179  160.0520 H   0  0  0  0  0  0  0  0  0  0  0  0
  152.0987  146.0261  158.8731 H   0  0  0  0  0  0  0  0  0  0  0  0
  151.0172  144.5302  161.3323 H   0  0  0  0  0  0  0  0  0  0  0  0
  151.0986  146.2729  161.1434 H   0  0  0  0  0  0  0  0  0  0  0  0
  149.4597  143.2859  159.8501 H   0  0  0  0  0  0  0  0  0  0  0  0
  148.5262  144.2156  158.6915 H   0  0  0  0  0  0  0  0  0  0  0  0
  150.5939  144.8218  157.4396 H   0  0  0  0  0  0  0  0  0  0  0  0
  150.4335  143.0927  157.5219 H   0  0  0  0  0  0  0  0  0  0  0  0
  154.1350  141.4685  161.6986 H   0  0  0  0  0  0  0  0  0  0  0  0
  1  2  1  0  0  0  0
  1 23  1  0  0  0  0
  1 24  1  0  0  0  0
  1 25  1  0  0  0  0
  2  3  2  0  0  0  0
  2  4  1  0  0  0  0
  4  5  1  0  0  0  0
  4 26  1  0  0  0  0
  5  6  1  0  0  0  0
  5 27  1  0  0  0  0
  5 28  1  0  0  0  0
  6  7  1  0  0  0  0
  6 29  1  0  0  0  0
  6 30  1  0  0  0  0
  7  8  1  0  0  0  0
  7 31  1  0  0  0  0
  8  9  2  0  0  0  0
  8 10  1  0  0  0  0
 10 21  1  0  0  0  0
 10 11  2  0  0  0  0
 11 12  1  0  0  0  0
 12 13  1  0  0  0  0
 12 19  2  0  0  0  0
 13 18  1  0  0  0  0
 13 14  1  0  0  0  0
 14 15  1  0  0  0  0
 14 32  1  0  0  0  0
 14 33  1  0  0  0  0
 15 16  1  0  0  0  0
 15 34  1  0  0  0  0
 15 35  1  0  0  0  0
 16 17  1  0  0  0  0
 17 18  1  0  0  0  0
 17 36  1  0  0  0  0
 17 37  1  0  0  0  0
 18 38  1  0  0  0  0
 18 39  1  0  0  0  0
 19 20  1  0  0  0  0
 20 21  2  0  0  0  0
 20 40  1  0  0  0  0
 21 22  1  0  0  0  0
M  END
> <s_m_source_file>
AV-unprocessed.smi

> <i_m_source_file_index>
574

> <i_lp_mmshare_version>
43012

> <i_f3d_flags>
0

> <s_epik_input>
W0NIM11DKD1PKVtOSF1bQ0gyXVtDSDJdW05IXUMoPU8pYzFuYyhuW2NIXWMxQ2wpTjJbQ0gyXVtDSDJdT1tDSDJdW0NIMl0y

> <s_epik_cmdline>
J2VwaWtfcHl0aG9uJywgJy1waCcsICc3LjAnLCAnLXRuJywgJzgnLCAnLW1hJywgJzIwMCcsICctbWV0YWxfYmluZGluZycsICctaW1hZScsICc8aW5maWxlLm1hZT4nLCAnLW9tYWUnLCAnPG91dGZpbGUubWFlPic=

> <r_lp_tautomer_probability>
1

> <r_epik_Ionization_Penalty>
4.61473e-05

> <r_epik_Ionization_Penalty_Charging>
0

> <r_epik_Ionization_Penalty_Neutral>
4.61473e-05

> <r_epik_State_Penalty>
-0

> <r_epik_Charging_Adjusted_Penalty>
0

> <i_epik_Tot_Q>
0

> <i_epik_Tot_abs_Q>
0

> <r_epik_Metal_State_Penalty>
0.0410325

> <b_epik_Metal_Only>
0

> <s_lp_Force_Field>
OPLS_2005

> <r_lp_Energy>
11.2452

> <b_lp_Chiralities_Consistent>
1

> <s_lp_Variant>
AV-unprocessed.smi:574-1

> <Gold.Version>
5.8.1

> <Gold.Id.Protein>
6NUR|6NUR_protein|mol2

> <Gold.PLP.Fitness>
40.0861

> <Gold.PLP.PLP>
-36.5288

> <Gold.PLP.part.hbond>
-3.0000

> <Gold.PLP.part.metal>
0.0000

> <Gold.PLP.part.buried>
-3.0992

> <Gold.PLP.part.nonpolar>
-30.7838

> <Gold.PLP.part.repulsive>
0.5565

> <Gold.PLP.ligand.clash>
0.0000

> <Gold.PLP.ligand.torsion>
1.3228

> <Gold.PLP.Chemscore.Hbond>
2.0000

> <Gold.PLP.Chemscore.CHOScore>
0.0000

> <Gold.PLP.Chemscore.Metal>
0.0000

> <Gold.PLP.Chemscore.Internal.Correction>
0.2029

> <Gold.Rescore>
     Score         DG    S(hbond)    S(metal)    S(lipo)     H(rot)  DE(clash)    DE(int)     intcor
     13.15     -17.43       1.91        0.00      84.88       1.70       0.94       3.34       ----

> <Gold.Chemscore.Fitness>
13.1506

> <Gold.Chemscore.DG>
-17.4344

> <Gold.Chemscore.ZeroCoef>
-5.4800

> <Gold.Chemscore.Hbond>
1.9055

> <Gold.Chemscore.Metal>
0.0000

> <Gold.Chemscore.Lipo>
84.8820

> <Gold.Chemscore.Internal_Hbond>
0.0000

> <Gold.Chemscore.DEClash>
0.9442

> <Gold.Chemscore.DEInternal>
3.3397

> <Gold.Chemscore.Rot>
1.6957

> <Gold.Chemscore.Internal.Correction>
   9.000000E+99

> <Gold.Chemscore.Hbonds>
donor molecule, donor type, donor heavy atom, donor atom, acceptor molecule, acceptor atom, score
      P1  H  7997  8009       L1     9  0.01

> <Gold.Chemscore.Hbond.Weighted>
-6.3642

> <Gold.Chemscore.Metal.Weighted>
-0.0000

> <Gold.Chemscore.Lipo.Weighted>
-9.9312

> <Gold.Chemscore.Internal_Hbond.Weighted>
0.0000

> <Gold.Chemscore.DEClash.Weighted>
0.9442

> <Gold.Chemscore.DEInternal.Weighted>
3.3397

> <Gold.Chemscore.Rot.Weighted>
4.3410

> <Gold.Chemscore.Internal.Correction.Weighted>
   9.000000E+99

> <Gold.Protein.RotatedTorsions>
[ 6907 6896 6895 6894 ] final   80.13 input  -60.11 | X-H torsion
[ 7974 7965 7964 7962 ] final   82.97 input  175.53 | X-H torsion
[ 8008 7997 7996 7995 ] final -156.24 input   59.86 | X-H torsion
[ 10167 10162 10161 10158 ] final  -68.10 input  -65.29 | X-H torsion
[ 10718 10713 10712 10709 ] final  -57.19 input   66.30 | X-H torsion
[ 10763 10752 10751 10750 ] final  -38.79 input  -60.55 | X-H torsion
[ 11005 11000 10999 10996 ] final  -38.30 input  -57.11 | X-H torsion

> <Gold.Protein.ActiveResidues>
 VAL166  LYS551  ARG553  GLY616  TRP617  ASP618  TYR619  PRO620  LYS621  CYS622 
 ASP623  PHE694  ASN695  SER759  ASP760  ASP761  ALA762  ILE779  LEU786  VAL792 
 PHE793  MET794  SER795  GLU796  ALA797  LYS798  CYS799  TRP800  GLU811  SER814 

> <Gold.Protein.RotatedAtoms>
  152.5224  134.3404  159.9214 H   0  0  0  0  0  0  0  0  0  0  0  0  # atno 6907 bound_to 6896
  151.3354  133.3977  159.2674 H   0  0  0  0  0  0  0  0  0  0  0  0  # atno 6908 bound_to 6896
  150.9846  134.9212  159.7922 H   0  0  0  0  0  0  0  0  0  0  0  0  # atno 6909 bound_to 6896
  145.6181  139.2380  143.2154 H   0  0  0  0  0  0  0  0  0  0  0  0  # atno 7974 bound_to 7965
  155.7141  140.0782  157.2358 H   0  0  0  0  0  0  0  0  0  0  0  0  # atno 8008 bound_to 7997
  154.4054  140.1624  156.2383 H   0  0  0  0  0  0  0  0  0  0  0  0  # atno 8009 bound_to 7997
  155.9256  140.3395  155.6210 H   0  0  0  0  0  0  0  0  0  0  0  0  # atno 8010 bound_to 7997
  140.5533  143.2312  151.6869 H   0  0  0  0  0  0  0  0  0  0  0  0  # atno 10167 bound_to 10162
  156.1230  130.4165  150.0407 H   0  0  0  0  0  0  0  0  0  0  0  0  # atno 10718 bound_to 10713
  153.9187  135.6784  153.4748 H   0  0  0  0  0  0  0  0  0  0  0  0  # atno 10763 bound_to 10752
  153.1040  135.4814  154.8915 H   0  0  0  0  0  0  0  0  0  0  0  0  # atno 10764 bound_to 10752
  154.7489  135.3179  154.8550 H   0  0  0  0  0  0  0  0  0  0  0  0  # atno 10765 bound_to 10752
  141.0017  133.6952  156.2034 H   0  0  0  0  0  0  0  0  0  0  0  0  # atno 11005 bound_to 11000
  146.1452  140.7002  142.9348 LP  0  0  0  0  0  0  0  0  0  0  0  0  # atno 17320 bound_to 7965
  144.7242  140.4472  143.6985 LP  0  0  0  0  0  0  0  0  0  0  0  0  # atno 17321 bound_to 7965
  139.5037  144.3782  152.0402 LP  0  0  0  0  0  0  0  0  0  0  0  0  # atno 17342 bound_to 10162
  140.2901  144.3763  150.6091 LP  0  0  0  0  0  0  0  0  0  0  0  0  # atno 17343 bound_to 10162
  156.8340  130.9402  151.3635 LP  0  0  0  0  0  0  0  0  0  0  0  0  # atno 17370 bound_to 10713
  157.6412  130.8807  149.9453 LP  0  0  0  0  0  0  0  0  0  0  0  0  # atno 17371 bound_to 10713
  140.6878  134.4698  157.5589 LP  0  0  0  0  0  0  0  0  0  0  0  0  # atno 17394 bound_to 11000
  139.9042  134.8487  156.1772 LP  0  0  0  0  0  0  0  0  0  0  0  0  # atno 17395 bound_to 11000

$$$$
