AV-unprocessed.smi:643|AV-procd|sdf|3153|dock1
  -GOLD-   22720 0 73D 1   1.00000     0.00000
 Structure written by MMmdl.
 40 41  0  0  0  0  0  0  0  0  1 V2000
  145.7863  142.7659  157.2681 C   0  0  0  0  0  0  0  0  0  0  0  0
  145.9753  142.0234  155.9270 C   0  0  0  0  0  0  0  0  0  0  0  0
  145.0225  140.8082  155.9071 C   0  0  0  0  0  0  0  0  0  0  0  0
  145.6792  142.9381  154.7278 C   0  0  0  0  0  0  0  0  0  0  0  0
  146.3924  142.2995  153.5329 C   0  0  0  0  0  0  0  0  0  0  0  0
  147.5637  141.4974  154.1158 C   0  0  0  0  0  0  0  0  0  0  0  0
  147.4287  141.5575  155.6496 C   0  0  1  0  0  0  0  0  0  0  0  0
  148.4258  142.4869  156.1869 N   0  0  0  0  0  0  0  0  0  0  0  0
  149.3462  142.2030  157.1201 C   0  0  0  0  0  0  0  0  0  0  0  0
  149.4690  141.0958  157.6435 O   0  0  0  0  0  0  0  0  0  0  0  0
  150.0964  143.2819  157.4008 N   0  0  0  0  0  0  0  0  0  0  0  0
  151.1601  143.3990  158.3329 C   0  0  0  0  0  0  0  0  0  0  0  0
  152.2498  144.3177  158.2551 C   0  0  0  0  0  0  0  0  0  0  0  0
  152.9806  144.0316  159.3728 C   0  0  0  0  0  0  0  0  0  0  0  0
  152.3344  143.0122  160.0414 N   0  0  0  0  0  0  0  0  0  0  0  0
  152.7197  142.3603  161.2780 C   0  0  0  0  0  0  0  0  0  0  0  0
  153.5079  141.0684  161.0236 C   0  0  0  0  0  0  0  0  0  0  0  0
  154.3641  141.2484  160.0187 F   0  0  0  0  0  0  0  0  0  0  0  0
  154.1850  140.7082  162.1138 F   0  0  0  0  0  0  0  0  0  0  0  0
  151.2100  142.6227  159.4022 N   0  0  0  0  0  0  0  0  0  0  0  0
  144.7414  143.0367  157.4223 H   0  0  0  0  0  0  0  0  0  0  0  0
  146.3626  143.6905  157.3148 H   0  0  0  0  0  0  0  0  0  0  0  0
  146.0924  142.1425  158.1088 H   0  0  0  0  0  0  0  0  0  0  0  0
  145.1065  140.2344  154.9840 H   0  0  0  0  0  0  0  0  0  0  0  0
  143.9816  141.1186  156.0037 H   0  0  0  0  0  0  0  0  0  0  0  0
  145.2372  140.1277  156.7319 H   0  0  0  0  0  0  0  0  0  0  0  0
  144.6121  143.0757  154.5500 H   0  0  0  0  0  0  0  0  0  0  0  0
  146.1047  143.9273  154.9033 H   0  0  0  0  0  0  0  0  0  0  0  0
  145.7121  141.6278  153.0081 H   0  0  0  0  0  0  0  0  0  0  0  0
  146.7254  143.0494  152.8149 H   0  0  0  0  0  0  0  0  0  0  0  0
  147.5054  140.4635  153.7738 H   0  0  0  0  0  0  0  0  0  0  0  0
  148.5229  141.8865  153.7707 H   0  0  0  0  0  0  0  0  0  0  0  0
  147.5883  140.5631  156.0702 H   0  0  0  0  0  0  0  0  0  0  0  0
  148.4052  143.4263  155.8181 H   0  0  0  0  0  0  0  0  0  0  0  0
  149.8686  144.1278  156.8994 H   0  0  0  0  0  0  0  0  0  0  0  0
  152.4740  145.0682  157.5122 H   0  0  0  0  0  0  0  0  0  0  0  0
  153.8968  144.4655  159.7453 H   0  0  0  0  0  0  0  0  0  0  0  0
  153.3193  143.0589  161.8634 H   0  0  0  0  0  0  0  0  0  0  0  0
  151.8217  142.1500  161.8602 H   0  0  0  0  0  0  0  0  0  0  0  0
  152.8540  140.2402  160.7488 H   0  0  0  0  0  0  0  0  0  0  0  0
  1  2  1  0  0  0  0
  1 21  1  0  0  0  0
  1 22  1  0  0  0  0
  1 23  1  0  0  0  0
  2  7  1  0  0  0  0
  2  3  1  0  0  0  0
  2  4  1  0  0  0  0
  3 24  1  0  0  0  0
  3 25  1  0  0  0  0
  3 26  1  0  0  0  0
  4  5  1  0  0  0  0
  4 27  1  0  0  0  0
  4 28  1  0  0  0  0
  5  6  1  0  0  0  0
  5 29  1  0  0  0  0
  5 30  1  0  0  0  0
  6  7  1  0  0  0  0
  6 31  1  0  0  0  0
  6 32  1  0  0  0  0
  7  8  1  0  0  0  0
  7 33  1  0  0  0  0
  8  9  1  0  0  0  0
  8 34  1  0  0  0  0
  9 10  2  0  0  0  0
  9 11  1  0  0  0  0
 11 12  1  0  0  0  0
 11 35  1  0  0  0  0
 12 20  2  0  0  0  0
 12 13  1  0  0  0  0
 13 14  2  0  0  0  0
 13 36  1  0  0  0  0
 14 15  1  0  0  0  0
 14 37  1  0  0  0  0
 15 16  1  0  0  0  0
 15 20  1  0  0  0  0
 16 17  1  0  0  0  0
 16 38  1  0  0  0  0
 16 39  1  0  0  0  0
 17 18  1  0  0  0  0
 17 19  1  0  0  0  0
 17 40  1  0  0  0  0
M  END
> <s_m_source_file>
AV-unprocessed.smi

> <i_m_source_file_index>
643

> <i_lp_mmshare_version>
43012

> <i_f3d_flags>
0

> <s_epik_input>
W0NIM11DMShbQ0gzXSlbQ0gyXVtDSDJdW0NIMl1bQ0BIXTFbTkhdQyg9TylbTkhdYzJbY0hdW2NIXW4objIpW0NIMl1bQ0hdKEYpRg==

> <s_epik_cmdline>
J2VwaWtfcHl0aG9uJywgJy1waCcsICc3LjAnLCAnLXRuJywgJzgnLCAnLW1hJywgJzIwMCcsICctbWV0YWxfYmluZGluZycsICctaW1hZScsICc8aW5maWxlLm1hZT4nLCAnLW9tYWUnLCAnPG91dGZpbGUubWFlPic=

> <r_lp_tautomer_probability>
1

> <r_epik_Ionization_Penalty>
3.99908e-05

> <r_epik_Ionization_Penalty_Charging>
0

> <r_epik_Ionization_Penalty_Neutral>
3.99908e-05

> <r_epik_State_Penalty>
-0

> <r_epik_Charging_Adjusted_Penalty>
0

> <i_epik_Tot_Q>
0

> <i_epik_Tot_abs_Q>
0

> <r_epik_Metal_State_Penalty>
-0

> <b_epik_Metal_Only>
0

> <s_lp_Force_Field>
OPLS_2005

> <r_lp_Energy>
26.1954

> <b_lp_Chiralities_Consistent>
1

> <s_lp_Variant>
AV-unprocessed.smi:643-1

> <Gold.Version>
5.8.1

> <Gold.Id.Protein>
6NUR|6NUR_protein|mol2

> <Gold.PLP.Fitness>
46.4559

> <Gold.PLP.PLP>
-41.8206

> <Gold.PLP.part.hbond>
-1.8899

> <Gold.PLP.part.metal>
0.0000

> <Gold.PLP.part.buried>
-4.9615

> <Gold.PLP.part.nonpolar>
-35.0498

> <Gold.PLP.part.repulsive>
0.0988

> <Gold.PLP.ligand.clash>
0.0000

> <Gold.PLP.ligand.torsion>
0.6792

> <Gold.PLP.Chemscore.Hbond>
1.9760

> <Gold.PLP.Chemscore.CHOScore>
0.0000

> <Gold.PLP.Chemscore.Metal>
0.0000

> <Gold.Chemscore.Hbonds>
donor molecule, donor type, donor heavy atom, donor atom, acceptor molecule, acceptor atom, score
      L1  H     8    34       P1  8028  0.60
      L1  H    11    35       P1  8028  0.88

> <Gold.PLP.Chemscore.Internal.Correction>
0.0656

> <Gold.Rescore>
     Score         DG    S(hbond)    S(metal)    S(lipo)     H(rot)  DE(clash)    DE(int)     intcor
     15.89     -17.72       1.92        0.00      77.82       1.28       0.02       1.81       ----

> <Gold.Chemscore.Fitness>
15.8932

> <Gold.Chemscore.DG>
-17.7188

> <Gold.Chemscore.ZeroCoef>
-5.4800

> <Gold.Chemscore.Hbond>
1.9171

> <Gold.Chemscore.Metal>
0.0000

> <Gold.Chemscore.Lipo>
77.8204

> <Gold.Chemscore.Internal_Hbond>
0.0000

> <Gold.Chemscore.DEClash>
0.0162

> <Gold.Chemscore.DEInternal>
1.8094

> <Gold.Chemscore.Rot>
1.2771

> <Gold.Chemscore.Internal.Correction>
   9.000000E+99

> <Gold.Chemscore.Hbonds>
donor molecule, donor type, donor heavy atom, donor atom, acceptor molecule, acceptor atom, score
      L1  H     8    34       P1  8028  0.54
      L1  H    11    35       P1  8028  0.76

> <Gold.Chemscore.Hbond.Weighted>
-6.4033

> <Gold.Chemscore.Metal.Weighted>
-0.0000

> <Gold.Chemscore.Lipo.Weighted>
-9.1050

> <Gold.Chemscore.Internal_Hbond.Weighted>
0.0000

> <Gold.Chemscore.DEClash.Weighted>
0.0162

> <Gold.Chemscore.DEInternal.Weighted>
1.8094

> <Gold.Chemscore.Rot.Weighted>
3.2694

> <Gold.Chemscore.Internal.Correction.Weighted>
   9.000000E+99

> <Gold.Protein.RotatedTorsions>
[ 6907 6896 6895 6894 ] final -133.20 input  -60.11 | X-H torsion
[ 7974 7965 7964 7962 ] final  125.95 input  175.53 | X-H torsion
[ 8008 7997 7996 7995 ] final  -91.92 input   59.86 | X-H torsion
[ 10167 10162 10161 10158 ] final  132.84 input  -65.29 | X-H torsion
[ 10718 10713 10712 10709 ] final  119.08 input   66.30 | X-H torsion
[ 10763 10752 10751 10750 ] final  -78.06 input  -60.55 | X-H torsion
[ 11005 11000 10999 10996 ] final  153.22 input  -57.11 | X-H torsion

> <Gold.Protein.ActiveResidues>
 VAL166  LYS551  ARG553  GLY616  TRP617  ASP618  TYR619  PRO620  LYS621  CYS622 
 ASP623  PHE694  ASN695  SER759  ASP760  ASP761  ALA762  ILE779  LEU786  VAL792 
 PHE793  MET794  SER795  GLU796  ALA797  LYS798  CYS799  TRP800  GLU811  SER814 

> <Gold.Protein.RotatedAtoms>
  150.9712  133.6342  159.2737 H   0  0  0  0  0  0  0  0  0  0  0  0  # atno 6907 bound_to 6896
  151.3630  135.0906  159.9450 H   0  0  0  0  0  0  0  0  0  0  0  0  # atno 6908 bound_to 6896
  152.5183  133.9282  159.7622 H   0  0  0  0  0  0  0  0  0  0  0  0  # atno 6909 bound_to 6896
  145.0672  139.3758  143.4976 H   0  0  0  0  0  0  0  0  0  0  0  0  # atno 7974 bound_to 7965
  154.7166  140.0514  157.0601 H   0  0  0  0  0  0  0  0  0  0  0  0  # atno 8008 bound_to 7997
  155.0483  140.3176  155.4682 H   0  0  0  0  0  0  0  0  0  0  0  0  # atno 8009 bound_to 7997
  156.2805  140.2120  156.5608 H   0  0  0  0  0  0  0  0  0  0  0  0  # atno 8010 bound_to 7997
  139.5322  144.6644  151.4909 H   0  0  0  0  0  0  0  0  0  0  0  0  # atno 10167 bound_to 10162
  157.5987  131.1054  150.7845 H   0  0  0  0  0  0  0  0  0  0  0  0  # atno 10718 bound_to 10713
  154.5211  135.5742  153.6681 H   0  0  0  0  0  0  0  0  0  0  0  0  # atno 10763 bound_to 10752
  152.9917  135.6182  154.2754 H   0  0  0  0  0  0  0  0  0  0  0  0  # atno 10764 bound_to 10752
  154.2674  135.2854  155.2732 H   0  0  0  0  0  0  0  0  0  0  0  0  # atno 10765 bound_to 10752
  140.1378  134.8759  157.2291 H   0  0  0  0  0  0  0  0  0  0  0  0  # atno 11005 bound_to 11000
  146.3527  140.0399  142.8644 LP  0  0  0  0  0  0  0  0  0  0  0  0  # atno 17320 bound_to 7965
  145.1337  140.9532  143.4529 LP  0  0  0  0  0  0  0  0  0  0  0  0  # atno 17321 bound_to 7965
  140.6508  143.8701  150.6783 LP  0  0  0  0  0  0  0  0  0  0  0  0  # atno 17342 bound_to 10162
  140.2065  143.3918  152.1751 LP  0  0  0  0  0  0  0  0  0  0  0  0  # atno 17343 bound_to 10162
  156.8250  130.4996  149.5338 LP  0  0  0  0  0  0  0  0  0  0  0  0  # atno 17370 bound_to 10713
  156.1055  130.6001  150.9963 LP  0  0  0  0  0  0  0  0  0  0  0  0  # atno 17371 bound_to 10713
  140.2760  134.3405  155.7358 LP  0  0  0  0  0  0  0  0  0  0  0  0  # atno 17394 bound_to 11000
  141.2181  133.7450  156.9293 LP  0  0  0  0  0  0  0  0  0  0  0  0  # atno 17395 bound_to 11000

$$$$
