#       Name:                AV-unprocessed.smi:2260
#       Creating user name   scv26
#       Creation time:       Fri Mar 27 12:34:10 2020


#       File generated by GOLD software.
#

@<TRIPOS>MOLECULE
AV-unprocessed.smi:2260
    45    46     1
SMALL
NO_CHARGES


@<TRIPOS>ATOM
      1 ****        -3.9464   1.9650  -1.3624 C.3            1 S1                 0.0000
      2 ****        -3.9469   2.1987   0.1384 C.2            1 S1                 0.0000
      3 ****        -5.0325   2.3602   0.9025 C.2            1 S1                 0.0000
      4 ****        -4.6434   2.5707   2.5931 S.3            1 S1                 0.0000
      5 ****        -2.8887   2.4199   2.2189 C.2            1 S1                 0.0000
      6 ****        -2.0143   2.4807   3.0819 O.2            1 S1                 0.0000
      7 ****        -2.7384   2.2354   0.8455 N.am           1 S1                 0.0000
      8 ****        -1.4187   2.1005   0.2234 C.3            1 S1                 0.0000
      9 ****        -0.9474   0.6391   0.2350 C.3            1 S1                 0.0000
     10 ****         0.3655   0.5485  -0.3846 N.3            1 S1                 0.0000
     11 ****         0.8767  -0.8189  -0.3628 C.3            1 S1                 0.0000
     12 ****         1.1924  -1.2285  -1.8163 C.3            1 S1                 0.0000
     13 ****         1.7393  -2.6601  -1.8866 C.3            1 S1                 0.0000
     14 ****         2.9704  -2.8242  -0.9867 C.3            1 S1                 0.0000
     15 ****         2.6597  -2.4075   0.4618 C.3            1 S1                 0.0000
     16 ****         2.1061  -0.9640   0.5899 C.3            1 S1                 0.0000
     17 ****         3.2264   0.0570   0.2744 C.3            1 S1                 0.0000
     18 ****         1.6670  -0.7601   2.0555 C.3            1 S1                 0.0000
     19 ****        -4.9294   1.6283  -1.6927 H              1 S1                 0.0000
     20 ****        -3.2257   1.2011  -1.6528 H              1 S1                 0.0000
     21 ****        -3.7101   2.8894  -1.8897 H              1 S1                 0.0000
     22 ****        -6.0587   2.3581   0.5662 H              1 S1                 0.0000
     23 ****        -1.4318   2.4926  -0.7937 H              1 S1                 0.0000
     24 ****        -0.6993   2.7220   0.7601 H              1 S1                 0.0000
     25 ****        -0.9012   0.2676   1.2592 H              1 S1                 0.0000
     26 ****        -1.6509   0.0083  -0.3097 H              1 S1                 0.0000
     27 ****         0.3079   0.8717  -1.3398 H              1 S1                 0.0000
     28 ****         0.0952  -1.4946  -0.0095 H              1 S1                 0.0000
     29 ****         0.2903  -1.1601  -2.4258 H              1 S1                 0.0000
     30 ****         1.9110  -0.5406  -2.2629 H              1 S1                 0.0000
     31 ****         0.9641  -3.3624  -1.5773 H              1 S1                 0.0000
     32 ****         1.9933  -2.9124  -2.9164 H              1 S1                 0.0000
     33 ****         3.3036  -3.8622  -1.0065 H              1 S1                 0.0000
     34 ****         3.7984  -2.2344  -1.3803 H              1 S1                 0.0000
     35 ****         1.9313  -3.1103   0.8692 H              1 S1                 0.0000
     36 ****         3.5563  -2.5232   1.0725 H              1 S1                 0.0000
     37 ****         4.0922  -0.1005   0.9185 H              1 S1                 0.0000
     38 ****         2.8937   1.0826   0.4353 H              1 S1                 0.0000
     39 ****         3.5759  -0.0100  -0.7547 H              1 S1                 0.0000
     40 ****         2.4904  -0.9471   2.7458 H              1 S1                 0.0000
     41 ****         0.8537  -1.4340   2.3264 H              1 S1                 0.0000
     42 ****         1.3225   0.2587   2.2360 H              1 S1                 0.0000
     43 ****        -2.2659   2.6194   4.0398 LP             1 S1                 0.0000
     44 ****        -1.0518   2.3914   2.8257 LP             1 S1                 0.0000
     45 ****         0.9963   1.1222   0.1379 LP             1 S1                 0.0000
@<TRIPOS>BOND
    1    1    2 1     
    2    1   19 1     
    3    1   20 1     
    4    1   21 1     
    5    2    7 1     
    6    2    3 2     
    7    3    4 1     
    8    3   22 1     
    9    4    5 1     
   10    5    6 2     
   11    5    7 am    
   12    7    8 1     
   13    8    9 1     
   14    8   23 1     
   15    8   24 1     
   16    9   10 1     
   17    9   25 1     
   18    9   26 1     
   19   10   11 1     
   20   10   27 1     
   21   11   16 1     
   22   11   12 1     
   23   11   28 1     
   24   12   13 1     
   25   12   29 1     
   26   12   30 1     
   27   13   14 1     
   28   13   31 1     
   29   13   32 1     
   30   14   15 1     
   31   14   33 1     
   32   14   34 1     
   33   15   16 1     
   34   15   35 1     
   35   15   36 1     
   36   16   17 1     
   37   16   18 1     
   38   17   37 1     
   39   17   38 1     
   40   17   39 1     
   41   18   40 1     
   42   18   41 1     
   43   18   42 1     
   44    6   43 1     
   45    6   44 1     
   46   10   45 1     
@<TRIPOS>SUBSTRUCTURE
      1 S1             1
@<TRIPOS>SET
LONE_PAIRS      STATIC     ATOMS    <user>   **** ""
3 43 44 45
DONOR_HYDROGENS      STATIC     ATOMS    <user>   **** ""
1 27
ATOM$BLUE        STATIC     ATOMS    COLORGROUP SYSTEM
3 43 44 45
ATOM$RED        STATIC     ATOMS    COLORGROUP SYSTEM
1 27
