AV-unprocessed.smi:15|AV-procd|sdf|79|dock2
  -GOLD-   2262015203D 1   1.00000     0.00000
 Structure written by MMmdl.
 53 56  0  0  0  0  0  0  0  0  1 V2000
  153.4346  140.5372  160.2834 C   0  0  0  0  0  0  0  0  0  0  0  0
  152.4662  139.8532  159.3052 C   0  0  0  0  0  0  0  0  0  0  0  0
  151.7709  140.7917  158.4240 N   0  0  0  0  0  0  0  0  0  0  0  0
  152.2885  142.1567  158.3771 C   0  0  0  0  0  0  0  0  0  0  0  0
  151.7057  143.0371  159.4934 C   0  0  2  0  0  0  0  0  0  0  0  0
  151.4326  144.4818  159.0731 C   0  0  0  0  0  0  0  0  0  0  0  0
  151.5838  145.2724  160.3646 C   0  0  0  0  0  0  0  0  0  0  0  0
  152.2030  144.2742  161.3463 C   0  0  0  0  0  0  0  0  0  0  0  0
  152.6525  143.1974  160.5368 O   0  0  0  0  0  0  0  0  0  0  0  0
  151.4985  140.3101  157.1920 C   0  0  0  0  0  0  0  0  0  0  0  0
  152.4510  139.5527  156.5951 N   0  0  0  0  0  0  0  0  0  0  0  0
  152.2326  139.0462  155.3775 C   0  0  0  0  0  0  0  0  0  0  0  0
  151.1513  139.1679  154.6038 N   0  0  0  0  0  0  0  0  0  0  0  0
  150.1899  139.9237  155.2080 C   0  0  0  0  0  0  0  0  0  0  0  0
  150.2807  140.5317  156.4910 C   0  0  0  0  0  0  0  0  0  0  0  0
  149.1099  141.2239  156.7738 N   0  0  0  0  0  0  0  0  0  0  0  0
  148.3682  141.0361  155.7165 C   0  0  0  0  0  0  0  0  0  0  0  0
  148.9339  140.2570  154.7316 N   0  0  0  0  0  0  0  0  0  0  0  0
  148.3284  139.8803  153.4629 C   0  0  0  0  0  0  0  0  0  0  0  0
  146.9645  139.1583  153.6228 C   0  0  1  0  0  0  0  0  0  0  0  0
  146.0003  140.1233  154.0087 O   0  0  0  0  0  0  0  0  0  0  0  0
  146.4726  138.4940  152.3382 C   0  0  0  0  0  0  0  0  0  0  0  0
  145.6520  137.3198  152.8489 C   0  0  0  0  0  0  0  0  0  0  0  0
  146.4258  136.8664  153.9450 O   0  0  0  0  0  0  0  0  0  0  0  0
  146.9108  137.9998  154.6595 C   0  0  1  0  0  0  0  0  0  0  0  0
  148.2355  137.6031  155.3297 C   0  0  0  0  0  0  0  0  0  0  0  0
  153.9715  139.7946  160.8736 H   0  0  0  0  0  0  0  0  0  0  0  0
  152.9118  141.1923  160.9809 H   0  0  0  0  0  0  0  0  0  0  0  0
  154.1742  141.1346  159.7495 H   0  0  0  0  0  0  0  0  0  0  0  0
  153.0284  139.1466  158.6952 H   0  0  0  0  0  0  0  0  0  0  0  0
  151.7379  139.2610  159.8599 H   0  0  0  0  0  0  0  0  0  0  0  0
  153.3745  142.1219  158.4718 H   0  0  0  0  0  0  0  0  0  0  0  0
  152.0800  142.6178  157.4097 H   0  0  0  0  0  0  0  0  0  0  0  0
  150.8045  142.5900  159.9161 H   0  0  0  0  0  0  0  0  0  0  0  0
  152.1815  144.8151  158.3532 H   0  0  0  0  0  0  0  0  0  0  0  0
  150.4516  144.6019  158.6125 H   0  0  0  0  0  0  0  0  0  0  0  0
  152.2343  146.1340  160.2113 H   0  0  0  0  0  0  0  0  0  0  0  0
  150.6246  145.6375  160.7333 H   0  0  0  0  0  0  0  0  0  0  0  0
  153.0212  144.7049  161.9239 H   0  0  0  0  0  0  0  0  0  0  0  0
  151.4500  143.9064  162.0448 H   0  0  0  0  0  0  0  0  0  0  0  0
  153.0391  138.4582  154.9649 H   0  0  0  0  0  0  0  0  0  0  0  0
  147.3772  141.4573  155.6295 H   0  0  0  0  0  0  0  0  0  0  0  0
  148.2111  140.7907  152.8744 H   0  0  0  0  0  0  0  0  0  0  0  0
  149.0341  139.2498  152.9203 H   0  0  0  0  0  0  0  0  0  0  0  0
  145.1764  139.9047  153.6004 H   0  0  0  0  0  0  0  0  0  0  0  0
  145.9099  139.1594  151.6818 H   0  0  0  0  0  0  0  0  0  0  0  0
  147.3183  138.1049  151.7698 H   0  0  0  0  0  0  0  0  0  0  0  0
  144.6698  137.6445  153.1958 H   0  0  0  0  0  0  0  0  0  0  0  0
  145.5176  136.5397  152.0995 H   0  0  0  0  0  0  0  0  0  0  0  0
  146.1852  138.2259  155.4434 H   0  0  0  0  0  0  0  0  0  0  0  0
  148.6563  138.4303  155.9010 H   0  0  0  0  0  0  0  0  0  0  0  0
  148.9754  137.2804  154.5969 H   0  0  0  0  0  0  0  0  0  0  0  0
  148.0814  136.7748  156.0217 H   0  0  0  0  0  0  0  0  0  0  0  0
  1  2  1  0  0  0  0
  1 27  1  0  0  0  0
  1 28  1  0  0  0  0
  1 29  1  0  0  0  0
  2  3  1  0  0  0  0
  2 30  1  0  0  0  0
  2 31  1  0  0  0  0
  3  4  1  0  0  0  0
  3 10  1  0  0  0  0
  4  5  1  0  0  0  0
  4 32  1  0  0  0  0
  4 33  1  0  0  0  0
  5  9  1  0  0  0  0
  5  6  1  0  0  0  0
  5 34  1  0  0  0  0
  6  7  1  0  0  0  0
  6 35  1  0  0  0  0
  6 36  1  0  0  0  0
  7  8  1  0  0  0  0
  7 37  1  0  0  0  0
  7 38  1  0  0  0  0
  8  9  1  0  0  0  0
  8 39  1  0  0  0  0
  8 40  1  0  0  0  0
 10 15  1  0  0  0  0
 10 11  2  0  0  0  0
 11 12  1  0  0  0  0
 12 13  2  0  0  0  0
 12 41  1  0  0  0  0
 13 14  1  0  0  0  0
 14 18  1  0  0  0  0
 14 15  2  0  0  0  0
 15 16  1  0  0  0  0
 16 17  2  0  0  0  0
 17 18  1  0  0  0  0
 17 42  1  0  0  0  0
 18 19  1  0  0  0  0
 19 20  1  0  0  0  0
 19 43  1  0  0  0  0
 19 44  1  0  0  0  0
 20 25  1  0  0  0  0
 20 21  1  0  0  0  0
 20 22  1  0  0  0  0
 21 45  1  0  0  0  0
 22 23  1  0  0  0  0
 22 46  1  0  0  0  0
 22 47  1  0  0  0  0
 23 24  1  0  0  0  0
 23 48  1  0  0  0  0
 23 49  1  0  0  0  0
 24 25  1  0  0  0  0
 25 26  1  0  0  0  0
 25 50  1  0  0  0  0
 26 51  1  0  0  0  0
 26 52  1  0  0  0  0
 26 53  1  0  0  0  0
M  END
> <s_m_source_file>
AV-unprocessed.smi

> <i_m_source_file_index>
15

> <i_lp_mmshare_version>
43012

> <i_f3d_flags>
0

> <s_epik_input>
TzFbQ0gyXVtDSDJdW0NIMl1bQ0BIXTFbQ0gyXU4oW0NIMl1bQ0gzXSljKG5bY0hdbjIpYyhjMjMpbltjSF1uM1tDSDJdW0NAQF00KFtPSF0pW0NIMl1bQ0gyXU9bQ0BIXTRbQ0gzXQ==

> <s_epik_cmdline>
J2VwaWtfcHl0aG9uJywgJy1waCcsICc3LjAnLCAnLXRuJywgJzgnLCAnLW1hJywgJzIwMCcsICctbWV0YWxfYmluZGluZycsICctaW1hZScsICc8aW5maWxlLm1hZT4nLCAnLW9tYWUnLCAnPG91dGZpbGUubWFlPic=

> <r_lp_tautomer_probability>
1

> <r_epik_Ionization_Penalty>
0.00360814

> <r_epik_Ionization_Penalty_Charging>
0

> <r_epik_Ionization_Penalty_Neutral>
0.00360814

> <r_epik_State_Penalty>
0.00237482

> <r_epik_Charging_Adjusted_Penalty>
0.00237482

> <i_epik_Tot_Q>
0

> <i_epik_Tot_abs_Q>
0

> <r_epik_Metal_State_Penalty>
-0

> <b_epik_Metal_Only>
0

> <s_lp_Force_Field>
OPLS_2005

> <r_lp_Energy>
46.4206

> <b_lp_Chiralities_Consistent>
1

> <s_lp_Variant>
AV-unprocessed.smi:15-1

> <Gold.Version>
5.8.1

> <Gold.Id.Protein>
6NUR|6NUR_protein|mol2

> <Gold.PLP.Fitness>
49.0793

> <Gold.PLP.PLP>
-45.9453

> <Gold.PLP.part.hbond>
-3.0000

> <Gold.PLP.part.metal>
0.0000

> <Gold.PLP.part.buried>
-1.3872

> <Gold.PLP.part.nonpolar>
-43.2211

> <Gold.PLP.part.repulsive>
0.5210

> <Gold.PLP.ligand.clash>
0.0000

> <Gold.PLP.ligand.torsion>
2.2887

> <Gold.PLP.Chemscore.Hbond>
2.3500

> <Gold.PLP.Chemscore.CHOScore>
0.0000

> <Gold.PLP.Chemscore.Metal>
0.0000

> <Gold.Chemscore.Hbonds>
donor molecule, donor type, donor heavy atom, donor atom, acceptor molecule, acceptor atom, score
      L1  H    21    45       P1 10175  0.96
      P1  H  7989  7998       L1    13  0.35
      P1  H  7997  8008       L1    11  0.90

> <Gold.PLP.Chemscore.Internal.Correction>
0.6614

> <Gold.Rescore>
     Score         DG    S(hbond)    S(metal)    S(lipo)     H(rot)  DE(clash)    DE(int)     intcor
      8.97     -17.14       1.75        0.00     108.92       2.71       2.19       5.98       ----

> <Gold.Chemscore.Fitness>
8.9732

> <Gold.Chemscore.DG>
-17.1387

> <Gold.Chemscore.ZeroCoef>
-5.4800

> <Gold.Chemscore.Hbond>
1.7503

> <Gold.Chemscore.Metal>
0.0000

> <Gold.Chemscore.Lipo>
108.9201

> <Gold.Chemscore.Internal_Hbond>
0.0000

> <Gold.Chemscore.DEClash>
2.1869

> <Gold.Chemscore.DEInternal>
5.9786

> <Gold.Chemscore.Rot>
2.7074

> <Gold.Chemscore.Internal.Correction>
   9.000000E+99

> <Gold.Chemscore.Hbonds>
donor molecule, donor type, donor heavy atom, donor atom, acceptor molecule, acceptor atom, score
      L1  H    21    45       P1 10175  0.91
      P1  H  7997  8008       L1    11  0.17

> <Gold.Chemscore.Hbond.Weighted>
-5.8459

> <Gold.Chemscore.Metal.Weighted>
-0.0000

> <Gold.Chemscore.Lipo.Weighted>
-12.7437

> <Gold.Chemscore.Internal_Hbond.Weighted>
0.0000

> <Gold.Chemscore.DEClash.Weighted>
2.1869

> <Gold.Chemscore.DEInternal.Weighted>
5.9786

> <Gold.Chemscore.Rot.Weighted>
6.9308

> <Gold.Chemscore.Internal.Correction.Weighted>
   9.000000E+99

> <Gold.Protein.RotatedTorsions>
[ 6907 6896 6895 6894 ] final  -21.89 input  -60.11 | X-H torsion
[ 7974 7965 7964 7962 ] final -120.84 input  175.53 | X-H torsion
[ 8008 7997 7996 7995 ] final  -40.58 input   59.86 | X-H torsion
[ 10167 10162 10161 10158 ] final -144.22 input  -65.29 | X-H torsion
[ 10718 10713 10712 10709 ] final  162.30 input   66.30 | X-H torsion
[ 10763 10752 10751 10750 ] final  159.87 input  -60.55 | X-H torsion
[ 11005 11000 10999 10996 ] final  -67.55 input  -57.11 | X-H torsion

> <Gold.Protein.ActiveResidues>
 VAL166  LYS551  ARG553  GLY616  TRP617  ASP618  TYR619  PRO620  LYS621  CYS622 
 ASP623  PHE694  ASN695  SER759  ASP760  ASP761  ALA762  ILE779  LEU786  VAL792 
 PHE793  MET794  SER795  GLU796  ALA797  LYS798  CYS799  TRP800  GLU811  SER814 

> <Gold.Protein.RotatedAtoms>
  151.2267  135.0539  159.8971 H   0  0  0  0  0  0  0  0  0  0  0  0  # atno 6907 bound_to 6896
  152.5409  134.0581  159.8150 H   0  0  0  0  0  0  0  0  0  0  0  0  # atno 6908 bound_to 6896
  151.0755  133.5383  159.2656 H   0  0  0  0  0  0  0  0  0  0  0  0  # atno 6909 bound_to 6896
  145.0469  140.8188  143.4232 H   0  0  0  0  0  0  0  0  0  0  0  0  # atno 7974 bound_to 7965
  154.4011  140.1522  156.3050 H   0  0  0  0  0  0  0  0  0  0  0  0  # atno 8008 bound_to 7997
  155.8667  140.3451  155.5771 H   0  0  0  0  0  0  0  0  0  0  0  0  # atno 8009 bound_to 7997
  155.7820  140.0845  157.2044 H   0  0  0  0  0  0  0  0  0  0  0  0  # atno 8010 bound_to 7997
  139.7919  143.7954  152.2650 H   0  0  0  0  0  0  0  0  0  0  0  0  # atno 10167 bound_to 10162
  157.1245  131.0501  151.2400 H   0  0  0  0  0  0  0  0  0  0  0  0  # atno 10718 bound_to 10713
  154.2385  135.2775  155.2863 H   0  0  0  0  0  0  0  0  0  0  0  0  # atno 10763 bound_to 10752
  154.5565  135.5660  153.6972 H   0  0  0  0  0  0  0  0  0  0  0  0  # atno 10764 bound_to 10752
  153.0005  135.6287  154.2528 H   0  0  0  0  0  0  0  0  0  0  0  0  # atno 10765 bound_to 10752
  141.1510  133.6721  156.6309 H   0  0  0  0  0  0  0  0  0  0  0  0  # atno 11005 bound_to 11000
  145.1576  139.2477  143.5408 LP  0  0  0  0  0  0  0  0  0  0  0  0  # atno 17320 bound_to 7965
  146.3514  140.1295  142.8597 LP  0  0  0  0  0  0  0  0  0  0  0  0  # atno 17321 bound_to 7965
  139.8048  144.7360  150.9777 LP  0  0  0  0  0  0  0  0  0  0  0  0  # atno 17342 bound_to 10162
  140.7820  143.4309  151.0696 LP  0  0  0  0  0  0  0  0  0  0  0  0  # atno 17343 bound_to 10162
  157.4447  130.7564  149.7099 LP  0  0  0  0  0  0  0  0  0  0  0  0  # atno 17370 bound_to 10713
  155.9821  130.4013  150.3434 LP  0  0  0  0  0  0  0  0  0  0  0  0  # atno 17371 bound_to 10713
  140.3467  134.7803  157.4437 LP  0  0  0  0  0  0  0  0  0  0  0  0  # atno 17394 bound_to 11000
  140.0894  134.5622  155.8460 LP  0  0  0  0  0  0  0  0  0  0  0  0  # atno 17395 bound_to 11000

$$$$
