#       Name:                AV-unprocessed.smi:2424
#       Creating user name   scv26
#       Creation time:       Fri Mar 27 13:20:10 2020


#       File generated by GOLD software.
#

@<TRIPOS>MOLECULE
AV-unprocessed.smi:2424
    56    57     1
SMALL
NO_CHARGES


@<TRIPOS>ATOM
      1 ****        -0.0070  -1.9988   1.8041 C.3            1 S1                 0.0000
      2 ****        -0.9897  -2.2599   0.6472 C.3            1 S1                 0.0000
      3 ****        -1.8191  -1.0431   0.1406 C.3            1 S1                 0.0000
      4 ****        -2.4947  -0.3387   1.3329 C.3            1 S1                 0.0000
      5 ****        -3.5212  -1.1992   2.0864 C.3            1 S1                 0.0000
      6 ****        -1.1468  -0.0883  -0.8869 C.3            1 S1                 0.0000
      7 ****         0.3110  -0.0467  -0.8484 N.am           1 S1                 0.0000
      8 ****         1.0280   0.9250  -0.2679 C.2            1 S1                 0.0000
      9 ****         0.5184   1.8929   0.2962 O.2            1 S1                 0.0000
     10 ****         2.3452   0.6787  -0.3805 N.am           1 S1                 0.0000
     11 ****         3.4224   1.4366   0.0967 C.2            1 S1                 0.0000
     12 ****         4.7173   0.9930  -0.0802 C.2            1 S1                 0.0000
     13 ****         5.8731   1.5759   0.3048 N.pl3          1 S1                -1.0000
     14 ****         5.8034   2.7693   0.9613 C.2            1 S1                 0.0000
     15 ****         6.8139   3.3583   1.3433 O.2            1 S1                 0.0000
     16 ****         4.4762   3.3647   1.2168 C.2            1 S1                 0.0000
     17 ****         4.4024   4.6968   1.9437 C.3            1 S1                 0.0000
     18 ****         3.3591   2.7181   0.7992 C.2            1 S1                 0.0000
     19 ****        -1.6770  -0.9593  -2.0311 C.3            1 S1                 0.0000
     20 ****        -2.0435  -0.2921  -3.3503 C.3            1 S1                 0.0000
     21 ****        -2.7797  -1.3564  -1.0386 C.3            1 S1                 0.0000
     22 ****        -3.1697  -2.7211  -1.0870 O.3            1 S1                 0.0000
     23 ****        -4.0904  -3.0033  -2.1255 C.3            1 S1                 0.0000
     24 ****         0.5843  -2.8921   2.0057 H              1 S1                 0.0000
     25 ****        -0.5257  -1.7497   2.7292 H              1 S1                 0.0000
     26 ****         0.6913  -1.1941   1.5849 H              1 S1                 0.0000
     27 ****        -0.4184  -2.6894  -0.1756 H              1 S1                 0.0000
     28 ****        -1.6588  -3.0621   0.9587 H              1 S1                 0.0000
     29 ****        -1.7517   0.0465   2.0306 H              1 S1                 0.0000
     30 ****        -3.0162   0.5508   0.9775 H              1 S1                 0.0000
     31 ****        -4.0123  -0.6155   2.8651 H              1 S1                 0.0000
     32 ****        -3.0554  -2.0574   2.5699 H              1 S1                 0.0000
     33 ****        -4.2960  -1.5709   1.4155 H              1 S1                 0.0000
     34 ****        -1.6146   0.8995  -0.9043 H              1 S1                 0.0000
     35 ****         0.8050  -0.8091  -1.2883 H              1 S1                 0.0000
     36 ****         2.6055  -0.1675  -0.8654 H              1 S1                 0.0000
     37 ****         4.8433   0.0231  -0.6083 H              1 S1                 0.0000
     38 ****         3.3702   5.0233   2.0726 H              1 S1                 0.0000
     39 ****         4.9318   5.4668   1.3816 H              1 S1                 0.0000
     40 ****         4.8563   4.6170   2.9318 H              1 S1                 0.0000
     41 ****         2.4092   3.1856   0.9999 H              1 S1                 0.0000
     42 ****        -1.0123  -1.8082  -2.2013 H              1 S1                 0.0000
     43 ****        -2.7757   0.5024  -3.2055 H              1 S1                 0.0000
     44 ****        -2.4663  -1.0068  -4.0559 H              1 S1                 0.0000
     45 ****        -1.1660   0.1520  -3.8206 H              1 S1                 0.0000
     46 ****        -3.6319  -0.6722  -1.0622 H              1 S1                 0.0000
     47 ****        -4.3775  -4.0536  -2.0804 H              1 S1                 0.0000
     48 ****        -3.6538  -2.8188  -3.1066 H              1 S1                 0.0000
     49 ****        -4.9957  -2.4035  -2.0240 H              1 S1                 0.0000
     50 ****        -0.4769   1.9811   0.3366 LP             1 S1                 0.0000
     51 ****         1.0996   2.5912   0.7141 LP             1 S1                 0.0000
     52 ****         6.7550   1.1448   0.1139 LP             1 S1                 0.0000
     53 ****         7.7169   2.9631   1.1747 LP             1 S1                 0.0000
     54 ****         6.7322   4.2323   1.8223 LP             1 S1                 0.0000
     55 ****        -3.5928  -2.9616  -0.2135 LP             1 S1                 0.0000
     56 ****        -2.3524  -3.2801  -1.2266 LP             1 S1                 0.0000
@<TRIPOS>BOND
    1    1    2 1     
    2    1   24 1     
    3    1   25 1     
    4    1   26 1     
    5    2    3 1     
    6    2   27 1     
    7    2   28 1     
    8    3   21 1     
    9    3    4 1     
   10    3    6 1     
   11    4    5 1     
   12    4   29 1     
   13    4   30 1     
   14    5   31 1     
   15    5   32 1     
   16    5   33 1     
   17    6    7 1     
   18    6   19 1     
   19    6   34 1     
   20    7    8 am    
   21    7   35 1     
   22    8    9 2     
   23    8   10 am    
   24   10   11 1     
   25   10   36 1     
   26   11   18 1     
   27   11   12 2     
   28   12   13 1     
   29   12   37 1     
   30   13   14 1     
   31   14   15 2     
   32   14   16 1     
   33   16   17 1     
   34   16   18 2     
   35   17   38 1     
   36   17   39 1     
   37   17   40 1     
   38   18   41 1     
   39   19   20 1     
   40   19   21 1     
   41   19   42 1     
   42   20   43 1     
   43   20   44 1     
   44   20   45 1     
   45   21   22 1     
   46   21   46 1     
   47   22   23 1     
   48   23   47 1     
   49   23   48 1     
   50   23   49 1     
   51    9   50 1     
   52    9   51 1     
   53   13   52 1     
   54   15   53 1     
   55   15   54 1     
   56   22   55 1     
   57   22   56 1     
@<TRIPOS>SUBSTRUCTURE
      1 S1             1
@<TRIPOS>SET
LONE_PAIRS      STATIC     ATOMS    <user>   **** ""
7 50 51 52 53 54 55 56
DONOR_HYDROGENS      STATIC     ATOMS    <user>   **** ""
2 35 36
ATOM$BLUE        STATIC     ATOMS    COLORGROUP SYSTEM
7 50 51 52 53 54 55 56
ATOM$RED        STATIC     ATOMS    COLORGROUP SYSTEM
2 35 36
