AV-unprocessed.smi:288|AV-procd|sdf|2209|dock3
  -GOLD-   2262022 43D 1   1.00000     0.00000
 Structure written by MMmdl.
 33 34  0  0  0  0  0  0  0  0  1 V2000
  152.4182  137.0267  159.8887 O   0  0  0  0  0  0  0  0  0  0  0  0
  152.5535  138.2492  159.8126 C   0  0  0  0  0  0  0  0  0  0  0  0
  151.5014  139.1467  159.3498 C   0  0  0  0  0  0  0  0  0  0  0  0
  150.3160  138.6395  158.9706 F   0  0  0  0  0  0  0  0  0  0  0  0
  151.6927  140.4828  159.3013 C   0  0  0  0  0  0  0  0  0  0  0  0
  152.8774  141.0943  159.6850 N   0  0  0  0  0  0  0  0  0  0  0  0
  153.0979  142.5927  159.6092 C   0  0  2  0  0  0  0  0  0  0  0  0
  152.4663  143.4119  160.7388 C   0  0  0  0  0  0  0  0  0  0  0  0
  152.4051  144.7671  160.0740 C   0  0  0  0  0  0  0  0  0  0  0  0
  151.9995  144.3868  158.6506 C   0  0  0  0  0  0  0  0  0  0  0  0
  152.5012  143.0675  158.4386 O   0  0  0  0  0  0  0  0  0  0  0  0
  153.9444  140.2993  160.1620 C   0  0  0  0  0  0  0  0  0  0  0  0
  154.9946  140.8190  160.5470 O   0  0  0  0  0  0  0  0  0  0  0  0
  153.7541  138.8980  160.1894 N   0  0  0  0  0  0  0  0  0  0  0  0
  154.8484  138.0696  160.6695 C   0  0  0  0  0  0  0  0  0  0  0  0
  155.3886  138.5092  162.0488 C   0  0  2  0  0  0  0  0  0  0  0  0
  156.6907  139.0345  161.8753 O   0  0  0  0  0  0  0  0  0  0  0  0
  155.4791  137.3369  163.0456 C   0  0  0  0  0  0  0  0  0  0  0  0
  155.9948  137.7536  164.2024 F   0  0  0  0  0  0  0  0  0  0  0  0
  154.2556  136.8670  163.2898 F   0  0  0  0  0  0  0  0  0  0  0  0
  156.2253  136.3469  162.5535 F   0  0  0  0  0  0  0  0  0  0  0  0
  150.8569  141.0725  158.9621 H   0  0  0  0  0  0  0  0  0  0  0  0
  154.1808  142.7269  159.5666 H   0  0  0  0  0  0  0  0  0  0  0  0
  151.4472  143.0833  160.9422 H   0  0  0  0  0  0  0  0  0  0  0  0
  153.0655  143.3806  161.6490 H   0  0  0  0  0  0  0  0  0  0  0  0
  151.7007  145.4497  160.5501 H   0  0  0  0  0  0  0  0  0  0  0  0
  153.3918  145.2328  160.0766 H   0  0  0  0  0  0  0  0  0  0  0  0
  150.9135  144.3640  158.5529 H   0  0  0  0  0  0  0  0  0  0  0  0
  152.3917  145.0845  157.9103 H   0  0  0  0  0  0  0  0  0  0  0  0
  154.4681  137.0473  160.7013 H   0  0  0  0  0  0  0  0  0  0  0  0
  155.6267  138.0343  159.9051 H   0  0  0  0  0  0  0  0  0  0  0  0
  154.7549  139.2854  162.4798 H   0  0  0  0  0  0  0  0  0  0  0  0
  156.9282  139.5119  162.6556 H   0  0  0  0  0  0  0  0  0  0  0  0
  1  2  2  0  0  0  0
  2 14  1  0  0  0  0
  2  3  1  0  0  0  0
  3  4  1  0  0  0  0
  3  5  2  0  0  0  0
  5  6  1  0  0  0  0
  5 22  1  0  0  0  0
  6  7  1  0  0  0  0
  6 12  1  0  0  0  0
  7 11  1  0  0  0  0
  7  8  1  0  0  0  0
  7 23  1  0  0  0  0
  8  9  1  0  0  0  0
  8 24  1  0  0  0  0
  8 25  1  0  0  0  0
  9 10  1  0  0  0  0
  9 26  1  0  0  0  0
  9 27  1  0  0  0  0
 10 11  1  0  0  0  0
 10 28  1  0  0  0  0
 10 29  1  0  0  0  0
 12 13  2  0  0  0  0
 12 14  1  0  0  0  0
 14 15  1  0  0  0  0
 15 16  1  0  0  0  0
 15 30  1  0  0  0  0
 15 31  1  0  0  0  0
 16 17  1  0  0  0  0
 16 18  1  0  0  0  0
 16 32  1  0  0  0  0
 17 33  1  0  0  0  0
 18 19  1  0  0  0  0
 18 20  1  0  0  0  0
 18 21  1  0  0  0  0
M  END
> <s_m_source_file>
AV-unprocessed.smi

> <i_m_source_file_index>
288

> <i_lp_mmshare_version>
43012

> <i_f3d_flags>
0

> <s_epik_input>
TzFbQ0gyXVtDSDJdW0NIMl1bQ0BIXTFuKFtjSF1jKEYpYzI9TyljKD1PKW4yW0NIMl1bQ0BIXShbT0hdKUMoRikoRilG

> <s_epik_cmdline>
J2VwaWtfcHl0aG9uJywgJy1waCcsICc3LjAnLCAnLXRuJywgJzgnLCAnLW1hJywgJzIwMCcsICctbWV0YWxfYmluZGluZycsICctaW1hZScsICc8aW5maWxlLm1hZT4nLCAnLW9tYWUnLCAnPG91dGZpbGUubWFlPic=

> <r_lp_tautomer_probability>
1

> <r_epik_Ionization_Penalty>
0.000551119

> <r_epik_Ionization_Penalty_Charging>
2.51184e-08

> <r_epik_Ionization_Penalty_Neutral>
0.000551094

> <r_epik_State_Penalty>
0.000345115

> <r_epik_Charging_Adjusted_Penalty>
0.00034514

> <i_epik_Tot_Q>
0

> <i_epik_Tot_abs_Q>
0

> <r_epik_Metal_State_Penalty>
-0

> <b_epik_Metal_Only>
0

> <s_epik_Chemistry_Notes>
This compound contains an acetal/aminal-like group ( X-CH(R)-Y where X, Y are N, S, or O) that may be acid/base labile, releasing an aldehyde.

> <s_lp_Force_Field>
OPLS_2005

> <r_lp_Energy>
36.863

> <b_lp_Chiralities_Consistent>
1

> <s_lp_Variant>
AV-unprocessed.smi:288-1

> <Gold.Version>
5.8.1

> <Gold.Id.Protein>
6NUR|6NUR_protein|mol2

> <Gold.PLP.Fitness>
44.4398

> <Gold.PLP.PLP>
-44.4385

> <Gold.PLP.part.hbond>
-1.8215

> <Gold.PLP.part.metal>
0.0000

> <Gold.PLP.part.buried>
-5.6245

> <Gold.PLP.part.nonpolar>
-36.9737

> <Gold.PLP.part.repulsive>
0.0000

> <Gold.PLP.ligand.clash>
0.0000

> <Gold.PLP.ligand.torsion>
1.3214

> <Gold.PLP.Chemscore.Hbond>
0.8775

> <Gold.PLP.Chemscore.CHOScore>
0.0000

> <Gold.PLP.Chemscore.Metal>
0.0000

> <Gold.Chemscore.Hbonds>
donor molecule, donor type, donor heavy atom, donor atom, acceptor molecule, acceptor atom, score
      P1  H  6896  6908       L1     1  1.00

> <Gold.PLP.Chemscore.Internal.Correction>
0.0116

> <Gold.Rescore>
     Score         DG    S(hbond)    S(metal)    S(lipo)     H(rot)  DE(clash)    DE(int)     intcor
      8.87      -9.63       1.00        0.00      63.07       2.57       0.01       0.75       ----

> <Gold.Chemscore.Fitness>
8.8705

> <Gold.Chemscore.DG>
-9.6312

> <Gold.Chemscore.ZeroCoef>
-5.4800

> <Gold.Chemscore.Hbond>
1.0000

> <Gold.Chemscore.Metal>
0.0000

> <Gold.Chemscore.Lipo>
63.0694

> <Gold.Chemscore.Internal_Hbond>
0.0000

> <Gold.Chemscore.DEClash>
0.0098

> <Gold.Chemscore.DEInternal>
0.7509

> <Gold.Chemscore.Rot>
2.5656

> <Gold.Chemscore.Internal.Correction>
   9.000000E+99

> <Gold.Chemscore.Hbonds>
donor molecule, donor type, donor heavy atom, donor atom, acceptor molecule, acceptor atom, score
      P1  H  6896  6908       L1     1  0.96

> <Gold.Chemscore.Hbond.Weighted>
-3.3399

> <Gold.Chemscore.Metal.Weighted>
-0.0000

> <Gold.Chemscore.Lipo.Weighted>
-7.3791

> <Gold.Chemscore.Internal_Hbond.Weighted>
0.0000

> <Gold.Chemscore.DEClash.Weighted>
0.0098

> <Gold.Chemscore.DEInternal.Weighted>
0.7509

> <Gold.Chemscore.Rot.Weighted>
6.5679

> <Gold.Chemscore.Internal.Correction.Weighted>
   9.000000E+99

> <Gold.Protein.RotatedTorsions>
[ 6907 6896 6895 6894 ] final  -97.32 input  -60.11 | X-H torsion
[ 7974 7965 7964 7962 ] final -153.47 input  175.53 | X-H torsion
[ 8008 7997 7996 7995 ] final -123.95 input   59.86 | X-H torsion
[ 10167 10162 10161 10158 ] final   63.35 input  -65.29 | X-H torsion
[ 10718 10713 10712 10709 ] final   -4.82 input   66.30 | X-H torsion
[ 10763 10752 10751 10750 ] final  -37.88 input  -60.55 | X-H torsion
[ 11005 11000 10999 10996 ] final  -96.71 input  -57.11 | X-H torsion

> <Gold.Protein.ActiveResidues>
 VAL166  LYS551  ARG553  GLY616  TRP617  ASP618  TYR619  PRO620  LYS621  CYS622 
 ASP623  PHE694  ASN695  SER759  ASP760  ASP761  ALA762  ILE779  LEU786  VAL792 
 PHE793  MET794  SER795  GLU796  ALA797  LYS798  CYS799  TRP800  GLU811  SER814 

> <Gold.Protein.RotatedAtoms>
  150.7013  134.1367  159.4089 H   0  0  0  0  0  0  0  0  0  0  0  0  # atno 6907 bound_to 6896
  151.9352  135.0236  160.0541 H   0  0  0  0  0  0  0  0  0  0  0  0  # atno 6908 bound_to 6896
  152.2141  133.4898  159.5163 H   0  0  0  0  0  0  0  0  0  0  0  0  # atno 6909 bound_to 6896
  144.7739  140.4521  143.5887 H   0  0  0  0  0  0  0  0  0  0  0  0  # atno 7974 bound_to 7965
  155.1888  140.0412  157.2896 H   0  0  0  0  0  0  0  0  0  0  0  0  # atno 8008 bound_to 7997
  154.6153  140.2487  155.7590 H   0  0  0  0  0  0  0  0  0  0  0  0  # atno 8009 bound_to 7997
  156.2402  140.2906  156.0434 H   0  0  0  0  0  0  0  0  0  0  0  0  # atno 8010 bound_to 7997
  140.1340  144.4617  150.6849 H   0  0  0  0  0  0  0  0  0  0  0  0  # atno 10167 bound_to 10162
  156.7556  130.5253  149.5795 H   0  0  0  0  0  0  0  0  0  0  0  0  # atno 10718 bound_to 10713
  153.9037  135.6800  153.4754 H   0  0  0  0  0  0  0  0  0  0  0  0  # atno 10763 bound_to 10752
  153.1116  135.4780  154.9042 H   0  0  0  0  0  0  0  0  0  0  0  0  # atno 10764 bound_to 10752
  154.7562  135.3198  154.8419 H   0  0  0  0  0  0  0  0  0  0  0  0  # atno 10765 bound_to 10752
  141.1402  133.8118  157.0608 H   0  0  0  0  0  0  0  0  0  0  0  0  # atno 11005 bound_to 11000
  145.6243  139.1528  143.3005 LP  0  0  0  0  0  0  0  0  0  0  0  0  # atno 17320 bound_to 7965
  146.1905  140.6351  142.9148 LP  0  0  0  0  0  0  0  0  0  0  0  0  # atno 17321 bound_to 7965
  140.6800  143.2322  151.5408 LP  0  0  0  0  0  0  0  0  0  0  0  0  # atno 17342 bound_to 10162
  139.5505  144.2407  152.1522 LP  0  0  0  0  0  0  0  0  0  0  0  0  # atno 17343 bound_to 10162
  156.1372  130.6220  151.0417 LP  0  0  0  0  0  0  0  0  0  0  0  0  # atno 17370 bound_to 10713
  157.6758  131.0851  150.7499 LP  0  0  0  0  0  0  0  0  0  0  0  0  # atno 17371 bound_to 10713
  140.0572  134.9774  157.1242 LP  0  0  0  0  0  0  0  0  0  0  0  0  # atno 17394 bound_to 11000
  140.3901  134.2193  155.7166 LP  0  0  0  0  0  0  0  0  0  0  0  0  # atno 17395 bound_to 11000

$$$$
