AV-unprocessed.smi:1629|AV-procd|sdf|6523|dock6
  -GOLD-   22720 7203D 1   1.00000     0.00000
 Structure written by MMmdl.
 43 44  0  0  0  0  0  0  0  0  2 V2000
  149.2201  133.5018  154.9024 C   0  0  0  0  0  0  0  0  0  0  0  0
  148.4000  133.7568  156.5259 S   0  0  0  0  0  0  0  0  0  0  0  0
  147.1116  133.0508  156.4386 O   0  0  0  0  0  0  0  0  0  0  0  0
  149.3589  133.2840  157.5374 O   0  0  0  0  0  0  0  0  0  0  0  0
  148.2338  135.3703  156.5248 N   0  5  0  0  0  0  0  0  0  0  0  0
  148.8523  136.1633  155.4721 C   0  0  0  0  0  0  0  0  0  0  0  0
  150.3980  136.1802  155.6187 C   0  0  0  0  0  0  0  0  0  0  0  0
  151.0919  137.2012  154.6755 C   0  0  0  0  0  0  0  0  0  0  0  0
  150.5589  138.5651  154.8921 N   0  0  0  0  0  0  0  0  0  0  0  0
  151.2223  139.6288  155.4105 C   0  0  0  0  0  0  0  0  0  0  0  0
  152.4507  139.7105  155.4454 O   0  0  0  0  0  0  0  0  0  0  0  0
  150.4300  140.6021  155.8842 N   0  0  0  0  0  0  0  0  0  0  0  0
  150.8928  141.8412  156.4964 C   0  0  0  0  0  0  0  0  0  0  0  0
  150.8181  141.7690  158.0312 C   0  0  0  0  0  0  0  0  0  0  0  0
  151.2998  143.0357  158.7187 C   0  0  0  0  0  0  0  0  0  0  0  0
  151.8367  144.1045  157.9686 C   0  0  0  0  0  0  0  0  0  0  0  0
  152.2529  145.2623  158.6536 C   0  0  0  0  0  0  0  0  0  0  0  0
  152.1185  145.3063  160.0547 C   0  0  0  0  0  0  0  0  0  0  0  0
  151.5699  144.1866  160.7111 C   0  0  0  0  0  0  0  0  0  0  0  0
  151.1657  143.0725  160.0634 N   0  0  0  0  0  0  0  0  0  0  0  0
  149.1145  138.5929  154.5962 C   0  0  0  0  0  0  0  0  0  0  0  0
  148.3400  137.6262  155.5354 C   0  0  0  0  0  0  0  0  0  0  0  0
  149.4039  132.4382  154.7546 H   0  0  0  0  0  0  0  0  0  0  0  0
  150.1671  134.0402  154.8847 H   0  0  0  0  0  0  0  0  0  0  0  0
  148.5746  133.8733  154.1071 H   0  0  0  0  0  0  0  0  0  0  0  0
  148.6096  135.7754  154.4819 H   0  0  0  0  0  0  0  0  0  0  0  0
  150.6664  136.4215  156.6486 H   0  0  0  0  0  0  0  0  0  0  0  0
  150.7999  135.1854  155.4257 H   0  0  0  0  0  0  0  0  0  0  0  0
  152.1705  137.1297  154.8133 H   0  0  0  0  0  0  0  0  0  0  0  0
  150.9324  136.9262  153.6306 H   0  0  0  0  0  0  0  0  0  0  0  0
  149.4311  140.4692  155.8208 H   0  0  0  0  0  0  0  0  0  0  0  0
  151.9220  142.0207  156.1828 H   0  0  0  0  0  0  0  0  0  0  0  0
  150.2977  142.6825  156.1377 H   0  0  0  0  0  0  0  0  0  0  0  0
  149.7921  141.5646  158.3397 H   0  0  0  0  0  0  0  0  0  0  0  0
  151.4122  140.9256  158.3859 H   0  0  0  0  0  0  0  0  0  0  0  0
  151.9221  144.0428  156.8934 H   0  0  0  0  0  0  0  0  0  0  0  0
  152.6664  146.1015  158.1138 H   0  0  0  0  0  0  0  0  0  0  0  0
  152.4276  146.1774  160.6132 H   0  0  0  0  0  0  0  0  0  0  0  0
  151.4516  144.1863  161.7845 H   0  0  0  0  0  0  0  0  0  0  0  0
  148.6942  139.5943  154.6966 H   0  0  0  0  0  0  0  0  0  0  0  0
  148.9600  138.3235  153.5493 H   0  0  0  0  0  0  0  0  0  0  0  0
  147.2777  137.6538  155.2903 H   0  0  0  0  0  0  0  0  0  0  0  0
  148.4245  137.9997  156.5575 H   0  0  0  0  0  0  0  0  0  0  0  0
  1  2  1  0  0  0  0
  1 23  1  0  0  0  0
  1 24  1  0  0  0  0
  1 25  1  0  0  0  0
  2  3  2  0  0  0  0
  2  4  2  0  0  0  0
  2  5  1  0  0  0  0
  5  6  1  0  0  0  0
  6 22  1  0  0  0  0
  6  7  1  0  0  0  0
  6 26  1  0  0  0  0
  7  8  1  0  0  0  0
  7 27  1  0  0  0  0
  7 28  1  0  0  0  0
  8  9  1  0  0  0  0
  8 29  1  0  0  0  0
  8 30  1  0  0  0  0
  9 10  1  0  0  0  0
  9 21  1  0  0  0  0
 10 11  2  0  0  0  0
 10 12  1  0  0  0  0
 12 13  1  0  0  0  0
 12 31  1  0  0  0  0
 13 14  1  0  0  0  0
 13 32  1  0  0  0  0
 13 33  1  0  0  0  0
 14 15  1  0  0  0  0
 14 34  1  0  0  0  0
 14 35  1  0  0  0  0
 15 20  1  0  0  0  0
 15 16  2  0  0  0  0
 16 17  1  0  0  0  0
 16 36  1  0  0  0  0
 17 18  2  0  0  0  0
 17 37  1  0  0  0  0
 18 19  1  0  0  0  0
 18 38  1  0  0  0  0
 19 20  2  0  0  0  0
 19 39  1  0  0  0  0
 21 22  1  0  0  0  0
 21 40  1  0  0  0  0
 21 41  1  0  0  0  0
 22 42  1  0  0  0  0
 22 43  1  0  0  0  0
M  CHG  1   5  -1
M  END
> <s_m_source_file>
AV-unprocessed.smi

> <i_m_source_file_index>
1629

> <i_lp_mmshare_version>
43012

> <i_f3d_flags>
0

> <s_epik_input>
W0NIM11TKD1PKSg9TylbTkhdW0NIXTFbQ0gyXVtDSDJdTihbQ0gyXVtDSDJdMSlDKD1PKVtOSF1bQ0gyXVtDSDJdYzJbY0hdW2NIXVtjSF1bY0hdbjI=

> <s_epik_cmdline>
J2VwaWtfcHl0aG9uJywgJy1waCcsICc3LjAnLCAnLXRuJywgJzgnLCAnLW1hJywgJzIwMCcsICctbWV0YWxfYmluZGluZycsICctaW1hZScsICc8aW5maWxlLm1hZT4nLCAnLW9tYWUnLCAnPG91dGZpbGUubWFlPic=

> <r_epik_Ionization_Penalty>
6.75298

> <r_epik_Ionization_Penalty_Charging>
6.70803

> <r_epik_Ionization_Penalty_Neutral>
0.0449518

> <r_epik_State_Penalty>
6.74601

> <r_epik_Charging_Adjusted_Penalty>
13.454

> <i_epik_Tot_Q>
-1

> <i_epik_Tot_abs_Q>
1

> <r_epik_Metal_State_Penalty>
2.70902

> <b_epik_Metal_Only>
1

> <s_lp_Force_Field>
OPLS_2005

> <r_lp_Energy>
26.8071

> <b_lp_Chiralities_Consistent>
1

> <s_lp_Variant>
AV-unprocessed.smi:1629-3

> <Gold.Version>
5.8.1

> <Gold.Id.Protein>
6NUR|6NUR_protein|mol2

> <Gold.PLP.Fitness>
45.9855

> <Gold.PLP.PLP>
-42.0889

> <Gold.PLP.part.hbond>
-3.9076

> <Gold.PLP.part.metal>
0.0000

> <Gold.PLP.part.buried>
-5.3701

> <Gold.PLP.part.nonpolar>
-33.9990

> <Gold.PLP.part.repulsive>
0.1386

> <Gold.PLP.ligand.clash>
1.0242

> <Gold.PLP.ligand.torsion>
1.0227

> <Gold.PLP.Chemscore.Hbond>
1.9913

> <Gold.PLP.Chemscore.CHOScore>
0.0000

> <Gold.PLP.Chemscore.Metal>
0.0000

> <Gold.Chemscore.Hbonds>
donor molecule, donor type, donor heavy atom, donor atom, acceptor molecule, acceptor atom, score
      P1  H  6896  6907       L1     4  0.21
      P1  H  7997  8009       L1    11  0.89

> <Gold.PLP.Chemscore.Internal.Correction>
0.9925

> <Gold.Rescore>
     Score         DG    S(hbond)    S(metal)    S(lipo)     H(rot)  DE(clash)    DE(int)     intcor
     18.59     -19.68       1.99        0.00     101.28       1.68       0.06       1.03       ----

> <Gold.Chemscore.Fitness>
18.5930

> <Gold.Chemscore.DG>
-19.6817

> <Gold.Chemscore.ZeroCoef>
-5.4800

> <Gold.Chemscore.Hbond>
1.9930

> <Gold.Chemscore.Metal>
0.0000

> <Gold.Chemscore.Lipo>
101.2759

> <Gold.Chemscore.Internal_Hbond>
0.0000

> <Gold.Chemscore.DEClash>
0.0618

> <Gold.Chemscore.DEInternal>
1.0269

> <Gold.Chemscore.Rot>
1.6813

> <Gold.Chemscore.Internal.Correction>
   9.000000E+99

> <Gold.Chemscore.Hbonds>
donor molecule, donor type, donor heavy atom, donor atom, acceptor molecule, acceptor atom, score
      P1  H  6896  6907       L1     4  0.23
      P1  H  7997  8009       L1    11  0.86

> <Gold.Chemscore.Hbond.Weighted>
-6.6567

> <Gold.Chemscore.Metal.Weighted>
-0.0000

> <Gold.Chemscore.Lipo.Weighted>
-11.8493

> <Gold.Chemscore.Internal_Hbond.Weighted>
0.0000

> <Gold.Chemscore.DEClash.Weighted>
0.0618

> <Gold.Chemscore.DEInternal.Weighted>
1.0269

> <Gold.Chemscore.Rot.Weighted>
4.3042

> <Gold.Chemscore.Internal.Correction.Weighted>
   9.000000E+99

> <Gold.Protein.RotatedTorsions>
[ 6907 6896 6895 6894 ] final -136.87 input  -60.11 | X-H torsion
[ 7974 7965 7964 7962 ] final   58.10 input  175.53 | X-H torsion
[ 8008 7997 7996 7995 ] final -151.33 input   59.86 | X-H torsion
[ 10167 10162 10161 10158 ] final -138.25 input  -65.29 | X-H torsion
[ 10718 10713 10712 10709 ] final   20.99 input   66.30 | X-H torsion
[ 10763 10752 10751 10750 ] final -173.27 input  -60.55 | X-H torsion
[ 11005 11000 10999 10996 ] final   -3.52 input  -57.11 | X-H torsion

> <Gold.Protein.ActiveResidues>
 VAL166  LYS551  ARG553  GLY616  TRP617  ASP618  TYR619  PRO620  LYS621  CYS622 
 ASP623  PHE694  ASN695  SER759  ASP760  ASP761  ALA762  ILE779  LEU786  VAL792 
 PHE793  MET794  SER795  GLU796  ALA797  LYS798  CYS799  TRP800  GLU811  SER814 

> <Gold.Protein.RotatedAtoms>
  151.0154  133.5926  159.2677 H   0  0  0  0  0  0  0  0  0  0  0  0  # atno 6907 bound_to 6896
  151.3062  135.0781  159.9266 H   0  0  0  0  0  0  0  0  0  0  0  0  # atno 6908 bound_to 6896
  152.5310  133.9827  159.7868 H   0  0  0  0  0  0  0  0  0  0  0  0  # atno 6909 bound_to 6896
  145.9218  139.3736  143.0473 H   0  0  0  0  0  0  0  0  0  0  0  0  # atno 7974 bound_to 7965
  155.6376  140.0698  157.2629 H   0  0  0  0  0  0  0  0  0  0  0  0  # atno 8008 bound_to 7997
  154.4191  140.1756  156.1588 H   0  0  0  0  0  0  0  0  0  0  0  0  # atno 8009 bound_to 7997
  155.9881  140.3347  155.6730 H   0  0  0  0  0  0  0  0  0  0  0  0  # atno 8010 bound_to 7997
  139.8497  143.7215  152.2658 H   0  0  0  0  0  0  0  0  0  0  0  0  # atno 10167 bound_to 10162
  157.1322  130.6596  149.5955 H   0  0  0  0  0  0  0  0  0  0  0  0  # atno 10718 bound_to 10713
  154.6097  135.2863  155.0445 H   0  0  0  0  0  0  0  0  0  0  0  0  # atno 10763 bound_to 10752
  154.1679  135.6477  153.5006 H   0  0  0  0  0  0  0  0  0  0  0  0  # atno 10764 bound_to 10752
  153.0190  135.5394  154.6847 H   0  0  0  0  0  0  0  0  0  0  0  0  # atno 10765 bound_to 10752
  140.6703  133.9243  155.8490 H   0  0  0  0  0  0  0  0  0  0  0  0  # atno 11005 bound_to 11000
  145.8540  140.9513  143.0735 LP  0  0  0  0  0  0  0  0  0  0  0  0  # atno 17320 bound_to 7965
  144.6754  140.0443  143.7480 LP  0  0  0  0  0  0  0  0  0  0  0  0  # atno 17321 bound_to 7965
  139.7478  144.7542  151.0553 LP  0  0  0  0  0  0  0  0  0  0  0  0  # atno 17342 bound_to 10162
  140.7789  143.4896  150.9910 LP  0  0  0  0  0  0  0  0  0  0  0  0  # atno 17343 bound_to 10162
  155.9805  130.4807  150.6778 LP  0  0  0  0  0  0  0  0  0  0  0  0  # atno 17370 bound_to 10713
  157.4382  131.0858  151.0970 LP  0  0  0  0  0  0  0  0  0  0  0  0  # atno 17371 bound_to 10713
  141.0397  134.0638  157.3916 LP  0  0  0  0  0  0  0  0  0  0  0  0  # atno 17394 bound_to 11000
  139.8984  135.0154  156.7146 LP  0  0  0  0  0  0  0  0  0  0  0  0  # atno 17395 bound_to 11000

$$$$
