#       Name:                AV-unprocessed.smi:525
#       Creating user name   scv26
#       Creation time:       Thu Mar 26 23:28:46 2020


#       File generated by GOLD software.
#

@<TRIPOS>MOLECULE
AV-unprocessed.smi:525
    48    50     1
SMALL
NO_CHARGES


@<TRIPOS>ATOM
      1 ****        -4.1570   3.2105  -1.2223 C.3            1 S1                 0.0000
      2 ****        -3.7575   1.9506  -1.7331 O.3            1 S1                 0.0000
      3 ****        -2.4124   1.6384  -1.4159 C.3            1 S1                 0.0000
      4 ****        -2.0708   0.2677  -2.0124 C.3            1 S1                 0.0000
      5 ****        -0.6927  -0.1340  -1.7034 N.pl3          1 S1                 0.0000
      6 ****        -0.2015  -0.9020  -0.6913 C.2            1 S1                 0.0000
      7 ****        -1.1486  -1.6569   0.5940 S.3            1 S1                 0.0000
      8 ****         0.0451  -2.4221   1.7409 C.3            1 S1                 0.0000
      9 ****        -0.6114  -3.3022   2.8129 C.2            1 S1                 0.0000
     10 ****        -1.6945  -2.8301   3.4379 N.am           1 S1                 0.0000
     11 ****        -0.1347  -4.4027   3.0816 O.2            1 S1                 0.0000
     12 ****         0.9339  -1.3646   2.3909 C.ar           1 S1                 0.0000
     13 ****         0.3819  -0.2079   2.9887 C.ar           1 S1                 0.0000
     14 ****         1.2205   0.7619   3.5710 C.ar           1 S1                 0.0000
     15 ****         2.6167   0.5832   3.5625 C.ar           1 S1                 0.0000
     16 ****         3.1738  -0.5675   2.9734 C.ar           1 S1                 0.0000
     17 ****         2.3356  -1.5373   2.3905 C.ar           1 S1                 0.0000
     18 ****         1.1498  -0.9722  -0.8472 N.pl3          1 S1                 1.0000
     19 ****         1.5304  -0.2313  -1.9664 C.ar           1 S1                 0.0000
     20 ****         2.7849   0.0021  -2.5210 C.ar           1 S1                 0.0000
     21 ****         2.8259   0.8155  -3.6725 C.ar           1 S1                 0.0000
     22 ****         1.6507   1.3619  -4.2283 C.ar           1 S1                 0.0000
     23 ****         0.3839   1.1179  -3.6578 C.ar           1 S1                 0.0000
     24 ****         0.3520   0.3118  -2.5204 C.ar           1 S1                 0.0000
     25 ****        -5.1966   3.4009  -1.4883 H              1 S1                 0.0000
     26 ****        -3.5502   4.0150  -1.6397 H              1 S1                 0.0000
     27 ****        -4.0772   3.2393  -0.1348 H              1 S1                 0.0000
     28 ****        -1.7466   2.4030  -1.8193 H              1 S1                 0.0000
     29 ****        -2.2781   1.6202  -0.3329 H              1 S1                 0.0000
     30 ****        -2.7401  -0.4946  -1.6128 H              1 S1                 0.0000
     31 ****        -2.2079   0.2631  -3.0941 H              1 S1                 0.0000
     32 ****         0.6718  -3.0753   1.1317 H              1 S1                 0.0000
     33 ****        -2.1487  -3.3841   4.1494 H              1 S1                 0.0000
     34 ****        -2.0542  -1.9179   3.1965 H              1 S1                 0.0000
     35 ****        -0.6876  -0.0573   3.0038 H              1 S1                 0.0000
     36 ****         0.7920   1.6433   4.0252 H              1 S1                 0.0000
     37 ****         3.2599   1.3268   4.0097 H              1 S1                 0.0000
     38 ****         4.2449  -0.7068   2.9699 H              1 S1                 0.0000
     39 ****         2.7751  -2.4167   1.9429 H              1 S1                 0.0000
     40 ****         3.6866  -0.4139  -2.0957 H              1 S1                 0.0000
     41 ****         3.7779   1.0256  -4.1383 H              1 S1                 0.0000
     42 ****         1.7222   1.9819  -5.1103 H              1 S1                 0.0000
     43 ****        -0.5102   1.5431  -4.0896 H              1 S1                 0.0000
     44 ****         1.7651  -1.4805  -0.2251 H              1 S1                 0.0000
     45 ****        -3.8582   1.9614  -2.7280 LP             1 S1                 0.0000
     46 ****        -4.3505   1.2448  -1.3457 LP             1 S1                 0.0000
     47 ****         0.6812  -4.7248   2.6015 LP             1 S1                 0.0000
     48 ****        -0.5628  -4.9759   3.7802 LP             1 S1                 0.0000
@<TRIPOS>BOND
    1    1    2 1     
    2    1   25 1     
    3    1   26 1     
    4    1   27 1     
    5    2    3 1     
    6    3    4 1     
    7    3   28 1     
    8    3   29 1     
    9    4    5 1     
   10    4   30 1     
   11    4   31 1     
   12    5   24 1     
   13    5    6 1     
   14    6    7 1     
   15    6   18 2     
   16    7    8 1     
   17    8    9 1     
   18    8   12 1     
   19    8   32 1     
   20    9   10 am    
   21    9   11 2     
   22   10   33 1     
   23   10   34 1     
   24   12   17 ar    
   25   12   13 ar    
   26   13   14 ar    
   27   13   35 1     
   28   14   15 ar    
   29   14   36 1     
   30   15   16 ar    
   31   15   37 1     
   32   16   17 ar    
   33   16   38 1     
   34   17   39 1     
   35   18   19 1     
   36   18   44 1     
   37   19   24 ar    
   38   19   20 ar    
   39   20   21 ar    
   40   20   40 1     
   41   21   22 ar    
   42   21   41 1     
   43   22   23 ar    
   44   22   42 1     
   45   23   24 ar    
   46   23   43 1     
   47    2   45 1     
   48    2   46 1     
   49   11   47 1     
   50   11   48 1     
@<TRIPOS>SUBSTRUCTURE
      1 S1             1
@<TRIPOS>SET
LONE_PAIRS      STATIC     ATOMS    <user>   **** ""
4 45 46 47 48
DONOR_HYDROGENS      STATIC     ATOMS    <user>   **** ""
3 33 34 44
ATOM$BLUE        STATIC     ATOMS    COLORGROUP SYSTEM
4 45 46 47 48
ATOM$RED        STATIC     ATOMS    COLORGROUP SYSTEM
3 33 34 44
