AV-unprocessed.smi:1220|AV-procd|sdf|5117|dock3
  -GOLD-   22720 4173D 1   1.00000     0.00000
 Structure written by MMmdl.
 35 36  0  0  0  0  0  0  0  0  1 V2000
  152.3812  140.8234  158.7645 C   0  0  0  0  0  0  0  0  0  0  0  0
  153.5067  141.2079  159.7343 C   0  0  1  0  0  0  0  0  0  0  0  0
  153.0278  142.2532  160.7651 C   0  0  0  0  0  0  0  0  0  0  0  0
  152.5198  143.4641  160.1443 N   0  0  0  0  0  0  0  0  0  0  0  0
  151.8620  144.5209  160.7385 C   0  0  0  0  0  0  0  0  0  0  0  0
  151.5985  145.4365  159.7609 C   0  0  0  0  0  0  0  0  0  0  0  0
  152.1357  144.8401  158.5860 C   0  0  0  0  0  0  0  0  0  0  0  0
  152.6829  143.6577  158.8179 N   0  0  0  0  0  0  0  0  0  0  0  0
  153.9881  140.0009  160.4059 N   0  0  0  0  0  0  0  0  0  0  0  0
  154.4657  138.9030  159.7981 C   0  0  0  0  0  0  0  0  0  0  0  0
  154.5167  138.7729  158.5749 O   0  0  0  0  0  0  0  0  0  0  0  0
  154.9873  137.7908  160.7152 C   0  0  1  0  0  0  0  0  0  0  0  0
  153.8945  137.2481  161.6616 C   0  0  0  0  0  0  0  0  0  0  0  0
  154.4008  135.9455  162.2891 C   0  0  0  0  0  0  0  0  0  0  0  0
  155.4194  135.1393  160.9987 S   0  0  0  0  0  0  0  0  0  0  0  0
  156.7435  134.8285  161.5582 O   0  0  0  0  0  0  0  0  0  0  0  0
  154.6228  134.1061  160.3200 O   0  0  0  0  0  0  0  0  0  0  0  0
  155.5441  136.6052  159.9062 C   0  0  0  0  0  0  0  0  0  0  0  0
  152.0176  141.6959  158.2210 H   0  0  0  0  0  0  0  0  0  0  0  0
  151.5340  140.3832  159.2918 H   0  0  0  0  0  0  0  0  0  0  0  0
  152.7284  140.0992  158.0267 H   0  0  0  0  0  0  0  0  0  0  0  0
  154.3086  141.6457  159.1370 H   0  0  0  0  0  0  0  0  0  0  0  0
  152.2337  141.8337  161.3846 H   0  0  0  0  0  0  0  0  0  0  0  0
  153.8394  142.5223  161.4425 H   0  0  0  0  0  0  0  0  0  0  0  0
  151.6466  144.5362  161.7967 H   0  0  0  0  0  0  0  0  0  0  0  0
  151.0999  146.3882  159.8683 H   0  0  0  0  0  0  0  0  0  0  0  0
  152.1444  145.2285  157.5784 H   0  0  0  0  0  0  0  0  0  0  0  0
  153.9842  140.0143  161.4156 H   0  0  0  0  0  0  0  0  0  0  0  0
  155.7953  138.1833  161.3353 H   0  0  0  0  0  0  0  0  0  0  0  0
  153.6285  137.9758  162.4289 H   0  0  0  0  0  0  0  0  0  0  0  0
  152.9845  137.0327  161.0992 H   0  0  0  0  0  0  0  0  0  0  0  0
  155.0432  136.1523  163.1452 H   0  0  0  0  0  0  0  0  0  0  0  0
  153.5966  135.2816  162.6070 H   0  0  0  0  0  0  0  0  0  0  0  0
  154.9558  136.4053  159.0093 H   0  0  0  0  0  0  0  0  0  0  0  0
  156.5826  136.7528  159.6095 H   0  0  0  0  0  0  0  0  0  0  0  0
  1  2  1  0  0  0  0
  1 19  1  0  0  0  0
  1 20  1  0  0  0  0
  1 21  1  0  0  0  0
  2  3  1  0  0  0  0
  2  9  1  0  0  0  0
  2 22  1  0  0  0  0
  3  4  1  0  0  0  0
  3 23  1  0  0  0  0
  3 24  1  0  0  0  0
  4  8  1  0  0  0  0
  4  5  1  0  0  0  0
  5  6  2  0  0  0  0
  5 25  1  0  0  0  0
  6  7  1  0  0  0  0
  6 26  1  0  0  0  0
  7  8  2  0  0  0  0
  7 27  1  0  0  0  0
  9 10  1  0  0  0  0
  9 28  1  0  0  0  0
 10 11  2  0  0  0  0
 10 12  1  0  0  0  0
 12 18  1  0  0  0  0
 12 13  1  0  0  0  0
 12 29  1  0  0  0  0
 13 14  1  0  0  0  0
 13 30  1  0  0  0  0
 13 31  1  0  0  0  0
 14 15  1  0  0  0  0
 14 32  1  0  0  0  0
 14 33  1  0  0  0  0
 15 16  2  0  0  0  0
 15 17  2  0  0  0  0
 15 18  1  0  0  0  0
 18 34  1  0  0  0  0
 18 35  1  0  0  0  0
M  END
> <s_m_source_file>
AV-unprocessed.smi

> <i_m_source_file_index>
1220

> <i_lp_mmshare_version>
43012

> <i_f3d_flags>
0

> <s_epik_input>
bjFbY0hdW2NIXVtjSF1uMVtDSDJdW0NAQEhdKFtDSDNdKVtOSF1DKD1PKVtDQEBIXShbQ0gyXTIpW0NIMl1bQ0gyXVMyKD1PKT1P

> <s_epik_cmdline>
J2VwaWtfcHl0aG9uJywgJy1waCcsICc3LjAnLCAnLXRuJywgJzgnLCAnLW1hJywgJzIwMCcsICctbWV0YWxfYmluZGluZycsICctaW1hZScsICc8aW5maWxlLm1hZT4nLCAnLW9tYWUnLCAnPG91dGZpbGUubWFlPic=

> <r_lp_tautomer_probability>
1

> <r_epik_Ionization_Penalty>
0.000293905

> <r_epik_Ionization_Penalty_Charging>
0

> <r_epik_Ionization_Penalty_Neutral>
0.000293905

> <r_epik_State_Penalty>
-0

> <r_epik_Charging_Adjusted_Penalty>
0

> <i_epik_Tot_Q>
0

> <i_epik_Tot_abs_Q>
0

> <r_epik_Metal_State_Penalty>
-0

> <b_epik_Metal_Only>
0

> <s_lp_Force_Field>
OPLS_2005

> <r_lp_Energy>
3.0384

> <b_lp_Chiralities_Consistent>
1

> <s_lp_Variant>
AV-unprocessed.smi:1220-4

> <Gold.Version>
5.8.1

> <Gold.Id.Protein>
6NUR|6NUR_protein|mol2

> <Gold.PLP.Fitness>
43.5945

> <Gold.PLP.PLP>
-37.7486

> <Gold.PLP.part.hbond>
-2.0000

> <Gold.PLP.part.metal>
0.0000

> <Gold.PLP.part.buried>
-5.3924

> <Gold.PLP.part.nonpolar>
-31.0612

> <Gold.PLP.part.repulsive>
0.0463

> <Gold.PLP.ligand.clash>
0.0000

> <Gold.PLP.ligand.torsion>
0.0918

> <Gold.PLP.Chemscore.Hbond>
2.0000

> <Gold.PLP.Chemscore.CHOScore>
0.0000

> <Gold.PLP.Chemscore.Metal>
0.0000

> <Gold.Chemscore.Hbonds>
donor molecule, donor type, donor heavy atom, donor atom, acceptor molecule, acceptor atom, score
      P1  H  6896  6909       L1    17  0.93
      P1  H  7997  8009       L1    11  1.00

> <Gold.PLP.Chemscore.Internal.Correction>
0.0295

> <Gold.Rescore>
     Score         DG    S(hbond)    S(metal)    S(lipo)     H(rot)  DE(clash)    DE(int)     intcor
     16.73     -18.03       1.98        0.00      89.04       1.75       0.02       1.29       ----

> <Gold.Chemscore.Fitness>
16.7254

> <Gold.Chemscore.DG>
-18.0330

> <Gold.Chemscore.ZeroCoef>
-5.4800

> <Gold.Chemscore.Hbond>
1.9774

> <Gold.Chemscore.Metal>
0.0000

> <Gold.Chemscore.Lipo>
89.0449

> <Gold.Chemscore.Internal_Hbond>
0.0000

> <Gold.Chemscore.DEClash>
0.0202

> <Gold.Chemscore.DEInternal>
1.2874

> <Gold.Chemscore.Rot>
1.7460

> <Gold.Chemscore.Internal.Correction>
   9.000000E+99

> <Gold.Chemscore.Hbonds>
donor molecule, donor type, donor heavy atom, donor atom, acceptor molecule, acceptor atom, score
      P1  H  6896  6909       L1    17  0.88
      P1  H  7997  8009       L1    11  1.00

> <Gold.Chemscore.Hbond.Weighted>
-6.6045

> <Gold.Chemscore.Metal.Weighted>
-0.0000

> <Gold.Chemscore.Lipo.Weighted>
-10.4182

> <Gold.Chemscore.Internal_Hbond.Weighted>
0.0000

> <Gold.Chemscore.DEClash.Weighted>
0.0202

> <Gold.Chemscore.DEInternal.Weighted>
1.2874

> <Gold.Chemscore.Rot.Weighted>
4.4697

> <Gold.Chemscore.Internal.Correction.Weighted>
   9.000000E+99

> <Gold.Protein.RotatedTorsions>
[ 6907 6896 6895 6894 ] final -151.01 input  -60.11 | X-H torsion
[ 7974 7965 7964 7962 ] final -153.49 input  175.53 | X-H torsion
[ 8008 7997 7996 7995 ] final  133.36 input   59.86 | X-H torsion
[ 10167 10162 10161 10158 ] final  -43.26 input  -65.29 | X-H torsion
[ 10718 10713 10712 10709 ] final   88.78 input   66.30 | X-H torsion
[ 10763 10752 10751 10750 ] final  -28.88 input  -60.55 | X-H torsion
[ 11005 11000 10999 10996 ] final    9.50 input  -57.11 | X-H torsion

> <Gold.Protein.ActiveResidues>
 VAL166  LYS551  ARG553  GLY616  TRP617  ASP618  TYR619  PRO620  LYS621  CYS622 
 ASP623  PHE694  ASN695  SER759  ASP760  ASP761  ALA762  ILE779  LEU786  VAL792 
 PHE793  MET794  SER795  GLU796  ALA797  LYS798  CYS799  TRP800  GLU811  SER814 

> <Gold.Protein.RotatedAtoms>
  151.2069  133.4578  159.2597 H   0  0  0  0  0  0  0  0  0  0  0  0  # atno 6907 bound_to 6896
  151.1015  134.9975  159.8461 H   0  0  0  0  0  0  0  0  0  0  0  0  # atno 6908 bound_to 6896
  152.5443  134.1995  159.8759 H   0  0  0  0  0  0  0  0  0  0  0  0  # atno 6909 bound_to 6896
  144.7738  140.4518  143.5888 H   0  0  0  0  0  0  0  0  0  0  0  0  # atno 7974 bound_to 7965
  156.2991  140.2523  156.3240 H   0  0  0  0  0  0  0  0  0  0  0  0  # atno 8008 bound_to 7997
  154.9208  140.0401  157.2016 H   0  0  0  0  0  0  0  0  0  0  0  0  # atno 8009 bound_to 7997
  154.8313  140.2876  155.5724 H   0  0  0  0  0  0  0  0  0  0  0  0  # atno 8010 bound_to 7997
  140.6940  143.2992  151.3327 H   0  0  0  0  0  0  0  0  0  0  0  0  # atno 10167 bound_to 10162
  157.6951  131.0308  150.3326 H   0  0  0  0  0  0  0  0  0  0  0  0  # atno 10718 bound_to 10713
  153.7556  135.6923  153.4936 H   0  0  0  0  0  0  0  0  0  0  0  0  # atno 10763 bound_to 10752
  153.1973  135.4449  155.0222 H   0  0  0  0  0  0  0  0  0  0  0  0  # atno 10764 bound_to 10752
  154.8171  135.3404  154.7074 H   0  0  0  0  0  0  0  0  0  0  0  0  # atno 10765 bound_to 10752
  140.5250  134.0521  155.7856 H   0  0  0  0  0  0  0  0  0  0  0  0  # atno 11005 bound_to 11000
  145.6246  139.1528  143.3003 LP  0  0  0  0  0  0  0  0  0  0  0  0  # atno 17320 bound_to 7965
  146.1903  140.6354  142.9148 LP  0  0  0  0  0  0  0  0  0  0  0  0  # atno 17321 bound_to 7965
  139.6374  144.0605  152.2526 LP  0  0  0  0  0  0  0  0  0  0  0  0  # atno 17342 bound_to 10162
  140.0099  144.6231  150.7656 LP  0  0  0  0  0  0  0  0  0  0  0  0  # atno 17343 bound_to 10162
  156.3798  130.3878  149.7110 LP  0  0  0  0  0  0  0  0  0  0  0  0  # atno 17370 bound_to 10713
  156.4496  130.7900  151.2922 LP  0  0  0  0  0  0  0  0  0  0  0  0  # atno 17371 bound_to 10713
  141.1313  133.9297  157.2529 LP  0  0  0  0  0  0  0  0  0  0  0  0  # atno 17394 bound_to 11000
  139.9585  135.0160  156.9195 LP  0  0  0  0  0  0  0  0  0  0  0  0  # atno 17395 bound_to 11000

$$$$
