AV-unprocessed.smi:2243|AV-procd|sdf|9062|dock9
  -GOLD-   2272012273D 1   1.00000     0.00000
 Structure written by MMmdl.
 34 35  0  0  0  0  0  0  0  0  1 V2000
  145.6346  138.1053  154.6485 C   0  0  0  0  0  0  0  0  0  0  0  0
  146.1838  138.4882  153.2633 C   0  0  2  0  0  0  0  0  0  0  0  0
  146.4898  137.2523  152.5419 N   0  0  0  0  0  0  0  0  0  0  0  0
  145.6028  136.3208  152.1593 C   0  0  0  0  0  0  0  0  0  0  0  0
  144.3921  136.4008  152.3682 O   0  0  0  0  0  0  0  0  0  0  0  0
  146.2109  135.3057  151.5232 N   0  0  0  0  0  0  0  0  0  0  0  0
  145.6084  134.1461  150.9732 C   0  0  0  0  0  0  0  0  0  0  0  0
  146.2183  132.9975  150.6759 N   0  0  0  0  0  0  0  0  0  0  0  0
  145.2115  132.1875  150.1710 C   0  0  0  0  0  0  0  0  0  0  0  0
  144.0394  132.8990  150.1918 C   0  0  0  0  0  0  0  0  0  0  0  0
  144.2770  134.1480  150.6997 O   0  0  0  0  0  0  0  0  0  0  0  0
  147.4357  139.4033  153.3286 C   0  0  0  0  0  0  0  0  0  0  0  0
  148.6040  138.7545  154.0986 C   0  0  0  0  0  0  0  0  0  0  0  0
  149.7990  139.7144  154.2165 C   0  0  0  0  0  0  0  0  0  0  0  0
  149.3942  140.9226  154.8477 O   0  0  0  0  0  0  0  0  0  0  0  0
  148.4083  141.6251  154.1017 C   0  0  0  0  0  0  0  0  0  0  0  0
  147.1356  140.7723  153.9769 C   0  0  0  0  0  0  0  0  0  0  0  0
  145.2589  138.9732  155.1894 H   0  0  0  0  0  0  0  0  0  0  0  0
  146.4003  137.6308  155.2632 H   0  0  0  0  0  0  0  0  0  0  0  0
  144.8020  137.4063  154.5582 H   0  0  0  0  0  0  0  0  0  0  0  0
  145.3965  139.0351  152.7412 H   0  0  0  0  0  0  0  0  0  0  0  0
  147.4617  137.0942  152.3192 H   0  0  0  0  0  0  0  0  0  0  0  0
  147.2129  135.3679  151.4200 H   0  0  0  0  0  0  0  0  0  0  0  0
  145.4058  131.1781  149.8396 H   0  0  0  0  0  0  0  0  0  0  0  0
  143.0229  132.6782  149.9016 H   0  0  0  0  0  0  0  0  0  0  0  0
  147.7724  139.5882  152.3071 H   0  0  0  0  0  0  0  0  0  0  0  0
  148.2736  138.4645  155.0969 H   0  0  0  0  0  0  0  0  0  0  0  0
  148.9362  137.8434  153.6019 H   0  0  0  0  0  0  0  0  0  0  0  0
  150.5892  139.2556  154.8109 H   0  0  0  0  0  0  0  0  0  0  0  0
  150.2239  139.9290  153.2347 H   0  0  0  0  0  0  0  0  0  0  0  0
  148.1818  142.5610  154.6130 H   0  0  0  0  0  0  0  0  0  0  0  0
  148.7993  141.8874  153.1175 H   0  0  0  0  0  0  0  0  0  0  0  0
  146.3981  141.3250  153.3946 H   0  0  0  0  0  0  0  0  0  0  0  0
  146.7012  140.6241  154.9665 H   0  0  0  0  0  0  0  0  0  0  0  0
  1  2  1  0  0  0  0
  1 18  1  0  0  0  0
  1 19  1  0  0  0  0
  1 20  1  0  0  0  0
  2  3  1  0  0  0  0
  2 12  1  0  0  0  0
  2 21  1  0  0  0  0
  3  4  1  0  0  0  0
  3 22  1  0  0  0  0
  4  5  2  0  0  0  0
  4  6  1  0  0  0  0
  6  7  1  0  0  0  0
  6 23  1  0  0  0  0
  7 11  1  0  0  0  0
  7  8  2  0  0  0  0
  8  9  1  0  0  0  0
  9 10  2  0  0  0  0
  9 24  1  0  0  0  0
 10 11  1  0  0  0  0
 10 25  1  0  0  0  0
 12 17  1  0  0  0  0
 12 13  1  0  0  0  0
 12 26  1  0  0  0  0
 13 14  1  0  0  0  0
 13 27  1  0  0  0  0
 13 28  1  0  0  0  0
 14 15  1  0  0  0  0
 14 29  1  0  0  0  0
 14 30  1  0  0  0  0
 15 16  1  0  0  0  0
 16 17  1  0  0  0  0
 16 31  1  0  0  0  0
 16 32  1  0  0  0  0
 17 33  1  0  0  0  0
 17 34  1  0  0  0  0
M  END
> <s_m_source_file>
AV-unprocessed.smi

> <i_m_source_file_index>
2243

> <i_lp_mmshare_version>
43012

> <i_f3d_flags>
0

> <s_epik_input>
W0NIMl0xW0NIMl1PW0NIMl1bQ0gyXVtDSF0xW0NASF0oW0NIM10pW05IXUMoPU8pW05IXWMybltjSF1bY0hdbzI=

> <s_epik_cmdline>
J2VwaWtfcHl0aG9uJywgJy1waCcsICc3LjAnLCAnLXRuJywgJzgnLCAnLW1hJywgJzIwMCcsICctbWV0YWxfYmluZGluZycsICctaW1hZScsICc8aW5maWxlLm1hZT4nLCAnLW9tYWUnLCAnPG91dGZpbGUubWFlPic=

> <r_lp_tautomer_probability>
0.785861

> <r_epik_Ionization_Penalty>
5.17761e-05

> <r_epik_Ionization_Penalty_Charging>
0

> <r_epik_Ionization_Penalty_Neutral>
5.17761e-05

> <r_epik_State_Penalty>
0.0447104

> <r_epik_Charging_Adjusted_Penalty>
0.0447104

> <i_epik_Tot_Q>
0

> <i_epik_Tot_abs_Q>
0

> <r_epik_Metal_State_Penalty>
0.0593601

> <b_epik_Metal_Only>
0

> <s_lp_Force_Field>
OPLS_2005

> <r_lp_Energy>
10.6877

> <b_lp_Chiralities_Consistent>
1

> <s_lp_Variant>
AV-unprocessed.smi:2243-1

> <Gold.Version>
5.8.1

> <Gold.Id.Protein>
6NUR|6NUR_protein|mol2

> <Gold.PLP.Fitness>
35.3672

> <Gold.PLP.PLP>
-26.6344

> <Gold.PLP.part.hbond>
-2.0000

> <Gold.PLP.part.metal>
0.0000

> <Gold.PLP.part.buried>
-3.5755

> <Gold.PLP.part.nonpolar>
-22.0404

> <Gold.PLP.part.repulsive>
1.1925

> <Gold.PLP.ligand.clash>
0.0000

> <Gold.PLP.ligand.torsion>
0.1412

> <Gold.PLP.Chemscore.Hbond>
2.0000

> <Gold.PLP.Chemscore.CHOScore>
1.0000

> <Gold.PLP.Chemscore.Metal>
0.0000

> <Gold.Chemscore.Hbonds>
donor molecule, donor type, donor heavy atom, donor atom, acceptor molecule, acceptor atom, score
      L1  H     3    22       P1  7948  1.00
      L1  H     6    23       P1  7948  1.00
      L1  C    10    25       P1 10186  0.59

> <Gold.PLP.Chemscore.Internal.Correction>
0.0151

> <Gold.Rescore>
     Score         DG    S(hbond)    S(metal)    S(lipo)     H(rot)  DE(clash)    DE(int)     intcor
     13.13     -15.56       1.93        0.00      59.90       1.32       0.07       2.37       ----

> <Gold.Chemscore.Fitness>
13.1269

> <Gold.Chemscore.DG>
-15.5598

> <Gold.Chemscore.ZeroCoef>
-5.4800

> <Gold.Chemscore.Hbond>
1.9315

> <Gold.Chemscore.Metal>
0.0000

> <Gold.Chemscore.Lipo>
59.8983

> <Gold.Chemscore.Internal_Hbond>
0.0000

> <Gold.Chemscore.DEClash>
0.0652

> <Gold.Chemscore.DEInternal>
2.3677

> <Gold.Chemscore.Rot>
1.3201

> <Gold.Chemscore.Internal.Correction>
   9.000000E+99

> <Gold.Chemscore.Hbonds>
donor molecule, donor type, donor heavy atom, donor atom, acceptor molecule, acceptor atom, score
      L1  H     3    22       P1  7948  1.00
      L1  H     6    23       P1  7948  0.88

> <Gold.Chemscore.Hbond.Weighted>
-6.4511

> <Gold.Chemscore.Metal.Weighted>
-0.0000

> <Gold.Chemscore.Lipo.Weighted>
-7.0081

> <Gold.Chemscore.Internal_Hbond.Weighted>
0.0000

> <Gold.Chemscore.DEClash.Weighted>
0.0652

> <Gold.Chemscore.DEInternal.Weighted>
2.3677

> <Gold.Chemscore.Rot.Weighted>
3.3794

> <Gold.Chemscore.Internal.Correction.Weighted>
   9.000000E+99

> <Gold.Protein.RotatedTorsions>
[ 6907 6896 6895 6894 ] final  -51.73 input  -60.11 | X-H torsion
[ 7974 7965 7964 7962 ] final   88.90 input  175.53 | X-H torsion
[ 8008 7997 7996 7995 ] final -102.51 input   59.86 | X-H torsion
[ 10167 10162 10161 10158 ] final  105.97 input  -65.29 | X-H torsion
[ 10718 10713 10712 10709 ] final  172.52 input   66.30 | X-H torsion
[ 10763 10752 10751 10750 ] final   12.53 input  -60.55 | X-H torsion
[ 11005 11000 10999 10996 ] final -153.44 input  -57.11 | X-H torsion

> <Gold.Protein.ActiveResidues>
 VAL166  LYS551  ARG553  GLY616  TRP617  ASP618  TYR619  PRO620  LYS621  CYS622 
 ASP623  PHE694  ASN695  SER759  ASP760  ASP761  ALA762  ILE779  LEU786  VAL792 
 PHE793  MET794  SER795  GLU796  ALA797  LYS798  CYS799  TRP800  GLU811  SER814 

> <Gold.Protein.RotatedAtoms>
  150.8584  134.7929  159.7063 H   0  0  0  0  0  0  0  0  0  0  0  0  # atno 6907 bound_to 6896
  152.4629  134.5140  159.9772 H   0  0  0  0  0  0  0  0  0  0  0  0  # atno 6908 bound_to 6896
  151.5248  133.3421  159.2943 H   0  0  0  0  0  0  0  0  0  0  0  0  # atno 6909 bound_to 6896
  145.5396  139.2288  143.2573 H   0  0  0  0  0  0  0  0  0  0  0  0  # atno 7974 bound_to 7965
  154.8576  140.0428  157.1644 H   0  0  0  0  0  0  0  0  0  0  0  0  # atno 8008 bound_to 7997
  154.8874  140.2981  155.5369 H   0  0  0  0  0  0  0  0  0  0  0  0  # atno 8009 bound_to 7997
  156.2998  140.2400  156.3886 H   0  0  0  0  0  0  0  0  0  0  0  0  # atno 8010 bound_to 7997
  139.7048  144.7088  151.1125 H   0  0  0  0  0  0  0  0  0  0  0  0  # atno 10167 bound_to 10162
  156.9777  131.0109  151.2889 H   0  0  0  0  0  0  0  0  0  0  0  0  # atno 10718 bound_to 10713
  153.1813  135.6828  153.8474 H   0  0  0  0  0  0  0  0  0  0  0  0  # atno 10763 bound_to 10752
  153.7805  135.3183  155.3366 H   0  0  0  0  0  0  0  0  0  0  0  0  # atno 10764 bound_to 10752
  154.8061  135.4747  154.0492 H   0  0  0  0  0  0  0  0  0  0  0  0  # atno 10765 bound_to 10752
  140.7081  134.3863  157.5201 H   0  0  0  0  0  0  0  0  0  0  0  0  # atno 11005 bound_to 11000
  146.1990  140.6215  142.9111 LP  0  0  0  0  0  0  0  0  0  0  0  0  # atno 17320 bound_to 7965
  144.7584  140.5363  143.6753 LP  0  0  0  0  0  0  0  0  0  0  0  0  # atno 17321 bound_to 7965
  140.7719  143.5374  150.9352 LP  0  0  0  0  0  0  0  0  0  0  0  0  # atno 17342 bound_to 10162
  139.9057  143.6781  152.3124 LP  0  0  0  0  0  0  0  0  0  0  0  0  # atno 17343 bound_to 10162
  157.5548  130.8206  149.8190 LP  0  0  0  0  0  0  0  0  0  0  0  0  # atno 17370 bound_to 10713
  156.0257  130.3780  150.1831 LP  0  0  0  0  0  0  0  0  0  0  0  0  # atno 17371 bound_to 10713
  139.8879  134.8871  156.2504 LP  0  0  0  0  0  0  0  0  0  0  0  0  # atno 17394 bound_to 11000
  141.0108  133.7097  156.1108 LP  0  0  0  0  0  0  0  0  0  0  0  0  # atno 17395 bound_to 11000

$$$$
