AV-unprocessed.smi:2226|AV-procd|sdf|9013|dock10
  -GOLD-   2272012213D 1   1.00000     0.00000
 Structure written by MMmdl.
 40 42  0  0  0  0  0  0  0  0  2 V2000
  149.1435  134.9190  154.6820 C   0  0  0  0  0  0  0  0  0  0  0  0
  149.6490  136.3109  154.6151 N   0  3  2  0  0  0  0  0  0  0  0  0
  151.0969  136.4614  154.8946 C   0  0  2  0  0  0  0  0  0  0  0  0
  151.4155  136.2013  156.3886 C   0  0  0  0  0  0  0  0  0  0  0  0
  150.5403  137.0015  157.3705 C   0  0  0  0  0  0  0  0  0  0  0  0
  149.0680  137.0780  156.9287 C   0  0  0  0  0  0  0  0  0  0  0  0
  148.8732  137.2950  155.4073 C   0  0  1  0  0  0  0  0  0  0  0  0
  149.1953  138.7200  154.8992 C   0  0  0  0  0  0  0  0  0  0  0  0
  150.7034  139.0485  154.7192 C   0  0  1  0  0  0  0  0  0  0  0  0
  151.2677  139.7807  155.8504 N   0  0  0  0  0  0  0  0  0  0  0  0
  150.8451  140.9624  156.3256 C   0  0  0  0  0  0  0  0  0  0  0  0
  149.8940  141.5630  155.8157 O   0  0  0  0  0  0  0  0  0  0  0  0
  151.6063  141.3289  157.4259 N   0  0  0  0  0  0  0  0  0  0  0  0
  151.5742  142.5527  157.8574 C   0  0  0  0  0  0  0  0  0  0  0  0
  150.8792  143.6869  157.4454 N   0  0  0  0  0  0  0  0  0  0  0  0
  151.2229  144.7208  158.2706 C   0  0  0  0  0  0  0  0  0  0  0  0
  152.0938  144.2622  159.1645 C   0  0  0  0  0  0  0  0  0  0  0  0
  152.3272  142.9389  158.9374 O   0  0  0  0  0  0  0  0  0  0  0  0
  151.5773  137.8245  154.3434 C   0  0  0  0  0  0  0  0  0  0  0  0
  149.2189  134.4991  155.6845 H   0  0  0  0  0  0  0  0  0  0  0  0
  149.7075  134.2773  154.0045 H   0  0  0  0  0  0  0  0  0  0  0  0
  148.0973  134.8790  154.3774 H   0  0  0  0  0  0  0  0  0  0  0  0
  151.6264  135.6989  154.3211 H   0  0  0  0  0  0  0  0  0  0  0  0
  151.2765  135.1397  156.5951 H   0  0  0  0  0  0  0  0  0  0  0  0
  152.4693  136.3975  156.5886 H   0  0  0  0  0  0  0  0  0  0  0  0
  150.5982  136.5472  158.3600 H   0  0  0  0  0  0  0  0  0  0  0  0
  150.9434  137.9985  157.5114 H   0  0  0  0  0  0  0  0  0  0  0  0
  148.5759  136.1481  157.2154 H   0  0  0  0  0  0  0  0  0  0  0  0
  148.5551  137.8606  157.4889 H   0  0  0  0  0  0  0  0  0  0  0  0
  147.8154  137.1295  155.1970 H   0  0  0  0  0  0  0  0  0  0  0  0
  148.7296  138.8183  153.9175 H   0  0  0  0  0  0  0  0  0  0  0  0
  148.6968  139.4652  155.5201 H   0  0  0  0  0  0  0  0  0  0  0  0
  150.7789  139.7380  153.8760 H   0  0  0  0  0  0  0  0  0  0  0  0
  152.0500  139.3488  156.3211 H   0  0  0  0  0  0  0  0  0  0  0  0
  150.2295  143.7782  156.6776 H   0  0  0  0  0  0  0  0  0  0  0  0
  150.7952  145.7019  158.1256 H   0  0  0  0  0  0  0  0  0  0  0  0
  152.6149  144.7291  159.9873 H   0  0  0  0  0  0  0  0  0  0  0  0
  152.6225  137.9964  154.6043 H   0  0  0  0  0  0  0  0  0  0  0  0
  151.5679  137.7461  153.2551 H   0  0  0  0  0  0  0  0  0  0  0  0
  149.5274  136.5809  153.6494 H   0  0  0  0  0  0  0  0  0  0  0  0
  1  2  1  0  0  0  0
  1 20  1  0  0  0  0
  1 21  1  0  0  0  0
  1 22  1  0  0  0  0
  2  7  1  0  0  0  0
  2  3  1  0  0  0  0
  2 40  1  0  0  0  0
  3 19  1  0  0  0  0
  3  4  1  0  0  0  0
  3 23  1  0  0  0  0
  4  5  1  0  0  0  0
  4 24  1  0  0  0  0
  4 25  1  0  0  0  0
  5  6  1  0  0  0  0
  5 26  1  0  0  0  0
  5 27  1  0  0  0  0
  6  7  1  0  0  0  0
  6 28  1  0  0  0  0
  6 29  1  0  0  0  0
  7  8  1  0  0  0  0
  7 30  1  0  0  0  0
  8  9  1  0  0  0  0
  8 31  1  0  0  0  0
  8 32  1  0  0  0  0
  9 10  1  0  0  0  0
  9 19  1  0  0  0  0
  9 33  1  0  0  0  0
 10 34  1  0  0  0  0
 10 11  1  0  0  0  0
 11 13  1  0  0  0  0
 11 12  2  0  0  0  0
 13 14  2  0  0  0  0
 14 18  1  0  0  0  0
 14 15  1  0  0  0  0
 15 35  1  0  0  0  0
 15 16  1  0  0  0  0
 16 36  1  0  0  0  0
 16 17  2  0  0  0  0
 17 37  1  0  0  0  0
 17 18  1  0  0  0  0
 19 38  1  0  0  0  0
 19 39  1  0  0  0  0
M  CHG  1   2   1
M  END
> <s_m_source_file>
AV-unprocessed.smi

> <i_m_source_file_index>
2226

> <i_lp_mmshare_version>
43012

> <i_f3d_flags>
0

> <s_epik_input>
W0NIMl0xW0NIMl1bQ0gyXVtDQEhdKE4oW0NIM10pW0NIXTEyKVtDSDJdW0NASF0oW0NIMl0yKVtOSF1DKD1PKVtOSF1jM25bY0hdW2NIXW8z

> <s_epik_cmdline>
J2VwaWtfcHl0aG9uJywgJy1waCcsICc3LjAnLCAnLXRuJywgJzgnLCAnLW1hJywgJzIwMCcsICctbWV0YWxfYmluZGluZycsICctaW1hZScsICc8aW5maWxlLm1hZT4nLCAnLW9tYWUnLCAnPG91dGZpbGUubWFlPic=

> <r_lp_tautomer_probability>
0.107061

> <r_epik_Ionization_Penalty>
1.08307

> <r_epik_Ionization_Penalty_Charging>
1.08272

> <r_epik_Ionization_Penalty_Neutral>
0.000345913

> <r_epik_State_Penalty>
2.5744

> <r_epik_Charging_Adjusted_Penalty>
3.65713

> <i_epik_Tot_Q>
1

> <i_epik_Tot_abs_Q>
1

> <r_epik_Metal_State_Penalty>
3.72133

> <b_epik_Metal_Only>
0

> <s_lp_Force_Field>
OPLS_2005

> <r_lp_Energy>
59.8025

> <b_lp_Chiralities_Consistent>
1

> <s_lp_Variant>
AV-unprocessed.smi:2226-13

> <Gold.Version>
5.8.1

> <Gold.Id.Protein>
6NUR|6NUR_protein|mol2

> <Gold.PLP.Fitness>
37.9132

> <Gold.PLP.PLP>
-29.0436

> <Gold.PLP.part.hbond>
-2.0000

> <Gold.PLP.part.metal>
0.0000

> <Gold.PLP.part.buried>
-4.7671

> <Gold.PLP.part.nonpolar>
-22.4646

> <Gold.PLP.part.repulsive>
0.2592

> <Gold.PLP.ligand.clash>
0.0000

> <Gold.PLP.ligand.torsion>
0.0908

> <Gold.PLP.Chemscore.Hbond>
3.0000

> <Gold.PLP.Chemscore.CHOScore>
0.0000

> <Gold.PLP.Chemscore.Metal>
0.0000

> <Gold.Chemscore.Hbonds>
donor molecule, donor type, donor heavy atom, donor atom, acceptor molecule, acceptor atom, score
      L1  H     2    40       P1  7948  2.00
      L1  H    15    35       P1  8028  1.00

> <Gold.PLP.Chemscore.Internal.Correction>
0.0513

> <Gold.Rescore>
     Score         DG    S(hbond)    S(metal)    S(lipo)     H(rot)  DE(clash)    DE(int)     intcor
     15.71     -16.81       1.88        0.00      65.12       1.00       0.03       1.07       ----

> <Gold.Chemscore.Fitness>
15.7094

> <Gold.Chemscore.DG>
-16.8101

> <Gold.Chemscore.ZeroCoef>
-5.4800

> <Gold.Chemscore.Hbond>
1.8776

> <Gold.Chemscore.Metal>
0.0000

> <Gold.Chemscore.Lipo>
65.1197

> <Gold.Chemscore.Internal_Hbond>
0.0000

> <Gold.Chemscore.DEClash>
0.0310

> <Gold.Chemscore.DEInternal>
1.0698

> <Gold.Chemscore.Rot>
1.0000

> <Gold.Chemscore.Internal.Correction>
   9.000000E+99

> <Gold.Chemscore.Hbonds>
donor molecule, donor type, donor heavy atom, donor atom, acceptor molecule, acceptor atom, score
      L1  H     2    40       P1  7948  0.72
      L1  H    15    35       P1  8028  0.96

> <Gold.Chemscore.Hbond.Weighted>
-6.2711

> <Gold.Chemscore.Metal.Weighted>
-0.0000

> <Gold.Chemscore.Lipo.Weighted>
-7.6190

> <Gold.Chemscore.Internal_Hbond.Weighted>
0.0000

> <Gold.Chemscore.DEClash.Weighted>
0.0310

> <Gold.Chemscore.DEInternal.Weighted>
1.0698

> <Gold.Chemscore.Rot.Weighted>
2.5600

> <Gold.Chemscore.Internal.Correction.Weighted>
   9.000000E+99

> <Gold.Protein.RotatedTorsions>
[ 6907 6896 6895 6894 ] final   23.63 input  -60.11 | X-H torsion
[ 7974 7965 7964 7962 ] final   75.60 input  175.53 | X-H torsion
[ 8008 7997 7996 7995 ] final   61.80 input   59.86 | X-H torsion
[ 10167 10162 10161 10158 ] final  -94.29 input  -65.29 | X-H torsion
[ 10718 10713 10712 10709 ] final  151.17 input   66.30 | X-H torsion
[ 10763 10752 10751 10750 ] final   44.00 input  -60.55 | X-H torsion
[ 11005 11000 10999 10996 ] final -129.02 input  -57.11 | X-H torsion

> <Gold.Protein.ActiveResidues>
 VAL166  LYS551  ARG553  GLY616  TRP617  ASP618  TYR619  PRO620  LYS621  CYS622 
 ASP623  PHE694  ASN695  SER759  ASP760  ASP761  ALA762  ILE779  LEU786  VAL792 
 PHE793  MET794  SER795  GLU796  ALA797  LYS798  CYS799  TRP800  GLU811  SER814 

> <Gold.Protein.RotatedAtoms>
  151.9452  135.0195  160.0538 H   0  0  0  0  0  0  0  0  0  0  0  0  # atno 6907 bound_to 6896
  152.2001  133.4830  159.5062 H   0  0  0  0  0  0  0  0  0  0  0  0  # atno 6908 bound_to 6896
  150.6953  134.1518  159.4186 H   0  0  0  0  0  0  0  0  0  0  0  0  # atno 6909 bound_to 6896
  145.7136  139.2623  143.1636 H   0  0  0  0  0  0  0  0  0  0  0  0  # atno 7974 bound_to 7965
  155.6041  140.3494  155.4602 H   0  0  0  0  0  0  0  0  0  0  0  0  # atno 8008 bound_to 7997
  156.0205  140.1252  157.0386 H   0  0  0  0  0  0  0  0  0  0  0  0  # atno 8009 bound_to 7997
  154.4313  140.1063  156.5943 H   0  0  0  0  0  0  0  0  0  0  0  0  # atno 8010 bound_to 7997
  140.3159  143.3077  152.0098 H   0  0  0  0  0  0  0  0  0  0  0  0  # atno 10167 bound_to 10162
  157.2741  131.0823  151.1578 H   0  0  0  0  0  0  0  0  0  0  0  0  # atno 10718 bound_to 10713
  152.9849  135.6084  154.3203 H   0  0  0  0  0  0  0  0  0  0  0  0  # atno 10763 bound_to 10752
  154.2913  135.2775  155.2655 H   0  0  0  0  0  0  0  0  0  0  0  0  # atno 10764 bound_to 10752
  154.4950  135.5882  153.6544 H   0  0  0  0  0  0  0  0  0  0  0  0  # atno 10765 bound_to 10752
  140.9467  134.1120  157.4100 H   0  0  0  0  0  0  0  0  0  0  0  0  # atno 11005 bound_to 11000
  146.0690  140.7889  142.9697 LP  0  0  0  0  0  0  0  0  0  0  0  0  # atno 17320 bound_to 7965
  144.6935  140.3313  143.7215 LP  0  0  0  0  0  0  0  0  0  0  0  0  # atno 17321 bound_to 7965
  139.4884  144.6348  151.6997 LP  0  0  0  0  0  0  0  0  0  0  0  0  # atno 17342 bound_to 10162
  140.5526  144.0400  150.6134 LP  0  0  0  0  0  0  0  0  0  0  0  0  # atno 17343 bound_to 10162
  157.3038  130.6856  149.6178 LP  0  0  0  0  0  0  0  0  0  0  0  0  # atno 17370 bound_to 10713
  155.9663  130.4384  150.5215 LP  0  0  0  0  0  0  0  0  0  0  0  0  # atno 17371 bound_to 10713
  139.8835  135.0053  156.6307 LP  0  0  0  0  0  0  0  0  0  0  0  0  # atno 17394 bound_to 11000
  140.7659  133.8778  155.8454 LP  0  0  0  0  0  0  0  0  0  0  0  0  # atno 17395 bound_to 11000

$$$$
