AV-unprocessed.smi:730|AV-procd|sdf|3523|dock2
  -GOLD-   22720 0513D 1   1.00000     0.00000
 Structure written by MMmdl.
 40 41  0  0  0  0  0  0  0  0  1 V2000
  150.9829  144.9079  160.0091 C   0  0  0  0  0  0  0  0  0  0  0  0
  151.8361  144.0653  159.0398 C   0  0  0  0  0  0  0  0  0  0  0  0
  152.4378  145.0063  157.9791 C   0  0  0  0  0  0  0  0  0  0  0  0
  152.9758  143.4095  159.8412 C   0  0  0  0  0  0  0  0  0  0  0  0
  151.0008  143.0079  158.3735 C   0  0  0  0  0  0  0  0  0  0  0  0
  150.7353  142.7025  157.0660 C   0  0  0  0  0  0  0  0  0  0  0  0
  149.8732  141.5785  157.1625 C   0  0  0  0  0  0  0  0  0  0  0  0
  149.3676  140.9482  155.9975 N   0  0  0  0  0  0  0  0  0  0  0  0
  148.0805  140.7857  155.6473 C   0  0  0  0  0  0  0  0  0  0  0  0
  147.1115  141.1720  156.3015 O   0  0  0  0  0  0  0  0  0  0  0  0
  147.9727  140.1279  154.4840 N   0  0  0  0  0  0  0  0  0  0  0  0
  146.7111  139.7708  153.8329 C   0  0  1  0  0  0  0  0  0  0  0  0
  146.6549  140.3778  152.4193 C   0  0  0  0  0  0  0  0  0  0  0  0
  146.8407  139.2081  151.4545 C   0  0  0  0  0  0  0  0  0  0  0  0
  146.1773  138.0335  152.1670 C   0  0  0  0  0  0  0  0  0  0  0  0
  146.5031  138.2407  153.6517 C   0  0  1  0  0  0  0  0  0  0  0  0
  147.6508  137.4754  153.9770 O   0  0  0  0  0  0  0  0  0  0  0  0
  149.6268  141.2269  158.4142 N   0  0  0  0  0  0  0  0  0  0  0  0
  150.3457  142.1390  159.1946 O   0  0  0  0  0  0  0  0  0  0  0  0
  151.5804  145.6772  160.4998 H   0  0  0  0  0  0  0  0  0  0  0  0
  150.5411  144.2900  160.7920 H   0  0  0  0  0  0  0  0  0  0  0  0
  150.1681  145.4116  159.4874 H   0  0  0  0  0  0  0  0  0  0  0  0
  151.6568  145.4934  157.3941 H   0  0  0  0  0  0  0  0  0  0  0  0
  153.0797  144.4657  157.2824 H   0  0  0  0  0  0  0  0  0  0  0  0
  153.0423  145.7898  158.4375 H   0  0  0  0  0  0  0  0  0  0  0  0
  153.5925  144.1572  160.3415 H   0  0  0  0  0  0  0  0  0  0  0  0
  153.6324  142.8239  159.1968 H   0  0  0  0  0  0  0  0  0  0  0  0
  152.5856  142.7389  160.6076 H   0  0  0  0  0  0  0  0  0  0  0  0
  151.1027  143.2020  156.1820 H   0  0  0  0  0  0  0  0  0  0  0  0
  150.0602  140.5705  155.3682 H   0  0  0  0  0  0  0  0  0  0  0  0
  148.8204  139.8400  154.0176 H   0  0  0  0  0  0  0  0  0  0  0  0
  145.8838  140.1868  154.4111 H   0  0  0  0  0  0  0  0  0  0  0  0
  145.6708  140.8196  152.2573 H   0  0  0  0  0  0  0  0  0  0  0  0
  147.3898  141.1673  152.2552 H   0  0  0  0  0  0  0  0  0  0  0  0
  146.4111  139.4016  150.4712 H   0  0  0  0  0  0  0  0  0  0  0  0
  147.9042  139.0048  151.3211 H   0  0  0  0  0  0  0  0  0  0  0  0
  145.0977  138.0947  152.0230 H   0  0  0  0  0  0  0  0  0  0  0  0
  146.5010  137.0658  151.7808 H   0  0  0  0  0  0  0  0  0  0  0  0
  145.6832  137.8847  154.2765 H   0  0  0  0  0  0  0  0  0  0  0  0
  148.1721  137.3749  153.1950 H   0  0  0  0  0  0  0  0  0  0  0  0
  1  2  1  0  0  0  0
  1 20  1  0  0  0  0
  1 21  1  0  0  0  0
  1 22  1  0  0  0  0
  2  3  1  0  0  0  0
  2  4  1  0  0  0  0
  2  5  1  0  0  0  0
  3 23  1  0  0  0  0
  3 24  1  0  0  0  0
  3 25  1  0  0  0  0
  4 26  1  0  0  0  0
  4 27  1  0  0  0  0
  4 28  1  0  0  0  0
  5 19  1  0  0  0  0
  5  6  2  0  0  0  0
  6  7  1  0  0  0  0
  6 29  1  0  0  0  0
  7  8  1  0  0  0  0
  7 18  2  0  0  0  0
  8  9  1  0  0  0  0
  8 30  1  0  0  0  0
  9 10  2  0  0  0  0
  9 11  1  0  0  0  0
 11 12  1  0  0  0  0
 11 31  1  0  0  0  0
 12 16  1  0  0  0  0
 12 13  1  0  0  0  0
 12 32  1  0  0  0  0
 13 14  1  0  0  0  0
 13 33  1  0  0  0  0
 13 34  1  0  0  0  0
 14 15  1  0  0  0  0
 14 35  1  0  0  0  0
 14 36  1  0  0  0  0
 15 16  1  0  0  0  0
 15 37  1  0  0  0  0
 15 38  1  0  0  0  0
 16 17  1  0  0  0  0
 16 39  1  0  0  0  0
 17 40  1  0  0  0  0
 18 19  1  0  0  0  0
M  END
> <s_m_source_file>
AV-unprocessed.smi

> <i_m_source_file_index>
730

> <i_lp_mmshare_version>
43012

> <i_f3d_flags>
0

> <s_epik_input>
W0NIM11DKFtDSDNdKShbQ0gzXSljMVtjSF1jKG5vMSlbTkhdQyg9TylbTkhdW0NAQEhdMltDSDJdW0NIMl1bQ0gyXVtDQEhdMltPSF0=

> <s_epik_cmdline>
J2VwaWtfcHl0aG9uJywgJy1waCcsICc3LjAnLCAnLXRuJywgJzgnLCAnLW1hJywgJzIwMCcsICctbWV0YWxfYmluZGluZycsICctaW1hZScsICc8aW5maWxlLm1hZT4nLCAnLW9tYWUnLCAnPG91dGZpbGUubWFlPic=

> <r_lp_tautomer_probability>
1

> <r_epik_Ionization_Penalty>
2.23071e-05

> <r_epik_Ionization_Penalty_Charging>
0

> <r_epik_Ionization_Penalty_Neutral>
2.23071e-05

> <r_epik_State_Penalty>
-0

> <r_epik_Charging_Adjusted_Penalty>
0

> <i_epik_Tot_Q>
0

> <i_epik_Tot_abs_Q>
0

> <r_epik_Metal_State_Penalty>
-0

> <b_epik_Metal_Only>
0

> <s_lp_Force_Field>
OPLS_2005

> <r_lp_Energy>
21.0344

> <b_lp_Chiralities_Consistent>
1

> <s_lp_Variant>
AV-unprocessed.smi:730-2

> <Gold.Version>
5.8.1

> <Gold.Id.Protein>
6NUR|6NUR_protein|mol2

> <Gold.PLP.Fitness>
36.1189

> <Gold.PLP.PLP>
-34.2956

> <Gold.PLP.part.hbond>
-2.0000

> <Gold.PLP.part.metal>
0.0000

> <Gold.PLP.part.buried>
0.2260

> <Gold.PLP.part.nonpolar>
-33.7326

> <Gold.PLP.part.repulsive>
0.1905

> <Gold.PLP.ligand.clash>
0.0000

> <Gold.PLP.ligand.torsion>
0.5896

> <Gold.PLP.Chemscore.Hbond>
1.0000

> <Gold.PLP.Chemscore.CHOScore>
0.0000

> <Gold.PLP.Chemscore.Metal>
0.0000

> <Gold.Chemscore.Hbonds>
donor molecule, donor type, donor heavy atom, donor atom, acceptor molecule, acceptor atom, score
      L1  H    17    40       P1  7948  1.00

> <Gold.PLP.Chemscore.Internal.Correction>
0.0024

> <Gold.Rescore>
     Score         DG    S(hbond)    S(metal)    S(lipo)     H(rot)  DE(clash)    DE(int)     intcor
     15.12     -16.70       0.99        0.00     105.04       1.71       1.01       0.57       ----

> <Gold.Chemscore.Fitness>
15.1236

> <Gold.Chemscore.DG>
-16.7030

> <Gold.Chemscore.ZeroCoef>
-5.4800

> <Gold.Chemscore.Hbond>
0.9934

> <Gold.Chemscore.Metal>
0.0000

> <Gold.Chemscore.Lipo>
105.0351

> <Gold.Chemscore.Internal_Hbond>
0.0000

> <Gold.Chemscore.DEClash>
1.0127

> <Gold.Chemscore.DEInternal>
0.5666

> <Gold.Chemscore.Rot>
1.7125

> <Gold.Chemscore.Internal.Correction>
   9.000000E+99

> <Gold.Chemscore.Hbonds>
donor molecule, donor type, donor heavy atom, donor atom, acceptor molecule, acceptor atom, score
      L1  H    17    40       P1  7948  0.94

> <Gold.Chemscore.Hbond.Weighted>
-3.3180

> <Gold.Chemscore.Metal.Weighted>
-0.0000

> <Gold.Chemscore.Lipo.Weighted>
-12.2891

> <Gold.Chemscore.Internal_Hbond.Weighted>
0.0000

> <Gold.Chemscore.DEClash.Weighted>
1.0127

> <Gold.Chemscore.DEInternal.Weighted>
0.5666

> <Gold.Chemscore.Rot.Weighted>
4.3841

> <Gold.Chemscore.Internal.Correction.Weighted>
   9.000000E+99

> <Gold.Protein.RotatedTorsions>
[ 6907 6896 6895 6894 ] final   78.41 input  -60.11 | X-H torsion
[ 7974 7965 7964 7962 ] final -110.46 input  175.53 | X-H torsion
[ 8008 7997 7996 7995 ] final -179.95 input   59.86 | X-H torsion
[ 10167 10162 10161 10158 ] final  -26.89 input  -65.29 | X-H torsion
[ 10718 10713 10712 10709 ] final -148.90 input   66.30 | X-H torsion
[ 10763 10752 10751 10750 ] final   45.47 input  -60.55 | X-H torsion
[ 11005 11000 10999 10996 ] final  157.44 input  -57.11 | X-H torsion

> <Gold.Protein.ActiveResidues>
 VAL166  LYS551  ARG553  GLY616  TRP617  ASP618  TYR619  PRO620  LYS621  CYS622 
 ASP623  PHE694  ASN695  SER759  ASP760  ASP761  ALA762  ILE779  LEU786  VAL792 
 PHE793  MET794  SER795  GLU796  ALA797  LYS798  CYS799  TRP800  GLU811  SER814 

> <Gold.Protein.RotatedAtoms>
  152.5158  134.3668  159.9303 H   0  0  0  0  0  0  0  0  0  0  0  0  # atno 6907 bound_to 6896
  151.3621  133.3879  159.2698 H   0  0  0  0  0  0  0  0  0  0  0  0  # atno 6908 bound_to 6896
  150.9643  134.9046  159.7808 H   0  0  0  0  0  0  0  0  0  0  0  0  # atno 6909 bound_to 6896
  145.1680  140.8911  143.3552 H   0  0  0  0  0  0  0  0  0  0  0  0  # atno 7974 bound_to 7965
  156.0364  140.1293  157.0203 H   0  0  0  0  0  0  0  0  0  0  0  0  # atno 8008 bound_to 7997
  154.4372  140.1039  156.6244 H   0  0  0  0  0  0  0  0  0  0  0  0  # atno 8009 bound_to 7997
  155.5731  140.3467  155.4522 H   0  0  0  0  0  0  0  0  0  0  0  0  # atno 8010 bound_to 7997
  140.7280  143.4140  151.1059 H   0  0  0  0  0  0  0  0  0  0  0  0  # atno 10167 bound_to 10162
  156.4262  130.8053  151.2278 H   0  0  0  0  0  0  0  0  0  0  0  0  # atno 10718 bound_to 10713
  152.9824  135.6038  154.3443 H   0  0  0  0  0  0  0  0  0  0  0  0  # atno 10763 bound_to 10752
  154.3137  135.2771  155.2555 H   0  0  0  0  0  0  0  0  0  0  0  0  # atno 10764 bound_to 10752
  154.4753  135.5931  153.6406 H   0  0  0  0  0  0  0  0  0  0  0  0  # atno 10765 bound_to 10752
  140.1770  134.8503  157.2758 H   0  0  0  0  0  0  0  0  0  0  0  0  # atno 11005 bound_to 11000
  145.0262  139.3380  143.6047 LP  0  0  0  0  0  0  0  0  0  0  0  0  # atno 17320 bound_to 7965
  146.3473  139.9582  142.8720 LP  0  0  0  0  0  0  0  0  0  0  0  0  # atno 17321 bound_to 7965
  139.7777  143.8401  152.3132 LP  0  0  0  0  0  0  0  0  0  0  0  0  # atno 17342 bound_to 10162
  139.8341  144.7240  150.9413 LP  0  0  0  0  0  0  0  0  0  0  0  0  # atno 17343 bound_to 10162
  157.7508  131.0213  150.3743 LP  0  0  0  0  0  0  0  0  0  0  0  0  # atno 17370 bound_to 10713
  156.4071  130.3927  149.6918 LP  0  0  0  0  0  0  0  0  0  0  0  0  # atno 17371 bound_to 10713
  140.2311  134.3908  155.7521 LP  0  0  0  0  0  0  0  0  0  0  0  0  # atno 17394 bound_to 11000
  141.2221  133.7215  156.8642 LP  0  0  0  0  0  0  0  0  0  0  0  0  # atno 17395 bound_to 11000

$$$$
