#       Name:                AV-unprocessed.smi:3258
#       Creating user name   scv26
#       Creation time:       Fri Mar 27 18:36:40 2020


#       File generated by GOLD software.
#

@<TRIPOS>MOLECULE
AV-unprocessed.smi:3258
    43    44     1
SMALL
NO_CHARGES


@<TRIPOS>ATOM
      1 ****        -2.8069  -0.2720   2.3590 C.3            1 S1                 0.0000
      2 ****        -1.9547   0.1836   1.1631 C.3            1 S1                 0.0000
      3 ****        -2.3767  -0.4709  -0.1707 C.3            1 S1                 0.0000
      4 ****        -3.7599  -0.1987  -0.5164 N.pl3          1 S1                 0.0000
      5 ****        -4.2962   0.9600  -1.0366 C.2            1 S1                 0.0000
      6 ****        -5.6355   0.7499  -1.1995 C.2            1 S1                 0.0000
      7 ****        -5.8256  -0.5859  -0.7472 C.2            1 S1                 0.0000
      8 ****        -4.7007  -1.1520  -0.3406 N.2            1 S1                 0.0000
      9 ****        -0.5498  -0.1024   1.4402 N.am           1 S1                 0.0000
     10 ****         0.4924   0.5557   0.9131 C.2            1 S1                 0.0000
     11 ****         0.3880   1.4942   0.1232 O.2            1 S1                 0.0000
     12 ****         1.6610   0.0611   1.3446 N.am           1 S1                 0.0000
     13 ****         2.9808   0.5440   0.9511 C.3            1 S1                 0.0000
     14 ****         3.5707  -0.2800  -0.2089 C.3            1 S1                 0.0000
     15 ****         4.9733   0.1357  -0.6034 C.3            1 S1                 0.0000
     16 ****         5.1106  -0.4717  -1.9976 C.3            1 S1                 0.0000
     17 ****         3.7922  -0.5277  -2.5358 O.3            1 S1                 0.0000
     18 ****         2.8457  -0.1347  -1.5476 C.3            1 S1                 0.0000
     19 ****        -3.8539   0.0041   2.2329 H              1 S1                 0.0000
     20 ****        -2.4613   0.1889   3.2850 H              1 S1                 0.0000
     21 ****        -2.7613  -1.3539   2.4877 H              1 S1                 0.0000
     22 ****        -2.0749   1.2650   1.0723 H              1 S1                 0.0000
     23 ****        -1.7524  -0.1063  -0.9875 H              1 S1                 0.0000
     24 ****        -2.2280  -1.5513  -0.1267 H              1 S1                 0.0000
     25 ****        -3.6865   1.8273  -1.2435 H              1 S1                 0.0000
     26 ****        -6.3676   1.4445  -1.5838 H              1 S1                 0.0000
     27 ****        -6.7408  -1.1575  -0.7036 H              1 S1                 0.0000
     28 ****        -0.3588  -0.8613   2.0780 H              1 S1                 0.0000
     29 ****         1.6372  -0.7125   1.9929 H              1 S1                 0.0000
     30 ****         2.9472   1.6043   0.6944 H              1 S1                 0.0000
     31 ****         3.6322   0.4633   1.8216 H              1 S1                 0.0000
     32 ****         3.5893  -1.3357   0.0675 H              1 S1                 0.0000
     33 ****         5.0447   1.2229  -0.6624 H              1 S1                 0.0000
     34 ****         5.7372  -0.2183   0.0895 H              1 S1                 0.0000
     35 ****         5.7764   0.1084  -2.6371 H              1 S1                 0.0000
     36 ****         5.5021  -1.4875  -1.9354 H              1 S1                 0.0000
     37 ****         1.9387  -0.7371  -1.6039 H              1 S1                 0.0000
     38 ****         2.5723   0.9060  -1.7274 H              1 S1                 0.0000
     39 ****        -4.5753  -2.0776   0.0166 LP             1 S1                 0.0000
     40 ****        -0.5172   1.8088  -0.1626 LP             1 S1                 0.0000
     41 ****         1.2083   1.9418  -0.2327 LP             1 S1                 0.0000
     42 ****         3.5943  -1.4626  -2.8307 LP             1 S1                 0.0000
     43 ****         3.7281   0.0897  -3.3198 LP             1 S1                 0.0000
@<TRIPOS>BOND
    1    1    2 1     
    2    1   19 1     
    3    1   20 1     
    4    1   21 1     
    5    2    3 1     
    6    2    9 1     
    7    2   22 1     
    8    3    4 1     
    9    3   23 1     
   10    3   24 1     
   11    4    8 1     
   12    4    5 1     
   13    5    6 2     
   14    5   25 1     
   15    6    7 1     
   16    6   26 1     
   17    7    8 2     
   18    7   27 1     
   19    9   10 am    
   20    9   28 1     
   21   10   11 2     
   22   10   12 am    
   23   12   13 1     
   24   12   29 1     
   25   13   14 1     
   26   13   30 1     
   27   13   31 1     
   28   14   18 1     
   29   14   15 1     
   30   14   32 1     
   31   15   16 1     
   32   15   33 1     
   33   15   34 1     
   34   16   17 1     
   35   16   35 1     
   36   16   36 1     
   37   17   18 1     
   38   18   37 1     
   39   18   38 1     
   40    8   39 1     
   41   11   40 1     
   42   11   41 1     
   43   17   42 1     
   44   17   43 1     
@<TRIPOS>SUBSTRUCTURE
      1 S1             1
@<TRIPOS>SET
LONE_PAIRS      STATIC     ATOMS    <user>   **** ""
5 39 40 41 42 43
DONOR_HYDROGENS      STATIC     ATOMS    <user>   **** ""
2 28 29
ATOM$BLUE        STATIC     ATOMS    COLORGROUP SYSTEM
5 39 40 41 42 43
ATOM$RED        STATIC     ATOMS    COLORGROUP SYSTEM
2 28 29
