AV-unprocessed.smi:12|AV-procd|sdf|65|dock7
  -GOLD-   2262015183D 1   1.00000     0.00000
 Structure written by MMmdl.
 41 44  0  0  0  0  0  0  0  0  1 V2000
  145.8361  136.6021  151.8061 C   0  0  0  0  0  0  0  0  0  0  0  0
  145.8991  137.7272  152.8238 C   0  0  0  0  0  0  0  0  0  0  0  0
  146.8376  138.7003  152.7512 C   0  0  0  0  0  0  0  0  0  0  0  0
  146.8548  139.6876  153.6962 N   0  0  0  0  0  0  0  0  0  0  0  0
  145.8815  139.6940  154.7211 C   0  0  0  0  0  0  0  0  0  0  0  0
  144.9517  138.8003  154.8568 N   0  0  0  0  0  0  0  0  0  0  0  0
  144.9007  137.7480  153.9224 C   0  0  0  0  0  0  0  0  0  0  0  0
  144.0437  136.8705  154.0170 O   0  0  0  0  0  0  0  0  0  0  0  0
  146.0781  140.7847  155.5138 O   0  0  0  0  0  0  0  0  0  0  0  0
  147.2179  141.5184  155.0428 C   0  0  1  0  0  0  0  0  0  0  0  0
  148.4028  141.4938  156.0127 C   0  0  1  0  0  0  0  0  0  0  0  0
  148.2733  140.4769  156.9914 O   0  0  0  0  0  0  0  0  0  0  0  0
  149.5930  141.2053  155.0854 C   0  0  1  0  0  0  0  0  0  0  0  0
  150.8353  140.5652  155.7248 C   0  0  0  0  0  0  0  0  0  0  0  0
  151.3542  141.4279  156.7244 O   0  0  0  0  0  0  0  0  0  0  0  0
  152.1335  140.9290  157.7042 C   0  0  0  0  0  0  0  0  0  0  0  0
  152.6417  139.8065  157.6664 O   0  0  0  0  0  0  0  0  0  0  0  0
  152.3201  141.8777  158.8398 C   0  0  0  0  0  0  0  0  0  0  0  0
  152.8731  141.4044  160.0527 C   0  0  0  0  0  0  0  0  0  0  0  0
  153.0660  142.2760  161.1421 C   0  0  0  0  0  0  0  0  0  0  0  0
  152.7073  143.6320  161.0321 C   0  0  0  0  0  0  0  0  0  0  0  0
  152.1552  144.1151  159.8314 C   0  0  0  0  0  0  0  0  0  0  0  0
  151.9614  143.2448  158.7407 C   0  0  0  0  0  0  0  0  0  0  0  0
  149.0432  140.3609  154.0847 O   0  0  0  0  0  0  0  0  0  0  0  0
  147.7677  140.8272  153.7818 C   0  0  1  0  0  0  0  0  0  0  0  0
  146.6189  136.7039  151.0539 H   0  0  0  0  0  0  0  0  0  0  0  0
  144.8739  136.6040  151.2929 H   0  0  0  0  0  0  0  0  0  0  0  0
  145.9639  135.6365  152.2962 H   0  0  0  0  0  0  0  0  0  0  0  0
  147.5751  138.7057  151.9619 H   0  0  0  0  0  0  0  0  0  0  0  0
  146.9378  142.5402  154.7838 H   0  0  0  0  0  0  0  0  0  0  0  0
  148.5204  142.4477  156.5278 H   0  0  0  0  0  0  0  0  0  0  0  0
  149.1372  140.1818  157.2356 H   0  0  0  0  0  0  0  0  0  0  0  0
  149.8876  142.1340  154.5926 H   0  0  0  0  0  0  0  0  0  0  0  0
  150.5975  139.5883  156.1475 H   0  0  0  0  0  0  0  0  0  0  0  0
  151.5980  140.4067  154.9612 H   0  0  0  0  0  0  0  0  0  0  0  0
  153.1567  140.3674  160.1606 H   0  0  0  0  0  0  0  0  0  0  0  0
  153.4906  141.9035  162.0626 H   0  0  0  0  0  0  0  0  0  0  0  0
  152.8560  144.3006  161.8672 H   0  0  0  0  0  0  0  0  0  0  0  0
  151.8803  145.1560  159.7461 H   0  0  0  0  0  0  0  0  0  0  0  0
  151.5354  143.6483  157.8336 H   0  0  0  0  0  0  0  0  0  0  0  0
  147.6713  141.3835  152.8489 H   0  0  0  0  0  0  0  0  0  0  0  0
  1  2  1  0  0  0  0
  1 26  1  0  0  0  0
  1 27  1  0  0  0  0
  1 28  1  0  0  0  0
  2  7  1  0  0  0  0
  2  3  2  0  0  0  0
  3  4  1  0  0  0  0
  3 29  1  0  0  0  0
  4 25  1  0  0  0  0
  4  5  1  0  0  0  0
  5  6  2  0  0  0  0
  5  9  1  0  0  0  0
  6  7  1  0  0  0  0
  7  8  2  0  0  0  0
  9 10  1  0  0  0  0
 10 25  1  0  0  0  0
 10 11  1  0  0  0  0
 10 30  1  0  0  0  0
 11 12  1  0  0  0  0
 11 13  1  0  0  0  0
 11 31  1  0  0  0  0
 12 32  1  0  0  0  0
 13 14  1  0  0  0  0
 13 24  1  0  0  0  0
 13 33  1  0  0  0  0
 14 15  1  0  0  0  0
 14 34  1  0  0  0  0
 14 35  1  0  0  0  0
 15 16  1  0  0  0  0
 16 17  2  0  0  0  0
 16 18  1  0  0  0  0
 18 23  1  0  0  0  0
 18 19  2  0  0  0  0
 19 20  1  0  0  0  0
 19 36  1  0  0  0  0
 20 21  2  0  0  0  0
 20 37  1  0  0  0  0
 21 22  1  0  0  0  0
 21 38  1  0  0  0  0
 22 23  2  0  0  0  0
 22 39  1  0  0  0  0
 23 40  1  0  0  0  0
 24 25  1  0  0  0  0
 25 41  1  0  0  0  0
M  END
> <s_m_source_file>
AV-unprocessed.smi

> <i_m_source_file_index>
12

> <i_lp_mmshare_version>
43012

> <i_f3d_flags>
0

> <s_epik_input>
W0NIM11jKFtjSF0xKWMoPU8pbmMobjEyKU9bQ0BIXTNbQ0BASF0yT1tDQEBIXShbQ0BASF0zW09IXSlbQ0gyXU9DKD1PKWM0W2NIXVtjSF1bY0hdW2NIXVtjSF00

> <s_epik_cmdline>
J2VwaWtfcHl0aG9uJywgJy1waCcsICc3LjAnLCAnLXRuJywgJzgnLCAnLW1hJywgJzIwMCcsICctbWV0YWxfYmluZGluZycsICctaW1hZScsICc8aW5maWxlLm1hZT4nLCAnLW9tYWUnLCAnPG91dGZpbGUubWFlPic=

> <r_lp_tautomer_probability>
0.933681

> <r_epik_Ionization_Penalty>
0.00399549

> <r_epik_Ionization_Penalty_Charging>
3.09373e-09

> <r_epik_Ionization_Penalty_Neutral>
0.00399549

> <r_epik_State_Penalty>
0.00284953

> <r_epik_Charging_Adjusted_Penalty>
0.00284953

> <i_epik_Tot_Q>
0

> <i_epik_Tot_abs_Q>
0

> <r_epik_Metal_State_Penalty>
-0

> <b_epik_Metal_Only>
0

> <s_epik_Chemistry_Notes>
This compound has an ester and may undergo hydrolysis at high or low pH. This compound contains an acetal/aminal-like group ( X-CH(R)-Y where X, Y are N, S, or O) that may be acid/base labile, releasing an aldehyde.

> <s_lp_Force_Field>
OPLS_2005

> <r_lp_Energy>
52.4365

> <b_lp_Chiralities_Consistent>
1

> <s_lp_Variant>
AV-unprocessed.smi:12-5

> <Gold.Version>
5.8.1

> <Gold.Id.Protein>
6NUR|6NUR_protein|mol2

> <Gold.PLP.Fitness>
46.1534

> <Gold.PLP.PLP>
-40.4972

> <Gold.PLP.part.hbond>
-1.0000

> <Gold.PLP.part.metal>
0.0000

> <Gold.PLP.part.buried>
-4.3081

> <Gold.PLP.part.nonpolar>
-37.2261

> <Gold.PLP.part.repulsive>
1.2892

> <Gold.PLP.ligand.clash>
0.0000

> <Gold.PLP.ligand.torsion>
0.3584

> <Gold.PLP.Chemscore.Hbond>
1.0000

> <Gold.PLP.Chemscore.CHOScore>
1.1229

> <Gold.PLP.Chemscore.Metal>
0.0000

> <Gold.Chemscore.Hbonds>
donor molecule, donor type, donor heavy atom, donor atom, acceptor molecule, acceptor atom, score
      P1  H  7997  8008       L1    17  1.00
      L1  C     3    29       P1  7948  0.21
      L1  C     3    29       P1  7957  1.00

> <Gold.PLP.Chemscore.Internal.Correction>
0.0042

> <Gold.Rescore>
     Score         DG    S(hbond)    S(metal)    S(lipo)     H(rot)  DE(clash)    DE(int)     intcor
     14.90     -15.44       0.91        0.00     106.85       2.18       0.15       0.39       ----

> <Gold.Chemscore.Fitness>
14.8971

> <Gold.Chemscore.DG>
-15.4393

> <Gold.Chemscore.ZeroCoef>
-5.4800

> <Gold.Chemscore.Hbond>
0.9098

> <Gold.Chemscore.Metal>
0.0000

> <Gold.Chemscore.Lipo>
106.8490

> <Gold.Chemscore.Internal_Hbond>
0.0000

> <Gold.Chemscore.DEClash>
0.1538

> <Gold.Chemscore.DEInternal>
0.3884

> <Gold.Chemscore.Rot>
2.1800

> <Gold.Chemscore.Internal.Correction>
   9.000000E+99

> <Gold.Chemscore.Hbonds>
donor molecule, donor type, donor heavy atom, donor atom, acceptor molecule, acceptor atom, score
      P1  H  7997  8008       L1    17  0.42

> <Gold.Chemscore.Hbond.Weighted>
-3.0387

> <Gold.Chemscore.Metal.Weighted>
-0.0000

> <Gold.Chemscore.Lipo.Weighted>
-12.5013

> <Gold.Chemscore.Internal_Hbond.Weighted>
0.0000

> <Gold.Chemscore.DEClash.Weighted>
0.1538

> <Gold.Chemscore.DEInternal.Weighted>
0.3884

> <Gold.Chemscore.Rot.Weighted>
5.5807

> <Gold.Chemscore.Internal.Correction.Weighted>
   9.000000E+99

> <Gold.Protein.RotatedTorsions>
[ 6907 6896 6895 6894 ] final  120.09 input  -60.11 | X-H torsion
[ 7974 7965 7964 7962 ] final  -44.45 input  175.53 | X-H torsion
[ 8008 7997 7996 7995 ] final  -62.71 input   59.86 | X-H torsion
[ 10167 10162 10161 10158 ] final -170.57 input  -65.29 | X-H torsion
[ 10718 10713 10712 10709 ] final   30.06 input   66.30 | X-H torsion
[ 10763 10752 10751 10750 ] final   57.36 input  -60.55 | X-H torsion
[ 11005 11000 10999 10996 ] final  -59.62 input  -57.11 | X-H torsion

> <Gold.Protein.ActiveResidues>
 VAL166  LYS551  ARG553  GLY616  TRP617  ASP618  TYR619  PRO620  LYS621  CYS622 
 ASP623  PHE694  ASN695  SER759  ASP760  ASP761  ALA762  ILE779  LEU786  VAL792 
 PHE793  MET794  SER795  GLU796  ALA797  LYS798  CYS799  TRP800  GLU811  SER814 

> <Gold.Protein.RotatedAtoms>
  152.4424  133.7472  159.6673 H   0  0  0  0  0  0  0  0  0  0  0  0  # atno 6907 bound_to 6896
  150.8317  133.8070  159.3102 H   0  0  0  0  0  0  0  0  0  0  0  0  # atno 6908 bound_to 6896
  151.5722  135.1064  160.0049 H   0  0  0  0  0  0  0  0  0  0  0  0  # atno 6909 bound_to 6896
  145.9919  140.7171  142.9312 H   0  0  0  0  0  0  0  0  0  0  0  0  # atno 7974 bound_to 7965
  154.4514  140.0990  156.6629 H   0  0  0  0  0  0  0  0  0  0  0  0  # atno 8008 bound_to 7997
  155.5273  140.3480  155.4400 H   0  0  0  0  0  0  0  0  0  0  0  0  # atno 8009 bound_to 7997
  156.0689  140.1344  156.9842 H   0  0  0  0  0  0  0  0  0  0  0  0  # atno 8010 bound_to 7997
  139.5854  144.1330  152.1568 H   0  0  0  0  0  0  0  0  0  0  0  0  # atno 10167 bound_to 10162
  157.2547  130.7132  149.6423 H   0  0  0  0  0  0  0  0  0  0  0  0  # atno 10718 bound_to 10713
  152.9848  135.5644  154.5378 H   0  0  0  0  0  0  0  0  0  0  0  0  # atno 10763 bound_to 10752
  154.4838  135.2790  155.1552 H   0  0  0  0  0  0  0  0  0  0  0  0  # atno 10764 bound_to 10752
  154.3050  135.6300  153.5494 H   0  0  0  0  0  0  0  0  0  0  0  0  # atno 10765 bound_to 10752
  141.1255  133.6617  156.5100 H   0  0  0  0  0  0  0  0  0  0  0  0  # atno 11005 bound_to 11000
  144.6891  140.3085  143.7252 LP  0  0  0  0  0  0  0  0  0  0  0  0  # atno 17320 bound_to 7965
  145.7617  139.1827  143.2263 LP  0  0  0  0  0  0  0  0  0  0  0  0  # atno 17321 bound_to 7965
  140.0893  144.5635  150.7066 LP  0  0  0  0  0  0  0  0  0  0  0  0  # atno 17342 bound_to 10162
  140.7126  143.2518  151.4533 LP  0  0  0  0  0  0  0  0  0  0  0  0  # atno 17343 bound_to 10162
  155.9665  130.4416  150.5349 LP  0  0  0  0  0  0  0  0  0  0  0  0  # atno 17370 bound_to 10713
  157.3240  131.0687  151.1910 LP  0  0  0  0  0  0  0  0  0  0  0  0  # atno 17371 bound_to 10713
  140.4377  134.7044  157.4975 LP  0  0  0  0  0  0  0  0  0  0  0  0  # atno 17394 bound_to 11000
  140.0250  134.6490  155.9185 LP  0  0  0  0  0  0  0  0  0  0  0  0  # atno 17395 bound_to 11000

$$$$
