AV-unprocessed.smi:1947|AV-procd|sdf|7872|dock6
  -GOLD-   2272010 23D 1   1.00000     0.00000
 Structure written by MMmdl.
 38 39  0  0  0  0  0  0  0  0  2 V2000
  152.8637  141.3436  160.6525 C   0  0  0  0  0  0  0  0  0  0  0  0
  152.0357  142.2938  159.7704 C   0  0  1  0  0  0  0  0  0  0  0  0
  152.7756  143.6307  159.5628 C   0  0  0  0  0  0  0  0  0  0  0  0
  151.9766  144.5924  158.6695 C   0  0  0  0  0  0  0  0  0  0  0  0
  151.6456  143.9443  157.3178 C   0  0  0  0  0  0  0  0  0  0  0  0
  150.8949  142.6187  157.5124 C   0  0  0  0  0  0  0  0  0  0  0  0
  151.6866  141.6480  158.4113 C   0  0  2  0  0  0  0  0  0  0  0  0
  150.8955  140.4971  158.6737 O   0  0  0  0  0  0  0  0  0  0  0  0
  151.5965  139.2653  158.5896 C   0  0  0  0  0  0  0  0  0  0  0  0
  150.6664  138.2112  157.9693 C   0  0  0  0  0  0  0  0  0  0  0  0
  149.4829  137.9833  158.7936 N   0  0  0  0  0  0  0  0  0  0  0  0
  149.2474  136.9078  159.5580 C   0  0  0  0  0  0  0  0  0  0  0  0
  150.0476  135.9695  159.5652 O   0  0  0  0  0  0  0  0  0  0  0  0
  148.1047  136.9914  160.2762 N   0  5  0  0  0  0  0  0  0  0  0  0
  147.6492  135.9156  160.9389 C   0  0  0  0  0  0  0  0  0  0  0  0
  147.8549  134.6619  160.5050 N   0  0  0  0  0  0  0  0  0  0  0  0
  147.2976  133.6991  161.3357 N   0  0  0  0  0  0  0  0  0  0  0  0
  146.6760  134.2552  162.3753 C   0  0  0  0  0  0  0  0  0  0  0  0
  146.7110  136.0048  162.4321 S   0  0  0  0  0  0  0  0  0  0  0  0
  153.8079  141.0800  160.1750 H   0  0  0  0  0  0  0  0  0  0  0  0
  152.3267  140.4159  160.8535 H   0  0  0  0  0  0  0  0  0  0  0  0
  153.0935  141.8012  161.6147 H   0  0  0  0  0  0  0  0  0  0  0  0
  151.1027  142.5052  160.2949 H   0  0  0  0  0  0  0  0  0  0  0  0
  152.9671  144.1041  160.5261 H   0  0  0  0  0  0  0  0  0  0  0  0
  153.7514  143.4452  159.1117 H   0  0  0  0  0  0  0  0  0  0  0  0
  151.0536  144.8797  159.1745 H   0  0  0  0  0  0  0  0  0  0  0  0
  152.5428  145.5109  158.5127 H   0  0  0  0  0  0  0  0  0  0  0  0
  151.0457  144.6265  156.7149 H   0  0  0  0  0  0  0  0  0  0  0  0
  152.5662  143.7658  156.7608 H   0  0  0  0  0  0  0  0  0  0  0  0
  149.9196  142.8169  157.9590 H   0  0  0  0  0  0  0  0  0  0  0  0
  150.7025  142.1648  156.5404 H   0  0  0  0  0  0  0  0  0  0  0  0
  152.6197  141.3704  157.9171 H   0  0  0  0  0  0  0  0  0  0  0  0
  152.4918  139.3819  157.9785 H   0  0  0  0  0  0  0  0  0  0  0  0
  151.9202  138.9386  159.5787 H   0  0  0  0  0  0  0  0  0  0  0  0
  150.3359  138.5436  156.9852 H   0  0  0  0  0  0  0  0  0  0  0  0
  151.2011  137.2722  157.8192 H   0  0  0  0  0  0  0  0  0  0  0  0
  148.7992  138.7254  158.8196 H   0  0  0  0  0  0  0  0  0  0  0  0
  146.1908  133.6317  163.1110 H   0  0  0  0  0  0  0  0  0  0  0  0
  1  2  1  0  0  0  0
  1 20  1  0  0  0  0
  1 21  1  0  0  0  0
  1 22  1  0  0  0  0
  2  7  1  0  0  0  0
  2  3  1  0  0  0  0
  2 23  1  0  0  0  0
  3  4  1  0  0  0  0
  3 24  1  0  0  0  0
  3 25  1  0  0  0  0
  4  5  1  0  0  0  0
  4 26  1  0  0  0  0
  4 27  1  0  0  0  0
  5  6  1  0  0  0  0
  5 28  1  0  0  0  0
  5 29  1  0  0  0  0
  6  7  1  0  0  0  0
  6 30  1  0  0  0  0
  6 31  1  0  0  0  0
  7  8  1  0  0  0  0
  7 32  1  0  0  0  0
  8  9  1  0  0  0  0
  9 10  1  0  0  0  0
  9 33  1  0  0  0  0
  9 34  1  0  0  0  0
 10 11  1  0  0  0  0
 10 35  1  0  0  0  0
 10 36  1  0  0  0  0
 11 12  1  0  0  0  0
 11 37  1  0  0  0  0
 12 13  2  0  0  0  0
 12 14  1  0  0  0  0
 14 15  1  0  0  0  0
 15 19  1  0  0  0  0
 15 16  2  0  0  0  0
 16 17  1  0  0  0  0
 17 18  2  0  0  0  0
 18 19  1  0  0  0  0
 18 38  1  0  0  0  0
M  CHG  1  14  -1
M  END
> <s_m_source_file>
AV-unprocessed.smi

> <i_m_source_file_index>
1947

> <i_lp_mmshare_version>
43012

> <i_f3d_flags>
0

> <s_epik_input>
W0NIM11bQ0BASF0xW0NIMl1bQ0gyXVtDSDJdW0NIMl1bQ0BIXTFPW0NIMl1bQ0gyXVtOSF1DKD1PKVtOSF1jMm5uW2NIXXMy

> <s_epik_cmdline>
J2VwaWtfcHl0aG9uJywgJy1waCcsICc3LjAnLCAnLXRuJywgJzgnLCAnLW1hJywgJzIwMCcsICctbWV0YWxfYmluZGluZycsICctaW1hZScsICc8aW5maWxlLm1hZT4nLCAnLW9tYWUnLCAnPG91dGZpbGUubWFlPic=

> <r_lp_tautomer_probability>
1

> <r_epik_Ionization_Penalty>
3.35961

> <r_epik_Ionization_Penalty_Charging>
3.31977

> <r_epik_Ionization_Penalty_Neutral>
0.0398394

> <r_epik_State_Penalty>
3.31759

> <r_epik_Charging_Adjusted_Penalty>
6.63736

> <i_epik_Tot_Q>
-1

> <i_epik_Tot_abs_Q>
1

> <r_epik_Metal_State_Penalty>
0.484557

> <b_epik_Metal_Only>
1

> <s_lp_Force_Field>
OPLS_2005

> <r_lp_Energy>
7.96077

> <b_lp_Chiralities_Consistent>
1

> <s_lp_Variant>
AV-unprocessed.smi:1947-8

> <Gold.Version>
5.8.1

> <Gold.Id.Protein>
6NUR|6NUR_protein|mol2

> <Gold.PLP.Fitness>
51.1411

> <Gold.PLP.PLP>
-41.4529

> <Gold.PLP.part.hbond>
-3.0000

> <Gold.PLP.part.metal>
0.0000

> <Gold.PLP.part.buried>
-5.4591

> <Gold.PLP.part.nonpolar>
-35.2336

> <Gold.PLP.part.repulsive>
0.2249

> <Gold.PLP.ligand.clash>
0.0000

> <Gold.PLP.ligand.torsion>
1.1558

> <Gold.PLP.Chemscore.Hbond>
3.9780

> <Gold.PLP.Chemscore.CHOScore>
0.0000

> <Gold.PLP.Chemscore.Metal>
0.0000

> <Gold.Chemscore.Hbonds>
donor molecule, donor type, donor heavy atom, donor atom, acceptor molecule, acceptor atom, score
      P1  H  6896  6907       L1    13  0.66
      P1  H  6931  6943       L1    14  0.45
      P1  H  6934  6947       L1    14  0.44

> <Gold.PLP.Chemscore.Internal.Correction>
0.0658

> <Gold.Rescore>
     Score         DG    S(hbond)    S(metal)    S(lipo)     H(rot)  DE(clash)    DE(int)     intcor
     16.34     -19.08       1.97        0.00     101.47       1.90       0.03       2.72       ----

> <Gold.Chemscore.Fitness>
16.3402

> <Gold.Chemscore.DG>
-19.0839

> <Gold.Chemscore.ZeroCoef>
-5.4800

> <Gold.Chemscore.Hbond>
1.9735

> <Gold.Chemscore.Metal>
0.0000

> <Gold.Chemscore.Lipo>
101.4717

> <Gold.Chemscore.Internal_Hbond>
0.0000

> <Gold.Chemscore.DEClash>
0.0284

> <Gold.Chemscore.DEInternal>
2.7152

> <Gold.Chemscore.Rot>
1.8984

> <Gold.Chemscore.Internal.Correction>
   9.000000E+99

> <Gold.Chemscore.Hbonds>
donor molecule, donor type, donor heavy atom, donor atom, acceptor molecule, acceptor atom, score
      P1  H  6896  6907       L1    13  0.63
      P1  H  6931  6943       L1    14  0.01
      P1  H  6934  6947       L1    14  0.20

> <Gold.Chemscore.Hbond.Weighted>
-6.5914

> <Gold.Chemscore.Metal.Weighted>
-0.0000

> <Gold.Chemscore.Lipo.Weighted>
-11.8722

> <Gold.Chemscore.Internal_Hbond.Weighted>
0.0000

> <Gold.Chemscore.DEClash.Weighted>
0.0284

> <Gold.Chemscore.DEInternal.Weighted>
2.7152

> <Gold.Chemscore.Rot.Weighted>
4.8598

> <Gold.Chemscore.Internal.Correction.Weighted>
   9.000000E+99

> <Gold.Protein.RotatedTorsions>
[ 6907 6896 6895 6894 ] final  -74.64 input  -60.11 | X-H torsion
[ 7974 7965 7964 7962 ] final  -61.99 input  175.53 | X-H torsion
[ 8008 7997 7996 7995 ] final  -66.68 input   59.86 | X-H torsion
[ 10167 10162 10161 10158 ] final   58.03 input  -65.29 | X-H torsion
[ 10718 10713 10712 10709 ] final   74.17 input   66.30 | X-H torsion
[ 10763 10752 10751 10750 ] final -163.88 input  -60.55 | X-H torsion
[ 11005 11000 10999 10996 ] final -147.80 input  -57.11 | X-H torsion

> <Gold.Protein.ActiveResidues>
 VAL166  LYS551  ARG553  GLY616  TRP617  ASP618  TYR619  PRO620  LYS621  CYS622 
 ASP623  PHE694  ASN695  SER759  ASP760  ASP761  ALA762  ILE779  LEU786  VAL792 
 PHE793  MET794  SER795  GLU796  ALA797  LYS798  CYS799  TRP800  GLU811  SER814 

> <Gold.Protein.RotatedAtoms>
  150.7086  134.4839  159.5483 H   0  0  0  0  0  0  0  0  0  0  0  0  # atno 6907 bound_to 6896
  152.2471  134.8168  160.0461 H   0  0  0  0  0  0  0  0  0  0  0  0  # atno 6908 bound_to 6896
  151.8929  133.3485  159.3841 H   0  0  0  0  0  0  0  0  0  0  0  0  # atno 6909 bound_to 6896
  145.7967  140.8678  143.0252 H   0  0  0  0  0  0  0  0  0  0  0  0  # atno 7974 bound_to 7965
  154.4750  140.0908  156.7239 H   0  0  0  0  0  0  0  0  0  0  0  0  # atno 8008 bound_to 7997
  155.4621  140.3461  155.4296 H   0  0  0  0  0  0  0  0  0  0  0  0  # atno 8009 bound_to 7997
  156.1101  140.1445  156.9338 H   0  0  0  0  0  0  0  0  0  0  0  0  # atno 8010 bound_to 7997
  140.1916  144.4080  150.6568 H   0  0  0  0  0  0  0  0  0  0  0  0  # atno 10167 bound_to 10162
  157.6580  130.9665  150.1174 H   0  0  0  0  0  0  0  0  0  0  0  0  # atno 10718 bound_to 10713
  154.7081  135.3001  154.9239 H   0  0  0  0  0  0  0  0  0  0  0  0  # atno 10763 bound_to 10752
  154.0149  135.6690  153.4772 H   0  0  0  0  0  0  0  0  0  0  0  0  # atno 10764 bound_to 10752
  153.0733  135.5048  154.8264 H   0  0  0  0  0  0  0  0  0  0  0  0  # atno 10765 bound_to 10752
  140.7678  134.3223  157.5083 H   0  0  0  0  0  0  0  0  0  0  0  0  # atno 11005 bound_to 11000
  144.6774  140.0201  143.7484 LP  0  0  0  0  0  0  0  0  0  0  0  0  # atno 17320 bound_to 7965
  145.9920  139.3022  143.0979 LP  0  0  0  0  0  0  0  0  0  0  0  0  # atno 17321 bound_to 7965
  140.6452  143.2212  151.6202 LP  0  0  0  0  0  0  0  0  0  0  0  0  # atno 17342 bound_to 10162
  139.5253  144.3077  152.1020 LP  0  0  0  0  0  0  0  0  0  0  0  0  # atno 17343 bound_to 10162
  156.2054  130.3663  149.8736 LP  0  0  0  0  0  0  0  0  0  0  0  0  # atno 17370 bound_to 10713
  156.6629  130.8789  151.3550 LP  0  0  0  0  0  0  0  0  0  0  0  0  # atno 17371 bound_to 10713
  139.8760  134.9242  156.3344 LP  0  0  0  0  0  0  0  0  0  0  0  0  # atno 17394 bound_to 11000
  140.9602  133.7393  156.0391 LP  0  0  0  0  0  0  0  0  0  0  0  0  # atno 17395 bound_to 11000

$$$$
