#       Name:                AV-unprocessed.smi:220
#       Creating user name   scv26
#       Creation time:       Thu Mar 26 20:12:05 2020


#       File generated by GOLD software.
#

@<TRIPOS>MOLECULE
AV-unprocessed.smi:220
    60    64     1
SMALL
NO_CHARGES


@<TRIPOS>ATOM
      1 ****        -1.8563  -0.8205  -3.4635 N.am           1 S1                 0.0000
      2 ****        -1.7857   0.2385  -2.6536 C.2            1 S1                 0.0000
      3 ****        -1.3501   1.3239  -3.0348 O.2            1 S1                 0.0000
      4 ****        -2.2851   0.0389  -1.2098 C.3            1 S1                 0.0000
      5 ****        -3.8212   0.1689  -1.0742 C.3            1 S1                 0.0000
      6 ****        -4.5490   1.1981  -1.9567 C.3            1 S1                 0.0000
      7 ****        -5.7990   1.5608  -1.1542 C.3            1 S1                 0.0000
      8 ****        -5.3800   1.4739   0.3197 C.3            1 S1                 0.0000
      9 ****        -4.0474   0.7050   0.3373 C.3            1 S1                 0.0000
     10 ****        -2.8106   1.5778   0.5852 C.3            1 S1                 0.0000
     11 ****        -1.7594   1.0157  -0.2543 N.pl3          1 S1                 0.0000
     12 ****        -0.4509   1.1392   0.1002 C.ar           1 S1                 0.0000
     13 ****        -0.0940   2.2557   0.7883 N.ar           1 S1                 0.0000
     14 ****         1.1736   2.4543   1.1568 C.ar           1 S1                 0.0000
     15 ****         2.2327   1.6729   0.9487 N.ar           1 S1                 0.0000
     16 ****         1.8883   0.5432   0.2682 C.ar           1 S1                 0.0000
     17 ****         0.5835   0.1983  -0.1926 C.ar           1 S1                 0.0000
     18 ****         0.6360  -1.0326  -0.8384 N.2            1 S1                 0.0000
     19 ****         1.8899  -1.3843  -0.7756 C.2            1 S1                 0.0000
     20 ****         2.7122  -0.5032  -0.1129 N.pl3          1 S1                 0.0000
     21 ****         4.1446  -0.6429   0.1105 C.3            1 S1                 0.0000
     22 ****         4.5172  -1.5659   1.2911 C.3            1 S1                 0.0000
     23 ****         3.8547  -1.0783   2.5909 C.3            1 S1                 0.0000
     24 ****         4.3385   0.1962   2.9626 O.3            1 S1                 0.0000
     25 ****         4.3838  -3.0722   1.0210 C.3            1 S1                 0.0000
     26 ****         5.8130  -3.2629   0.9746 O.3            1 S1                 0.0000
     27 ****         6.0110  -1.8996   1.4035 C.3            1 S1                 0.0000
     28 ****        -1.5425  -0.7403  -4.4199 H              1 S1                 0.0000
     29 ****        -2.2233  -1.6956  -3.1192 H              1 S1                 0.0000
     30 ****        -2.0005  -0.9548  -0.8621 H              1 S1                 0.0000
     31 ****        -4.3036  -0.8028  -1.1906 H              1 S1                 0.0000
     32 ****        -3.9387   2.0928  -2.0903 H              1 S1                 0.0000
     33 ****        -4.7886   0.8082  -2.9466 H              1 S1                 0.0000
     34 ****        -6.1903   2.5434  -1.4192 H              1 S1                 0.0000
     35 ****        -6.5834   0.8295  -1.3541 H              1 S1                 0.0000
     36 ****        -5.2705   2.4669   0.7571 H              1 S1                 0.0000
     37 ****        -6.1420   0.9516   0.8992 H              1 S1                 0.0000
     38 ****        -4.0659  -0.1175   1.0537 H              1 S1                 0.0000
     39 ****        -2.9768   2.6106   0.2760 H              1 S1                 0.0000
     40 ****        -2.5468   1.5795   1.6439 H              1 S1                 0.0000
     41 ****         1.3664   3.3709   1.6944 H              1 S1                 0.0000
     42 ****         2.2461  -2.3038  -1.2153 H              1 S1                 0.0000
     43 ****         4.5866  -1.0154  -0.8145 H              1 S1                 0.0000
     44 ****         4.5692   0.3516   0.2524 H              1 S1                 0.0000
     45 ****         2.7690  -1.0409   2.5046 H              1 S1                 0.0000
     46 ****         4.0673  -1.7643   3.4115 H              1 S1                 0.0000
     47 ****         3.8969   0.4677   3.7528 H              1 S1                 0.0000
     48 ****         3.9267  -3.6310   1.8388 H              1 S1                 0.0000
     49 ****         3.9100  -3.3230   0.0728 H              1 S1                 0.0000
     50 ****         6.6434  -1.3359   0.7166 H              1 S1                 0.0000
     51 ****         6.4022  -1.8471   2.4206 H              1 S1                 0.0000
     52 ****        -1.0351   1.4330  -3.9776 LP             1 S1                 0.0000
     53 ****        -1.3110   2.0972  -2.4019 LP             1 S1                 0.0000
     54 ****        -0.7889   2.9361   1.0211 LP             1 S1                 0.0000
     55 ****         3.1608   1.8877   1.2527 LP             1 S1                 0.0000
     56 ****        -0.1198  -1.5357  -1.2575 LP             1 S1                 0.0000
     57 ****         4.1544   0.8529   2.2312 LP             1 S1                 0.0000
     58 ****         5.3237   0.1478   3.1269 LP             1 S1                 0.0000
     59 ****         6.1689  -3.4589   0.0609 LP             1 S1                 0.0000
     60 ****         6.1544  -3.9470   1.6191 LP             1 S1                 0.0000
@<TRIPOS>BOND
    1    1    2 am    
    2    1   28 1     
    3    1   29 1     
    4    2    3 2     
    5    2    4 1     
    6    4   11 1     
    7    4    5 1     
    8    4   30 1     
    9    5    9 1     
   10    5    6 1     
   11    5   31 1     
   12    6    7 1     
   13    6   32 1     
   14    6   33 1     
   15    7    8 1     
   16    7   34 1     
   17    7   35 1     
   18    8    9 1     
   19    8   36 1     
   20    8   37 1     
   21    9   10 1     
   22    9   38 1     
   23   10   11 1     
   24   10   39 1     
   25   10   40 1     
   26   11   12 1     
   27   12   17 ar    
   28   12   13 ar    
   29   13   14 ar    
   30   14   15 ar    
   31   14   41 1     
   32   15   16 ar    
   33   16   20 1     
   34   16   17 ar    
   35   17   18 1     
   36   18   19 2     
   37   19   20 1     
   38   19   42 1     
   39   20   21 1     
   40   21   22 1     
   41   21   43 1     
   42   21   44 1     
   43   22   27 1     
   44   22   23 1     
   45   22   25 1     
   46   23   24 1     
   47   23   45 1     
   48   23   46 1     
   49   24   47 1     
   50   25   26 1     
   51   25   48 1     
   52   25   49 1     
   53   26   27 1     
   54   27   50 1     
   55   27   51 1     
   56    3   52 1     
   57    3   53 1     
   58   13   54 1     
   59   15   55 1     
   60   18   56 1     
   61   24   57 1     
   62   24   58 1     
   63   26   59 1     
   64   26   60 1     
@<TRIPOS>SUBSTRUCTURE
      1 S1             1
@<TRIPOS>SET
LONE_PAIRS      STATIC     ATOMS    <user>   **** ""
9 52 53 54 55 56 57 58 59 60
DONOR_HYDROGENS      STATIC     ATOMS    <user>   **** ""
3 28 29 47
ATOM$BLUE        STATIC     ATOMS    COLORGROUP SYSTEM
9 52 53 54 55 56 57 58 59 60
ATOM$RED        STATIC     ATOMS    COLORGROUP SYSTEM
3 28 29 47
