AV-unprocessed.smi:1838|AV-procd|sdf|7483|dock10
  -GOLD-   22720 9183D 1   1.00000     0.00000
 Structure written by MMmdl.
 35 36  0  0  0  0  0  0  0  0  1 V2000
  151.7503  138.3587  154.1366 C   0  0  0  0  0  0  0  0  0  0  0  0
  150.3725  138.1310  153.8603 O   0  0  0  0  0  0  0  0  0  0  0  0
  149.4810  139.1707  154.0462 C   0  0  0  0  0  0  0  0  0  0  0  0
  149.9507  140.3367  154.5569 N   0  0  0  0  0  0  0  0  0  0  0  0
  149.0846  141.3533  154.7404 C   0  0  0  0  0  0  0  0  0  0  0  0
  147.7165  141.2638  154.4277 C   0  0  0  0  0  0  0  0  0  0  0  0
  147.2262  140.0557  153.8982 C   0  0  0  0  0  0  0  0  0  0  0  0
  148.1230  138.9765  153.6982 C   0  0  0  0  0  0  0  0  0  0  0  0
  147.7537  137.7048  153.1726 N   0  0  0  0  0  0  0  0  0  0  0  0
  146.5494  137.1099  153.1176 C   0  0  0  0  0  0  0  0  0  0  0  0
  145.4914  137.5871  153.5256 O   0  0  0  0  0  0  0  0  0  0  0  0
  146.6392  135.9008  152.5458 N   0  0  0  0  0  0  0  0  0  0  0  0
  145.5297  134.9687  152.3535 C   0  0  1  0  0  0  0  0  0  0  0  0
  145.5917  134.3166  150.9592 C   0  0  0  0  0  0  0  0  0  0  0  0
  144.5425  133.2074  150.8441 C   0  0  0  0  0  0  0  0  0  0  0  0
  144.7583  132.1486  151.9376 C   0  0  0  0  0  0  0  0  0  0  0  0
  144.9944  132.7248  153.2624 N   0  0  0  0  0  0  0  0  0  0  0  0
  145.4187  133.9742  153.5230 C   0  0  0  0  0  0  0  0  0  0  0  0
  145.6754  134.3362  154.6702 O   0  0  0  0  0  0  0  0  0  0  0  0
  152.3121  137.4445  153.9459 H   0  0  0  0  0  0  0  0  0  0  0  0
  151.9082  138.6312  155.1812 H   0  0  0  0  0  0  0  0  0  0  0  0
  152.1622  139.1397  153.4957 H   0  0  0  0  0  0  0  0  0  0  0  0
  149.4945  142.2651  155.1489 H   0  0  0  0  0  0  0  0  0  0  0  0
  147.0565  142.1031  154.5905 H   0  0  0  0  0  0  0  0  0  0  0  0
  146.1765  139.9944  153.6626 H   0  0  0  0  0  0  0  0  0  0  0  0
  148.5192  137.1728  152.7845 H   0  0  0  0  0  0  0  0  0  0  0  0
  147.5490  135.5848  152.2433 H   0  0  0  0  0  0  0  0  0  0  0  0
  144.6013  135.5411  152.4028 H   0  0  0  0  0  0  0  0  0  0  0  0
  145.4271  135.0645  150.1827 H   0  0  0  0  0  0  0  0  0  0  0  0
  146.5843  133.8986  150.7848 H   0  0  0  0  0  0  0  0  0  0  0  0
  143.5459  133.6399  150.9432 H   0  0  0  0  0  0  0  0  0  0  0  0
  144.5832  132.7442  149.8578 H   0  0  0  0  0  0  0  0  0  0  0  0
  143.9002  131.4778  151.9865 H   0  0  0  0  0  0  0  0  0  0  0  0
  145.6225  131.5331  151.6852 H   0  0  0  0  0  0  0  0  0  0  0  0
  144.8881  132.0997  154.0484 H   0  0  0  0  0  0  0  0  0  0  0  0
  1  2  1  0  0  0  0
  1 20  1  0  0  0  0
  1 21  1  0  0  0  0
  1 22  1  0  0  0  0
  2  3  1  0  0  0  0
  3  8  1  0  0  0  0
  3  4  2  0  0  0  0
  4  5  1  0  0  0  0
  5  6  2  0  0  0  0
  5 23  1  0  0  0  0
  6  7  1  0  0  0  0
  6 24  1  0  0  0  0
  7  8  2  0  0  0  0
  7 25  1  0  0  0  0
  8  9  1  0  0  0  0
  9 10  1  0  0  0  0
  9 26  1  0  0  0  0
 10 11  2  0  0  0  0
 10 12  1  0  0  0  0
 12 13  1  0  0  0  0
 12 27  1  0  0  0  0
 13 18  1  0  0  0  0
 13 14  1  0  0  0  0
 13 28  1  0  0  0  0
 14 15  1  0  0  0  0
 14 29  1  0  0  0  0
 14 30  1  0  0  0  0
 15 16  1  0  0  0  0
 15 31  1  0  0  0  0
 15 32  1  0  0  0  0
 16 17  1  0  0  0  0
 16 33  1  0  0  0  0
 16 34  1  0  0  0  0
 17 18  1  0  0  0  0
 17 35  1  0  0  0  0
 18 19  2  0  0  0  0
M  END
> <s_m_source_file>
AV-unprocessed.smi

> <i_m_source_file_index>
1838

> <i_lp_mmshare_version>
43012

> <i_f3d_flags>
0

> <s_epik_input>
W0NIM11PYzFuW2NIXVtjSF1bY0hdYzFbTkhdQyg9TylbTkhdW0NAQEhdMltDSDJdW0NIMl1bQ0gyXVtOSF1DMj1P

> <s_epik_cmdline>
J2VwaWtfcHl0aG9uJywgJy1waCcsICc3LjAnLCAnLXRuJywgJzgnLCAnLW1hJywgJzIwMCcsICctbWV0YWxfYmluZGluZycsICctaW1hZScsICc8aW5maWxlLm1hZT4nLCAnLW9tYWUnLCAnPG91dGZpbGUubWFlPic=

> <r_lp_tautomer_probability>
1

> <r_epik_Ionization_Penalty>
8.30645e-05

> <r_epik_Ionization_Penalty_Charging>
0

> <r_epik_Ionization_Penalty_Neutral>
8.30645e-05

> <r_epik_State_Penalty>
-0

> <r_epik_Charging_Adjusted_Penalty>
0

> <i_epik_Tot_Q>
0

> <i_epik_Tot_abs_Q>
0

> <r_epik_Metal_State_Penalty>
-0

> <b_epik_Metal_Only>
0

> <s_lp_Force_Field>
OPLS_2005

> <r_lp_Energy>
12.0006

> <b_lp_Chiralities_Consistent>
1

> <s_lp_Variant>
AV-unprocessed.smi:1838-2

> <Gold.Version>
5.8.1

> <Gold.Id.Protein>
6NUR|6NUR_protein|mol2

> <Gold.PLP.Fitness>
41.9575

> <Gold.PLP.PLP>
-28.2222

> <Gold.PLP.part.hbond>
-3.9872

> <Gold.PLP.part.metal>
0.0000

> <Gold.PLP.part.buried>
-2.3975

> <Gold.PLP.part.nonpolar>
-24.5362

> <Gold.PLP.part.repulsive>
1.6950

> <Gold.PLP.ligand.clash>
0.0000

> <Gold.PLP.ligand.torsion>
0.4132

> <Gold.PLP.Chemscore.Hbond>
3.8396

> <Gold.PLP.Chemscore.CHOScore>
1.0000

> <Gold.PLP.Chemscore.Metal>
0.0000

> <Gold.Chemscore.Hbonds>
donor molecule, donor type, donor heavy atom, donor atom, acceptor molecule, acceptor atom, score
      L1  H     9    26       P1  7948  0.60
      L1  H    12    27       P1  7948  0.78
      L1  H    17    35       P1 10957  0.06
      P1  H  7989  7998       L1     4  0.91
      L1  C     5    23       P1  8028  0.89

> <Gold.PLP.Chemscore.Internal.Correction>
0.0428

> <Gold.Rescore>
     Score         DG    S(hbond)    S(metal)    S(lipo)     H(rot)  DE(clash)    DE(int)     intcor
     16.95     -19.48       3.15        0.00      58.69       1.33       1.18       1.35       ----

> <Gold.Chemscore.Fitness>
16.9527

> <Gold.Chemscore.DG>
-19.4757

> <Gold.Chemscore.ZeroCoef>
-5.4800

> <Gold.Chemscore.Hbond>
3.1531

> <Gold.Chemscore.Metal>
0.0000

> <Gold.Chemscore.Lipo>
58.6939

> <Gold.Chemscore.Internal_Hbond>
0.0000

> <Gold.Chemscore.DEClash>
1.1778

> <Gold.Chemscore.DEInternal>
1.3453

> <Gold.Chemscore.Rot>
1.3292

> <Gold.Chemscore.Internal.Correction>
   9.000000E+99

> <Gold.Chemscore.Hbonds>
donor molecule, donor type, donor heavy atom, donor atom, acceptor molecule, acceptor atom, score
      L1  H     9    26       P1  7948  0.58
      L1  H    12    27       P1  7948  0.75
      L1  H    17    35       P1 10957  0.01
      P1  H  7989  7998       L1     4  0.46

> <Gold.Chemscore.Hbond.Weighted>
-10.5312

> <Gold.Chemscore.Metal.Weighted>
-0.0000

> <Gold.Chemscore.Lipo.Weighted>
-6.8672

> <Gold.Chemscore.Internal_Hbond.Weighted>
0.0000

> <Gold.Chemscore.DEClash.Weighted>
1.1778

> <Gold.Chemscore.DEInternal.Weighted>
1.3453

> <Gold.Chemscore.Rot.Weighted>
3.4027

> <Gold.Chemscore.Internal.Correction.Weighted>
   9.000000E+99

> <Gold.Protein.RotatedTorsions>
[ 6907 6896 6895 6894 ] final   78.35 input  -60.11 | X-H torsion
[ 7974 7965 7964 7962 ] final   96.12 input  175.53 | X-H torsion
[ 8008 7997 7996 7995 ] final   29.31 input   59.86 | X-H torsion
[ 10167 10162 10161 10158 ] final  145.04 input  -65.29 | X-H torsion
[ 10718 10713 10712 10709 ] final  -17.79 input   66.30 | X-H torsion
[ 10763 10752 10751 10750 ] final   65.75 input  -60.55 | X-H torsion
[ 11005 11000 10999 10996 ] final   64.67 input  -57.11 | X-H torsion

> <Gold.Protein.ActiveResidues>
 VAL166  LYS551  ARG553  GLY616  TRP617  ASP618  TYR619  PRO620  LYS621  CYS622 
 ASP623  PHE694  ASN695  SER759  ASP760  ASP761  ALA762  ILE779  LEU786  VAL792 
 PHE793  MET794  SER795  GLU796  ALA797  LYS798  CYS799  TRP800  GLU811  SER814 

> <Gold.Protein.RotatedAtoms>
  152.5156  134.3677  159.9306 H   0  0  0  0  0  0  0  0  0  0  0  0  # atno 6907 bound_to 6896
  151.3631  133.3876  159.2699 H   0  0  0  0  0  0  0  0  0  0  0  0  # atno 6908 bound_to 6896
  150.9636  134.9040  159.7804 H   0  0  0  0  0  0  0  0  0  0  0  0  # atno 6909 bound_to 6896
  145.4431  139.2299  143.3081 H   0  0  0  0  0  0  0  0  0  0  0  0  # atno 7974 bound_to 7965
  155.0725  140.3202  155.4626 H   0  0  0  0  0  0  0  0  0  0  0  0  # atno 8008 bound_to 7997
  156.2787  140.2109  156.5798 H   0  0  0  0  0  0  0  0  0  0  0  0  # atno 8009 bound_to 7997
  154.7043  140.0504  157.0476 H   0  0  0  0  0  0  0  0  0  0  0  0  # atno 8010 bound_to 7997
  139.4934  144.5930  151.6641 H   0  0  0  0  0  0  0  0  0  0  0  0  # atno 10167 bound_to 10162
  156.5686  130.4743  149.6373 H   0  0  0  0  0  0  0  0  0  0  0  0  # atno 10718 bound_to 10713
  153.0110  135.5345  154.6716 H   0  0  0  0  0  0  0  0  0  0  0  0  # atno 10763 bound_to 10752
  154.5899  135.2858  155.0648 H   0  0  0  0  0  0  0  0  0  0  0  0  # atno 10764 bound_to 10752
  154.1745  135.6526  153.5070 H   0  0  0  0  0  0  0  0  0  0  0  0  # atno 10765 bound_to 10752
  139.9944  134.6541  156.0036 H   0  0  0  0  0  0  0  0  0  0  0  0  # atno 11005 bound_to 11000
  146.2545  140.5182  142.8879 LP  0  0  0  0  0  0  0  0  0  0  0  0  # atno 17320 bound_to 7965
  144.8109  140.6383  143.6416 LP  0  0  0  0  0  0  0  0  0  0  0  0  # atno 17321 bound_to 7965
  140.5561  144.0345  150.6148 LP  0  0  0  0  0  0  0  0  0  0  0  0  # atno 17342 bound_to 10162
  140.3416  143.3016  152.0582 LP  0  0  0  0  0  0  0  0  0  0  0  0  # atno 17343 bound_to 10162
  156.2735  130.7030  151.1834 LP  0  0  0  0  0  0  0  0  0  0  0  0  # atno 17370 bound_to 10713
  157.7353  131.0573  150.5476 LP  0  0  0  0  0  0  0  0  0  0  0  0  # atno 17371 bound_to 10713
  141.1592  133.6540  156.4262 LP  0  0  0  0  0  0  0  0  0  0  0  0  # atno 17394 bound_to 11000
  140.4847  134.6632  157.5185 LP  0  0  0  0  0  0  0  0  0  0  0  0  # atno 17395 bound_to 11000

$$$$
