#       Name:                AV-unprocessed.smi:598
#       Creating user name   scv26
#       Creation time:       Thu Mar 26 23:54:02 2020


#       File generated by GOLD software.
#

@<TRIPOS>MOLECULE
AV-unprocessed.smi:598
    49    50     1
SMALL
NO_CHARGES


@<TRIPOS>ATOM
      1 ****        -3.5269  -2.9445  -0.2295 C.3            1 S1                 0.0000
      2 ****        -2.6107  -1.9106  -0.9089 C.3            1 S1                 0.0000
      3 ****        -3.0013  -1.7679  -2.3947 C.3            1 S1                 0.0000
      4 ****        -2.1151  -0.7560  -3.1333 C.3            1 S1                 0.0000
      5 ****        -2.1442   0.6123  -2.4366 C.3            1 S1                 0.0000
      6 ****        -1.7469   0.5096  -0.9525 C.3            1 S1                 0.0000
      7 ****        -0.3190   0.1992  -0.8463 N.am           1 S1                 0.0000
      8 ****         0.5723   0.8174  -0.0558 C.2            1 S1                 0.0000
      9 ****         0.2753   1.7306   0.7159 O.2            1 S1                 0.0000
     10 ****         2.0155   0.3021  -0.1555 C.3            1 S1                 0.0000
     11 ****         2.9790   1.0841   0.6382 N.am           1 S1                 0.0000
     12 ****         3.2910   0.5979   1.9232 C.2            1 S1                 0.0000
     13 ****         4.1558   1.2327   2.7386 C.2            1 S1                 0.0000
     14 ****         4.4627   0.7198   4.0559 N.pl3          1 S1                 1.0000
     15 ****         5.2120   1.3676   4.7798 O.2            1 S1                 0.0000
     16 ****         3.9680  -0.3464   4.4099 O.2            1 S1                -1.0000
     17 ****         4.7699   2.4529   2.2518 C.2            1 S1                 0.0000
     18 ****         4.4730   2.9251   1.0251 C.2            1 S1                 0.0000
     19 ****         3.5295   2.2339   0.1403 C.2            1 S1                 0.0000
     20 ****         3.2509   2.6625  -0.9797 O.2            1 S1                 0.0000
     21 ****        -2.6283  -0.5261  -0.2023 C.3            1 S1                 0.0000
     22 ****        -2.2657  -0.6051   1.2945 C.3            1 S1                 0.0000
     23 ****        -4.5554  -2.5866  -0.1723 H              1 S1                 0.0000
     24 ****        -3.1947  -3.1772   0.7819 H              1 S1                 0.0000
     25 ****        -3.5338  -3.8845  -0.7825 H              1 S1                 0.0000
     26 ****        -1.5937  -2.3033  -0.8682 H              1 S1                 0.0000
     27 ****        -2.9340  -2.7360  -2.8926 H              1 S1                 0.0000
     28 ****        -4.0440  -1.4564  -2.4718 H              1 S1                 0.0000
     29 ****        -1.0915  -1.1293  -3.1815 H              1 S1                 0.0000
     30 ****        -2.4524  -0.6528  -4.1651 H              1 S1                 0.0000
     31 ****        -1.4873   1.3110  -2.9564 H              1 S1                 0.0000
     32 ****        -3.1494   1.0294  -2.5113 H              1 S1                 0.0000
     33 ****        -1.9298   1.4903  -0.5098 H              1 S1                 0.0000
     34 ****         0.0205  -0.5451  -1.4383 H              1 S1                 0.0000
     35 ****         2.0276  -0.7439   0.1555 H              1 S1                 0.0000
     36 ****         2.3135   0.2882  -1.2057 H              1 S1                 0.0000
     37 ****         2.7762  -0.3127   2.1946 H              1 S1                 0.0000
     38 ****         5.4717   2.9967   2.8672 H              1 S1                 0.0000
     39 ****         4.9412   3.8363   0.6826 H              1 S1                 0.0000
     40 ****        -3.6528  -0.1534  -0.2508 H              1 S1                 0.0000
     41 ****        -1.3070  -1.0996   1.4516 H              1 S1                 0.0000
     42 ****        -3.0184  -1.1514   1.8622 H              1 S1                 0.0000
     43 ****        -2.2023   0.3910   1.7334 H              1 S1                 0.0000
     44 ****        -0.6716   2.0465   0.7757 LP             1 S1                 0.0000
     45 ****         0.9811   2.1558   1.2824 LP             1 S1                 0.0000
     46 ****         5.5971   2.2315   4.4554 LP             1 S1                 0.0000
     47 ****         5.4376   1.0316   5.6942 LP             1 S1                 0.0000
     48 ****         2.6029   2.1666  -1.5579 LP             1 S1                 0.0000
     49 ****         3.6725   3.5064  -1.3113 LP             1 S1                 0.0000
@<TRIPOS>BOND
    1    1    2 1     
    2    1   23 1     
    3    1   24 1     
    4    1   25 1     
    5    2   21 1     
    6    2    3 1     
    7    2   26 1     
    8    3    4 1     
    9    3   27 1     
   10    3   28 1     
   11    4    5 1     
   12    4   29 1     
   13    4   30 1     
   14    5    6 1     
   15    5   31 1     
   16    5   32 1     
   17    6    7 1     
   18    6   21 1     
   19    6   33 1     
   20    7    8 am    
   21    7   34 1     
   22    8    9 2     
   23    8   10 1     
   24   10   11 1     
   25   10   35 1     
   26   10   36 1     
   27   11   19 am    
   28   11   12 1     
   29   12   13 2     
   30   12   37 1     
   31   13   14 1     
   32   13   17 1     
   33   14   15 2     
   34   14   16 1     
   35   17   18 2     
   36   17   38 1     
   37   18   19 1     
   38   18   39 1     
   39   19   20 2     
   40   21   22 1     
   41   21   40 1     
   42   22   41 1     
   43   22   42 1     
   44   22   43 1     
   45    9   44 1     
   46    9   45 1     
   47   15   46 1     
   48   15   47 1     
   49   20   48 1     
   50   20   49 1     
@<TRIPOS>SUBSTRUCTURE
      1 S1             1
@<TRIPOS>SET
LONE_PAIRS      STATIC     ATOMS    <user>   **** ""
7 44 45 46 47 16 48 49
DONOR_HYDROGENS      STATIC     ATOMS    <user>   **** ""
1 34
ATOM$BLUE        STATIC     ATOMS    COLORGROUP SYSTEM
7 44 45 46 47 16 48 49
ATOM$RED        STATIC     ATOMS    COLORGROUP SYSTEM
1 34
