AV-unprocessed.smi:45|AV-procd|sdf|410|dock8
  -GOLD-   2262016273D 1   1.00000     0.00000
 Structure written by MMmdl.
 61 64  0  0  0  0  0  0  0  0  2 V2000
  147.8285  136.2860  163.0436 C   0  0  0  0  0  0  0  0  0  0  0  0
  148.3330  136.6745  161.7744 O   0  0  0  0  0  0  0  0  0  0  0  0
  148.2650  135.7658  160.7384 C   0  0  0  0  0  0  0  0  0  0  0  0
  147.7373  134.4562  160.8711 C   0  0  0  0  0  0  0  0  0  0  0  0
  147.6999  133.5840  159.7663 C   0  0  0  0  0  0  0  0  0  0  0  0
  148.1901  134.0017  158.5128 C   0  0  0  0  0  0  0  0  0  0  0  0
  148.1459  133.0667  157.3199 C   0  0  0  0  0  0  0  0  0  0  0  0
  148.7233  133.6407  156.1118 N   0  0  0  0  0  0  0  0  0  0  0  0
  148.6599  132.9619  154.8827 C   0  0  0  0  0  0  0  0  0  0  0  0
  147.7480  133.3822  153.9776 N   0  0  0  0  0  0  0  0  0  0  0  0
  147.6347  132.7746  152.7896 C   0  0  0  0  0  0  0  0  0  0  0  0
  146.6860  133.2321  151.8760 N   0  0  0  0  0  0  0  0  0  0  0  0
  146.5051  132.5868  150.5801 C   0  0  0  0  0  0  0  0  0  0  0  0
  145.0226  132.7314  150.2402 C   0  0  0  0  0  0  0  0  0  0  0  0
  144.6303  134.0154  150.9589 C   0  0  0  0  0  0  0  0  0  0  0  0
  145.4836  133.9870  152.2352 C   0  0  2  0  0  0  0  0  0  0  0  0
  145.7851  135.4010  152.7760 C   0  0  0  0  0  0  0  0  0  0  0  0
  146.1435  136.2560  151.7116 O   0  0  0  0  0  0  0  0  0  0  0  0
  148.4041  131.7267  152.4546 N   0  3  0  0  0  0  0  0  0  0  0  0
  149.3304  131.2602  153.3257 C   0  0  0  0  0  0  0  0  0  0  0  0
  149.4995  131.8572  154.5937 C   0  0  0  0  0  0  0  0  0  0  0  0
  150.5548  131.3485  155.5391 C   0  0  0  0  0  0  0  0  0  0  0  0
  150.6689  131.8047  156.6767 O   0  0  0  0  0  0  0  0  0  0  0  0
  151.3247  130.3602  155.0568 N   0  0  0  0  0  0  0  0  0  0  0  0
  152.4319  129.7406  155.7755 C   0  0  0  0  0  0  0  0  0  0  0  0
  153.7735  130.0104  155.1171 C   0  0  0  0  0  0  0  0  0  0  0  0
  154.4939  128.9393  154.7662 N   0  0  0  0  0  0  0  0  0  0  0  0
  155.6854  129.1731  154.1742 C   0  0  0  0  0  0  0  0  0  0  0  0
  156.1497  130.4815  153.9325 C   0  0  0  0  0  0  0  0  0  0  0  0
  155.3028  131.5301  154.3449 C   0  0  0  0  0  0  0  0  0  0  0  0
  154.1131  131.2909  154.9380 N   0  0  0  0  0  0  0  0  0  0  0  0
  148.7127  135.3022  158.3729 C   0  0  0  0  0  0  0  0  0  0  0  0
  148.7510  136.1765  159.4768 C   0  0  0  0  0  0  0  0  0  0  0  0
  149.4006  137.7638  159.2697 Cl  0  0  0  0  0  0  0  0  0  0  0  0
  144.9572  133.4106  152.9976 H   0  0  0  0  0  0  0  0  0  0  0  0
  147.9550  137.1085  163.7474 H   0  0  0  0  0  0  0  0  0  0  0  0
  148.3690  135.4262  163.4416 H   0  0  0  0  0  0  0  0  0  0  0  0
  146.7637  136.0544  162.9959 H   0  0  0  0  0  0  0  0  0  0  0  0
  147.3524  134.0950  161.8124 H   0  0  0  0  0  0  0  0  0  0  0  0
  147.2913  132.5911  159.8851 H   0  0  0  0  0  0  0  0  0  0  0  0
  148.6861  132.1559  157.5805 H   0  0  0  0  0  0  0  0  0  0  0  0
  147.1126  132.7808  157.1200 H   0  0  0  0  0  0  0  0  0  0  0  0
  149.0137  134.6085  156.1285 H   0  0  0  0  0  0  0  0  0  0  0  0
  147.1216  133.1033  149.8437 H   0  0  0  0  0  0  0  0  0  0  0  0
  146.7995  131.5368  150.5937 H   0  0  0  0  0  0  0  0  0  0  0  0
  144.8333  132.7661  149.1669 H   0  0  0  0  0  0  0  0  0  0  0  0
  144.4632  131.8923  150.6559 H   0  0  0  0  0  0  0  0  0  0  0  0
  144.8977  134.8720  150.3379 H   0  0  0  0  0  0  0  0  0  0  0  0
  143.5615  134.0741  151.1668 H   0  0  0  0  0  0  0  0  0  0  0  0
  144.9216  135.8397  153.2741 H   0  0  0  0  0  0  0  0  0  0  0  0
  146.5943  135.3751  153.5067 H   0  0  0  0  0  0  0  0  0  0  0  0
  147.0833  136.2362  151.6113 H   0  0  0  0  0  0  0  0  0  0  0  0
  149.9143  130.4230  152.9709 H   0  0  0  0  0  0  0  0  0  0  0  0
  151.1554  130.0323  154.1173 H   0  0  0  0  0  0  0  0  0  0  0  0
  152.4406  130.0739  156.8151 H   0  0  0  0  0  0  0  0  0  0  0  0
  152.2641  128.6634  155.8027 H   0  0  0  0  0  0  0  0  0  0  0  0
  156.2715  128.3111  153.8919 H   0  0  0  0  0  0  0  0  0  0  0  0
  157.1017  130.6705  153.4590 H   0  0  0  0  0  0  0  0  0  0  0  0
  155.5807  132.5632  154.1983 H   0  0  0  0  0  0  0  0  0  0  0  0
  149.0881  135.6349  157.4161 H   0  0  0  0  0  0  0  0  0  0  0  0
  148.3033  131.2785  151.5437 H   0  0  0  0  0  0  0  0  0  0  0  0
  1  2  1  0  0  0  0
  1 36  1  0  0  0  0
  1 37  1  0  0  0  0
  1 38  1  0  0  0  0
  2  3  1  0  0  0  0
  3 33  1  0  0  0  0
  3  4  2  0  0  0  0
  4  5  1  0  0  0  0
  4 39  1  0  0  0  0
  5  6  2  0  0  0  0
  5 40  1  0  0  0  0
  6  7  1  0  0  0  0
  6 32  1  0  0  0  0
  7  8  1  0  0  0  0
  7 41  1  0  0  0  0
  7 42  1  0  0  0  0
  8  9  1  0  0  0  0
  8 43  1  0  0  0  0
  9 21  1  0  0  0  0
  9 10  2  0  0  0  0
 10 11  1  0  0  0  0
 11 12  1  0  0  0  0
 11 19  2  0  0  0  0
 12 16  1  0  0  0  0
 12 13  1  0  0  0  0
 13 14  1  0  0  0  0
 13 44  1  0  0  0  0
 13 45  1  0  0  0  0
 14 15  1  0  0  0  0
 14 46  1  0  0  0  0
 14 47  1  0  0  0  0
 15 16  1  0  0  0  0
 15 48  1  0  0  0  0
 15 49  1  0  0  0  0
 16 35  1  0  0  0  0
 16 17  1  0  0  0  0
 17 18  1  0  0  0  0
 17 50  1  0  0  0  0
 17 51  1  0  0  0  0
 18 52  1  0  0  0  0
 19 20  1  0  0  0  0
 19 61  1  0  0  0  0
 20 21  2  0  0  0  0
 20 53  1  0  0  0  0
 21 22  1  0  0  0  0
 22 23  2  0  0  0  0
 22 24  1  0  0  0  0
 24 25  1  0  0  0  0
 24 54  1  0  0  0  0
 25 26  1  0  0  0  0
 25 55  1  0  0  0  0
 25 56  1  0  0  0  0
 26 31  1  0  0  0  0
 26 27  2  0  0  0  0
 27 28  1  0  0  0  0
 28 29  2  0  0  0  0
 28 57  1  0  0  0  0
 29 30  1  0  0  0  0
 29 58  1  0  0  0  0
 30 31  2  0  0  0  0
 30 59  1  0  0  0  0
 32 33  2  0  0  0  0
 32 60  1  0  0  0  0
 33 34  1  0  0  0  0
M  CHG  1  19   1
M  END
> <s_m_source_file>
AV-unprocessed.smi

> <i_m_source_file_index>
45

> <i_lp_mmshare_version>
43012

> <i_f3d_flags>
0

> <s_epik_input>
W0NIM11PYzFbY0hdW2NIXWMoW2NIXWMxQ2wpW0NIMl1bTkhdYzJuYyhOM1tDSDJdW0NIMl1bQ0gyXVtDQEhdM1tDSDJdW09IXSluW2NIXWMyQyg9TylbTkhdW0NIMl1jNG5bY0hdW2NIXVtjSF1uNA==

> <s_epik_cmdline>
J2VwaWtfcHl0aG9uJywgJy1waCcsICc3LjAnLCAnLXRuJywgJzgnLCAnLW1hJywgJzIwMCcsICctbWV0YWxfYmluZGluZycsICctaW1hZScsICc8aW5maWxlLm1hZT4nLCAnLW9tYWUnLCAnPG91dGZpbGUubWFlPic=

> <r_lp_tautomer_probability>
0.575011

> <r_epik_Ionization_Penalty>
1.61454

> <r_epik_Ionization_Penalty_Charging>
1.61448

> <r_epik_Ionization_Penalty_Neutral>
6.30284e-05

> <r_epik_State_Penalty>
1.91123

> <r_epik_Charging_Adjusted_Penalty>
3.52572

> <i_epik_Tot_Q>
1

> <i_epik_Tot_abs_Q>
1

> <r_epik_Metal_State_Penalty>
1.95488

> <b_epik_Metal_Only>
0

> <s_epik_Chemistry_Notes>
This compound contains an electron-poor aromatic ring that is susceptible to covalent hydrolysis at low pH, typically resulting in measured values for nitrogen ring protonation that are around two units higher than predicted values.

> <s_lp_Force_Field>
OPLS_2005

> <r_lp_Energy>
37.0931

> <b_lp_Chiralities_Consistent>
1

> <s_lp_Variant>
AV-unprocessed.smi:45-4

> <Gold.Version>
5.8.1

> <Gold.Id.Protein>
6NUR|6NUR_protein|mol2

> <Gold.PLP.Fitness>
53.2232

> <Gold.PLP.PLP>
-46.7818

> <Gold.PLP.part.hbond>
-3.3659

> <Gold.PLP.part.metal>
0.0000

> <Gold.PLP.part.buried>
-4.2269

> <Gold.PLP.part.nonpolar>
-39.0669

> <Gold.PLP.part.repulsive>
0.1622

> <Gold.PLP.ligand.clash>
0.0000

> <Gold.PLP.ligand.torsion>
1.0056

> <Gold.PLP.Chemscore.Hbond>
2.6560

> <Gold.PLP.Chemscore.CHOScore>
0.0000

> <Gold.PLP.Chemscore.Metal>
0.0000

> <Gold.Chemscore.Hbonds>
donor molecule, donor type, donor heavy atom, donor atom, acceptor molecule, acceptor atom, score
      L1  H    18    52       P1  7948  1.00
      L1  H    19    61       P1 10747  0.82
      P1  H  6931  6943       L1     2  1.00

> <Gold.PLP.Chemscore.Internal.Correction>
0.4846

> <Gold.Rescore>
     Score         DG    S(hbond)    S(metal)    S(lipo)     H(rot)  DE(clash)    DE(int)     intcor
     14.02     -18.92       2.63        0.00     103.99       2.94       0.41       4.49       ----

> <Gold.Chemscore.Fitness>
14.0192

> <Gold.Chemscore.DG>
-18.9219

> <Gold.Chemscore.ZeroCoef>
-5.4800

> <Gold.Chemscore.Hbond>
2.6348

> <Gold.Chemscore.Metal>
0.0000

> <Gold.Chemscore.Lipo>
103.9893

> <Gold.Chemscore.Internal_Hbond>
0.0000

> <Gold.Chemscore.DEClash>
0.4134

> <Gold.Chemscore.DEInternal>
4.4893

> <Gold.Chemscore.Rot>
2.9395

> <Gold.Chemscore.Internal.Correction>
   9.000000E+99

> <Gold.Chemscore.Hbonds>
donor molecule, donor type, donor heavy atom, donor atom, acceptor molecule, acceptor atom, score
      L1  H    18    52       P1  7948  1.00
      L1  H    19    61       P1 10747  0.78
      P1  H  6931  6943       L1     2  0.70

> <Gold.Chemscore.Hbond.Weighted>
-8.8003

> <Gold.Chemscore.Metal.Weighted>
-0.0000

> <Gold.Chemscore.Lipo.Weighted>
-12.1667

> <Gold.Chemscore.Internal_Hbond.Weighted>
0.0000

> <Gold.Chemscore.DEClash.Weighted>
0.4134

> <Gold.Chemscore.DEInternal.Weighted>
4.4893

> <Gold.Chemscore.Rot.Weighted>
7.5251

> <Gold.Chemscore.Internal.Correction.Weighted>
   9.000000E+99

> <Gold.Protein.RotatedTorsions>
[ 6907 6896 6895 6894 ] final  -33.00 input  -60.11 | X-H torsion
[ 7974 7965 7964 7962 ] final   88.60 input  175.53 | X-H torsion
[ 8008 7997 7996 7995 ] final -179.88 input   59.86 | X-H torsion
[ 10167 10162 10161 10158 ] final  111.08 input  -65.29 | X-H torsion
[ 10718 10713 10712 10709 ] final   65.74 input   66.30 | X-H torsion
[ 10763 10752 10751 10750 ] final   22.46 input  -60.55 | X-H torsion
[ 11005 11000 10999 10996 ] final   22.98 input  -57.11 | X-H torsion

> <Gold.Protein.ActiveResidues>
 VAL166  LYS551  ARG553  GLY616  TRP617  ASP618  TYR619  PRO620  LYS621  CYS622 
 ASP623  PHE694  ASN695  SER759  ASP760  ASP761  ALA762  ILE779  LEU786  VAL792 
 PHE793  MET794  SER795  GLU796  ALA797  LYS798  CYS799  TRP800  GLU811  SER814 

> <Gold.Protein.RotatedAtoms>
  151.0713  134.9800  159.8309 H   0  0  0  0  0  0  0  0  0  0  0  0  # atno 6907 bound_to 6896
  152.5409  134.2295  159.8829 H   0  0  0  0  0  0  0  0  0  0  0  0  # atno 6908 bound_to 6896
  151.2320  133.4402  159.2637 H   0  0  0  0  0  0  0  0  0  0  0  0  # atno 6909 bound_to 6896
  145.5435  139.2290  143.2553 H   0  0  0  0  0  0  0  0  0  0  0  0  # atno 7974 bound_to 7965
  156.0356  140.1292  157.0211 H   0  0  0  0  0  0  0  0  0  0  0  0  # atno 8008 bound_to 7997
  154.4368  140.1040  156.6233 H   0  0  0  0  0  0  0  0  0  0  0  0  # atno 8009 bound_to 7997
  155.5743  140.3467  155.4525 H   0  0  0  0  0  0  0  0  0  0  0  0  # atno 8010 bound_to 7997
  139.6639  144.7128  151.1814 H   0  0  0  0  0  0  0  0  0  0  0  0  # atno 10167 bound_to 10162
  157.6125  130.9230  150.0017 H   0  0  0  0  0  0  0  0  0  0  0  0  # atno 10718 bound_to 10713
  153.0914  135.6648  153.9847 H   0  0  0  0  0  0  0  0  0  0  0  0  # atno 10763 bound_to 10752
  153.9442  135.2990  155.3443 H   0  0  0  0  0  0  0  0  0  0  0  0  # atno 10764 bound_to 10752
  154.7329  135.5115  153.9066 H   0  0  0  0  0  0  0  0  0  0  0  0  # atno 10765 bound_to 10752
  140.3747  134.1985  155.7665 H   0  0  0  0  0  0  0  0  0  0  0  0  # atno 11005 bound_to 11000
  146.1965  140.6255  142.9122 LP  0  0  0  0  0  0  0  0  0  0  0  0  # atno 17320 bound_to 7965
  144.7565  140.5320  143.6765 LP  0  0  0  0  0  0  0  0  0  0  0  0  # atno 17321 bound_to 7965
  140.7591  143.5951  150.8756 LP  0  0  0  0  0  0  0  0  0  0  0  0  # atno 17342 bound_to 10162
  139.9611  143.6163  152.3002 LP  0  0  0  0  0  0  0  0  0  0  0  0  # atno 17343 bound_to 10162
  156.1233  130.3645  149.9850 LP  0  0  0  0  0  0  0  0  0  0  0  0  # atno 17370 bound_to 10713
  156.7926  130.9261  151.3646 LP  0  0  0  0  0  0  0  0  0  0  0  0  # atno 17371 bound_to 10713
  141.1943  133.8131  157.0762 LP  0  0  0  0  0  0  0  0  0  0  0  0  # atno 17394 bound_to 11000
  140.0525  134.9798  157.1161 LP  0  0  0  0  0  0  0  0  0  0  0  0  # atno 17395 bound_to 11000

$$$$
