AV-unprocessed.smi:2509|AV-procd|sdf|9867|dock1
  -GOLD-   2272013493D 1   1.00000     0.00000
 Structure written by MMmdl.
 45 46  0  0  0  0  0  0  0  0  1 V2000
  149.5585  142.0434  158.1005 C   0  0  0  0  0  0  0  0  0  0  0  0
  150.5247  141.5341  157.0048 C   0  0  0  0  0  0  0  0  0  0  0  0
  150.8749  142.7663  156.1379 C   0  0  0  0  0  0  0  0  0  0  0  0
  151.8040  140.9843  157.6622 C   0  0  0  0  0  0  0  0  0  0  0  0
  149.8693  140.4305  156.1561 C   0  0  0  0  0  0  0  0  0  0  0  0
  150.5100  140.0545  155.0418 N   0  0  0  0  0  0  0  0  0  0  0  0
  149.8851  139.1814  154.2245 C   0  0  0  0  0  0  0  0  0  0  0  0
  148.5895  138.6973  154.4952 C   0  0  0  0  0  0  0  0  0  0  0  0
  148.0017  137.7803  153.5805 N   0  0  0  0  0  0  0  0  0  0  0  0
  146.7056  137.4758  153.3973 C   0  0  0  0  0  0  0  0  0  0  0  0
  145.7603  137.9650  154.0140 O   0  0  0  0  0  0  0  0  0  0  0  0
  146.5592  136.5490  152.4400 N   0  0  0  0  0  0  0  0  0  0  0  0
  145.2847  135.9845  152.0074 C   0  0  0  0  0  0  0  0  0  0  0  0
  145.4739  134.7438  151.1088 C   0  0  1  0  0  0  0  0  0  0  0  0
  146.0521  133.5212  151.8315 C   0  0  0  0  0  0  0  0  0  0  0  0
  145.6374  132.3030  150.9908 C   0  0  0  0  0  0  0  0  0  0  0  0
  144.6345  132.8129  149.9434 C   0  0  0  0  0  0  0  0  0  0  0  0
  144.2126  134.2082  150.4127 C   0  0  1  0  0  0  0  0  0  0  0  0
  143.1325  134.0809  151.3194 O   0  0  0  0  0  0  0  0  0  0  0  0
  147.9867  139.1909  155.6777 C   0  0  0  0  0  0  0  0  0  0  0  0
  148.6242  140.0641  156.4867 N   0  0  0  0  0  0  0  0  0  0  0  0
  150.0040  142.8560  158.6756 H   0  0  0  0  0  0  0  0  0  0  0  0
  149.2986  141.2603  158.8133 H   0  0  0  0  0  0  0  0  0  0  0  0
  148.6301  142.4187  157.6682 H   0  0  0  0  0  0  0  0  0  0  0  0
  149.9913  143.1638  155.6373 H   0  0  0  0  0  0  0  0  0  0  0  0
  151.6119  142.5300  155.3697 H   0  0  0  0  0  0  0  0  0  0  0  0
  151.2981  143.5695  156.7421 H   0  0  0  0  0  0  0  0  0  0  0  0
  152.2926  141.7407  158.2770 H   0  0  0  0  0  0  0  0  0  0  0  0
  152.5237  140.6548  156.9120 H   0  0  0  0  0  0  0  0  0  0  0  0
  151.5838  140.1302  158.3035 H   0  0  0  0  0  0  0  0  0  0  0  0
  150.4251  138.8720  153.3416 H   0  0  0  0  0  0  0  0  0  0  0  0
  148.6553  137.2888  152.9887 H   0  0  0  0  0  0  0  0  0  0  0  0
  147.3886  136.1977  151.9840 H   0  0  0  0  0  0  0  0  0  0  0  0
  144.6794  135.7281  152.8782 H   0  0  0  0  0  0  0  0  0  0  0  0
  144.7340  136.7604  151.4751 H   0  0  0  0  0  0  0  0  0  0  0  0
  146.1827  135.0064  150.3213 H   0  0  0  0  0  0  0  0  0  0  0  0
  147.1340  133.5925  151.9488 H   0  0  0  0  0  0  0  0  0  0  0  0
  145.6217  133.4363  152.8302 H   0  0  0  0  0  0  0  0  0  0  0  0
  146.4989  131.8426  150.5056 H   0  0  0  0  0  0  0  0  0  0  0  0
  145.1804  131.5454  151.6283 H   0  0  0  0  0  0  0  0  0  0  0  0
  145.1415  132.9008  148.9816 H   0  0  0  0  0  0  0  0  0  0  0  0
  143.7915  132.1355  149.8000 H   0  0  0  0  0  0  0  0  0  0  0  0
  143.9031  134.8408  149.5799 H   0  0  0  0  0  0  0  0  0  0  0  0
  142.3354  134.3175  150.8703 H   0  0  0  0  0  0  0  0  0  0  0  0
  146.9965  138.9118  155.9989 H   0  0  0  0  0  0  0  0  0  0  0  0
  1  2  1  0  0  0  0
  1 22  1  0  0  0  0
  1 23  1  0  0  0  0
  1 24  1  0  0  0  0
  2  3  1  0  0  0  0
  2  4  1  0  0  0  0
  2  5  1  0  0  0  0
  3 25  1  0  0  0  0
  3 26  1  0  0  0  0
  3 27  1  0  0  0  0
  4 28  1  0  0  0  0
  4 29  1  0  0  0  0
  4 30  1  0  0  0  0
  5 21  1  0  0  0  0
  5  6  2  0  0  0  0
  6  7  1  0  0  0  0
  7  8  2  0  0  0  0
  7 31  1  0  0  0  0
  8  9  1  0  0  0  0
  8 20  1  0  0  0  0
  9 10  1  0  0  0  0
  9 32  1  0  0  0  0
 10 11  2  0  0  0  0
 10 12  1  0  0  0  0
 12 13  1  0  0  0  0
 12 33  1  0  0  0  0
 13 14  1  0  0  0  0
 13 34  1  0  0  0  0
 13 35  1  0  0  0  0
 14 18  1  0  0  0  0
 14 15  1  0  0  0  0
 14 36  1  0  0  0  0
 15 16  1  0  0  0  0
 15 37  1  0  0  0  0
 15 38  1  0  0  0  0
 16 17  1  0  0  0  0
 16 39  1  0  0  0  0
 16 40  1  0  0  0  0
 17 18  1  0  0  0  0
 17 41  1  0  0  0  0
 17 42  1  0  0  0  0
 18 19  1  0  0  0  0
 18 43  1  0  0  0  0
 19 44  1  0  0  0  0
 20 21  2  0  0  0  0
 20 45  1  0  0  0  0
M  END
> <s_m_source_file>
AV-unprocessed.smi

> <i_m_source_file_index>
2509

> <i_lp_mmshare_version>
43012

> <i_f3d_flags>
0

> <s_epik_input>
W0NIM11DKFtDSDNdKShbQ0gzXSljMW5bY0hdYyhbY0hdbjEpW05IXUMoPU8pW05IXVtDSDJdW0NAQEhdMltDSDJdW0NIMl1bQ0gyXVtDQEhdMltPSF0=

> <s_epik_cmdline>
J2VwaWtfcHl0aG9uJywgJy1waCcsICc3LjAnLCAnLXRuJywgJzgnLCAnLW1hJywgJzIwMCcsICctbWV0YWxfYmluZGluZycsICctaW1hZScsICc8aW5maWxlLm1hZT4nLCAnLW9tYWUnLCAnPG91dGZpbGUubWFlPic=

> <r_lp_tautomer_probability>
1

> <r_epik_Ionization_Penalty>
2.77586e-05

> <r_epik_Ionization_Penalty_Charging>
0

> <r_epik_Ionization_Penalty_Neutral>
2.77586e-05

> <r_epik_State_Penalty>
-0

> <r_epik_Charging_Adjusted_Penalty>
0

> <i_epik_Tot_Q>
0

> <i_epik_Tot_abs_Q>
0

> <r_epik_Metal_State_Penalty>
-0

> <b_epik_Metal_Only>
0

> <s_lp_Force_Field>
OPLS_2005

> <r_lp_Energy>
25.7942

> <b_lp_Chiralities_Consistent>
1

> <s_lp_Variant>
AV-unprocessed.smi:2509-2

> <Gold.Version>
5.8.1

> <Gold.Id.Protein>
6NUR|6NUR_protein|mol2

> <Gold.PLP.Fitness>
40.2952

> <Gold.PLP.PLP>
-27.3460

> <Gold.PLP.part.hbond>
-3.6204

> <Gold.PLP.part.metal>
0.0000

> <Gold.PLP.part.buried>
-0.8404

> <Gold.PLP.part.nonpolar>
-23.4829

> <Gold.PLP.part.repulsive>
0.2415

> <Gold.PLP.ligand.clash>
0.0000

> <Gold.PLP.ligand.torsion>
0.3243

> <Gold.PLP.Chemscore.Hbond>
3.6539

> <Gold.PLP.Chemscore.CHOScore>
0.8252

> <Gold.PLP.Chemscore.Metal>
0.0000

> <Gold.Chemscore.Hbonds>
donor molecule, donor type, donor heavy atom, donor atom, acceptor molecule, acceptor atom, score
      L1  H     9    32       P1  7948  1.00
      L1  H    12    33       P1  7948  0.99
      L1  H    19    44       P1 10186  0.90
      P1  H  7989  7998       L1     6  0.58
      L1  C     7    31       P1  7957  0.59

> <Gold.PLP.Chemscore.Internal.Correction>
0.1606

> <Gold.Rescore>
     Score         DG    S(hbond)    S(metal)    S(lipo)     H(rot)  DE(clash)    DE(int)     intcor
     14.87     -17.71       2.59        0.00      72.47       1.91       1.51       1.32       ----

> <Gold.Chemscore.Fitness>
14.8734

> <Gold.Chemscore.DG>
-17.7084

> <Gold.Chemscore.ZeroCoef>
-5.4800

> <Gold.Chemscore.Hbond>
2.5878

> <Gold.Chemscore.Metal>
0.0000

> <Gold.Chemscore.Lipo>
72.4684

> <Gold.Chemscore.Internal_Hbond>
0.0000

> <Gold.Chemscore.DEClash>
1.5105

> <Gold.Chemscore.DEInternal>
1.3245

> <Gold.Chemscore.Rot>
1.9116

> <Gold.Chemscore.Internal.Correction>
   9.000000E+99

> <Gold.Chemscore.Hbonds>
donor molecule, donor type, donor heavy atom, donor atom, acceptor molecule, acceptor atom, score
      L1  H     9    32       P1  7948  0.92
      L1  H    12    33       P1  7948  0.90
      L1  H    19    44       P1 10186  0.18
      P1  H  7989  7998       L1     6  0.05

> <Gold.Chemscore.Hbond.Weighted>
-8.6432

> <Gold.Chemscore.Metal.Weighted>
-0.0000

> <Gold.Chemscore.Lipo.Weighted>
-8.4788

> <Gold.Chemscore.Internal_Hbond.Weighted>
0.0000

> <Gold.Chemscore.DEClash.Weighted>
1.5105

> <Gold.Chemscore.DEInternal.Weighted>
1.3245

> <Gold.Chemscore.Rot.Weighted>
4.8936

> <Gold.Chemscore.Internal.Correction.Weighted>
   9.000000E+99

> <Gold.Protein.RotatedTorsions>
[ 6907 6896 6895 6894 ] final  116.95 input  -60.11 | X-H torsion
[ 7974 7965 7964 7962 ] final  -34.29 input  175.53 | X-H torsion
[ 8008 7997 7996 7995 ] final   46.94 input   59.86 | X-H torsion
[ 10167 10162 10161 10158 ] final  -57.46 input  -65.29 | X-H torsion
[ 10718 10713 10712 10709 ] final -131.31 input   66.30 | X-H torsion
[ 10763 10752 10751 10750 ] final  -93.63 input  -60.55 | X-H torsion
[ 11005 11000 10999 10996 ] final -154.16 input  -57.11 | X-H torsion

> <Gold.Protein.ActiveResidues>
 VAL166  LYS551  ARG553  GLY616  TRP617  ASP618  TYR619  PRO620  LYS621  CYS622 
 ASP623  PHE694  ASN695  SER759  ASP760  ASP761  ALA762  ILE779  LEU786  VAL792 
 PHE793  MET794  SER795  GLU796  ALA797  LYS798  CYS799  TRP800  GLU811  SER814 

> <Gold.Protein.RotatedAtoms>
  152.4644  133.7892  159.6892 H   0  0  0  0  0  0  0  0  0  0  0  0  # atno 6907 bound_to 6896
  150.8603  133.7644  159.3001 H   0  0  0  0  0  0  0  0  0  0  0  0  # atno 6908 bound_to 6896
  151.5212  135.1070  159.9931 H   0  0  0  0  0  0  0  0  0  0  0  0  # atno 6909 bound_to 6896
  146.0842  140.6020  142.8894 H   0  0  0  0  0  0  0  0  0  0  0  0  # atno 7974 bound_to 7965
  155.3607  140.3418  155.4241 H   0  0  0  0  0  0  0  0  0  0  0  0  # atno 8008 bound_to 7997
  156.1715  140.1633  156.8474 H   0  0  0  0  0  0  0  0  0  0  0  0  # atno 8009 bound_to 7997
  154.5238  140.0761  156.8203 H   0  0  0  0  0  0  0  0  0  0  0  0  # atno 8010 bound_to 7997
  140.6257  143.2437  151.5370 H   0  0  0  0  0  0  0  0  0  0  0  0  # atno 10167 bound_to 10162
  156.2231  130.6991  151.0778 H   0  0  0  0  0  0  0  0  0  0  0  0  # atno 10718 bound_to 10713
  154.6978  135.5187  153.8483 H   0  0  0  0  0  0  0  0  0  0  0  0  # atno 10763 bound_to 10752
  153.0680  135.6591  154.0319 H   0  0  0  0  0  0  0  0  0  0  0  0  # atno 10764 bound_to 10752
  154.0183  135.2996  155.3363 H   0  0  0  0  0  0  0  0  0  0  0  0  # atno 10765 bound_to 10752
  140.7003  134.3944  157.5210 H   0  0  0  0  0  0  0  0  0  0  0  0  # atno 11005 bound_to 11000
  144.7314  140.4682  143.6935 LP  0  0  0  0  0  0  0  0  0  0  0  0  # atno 17320 bound_to 7965
  145.6162  139.1518  143.3048 LP  0  0  0  0  0  0  0  0  0  0  0  0  # atno 17321 bound_to 7965
  139.5477  144.2476  152.1474 LP  0  0  0  0  0  0  0  0  0  0  0  0  # atno 17342 bound_to 10162
  140.1707  144.4938  150.6581 LP  0  0  0  0  0  0  0  0  0  0  0  0  # atno 17343 bound_to 10162
  157.7097  131.0740  150.6543 LP  0  0  0  0  0  0  0  0  0  0  0  0  # atno 17370 bound_to 10713
  156.6607  130.4511  149.5688 LP  0  0  0  0  0  0  0  0  0  0  0  0  # atno 17371 bound_to 10713
  139.8898  134.8820  156.2400 LP  0  0  0  0  0  0  0  0  0  0  0  0  # atno 17394 bound_to 11000
  141.0169  133.7063  156.1203 LP  0  0  0  0  0  0  0  0  0  0  0  0  # atno 17395 bound_to 11000

$$$$
