AV-unprocessed.smi:3336|AV-procd|sdf|12853|dock2
  -GOLD-   2272019243D 1   1.00000     0.00000
 Structure written by MMmdl.
 42 43  0  0  0  0  0  0  0  0  2 V2000
  146.1666  138.4695  152.1233 C   0  0  0  0  0  0  0  0  0  0  0  0
  146.5533  137.8675  153.4846 C   0  0  2  0  0  0  0  0  0  0  0  0
  147.8273  138.5160  154.0740 C   0  0  0  0  0  0  0  0  0  0  0  0
  147.6797  139.9401  154.3121 N   0  0  0  0  0  0  0  0  0  0  0  0
  146.5623  140.7298  154.1380 C   0  0  0  0  0  0  0  0  0  0  0  0
  146.9091  142.0042  154.4838 C   0  0  0  0  0  0  0  0  0  0  0  0
  148.2788  141.8942  154.8534 C   0  0  0  0  0  0  0  0  0  0  0  0
  148.7381  140.6577  154.7463 N   0  0  0  0  0  0  0  0  0  0  0  0
  146.7269  136.4027  153.3376 N   0  3  0  0  0  0  0  0  0  0  0  0
  145.6295  135.6742  152.6530 C   0  0  2  0  0  0  0  0  0  0  0  0
  144.3040  135.9794  153.3705 C   0  0  0  0  0  0  0  0  0  0  0  0
  145.8830  134.1506  152.6261 C   0  0  0  0  0  0  0  0  0  0  0  0
  146.9013  133.7255  153.1752 O   0  0  0  0  0  0  0  0  0  0  0  0
  144.9984  133.3201  152.0184 N   0  0  0  0  0  0  0  0  0  0  0  0
  143.7718  133.8017  151.3729 C   0  0  0  0  0  0  0  0  0  0  0  0
  143.8438  133.4778  149.8704 C   0  0  0  0  0  0  0  0  0  0  0  0
  144.0069  132.0738  149.6942 O   0  0  0  0  0  0  0  0  0  0  0  0
  145.1791  131.5674  150.3253 C   0  0  0  0  0  0  0  0  0  0  0  0
  145.1330  131.8699  151.8345 C   0  0  0  0  0  0  0  0  0  0  0  0
  145.9278  139.5301  152.2059 H   0  0  0  0  0  0  0  0  0  0  0  0
  145.2856  137.9743  151.7130 H   0  0  0  0  0  0  0  0  0  0  0  0
  146.9748  138.3654  151.3983 H   0  0  0  0  0  0  0  0  0  0  0  0
  145.7184  138.0504  154.1624 H   0  0  0  0  0  0  0  0  0  0  0  0
  148.1049  138.0502  155.0195 H   0  0  0  0  0  0  0  0  0  0  0  0
  148.6698  138.3678  153.3973 H   0  0  0  0  0  0  0  0  0  0  0  0
  145.6235  140.3246  153.7895 H   0  0  0  0  0  0  0  0  0  0  0  0
  146.2805  142.8824  154.4721 H   0  0  0  0  0  0  0  0  0  0  0  0
  148.9484  142.6708  155.1926 H   0  0  0  0  0  0  0  0  0  0  0  0
  147.5681  136.2372  152.8027 H   0  0  0  0  0  0  0  0  0  0  0  0
  145.5772  136.0617  151.6379 H   0  0  0  0  0  0  0  0  0  0  0  0
  143.4581  135.4908  152.8873 H   0  0  0  0  0  0  0  0  0  0  0  0
  144.0994  137.0503  153.3718 H   0  0  0  0  0  0  0  0  0  0  0  0
  144.3266  135.6466  154.4092 H   0  0  0  0  0  0  0  0  0  0  0  0
  142.9097  133.3060  151.8222 H   0  0  0  0  0  0  0  0  0  0  0  0
  143.6062  134.8710  151.5080 H   0  0  0  0  0  0  0  0  0  0  0  0
  142.9266  133.7913  149.3720 H   0  0  0  0  0  0  0  0  0  0  0  0
  144.6669  134.0135  149.3946 H   0  0  0  0  0  0  0  0  0  0  0  0
  145.2319  130.4916  150.1579 H   0  0  0  0  0  0  0  0  0  0  0  0
  146.0669  132.0058  149.8668 H   0  0  0  0  0  0  0  0  0  0  0  0
  146.0128  131.4371  152.3037 H   0  0  0  0  0  0  0  0  0  0  0  0
  144.2759  131.3713  152.2897 H   0  0  0  0  0  0  0  0  0  0  0  0
  146.8536  136.0118  154.2599 H   0  0  0  0  0  0  0  0  0  0  0  0
  1  2  1  0  0  0  0
  1 20  1  0  0  0  0
  1 21  1  0  0  0  0
  1 22  1  0  0  0  0
  2  3  1  0  0  0  0
  2  9  1  0  0  0  0
  2 23  1  0  0  0  0
  3  4  1  0  0  0  0
  3 24  1  0  0  0  0
  3 25  1  0  0  0  0
  4  8  1  0  0  0  0
  4  5  1  0  0  0  0
  5  6  2  0  0  0  0
  5 26  1  0  0  0  0
  6  7  1  0  0  0  0
  6 27  1  0  0  0  0
  7  8  2  0  0  0  0
  7 28  1  0  0  0  0
  9 10  1  0  0  0  0
  9 29  1  0  0  0  0
  9 42  1  0  0  0  0
 10 11  1  0  0  0  0
 10 12  1  0  0  0  0
 10 30  1  0  0  0  0
 11 31  1  0  0  0  0
 11 32  1  0  0  0  0
 11 33  1  0  0  0  0
 12 13  2  0  0  0  0
 12 14  1  0  0  0  0
 14 19  1  0  0  0  0
 14 15  1  0  0  0  0
 15 16  1  0  0  0  0
 15 34  1  0  0  0  0
 15 35  1  0  0  0  0
 16 17  1  0  0  0  0
 16 36  1  0  0  0  0
 16 37  1  0  0  0  0
 17 18  1  0  0  0  0
 18 19  1  0  0  0  0
 18 38  1  0  0  0  0
 18 39  1  0  0  0  0
 19 40  1  0  0  0  0
 19 41  1  0  0  0  0
M  CHG  1   9   1
M  END
> <s_m_source_file>
AV-unprocessed.smi

> <i_m_source_file_index>
3336

> <i_lp_mmshare_version>
43012

> <i_f3d_flags>
0

> <s_epik_input>
bjFbY0hdW2NIXVtjSF1uMVtDSDJdW0NAQEhdKFtDSDNdKVtOSF1bQ0BIXShbQ0gzXSlDKD1PKU4yW0NIMl1bQ0gyXU9bQ0gyXVtDSDJdMg==

> <s_epik_cmdline>
J2VwaWtfcHl0aG9uJywgJy1waCcsICc3LjAnLCAnLXRuJywgJzgnLCAnLW1hJywgJzIwMCcsICctbWV0YWxfYmluZGluZycsICctaW1hZScsICc8aW5maWxlLm1hZT4nLCAnLW9tYWUnLCAnPG91dGZpbGUubWFlPic=

> <r_lp_tautomer_probability>
1

> <r_epik_Ionization_Penalty>
0.200288

> <r_epik_Ionization_Penalty_Charging>
0.200285

> <r_epik_Ionization_Penalty_Neutral>
3.37705e-06

> <r_epik_State_Penalty>
0.190126

> <r_epik_Charging_Adjusted_Penalty>
0.39041

> <i_epik_Tot_Q>
1

> <i_epik_Tot_abs_Q>
1

> <r_epik_Metal_State_Penalty>
0.190133

> <b_epik_Metal_Only>
0

> <s_lp_Force_Field>
OPLS_2005

> <r_lp_Energy>
27.4401

> <b_lp_Chiralities_Consistent>
1

> <s_lp_Variant>
AV-unprocessed.smi:3336-1

> <Gold.Version>
5.8.1

> <Gold.Id.Protein>
6NUR|6NUR_protein|mol2

> <Gold.PLP.Fitness>
42.9021

> <Gold.PLP.PLP>
-30.1044

> <Gold.PLP.part.hbond>
-1.9180

> <Gold.PLP.part.metal>
0.0000

> <Gold.PLP.part.buried>
-2.4122

> <Gold.PLP.part.nonpolar>
-27.9244

> <Gold.PLP.part.repulsive>
0.3964

> <Gold.PLP.ligand.clash>
0.0000

> <Gold.PLP.ligand.torsion>
0.0688

> <Gold.PLP.Chemscore.Hbond>
2.2907

> <Gold.PLP.Chemscore.CHOScore>
2.0000

> <Gold.PLP.Chemscore.Metal>
0.0000

> <Gold.Chemscore.Hbonds>
donor molecule, donor type, donor heavy atom, donor atom, acceptor molecule, acceptor atom, score
      L1  H     9    29       P1  7948  2.00
      P1  H 10785 10796       L1    17  0.25
      L1  C     5    26       P1 10175  1.00
      L1  C     7    28       P1  8028  1.00

> <Gold.PLP.Chemscore.Internal.Correction>
0.0632

> <Gold.Rescore>
     Score         DG    S(hbond)    S(metal)    S(lipo)     H(rot)  DE(clash)    DE(int)     intcor
     13.47     -14.88       1.44        0.00      79.81       1.85       0.24       1.17       ----

> <Gold.Chemscore.Fitness>
13.4678

> <Gold.Chemscore.DG>
-14.8768

> <Gold.Chemscore.ZeroCoef>
-5.4800

> <Gold.Chemscore.Hbond>
1.4386

> <Gold.Chemscore.Metal>
0.0000

> <Gold.Chemscore.Lipo>
79.8149

> <Gold.Chemscore.Internal_Hbond>
0.0000

> <Gold.Chemscore.DEClash>
0.2438

> <Gold.Chemscore.DEInternal>
1.1652

> <Gold.Chemscore.Rot>
1.8541

> <Gold.Chemscore.Internal.Correction>
   9.000000E+99

> <Gold.Chemscore.Hbonds>
donor molecule, donor type, donor heavy atom, donor atom, acceptor molecule, acceptor atom, score
      L1  H     9    29       P1  7948  1.00
      P1  H 10785 10796       L1    17  0.06

> <Gold.Chemscore.Hbond.Weighted>
-4.8050

> <Gold.Chemscore.Metal.Weighted>
-0.0000

> <Gold.Chemscore.Lipo.Weighted>
-9.3383

> <Gold.Chemscore.Internal_Hbond.Weighted>
0.0000

> <Gold.Chemscore.DEClash.Weighted>
0.2438

> <Gold.Chemscore.DEInternal.Weighted>
1.1652

> <Gold.Chemscore.Rot.Weighted>
4.7465

> <Gold.Chemscore.Internal.Correction.Weighted>
   9.000000E+99

> <Gold.Protein.RotatedTorsions>
[ 6907 6896 6895 6894 ] final   14.99 input  -60.11 | X-H torsion
[ 7974 7965 7964 7962 ] final   76.94 input  175.53 | X-H torsion
[ 8008 7997 7996 7995 ] final  -63.00 input   59.86 | X-H torsion
[ 10167 10162 10161 10158 ] final -121.47 input  -65.29 | X-H torsion
[ 10718 10713 10712 10709 ] final -121.35 input   66.30 | X-H torsion
[ 10763 10752 10751 10750 ] final -106.20 input  -60.55 | X-H torsion
[ 11005 11000 10999 10996 ] final   33.06 input  -57.11 | X-H torsion

> <Gold.Protein.ActiveResidues>
 VAL166  LYS551  ARG553  GLY616  TRP617  ASP618  TYR619  PRO620  LYS621  CYS622 
 ASP623  PHE694  ASN695  SER759  ASP760  ASP761  ALA762  ILE779  LEU786  VAL792 
 PHE793  MET794  SER795  GLU796  ALA797  LYS798  CYS799  TRP800  GLU811  SER814 

> <Gold.Protein.RotatedAtoms>
  151.8110  135.0681  160.0412 H   0  0  0  0  0  0  0  0  0  0  0  0  # atno 6907 bound_to 6896
  152.3020  133.5661  159.5633 H   0  0  0  0  0  0  0  0  0  0  0  0  # atno 6908 bound_to 6896
  150.7278  134.0193  159.3738 H   0  0  0  0  0  0  0  0  0  0  0  0  # atno 6909 bound_to 6896
  145.6964  139.2568  143.1730 H   0  0  0  0  0  0  0  0  0  0  0  0  # atno 7974 bound_to 7965
  154.4530  140.0984  156.6674 H   0  0  0  0  0  0  0  0  0  0  0  0  # atno 8008 bound_to 7997
  155.5226  140.3479  155.4391 H   0  0  0  0  0  0  0  0  0  0  0  0  # atno 8009 bound_to 7997
  156.0720  140.1352  156.9806 H   0  0  0  0  0  0  0  0  0  0  0  0  # atno 8010 bound_to 7997
  140.0247  143.5308  152.2204 H   0  0  0  0  0  0  0  0  0  0  0  0  # atno 10167 bound_to 10162
  156.1331  130.6410  150.9652 H   0  0  0  0  0  0  0  0  0  0  0  0  # atno 10718 bound_to 10713
  154.7996  135.4721  154.0244 H   0  0  0  0  0  0  0  0  0  0  0  0  # atno 10763 bound_to 10752
  153.1760  135.6833  153.8549 H   0  0  0  0  0  0  0  0  0  0  0  0  # atno 10764 bound_to 10752
  153.8116  135.3216  155.3379 H   0  0  0  0  0  0  0  0  0  0  0  0  # atno 10765 bound_to 10752
  140.2670  134.3126  155.7839 H   0  0  0  0  0  0  0  0  0  0  0  0  # atno 11005 bound_to 11000
  146.0836  140.7735  142.9629 LP  0  0  0  0  0  0  0  0  0  0  0  0  # atno 17320 bound_to 7965
  144.6981  140.3528  143.7178 LP  0  0  0  0  0  0  0  0  0  0  0  0  # atno 17321 bound_to 7965
  139.6116  144.7610  151.2939 LP  0  0  0  0  0  0  0  0  0  0  0  0  # atno 17342 bound_to 10162
  140.7327  143.6814  150.7997 LP  0  0  0  0  0  0  0  0  0  0  0  0  # atno 17343 bound_to 10162
  157.6506  131.0897  150.8058 LP  0  0  0  0  0  0  0  0  0  0  0  0  # atno 17370 bound_to 10713
  156.8141  130.4962  149.5352 LP  0  0  0  0  0  0  0  0  0  0  0  0  # atno 17371 bound_to 10713
  141.2182  133.7444  156.9276 LP  0  0  0  0  0  0  0  0  0  0  0  0  # atno 17394 bound_to 11000
  140.1409  134.9294  157.2465 LP  0  0  0  0  0  0  0  0  0  0  0  0  # atno 17395 bound_to 11000

$$$$
