AV-unprocessed.smi:2104|AV-procd|sdf|8588|dock6
  -GOLD-   2272011323D 1   1.00000     0.00000
 Structure written by MMmdl.
 42 43  0  0  0  0  0  0  0  0  2 V2000
  143.6299  135.5245  162.9517 C   0  0  0  0  0  0  0  0  0  0  0  0
  144.9584  135.7113  162.3025 C   0  0  0  0  0  0  0  0  0  0  0  0
  145.5249  136.7590  161.6341 C   0  0  0  0  0  0  0  0  0  0  0  0
  146.8075  136.2605  161.2766 C   0  0  0  0  0  0  0  0  0  0  0  0
  147.7555  136.9355  160.6090 N   0  5  0  0  0  0  0  0  0  0  0  0
  148.5489  136.2948  159.7201 C   0  0  0  0  0  0  0  0  0  0  0  0
  148.5153  135.0937  159.4428 O   0  0  0  0  0  0  0  0  0  0  0  0
  149.4254  137.1000  159.1032 N   0  0  0  0  0  0  0  0  0  0  0  0
  150.3479  136.7142  158.0393 C   0  0  0  0  0  0  0  0  0  0  0  0
  150.0032  137.4103  156.7139 C   0  0  0  0  0  0  0  0  0  0  0  0
  150.1429  138.8132  156.8866 O   0  0  0  0  0  0  0  0  0  0  0  0
  150.9725  139.4521  155.9237 C   0  0  1  0  0  0  0  0  0  0  0  0
  150.3818  139.2681  154.5072 C   0  0  0  0  0  0  0  0  0  0  0  0
  149.0180  139.9634  154.3644 C   0  0  0  0  0  0  0  0  0  0  0  0
  149.1128  141.4524  154.7284 C   0  0  0  0  0  0  0  0  0  0  0  0
  149.7010  141.6481  156.1350 C   0  0  0  0  0  0  0  0  0  0  0  0
  151.0703  140.9526  156.2796 C   0  0  1  0  0  0  0  0  0  0  0  0
  151.6817  141.1771  157.6715 C   0  0  0  0  0  0  0  0  0  0  0  0
  147.0080  135.0256  161.7049 N   0  0  0  0  0  0  0  0  0  0  0  0
  145.8243  134.6639  162.3595 O   0  0  0  0  0  0  0  0  0  0  0  0
  142.8362  135.9479  162.3362 H   0  0  0  0  0  0  0  0  0  0  0  0
  143.6046  136.0169  163.9236 H   0  0  0  0  0  0  0  0  0  0  0  0
  143.4118  134.4670  163.1024 H   0  0  0  0  0  0  0  0  0  0  0  0
  145.0923  137.7265  161.4287 H   0  0  0  0  0  0  0  0  0  0  0  0
  149.4166  138.0751  159.3638 H   0  0  0  0  0  0  0  0  0  0  0  0
  151.3574  136.9855  158.3485 H   0  0  0  0  0  0  0  0  0  0  0  0
  150.3383  135.6304  157.9144 H   0  0  0  0  0  0  0  0  0  0  0  0
  150.6750  137.0770  155.9223 H   0  0  0  0  0  0  0  0  0  0  0  0
  148.9944  137.1382  156.4045 H   0  0  0  0  0  0  0  0  0  0  0  0
  151.9745  139.0204  155.9621 H   0  0  0  0  0  0  0  0  0  0  0  0
  151.0733  139.6850  153.7745 H   0  0  0  0  0  0  0  0  0  0  0  0
  150.2822  138.2130  154.2549 H   0  0  0  0  0  0  0  0  0  0  0  0
  148.6492  139.8520  153.3447 H   0  0  0  0  0  0  0  0  0  0  0  0
  148.2870  139.4740  155.0092 H   0  0  0  0  0  0  0  0  0  0  0  0
  149.7364  141.9674  153.9968 H   0  0  0  0  0  0  0  0  0  0  0  0
  148.1256  141.9116  154.6711 H   0  0  0  0  0  0  0  0  0  0  0  0
  149.8008  142.7141  156.3415 H   0  0  0  0  0  0  0  0  0  0  0  0
  149.0054  141.2554  156.8779 H   0  0  0  0  0  0  0  0  0  0  0  0
  151.7476  141.4139  155.5593 H   0  0  0  0  0  0  0  0  0  0  0  0
  151.0491  140.7621  158.4570 H   0  0  0  0  0  0  0  0  0  0  0  0
  151.8085  142.2404  157.8762 H   0  0  0  0  0  0  0  0  0  0  0  0
  152.6620  140.7066  157.7500 H   0  0  0  0  0  0  0  0  0  0  0  0
  1  2  1  0  0  0  0
  1 21  1  0  0  0  0
  1 22  1  0  0  0  0
  1 23  1  0  0  0  0
  2 20  1  0  0  0  0
  2  3  2  0  0  0  0
  3  4  1  0  0  0  0
  3 24  1  0  0  0  0
  4  5  1  0  0  0  0
  4 19  2  0  0  0  0
  5  6  1  0  0  0  0
  6  7  2  0  0  0  0
  6  8  1  0  0  0  0
  8  9  1  0  0  0  0
  8 25  1  0  0  0  0
  9 10  1  0  0  0  0
  9 26  1  0  0  0  0
  9 27  1  0  0  0  0
 10 11  1  0  0  0  0
 10 28  1  0  0  0  0
 10 29  1  0  0  0  0
 11 12  1  0  0  0  0
 12 17  1  0  0  0  0
 12 13  1  0  0  0  0
 12 30  1  0  0  0  0
 13 14  1  0  0  0  0
 13 31  1  0  0  0  0
 13 32  1  0  0  0  0
 14 15  1  0  0  0  0
 14 33  1  0  0  0  0
 14 34  1  0  0  0  0
 15 16  1  0  0  0  0
 15 35  1  0  0  0  0
 15 36  1  0  0  0  0
 16 17  1  0  0  0  0
 16 37  1  0  0  0  0
 16 38  1  0  0  0  0
 17 18  1  0  0  0  0
 17 39  1  0  0  0  0
 18 40  1  0  0  0  0
 18 41  1  0  0  0  0
 18 42  1  0  0  0  0
 19 20  1  0  0  0  0
M  CHG  1   5  -1
M  END
> <s_m_source_file>
AV-unprocessed.smi

> <i_m_source_file_index>
2104

> <i_lp_mmshare_version>
43012

> <i_f3d_flags>
0

> <s_epik_input>
W0NIM11jMVtjSF1jKG5vMSlbTkhdQyg9TylbTkhdW0NIMl1bQ0gyXU9bQ0BASF0yW0NIMl1bQ0gyXVtDSDJdW0NIMl1bQ0BIXTJbQ0gzXQ==

> <s_epik_cmdline>
J2VwaWtfcHl0aG9uJywgJy1waCcsICc3LjAnLCAnLXRuJywgJzgnLCAnLW1hJywgJzIwMCcsICctbWV0YWxfYmluZGluZycsICctaW1hZScsICc8aW5maWxlLm1hZT4nLCAnLW9tYWUnLCAnPG91dGZpbGUubWFlPic=

> <r_lp_tautomer_probability>
1

> <r_epik_Ionization_Penalty>
6.47137

> <r_epik_Ionization_Penalty_Charging>
6.47125

> <r_epik_Ionization_Penalty_Neutral>
0.000118933

> <r_epik_State_Penalty>
6.47124

> <r_epik_Charging_Adjusted_Penalty>
12.9425

> <i_epik_Tot_Q>
-1

> <i_epik_Tot_abs_Q>
1

> <r_epik_Metal_State_Penalty>
2.3995

> <b_epik_Metal_Only>
1

> <s_lp_Force_Field>
OPLS_2005

> <r_lp_Energy>
3.93088

> <b_lp_Chiralities_Consistent>
1

> <s_lp_Variant>
AV-unprocessed.smi:2104-6

> <Gold.Version>
5.8.1

> <Gold.Id.Protein>
6NUR|6NUR_protein|mol2

> <Gold.PLP.Fitness>
43.8940

> <Gold.PLP.PLP>
-31.9541

> <Gold.PLP.part.hbond>
-3.0000

> <Gold.PLP.part.metal>
0.0000

> <Gold.PLP.part.buried>
-3.9816

> <Gold.PLP.part.nonpolar>
-26.2892

> <Gold.PLP.part.repulsive>
0.2243

> <Gold.PLP.ligand.clash>
0.0000

> <Gold.PLP.ligand.torsion>
0.6541

> <Gold.PLP.Chemscore.Hbond>
4.3920

> <Gold.PLP.Chemscore.CHOScore>
0.0000

> <Gold.PLP.Chemscore.Metal>
0.0000

> <Gold.Chemscore.Hbonds>
donor molecule, donor type, donor heavy atom, donor atom, acceptor molecule, acceptor atom, score
      P1  H  6896  6907       L1     7  0.55
      P1  H  6931  6943       L1     5  0.83
      P1  H  6934  6947       L1     5  1.15

> <Gold.PLP.Chemscore.Internal.Correction>
0.0722

> <Gold.Rescore>
     Score         DG    S(hbond)    S(metal)    S(lipo)     H(rot)  DE(clash)    DE(int)     intcor
     12.58     -15.05       1.59        0.00      73.87       1.71       0.37       2.09       ----

> <Gold.Chemscore.Fitness>
12.5835

> <Gold.Chemscore.DG>
-15.0460

> <Gold.Chemscore.ZeroCoef>
-5.4800

> <Gold.Chemscore.Hbond>
1.5873

> <Gold.Chemscore.Metal>
0.0000

> <Gold.Chemscore.Lipo>
73.8713

> <Gold.Chemscore.Internal_Hbond>
0.0000

> <Gold.Chemscore.DEClash>
0.3727

> <Gold.Chemscore.DEInternal>
2.0898

> <Gold.Chemscore.Rot>
1.7103

> <Gold.Chemscore.Internal.Correction>
   9.000000E+99

> <Gold.Chemscore.Hbonds>
donor molecule, donor type, donor heavy atom, donor atom, acceptor molecule, acceptor atom, score
      P1  H  6896  6907       L1     7  0.19
      P1  H  6931  6943       L1     5  0.26
      P1  H  6934  6947       L1     5  0.21

> <Gold.Chemscore.Hbond.Weighted>
-5.3014

> <Gold.Chemscore.Metal.Weighted>
-0.0000

> <Gold.Chemscore.Lipo.Weighted>
-8.6429

> <Gold.Chemscore.Internal_Hbond.Weighted>
0.0000

> <Gold.Chemscore.DEClash.Weighted>
0.3727

> <Gold.Chemscore.DEInternal.Weighted>
2.0898

> <Gold.Chemscore.Rot.Weighted>
4.3784

> <Gold.Chemscore.Internal.Correction.Weighted>
   9.000000E+99

> <Gold.Protein.RotatedTorsions>
[ 6907 6896 6895 6894 ] final  -72.59 input  -60.11 | X-H torsion
[ 7974 7965 7964 7962 ] final  156.22 input  175.53 | X-H torsion
[ 8008 7997 7996 7995 ] final  -47.17 input   59.86 | X-H torsion
[ 10167 10162 10161 10158 ] final -159.71 input  -65.29 | X-H torsion
[ 10718 10713 10712 10709 ] final   48.81 input   66.30 | X-H torsion
[ 10763 10752 10751 10750 ] final  -64.83 input  -60.55 | X-H torsion
[ 11005 11000 10999 10996 ] final   17.46 input  -57.11 | X-H torsion

> <Gold.Protein.ActiveResidues>
 VAL166  LYS551  ARG553  GLY616  TRP617  ASP618  TYR619  PRO620  LYS621  CYS622 
 ASP623  PHE694  ASN695  SER759  ASP760  ASP761  ALA762  ILE779  LEU786  VAL792 
 PHE793  MET794  SER795  GLU796  ALA797  LYS798  CYS799  TRP800  GLU811  SER814 

> <Gold.Protein.RotatedAtoms>
  150.7164  134.5141  159.5621 H   0  0  0  0  0  0  0  0  0  0  0  0  # atno 6907 bound_to 6896
  152.2711  134.7929  160.0423 H   0  0  0  0  0  0  0  0  0  0  0  0  # atno 6908 bound_to 6896
  151.8609  133.3421  159.3740 H   0  0  0  0  0  0  0  0  0  0  0  0  # atno 6909 bound_to 6896
  144.7976  139.7174  143.6195 H   0  0  0  0  0  0  0  0  0  0  0  0  # atno 7974 bound_to 7965
  154.4014  140.1353  156.4131 H   0  0  0  0  0  0  0  0  0  0  0  0  # atno 8008 bound_to 7997
  155.7714  140.3484  155.5229 H   0  0  0  0  0  0  0  0  0  0  0  0  # atno 8009 bound_to 7997
  155.8763  140.0980  157.1506 H   0  0  0  0  0  0  0  0  0  0  0  0  # atno 8010 bound_to 7997
  139.6595  143.9939  152.2216 H   0  0  0  0  0  0  0  0  0  0  0  0  # atno 10167 bound_to 10162
  157.4724  130.8263  149.8002 H   0  0  0  0  0  0  0  0  0  0  0  0  # atno 10718 bound_to 10713
  154.3360  135.6166  153.5574 H   0  0  0  0  0  0  0  0  0  0  0  0  # atno 10763 bound_to 10752
  152.9807  135.5758  154.4907 H   0  0  0  0  0  0  0  0  0  0  0  0  # atno 10764 bound_to 10752
  154.4602  135.2855  155.1695 H   0  0  0  0  0  0  0  0  0  0  0  0  # atno 10765 bound_to 10752
  140.4357  134.1374  155.7685 H   0  0  0  0  0  0  0  0  0  0  0  0  # atno 11005 bound_to 11000
  146.2249  139.5704  142.9594 LP  0  0  0  0  0  0  0  0  0  0  0  0  # atno 17320 bound_to 7965
  145.5633  141.0402  143.2214 LP  0  0  0  0  0  0  0  0  0  0  0  0  # atno 17321 bound_to 7965
  139.9674  144.6517  150.8021 LP  0  0  0  0  0  0  0  0  0  0  0  0  # atno 17342 bound_to 10162
  140.7574  143.3085  151.2904 LP  0  0  0  0  0  0  0  0  0  0  0  0  # atno 17343 bound_to 10162
  156.0080  130.3846  150.2364 LP  0  0  0  0  0  0  0  0  0  0  0  0  # atno 17370 bound_to 10713
  157.0547  131.0073  151.3242 LP  0  0  0  0  0  0  0  0  0  0  0  0  # atno 17371 bound_to 10713
  141.1727  133.8576  157.1520 LP  0  0  0  0  0  0  0  0  0  0  0  0  # atno 17394 bound_to 11000
  140.0104  134.9990  157.0383 LP  0  0  0  0  0  0  0  0  0  0  0  0  # atno 17395 bound_to 11000

$$$$
