AV-unprocessed.smi:1123|AV-procd|sdf|4831|dock3
  -GOLD-   22720 3393D 1   1.00000     0.00000
 Structure written by MMmdl.
 38 39  0  0  0  0  0  0  0  0  2 V2000
  152.6555  138.4899  154.4200 C   0  0  0  0  0  0  0  0  0  0  0  0
  151.1548  138.1391  154.3606 C   0  0  2  0  0  0  0  0  0  0  0  0
  150.2502  139.2661  154.8908 C   0  0  0  0  0  0  0  0  0  0  0  0
  150.2954  139.6095  156.0729 O   0  0  0  0  0  0  0  0  0  0  0  0
  149.4374  139.8515  153.9960 N   0  0  0  0  0  0  0  0  0  0  0  0
  148.5154  140.9416  154.2921 C   0  0  0  0  0  0  0  0  0  0  0  0
  147.2710  140.8823  153.3857 C   0  0  0  0  0  0  0  0  0  0  0  0
  146.0800  141.5189  154.0022 N   0  3  0  0  0  0  0  0  0  0  0  0
  145.9224  141.1463  155.4288 C   0  0  0  0  0  0  0  0  0  0  0  0
  144.6526  141.7830  156.0181 C   0  0  0  0  0  0  0  0  0  0  0  0
  144.7147  143.1949  155.8631 O   0  0  0  0  0  0  0  0  0  0  0  0
  144.7743  143.5756  154.4944 C   0  0  0  0  0  0  0  0  0  0  0  0
  146.0436  142.9947  153.8469 C   0  0  0  0  0  0  0  0  0  0  0  0
  150.8704  136.8800  155.0391 N   0  0  0  0  0  0  0  0  0  0  0  0
  149.7553  136.1467  155.0569 C   0  0  0  0  0  0  0  0  0  0  0  0
  149.8377  135.0596  155.8106 N   0  0  0  0  0  0  0  0  0  0  0  0
  151.1188  135.1936  156.2655 C   0  0  0  0  0  0  0  0  0  0  0  0
  151.7793  136.2706  155.8408 N   0  0  0  0  0  0  0  0  0  0  0  0
  152.8727  139.3939  153.8503 H   0  0  0  0  0  0  0  0  0  0  0  0
  153.2587  137.6865  153.9963 H   0  0  0  0  0  0  0  0  0  0  0  0
  152.9964  138.6532  155.4432 H   0  0  0  0  0  0  0  0  0  0  0  0
  150.8969  138.0010  153.3094 H   0  0  0  0  0  0  0  0  0  0  0  0
  149.4556  139.5126  153.0448 H   0  0  0  0  0  0  0  0  0  0  0  0
  148.2375  140.8506  155.3412 H   0  0  0  0  0  0  0  0  0  0  0  0
  149.0229  141.9023  154.1864 H   0  0  0  0  0  0  0  0  0  0  0  0
  147.4984  141.4020  152.4536 H   0  0  0  0  0  0  0  0  0  0  0  0
  147.0406  139.8506  153.1152 H   0  0  0  0  0  0  0  0  0  0  0  0
  145.8651  140.0615  155.5258 H   0  0  0  0  0  0  0  0  0  0  0  0
  146.7987  141.4730  155.9913 H   0  0  0  0  0  0  0  0  0  0  0  0
  143.7569  141.3893  155.5349 H   0  0  0  0  0  0  0  0  0  0  0  0
  144.5717  141.5472  157.0794 H   0  0  0  0  0  0  0  0  0  0  0  0
  143.8795  143.2356  153.9705 H   0  0  0  0  0  0  0  0  0  0  0  0
  144.7858  144.6638  154.4317 H   0  0  0  0  0  0  0  0  0  0  0  0
  146.9300  143.4339  154.3076 H   0  0  0  0  0  0  0  0  0  0  0  0
  146.0612  143.2693  152.7931 H   0  0  0  0  0  0  0  0  0  0  0  0
  148.8640  136.4145  154.5086 H   0  0  0  0  0  0  0  0  0  0  0  0
  151.5766  134.4786  156.9332 H   0  0  0  0  0  0  0  0  0  0  0  0
  145.2718  141.1489  153.5222 H   0  0  0  0  0  0  0  0  0  0  0  0
  1  2  1  0  0  0  0
  1 19  1  0  0  0  0
  1 20  1  0  0  0  0
  1 21  1  0  0  0  0
  2  3  1  0  0  0  0
  2 14  1  0  0  0  0
  2 22  1  0  0  0  0
  3  4  2  0  0  0  0
  3  5  1  0  0  0  0
  5  6  1  0  0  0  0
  5 23  1  0  0  0  0
  6  7  1  0  0  0  0
  6 24  1  0  0  0  0
  6 25  1  0  0  0  0
  7  8  1  0  0  0  0
  7 26  1  0  0  0  0
  7 27  1  0  0  0  0
  8 13  1  0  0  0  0
  8  9  1  0  0  0  0
  8 38  1  0  0  0  0
  9 10  1  0  0  0  0
  9 28  1  0  0  0  0
  9 29  1  0  0  0  0
 10 11  1  0  0  0  0
 10 30  1  0  0  0  0
 10 31  1  0  0  0  0
 11 12  1  0  0  0  0
 12 13  1  0  0  0  0
 12 32  1  0  0  0  0
 12 33  1  0  0  0  0
 13 34  1  0  0  0  0
 13 35  1  0  0  0  0
 14 18  1  0  0  0  0
 14 15  1  0  0  0  0
 15 16  2  0  0  0  0
 15 36  1  0  0  0  0
 16 17  1  0  0  0  0
 17 18  2  0  0  0  0
 17 37  1  0  0  0  0
M  CHG  1   8   1
M  END
> <s_m_source_file>
AV-unprocessed.smi

> <i_m_source_file_index>
1123

> <i_lp_mmshare_version>
43012

> <i_f3d_flags>
0

> <s_epik_input>
bjFbY0hdbltjSF1uMVtDQEhdKFtDSDNdKUMoPU8pW05IXVtDSDJdW0NIMl1OMltDSDJdW0NIMl1PW0NIMl1bQ0gyXTI=

> <s_epik_cmdline>
J2VwaWtfcHl0aG9uJywgJy1waCcsICc3LjAnLCAnLXRuJywgJzgnLCAnLW1hJywgJzIwMCcsICctbWV0YWxfYmluZGluZycsICctaW1hZScsICc8aW5maWxlLm1hZT4nLCAnLW9tYWUnLCAnPG91dGZpbGUubWFlPic=

> <r_lp_tautomer_probability>
1

> <r_epik_Ionization_Penalty>
0.71326

> <r_epik_Ionization_Penalty_Charging>
0.713252

> <r_epik_Ionization_Penalty_Neutral>
7.98515e-06

> <r_epik_State_Penalty>
0.737017

> <r_epik_Charging_Adjusted_Penalty>
1.45027

> <i_epik_Tot_Q>
1

> <i_epik_Tot_abs_Q>
1

> <r_epik_Metal_State_Penalty>
0.73702

> <b_epik_Metal_Only>
0

> <s_lp_Force_Field>
OPLS_2005

> <r_lp_Energy>
21.5068

> <b_lp_Chiralities_Consistent>
1

> <s_lp_Variant>
AV-unprocessed.smi:1123-3

> <Gold.Version>
5.8.1

> <Gold.Id.Protein>
6NUR|6NUR_protein|mol2

> <Gold.PLP.Fitness>
44.0226

> <Gold.PLP.PLP>
-31.0053

> <Gold.PLP.part.hbond>
-2.9739

> <Gold.PLP.part.metal>
0.0000

> <Gold.PLP.part.buried>
-5.8135

> <Gold.PLP.part.nonpolar>
-23.8805

> <Gold.PLP.part.repulsive>
0.4228

> <Gold.PLP.ligand.clash>
0.0000

> <Gold.PLP.ligand.torsion>
0.6780

> <Gold.PLP.Chemscore.Hbond>
3.9920

> <Gold.PLP.Chemscore.CHOScore>
0.7495

> <Gold.PLP.Chemscore.Metal>
0.0000

> <Gold.Chemscore.Hbonds>
donor molecule, donor type, donor heavy atom, donor atom, acceptor molecule, acceptor atom, score
      L1  H     5    23       P1  7957  0.90
      L1  H     8    38       P1 10175  2.00
      P1  H 10752 10764       L1    18  1.00
      L1  C    15    36       P1  7948  0.53

> <Gold.PLP.Chemscore.Internal.Correction>
0.1487

> <Gold.Rescore>
     Score         DG    S(hbond)    S(metal)    S(lipo)     H(rot)  DE(clash)    DE(int)     intcor
     11.68     -12.59       2.41        0.00      50.89       2.69       0.05       0.86       ----

> <Gold.Chemscore.Fitness>
11.6759

> <Gold.Chemscore.DG>
-12.5868

> <Gold.Chemscore.ZeroCoef>
-5.4800

> <Gold.Chemscore.Hbond>
2.4080

> <Gold.Chemscore.Metal>
0.0000

> <Gold.Chemscore.Lipo>
50.8942

> <Gold.Chemscore.Internal_Hbond>
0.0000

> <Gold.Chemscore.DEClash>
0.0527

> <Gold.Chemscore.DEInternal>
0.8582

> <Gold.Chemscore.Rot>
2.6916

> <Gold.Chemscore.Internal.Correction>
   9.000000E+99

> <Gold.Chemscore.Hbonds>
donor molecule, donor type, donor heavy atom, donor atom, acceptor molecule, acceptor atom, score
      L1  H     5    23       P1  7957  0.87
      L1  H     8    38       P1 10175  0.43
      P1  H 10752 10764       L1    18  0.21

> <Gold.Chemscore.Hbond.Weighted>
-8.0427

> <Gold.Chemscore.Metal.Weighted>
-0.0000

> <Gold.Chemscore.Lipo.Weighted>
-5.9546

> <Gold.Chemscore.Internal_Hbond.Weighted>
0.0000

> <Gold.Chemscore.DEClash.Weighted>
0.0527

> <Gold.Chemscore.DEInternal.Weighted>
0.8582

> <Gold.Chemscore.Rot.Weighted>
6.8906

> <Gold.Chemscore.Internal.Correction.Weighted>
   9.000000E+99

> <Gold.Protein.RotatedTorsions>
[ 6907 6896 6895 6894 ] final  -20.76 input  -60.11 | X-H torsion
[ 7974 7965 7964 7962 ] final  108.17 input  175.53 | X-H torsion
[ 8008 7997 7996 7995 ] final -153.72 input   59.86 | X-H torsion
[ 10167 10162 10161 10158 ] final   -2.09 input  -65.29 | X-H torsion
[ 10718 10713 10712 10709 ] final   72.22 input   66.30 | X-H torsion
[ 10763 10752 10751 10750 ] final  -43.80 input  -60.55 | X-H torsion
[ 11005 11000 10999 10996 ] final   26.71 input  -57.11 | X-H torsion

> <Gold.Protein.ActiveResidues>
 VAL166  LYS551  ARG553  GLY616  TRP617  ASP618  TYR619  PRO620  LYS621  CYS622 
 ASP623  PHE694  ASN695  SER759  ASP760  ASP761  ALA762  ILE779  LEU786  VAL792 
 PHE793  MET794  SER795  GLU796  ALA797  LYS798  CYS799  TRP800  GLU811  SER814 

> <Gold.Protein.RotatedAtoms>
  151.2434  135.0597  159.9033 H   0  0  0  0  0  0  0  0  0  0  0  0  # atno 6907 bound_to 6896
  152.5390  134.0410  159.8078 H   0  0  0  0  0  0  0  0  0  0  0  0  # atno 6908 bound_to 6896
  151.0607  133.5497  159.2666 H   0  0  0  0  0  0  0  0  0  0  0  0  # atno 6909 bound_to 6896
  145.2841  139.2622  143.3900 H   0  0  0  0  0  0  0  0  0  0  0  0  # atno 7974 bound_to 7965
  155.6752  140.0738  157.2505 H   0  0  0  0  0  0  0  0  0  0  0  0  # atno 8008 bound_to 7997
  154.4116  140.1692  156.1974 H   0  0  0  0  0  0  0  0  0  0  0  0  # atno 8009 bound_to 7997
  155.9582  140.3372  155.6470 H   0  0  0  0  0  0  0  0  0  0  0  0  # atno 8010 bound_to 7997
  140.6837  143.6698  150.8195 H   0  0  0  0  0  0  0  0  0  0  0  0  # atno 10167 bound_to 10162
  157.6490  130.9568  150.0898 H   0  0  0  0  0  0  0  0  0  0  0  0  # atno 10718 bound_to 10713
  154.0016  135.6693  153.4759 H   0  0  0  0  0  0  0  0  0  0  0  0  # atno 10763 bound_to 10752
  153.0660  135.5001  154.8196 H   0  0  0  0  0  0  0  0  0  0  0  0  # atno 10764 bound_to 10752
  154.7049  135.3086  154.9248 H   0  0  0  0  0  0  0  0  0  0  0  0  # atno 10765 bound_to 10752
  140.3341  134.2405  155.7698 H   0  0  0  0  0  0  0  0  0  0  0  0  # atno 11005 bound_to 11000
  146.3206  140.3316  142.8641 LP  0  0  0  0  0  0  0  0  0  0  0  0  # atno 17320 bound_to 7965
  144.9228  140.7887  143.5738 LP  0  0  0  0  0  0  0  0  0  0  0  0  # atno 17321 bound_to 7965
  140.0402  143.5354  152.2721 LP  0  0  0  0  0  0  0  0  0  0  0  0  # atno 17342 bound_to 10162
  139.6178  144.7623  151.2807 LP  0  0  0  0  0  0  0  0  0  0  0  0  # atno 17343 bound_to 10162
  156.1850  130.3652  149.8984 LP  0  0  0  0  0  0  0  0  0  0  0  0  # atno 17370 bound_to 10713
  156.6927  130.8902  151.3590 LP  0  0  0  0  0  0  0  0  0  0  0  0  # atno 17371 bound_to 10713
  141.2056  133.7856  157.0226 LP  0  0  0  0  0  0  0  0  0  0  0  0  # atno 17394 bound_to 11000
  140.0836  134.9634  157.1663 LP  0  0  0  0  0  0  0  0  0  0  0  0  # atno 17395 bound_to 11000

$$$$
