AV-unprocessed.smi:2145|AV-procd|sdf|8737|dock6
  -GOLD-   2272011513D 1   1.00000     0.00000
 Structure written by MMmdl.
 45 47  0  0  0  0  0  0  0  0  2 V2000
  136.7503  142.3516  153.2092 C   0  0  0  0  0  0  0  0  0  0  0  0
  136.6550  140.8360  153.3757 C   0  0  0  0  0  0  0  0  0  0  0  0
  135.5424  140.3097  153.3714 O   0  0  0  0  0  0  0  0  0  0  0  0
  137.9253  140.0724  153.5348 C   0  0  0  0  0  0  0  0  0  0  0  0
  139.1393  140.7730  153.7105 C   0  0  0  0  0  0  0  0  0  0  0  0
  140.3526  140.0760  153.8636 C   0  0  0  0  0  0  0  0  0  0  0  0
  140.3847  138.6680  153.8472 C   0  0  0  0  0  0  0  0  0  0  0  0
  141.6151  138.0682  154.0065 O   0  0  0  0  0  0  0  0  0  0  0  0
  141.6555  136.6837  154.3259 C   0  0  0  0  0  0  0  0  0  0  0  0
  143.0112  136.1182  153.8760 C   0  0  1  0  0  0  0  0  0  0  0  0
  143.2654  134.9349  154.6068 O   0  0  0  0  0  0  0  0  0  0  0  0
  143.0319  135.7964  152.3683 C   0  0  0  0  0  0  0  0  0  0  0  0
  144.3653  135.3979  151.8884 N   0  0  0  0  0  0  0  0  0  0  0  0
  145.5194  136.1207  151.8194 C   0  0  0  0  0  0  0  0  0  0  0  0
  145.7051  137.5430  152.2291 C   0  0  0  0  0  0  0  0  0  0  0  0
  146.4795  135.3028  151.3034 N   0  3  0  0  0  0  0  0  0  0  0  0
  145.9363  134.0445  151.0409 C   0  0  0  0  0  0  0  0  0  0  0  0
  146.5180  132.8930  150.5192 C   0  0  0  0  0  0  0  0  0  0  0  0
  145.6795  131.7676  150.3804 C   0  0  0  0  0  0  0  0  0  0  0  0
  144.3209  131.8141  150.7545 C   0  0  0  0  0  0  0  0  0  0  0  0
  143.7422  132.9874  151.2817 C   0  0  0  0  0  0  0  0  0  0  0  0
  144.5773  134.0970  151.4147 C   0  0  0  0  0  0  0  0  0  0  0  0
  139.1691  137.9627  153.6692 C   0  0  0  0  0  0  0  0  0  0  0  0
  137.9540  138.6585  153.5146 C   0  0  0  0  0  0  0  0  0  0  0  0
  137.2223  142.8035  154.0818 H   0  0  0  0  0  0  0  0  0  0  0  0
  135.7566  142.7859  153.0963 H   0  0  0  0  0  0  0  0  0  0  0  0
  137.3338  142.6026  152.3231 H   0  0  0  0  0  0  0  0  0  0  0  0
  139.1542  141.8534  153.7302 H   0  0  0  0  0  0  0  0  0  0  0  0
  141.2703  140.6301  153.9969 H   0  0  0  0  0  0  0  0  0  0  0  0
  141.4957  136.5085  155.3915 H   0  0  0  0  0  0  0  0  0  0  0  0
  140.8552  136.1811  153.7801 H   0  0  0  0  0  0  0  0  0  0  0  0
  143.7966  136.8429  154.0941 H   0  0  0  0  0  0  0  0  0  0  0  0
  143.7526  135.1639  155.3840 H   0  0  0  0  0  0  0  0  0  0  0  0
  142.3077  135.0213  152.1166 H   0  0  0  0  0  0  0  0  0  0  0  0
  142.7389  136.6781  151.7971 H   0  0  0  0  0  0  0  0  0  0  0  0
  146.7456  137.8449  152.1083 H   0  0  0  0  0  0  0  0  0  0  0  0
  145.4258  137.6739  153.2747 H   0  0  0  0  0  0  0  0  0  0  0  0
  145.0814  138.1943  151.6168 H   0  0  0  0  0  0  0  0  0  0  0  0
  147.5592  132.8545  150.2345 H   0  0  0  0  0  0  0  0  0  0  0  0
  146.0869  130.8501  149.9811 H   0  0  0  0  0  0  0  0  0  0  0  0
  143.7097  130.9311  150.6364 H   0  0  0  0  0  0  0  0  0  0  0  0
  142.7022  133.0084  151.5714 H   0  0  0  0  0  0  0  0  0  0  0  0
  139.1407  136.8840  153.6458 H   0  0  0  0  0  0  0  0  0  0  0  0
  137.0511  138.0816  153.3806 H   0  0  0  0  0  0  0  0  0  0  0  0
  147.4375  135.5874  151.1444 H   0  0  0  0  0  0  0  0  0  0  0  0
  1  2  1  0  0  0  0
  1 25  1  0  0  0  0
  1 26  1  0  0  0  0
  1 27  1  0  0  0  0
  2  3  2  0  0  0  0
  2  4  1  0  0  0  0
  4 24  1  0  0  0  0
  4  5  2  0  0  0  0
  5  6  1  0  0  0  0
  5 28  1  0  0  0  0
  6  7  2  0  0  0  0
  6 29  1  0  0  0  0
  7  8  1  0  0  0  0
  7 23  1  0  0  0  0
  8  9  1  0  0  0  0
  9 10  1  0  0  0  0
  9 30  1  0  0  0  0
  9 31  1  0  0  0  0
 10 11  1  0  0  0  0
 10 12  1  0  0  0  0
 10 32  1  0  0  0  0
 11 33  1  0  0  0  0
 12 13  1  0  0  0  0
 12 34  1  0  0  0  0
 12 35  1  0  0  0  0
 13 22  1  0  0  0  0
 13 14  1  0  0  0  0
 14 15  1  0  0  0  0
 14 16  2  0  0  0  0
 15 36  1  0  0  0  0
 15 37  1  0  0  0  0
 15 38  1  0  0  0  0
 16 17  1  0  0  0  0
 16 45  1  0  0  0  0
 17 22  2  0  0  0  0
 17 18  1  0  0  0  0
 18 19  2  0  0  0  0
 18 39  1  0  0  0  0
 19 20  1  0  0  0  0
 19 40  1  0  0  0  0
 20 21  2  0  0  0  0
 20 41  1  0  0  0  0
 21 22  1  0  0  0  0
 21 42  1  0  0  0  0
 23 24  2  0  0  0  0
 23 43  1  0  0  0  0
 24 44  1  0  0  0  0
M  CHG  1  16   1
M  END
> <s_m_source_file>
AV-unprocessed.smi

> <i_m_source_file_index>
2145

> <i_lp_mmshare_version>
43012

> <i_f3d_flags>
0

> <s_epik_input>
W0NIM11DKD1PKWMxW2NIXVtjSF1jKFtjSF1bY0hdMSlPW0NIMl1bQ0BIXShbT0hdKVtDSDJdbihjKG4yKVtDSDNdKWMoYzIzKVtjSF1bY0hdW2NIXVtjSF0z

> <s_epik_cmdline>
J2VwaWtfcHl0aG9uJywgJy1waCcsICc3LjAnLCAnLXRuJywgJzgnLCAnLW1hJywgJzIwMCcsICctbWV0YWxfYmluZGluZycsICctaW1hZScsICc8aW5maWxlLm1hZT4nLCAnLW9tYWUnLCAnPG91dGZpbGUubWFlPic=

> <r_lp_tautomer_probability>
0.99995

> <r_epik_Ionization_Penalty>
1.05477

> <r_epik_Ionization_Penalty_Charging>
1.05477

> <r_epik_Ionization_Penalty_Neutral>
2.3993e-06

> <r_epik_State_Penalty>
1.10796

> <r_epik_Charging_Adjusted_Penalty>
2.16273

> <i_epik_Tot_Q>
1

> <i_epik_Tot_abs_Q>
1

> <r_epik_Metal_State_Penalty>
5.10164

> <b_epik_Metal_Only>
0

> <s_lp_Force_Field>
OPLS_2005

> <r_lp_Energy>
25.5273

> <b_lp_Chiralities_Consistent>
1

> <s_lp_Variant>
AV-unprocessed.smi:2145-4

> <Gold.Version>
5.8.1

> <Gold.Id.Protein>
6NUR|6NUR_protein|mol2

> <Gold.PLP.Fitness>
48.8174

> <Gold.PLP.PLP>
-44.0155

> <Gold.PLP.part.hbond>
-1.8669

> <Gold.PLP.part.metal>
0.0000

> <Gold.PLP.part.buried>
-6.3629

> <Gold.PLP.part.nonpolar>
-36.2724

> <Gold.PLP.part.repulsive>
0.2162

> <Gold.PLP.ligand.clash>
0.0000

> <Gold.PLP.ligand.torsion>
0.6170

> <Gold.PLP.Chemscore.Hbond>
2.0000

> <Gold.PLP.Chemscore.CHOScore>
0.0000

> <Gold.PLP.Chemscore.Metal>
0.0000

> <Gold.Chemscore.Hbonds>
donor molecule, donor type, donor heavy atom, donor atom, acceptor molecule, acceptor atom, score
      L1  H    16    45       P1  7948  1.95

> <Gold.PLP.Chemscore.Internal.Correction>
0.0359

> <Gold.Rescore>
     Score         DG    S(hbond)    S(metal)    S(lipo)     H(rot)  DE(clash)    DE(int)     intcor
     15.15     -15.85       0.92        0.00     112.72       2.30       0.09       0.61       ----

> <Gold.Chemscore.Fitness>
15.1541

> <Gold.Chemscore.DG>
-15.8549

> <Gold.Chemscore.ZeroCoef>
-5.4800

> <Gold.Chemscore.Hbond>
0.9194

> <Gold.Chemscore.Metal>
0.0000

> <Gold.Chemscore.Lipo>
112.7163

> <Gold.Chemscore.Internal_Hbond>
0.0000

> <Gold.Chemscore.DEClash>
0.0869

> <Gold.Chemscore.DEInternal>
0.6139

> <Gold.Chemscore.Rot>
2.2984

> <Gold.Chemscore.Internal.Correction>
   9.000000E+99

> <Gold.Chemscore.Hbonds>
donor molecule, donor type, donor heavy atom, donor atom, acceptor molecule, acceptor atom, score
      L1  H    16    45       P1  7948  0.69

> <Gold.Chemscore.Hbond.Weighted>
-3.0709

> <Gold.Chemscore.Metal.Weighted>
-0.0000

> <Gold.Chemscore.Lipo.Weighted>
-13.1878

> <Gold.Chemscore.Internal_Hbond.Weighted>
0.0000

> <Gold.Chemscore.DEClash.Weighted>
0.0869

> <Gold.Chemscore.DEInternal.Weighted>
0.6139

> <Gold.Chemscore.Rot.Weighted>
5.8839

> <Gold.Chemscore.Internal.Correction.Weighted>
   9.000000E+99

> <Gold.Protein.RotatedTorsions>
[ 6907 6896 6895 6894 ] final  124.13 input  -60.11 | X-H torsion
[ 7974 7965 7964 7962 ] final  -27.68 input  175.53 | X-H torsion
[ 8008 7997 7996 7995 ] final -116.74 input   59.86 | X-H torsion
[ 10167 10162 10161 10158 ] final -138.76 input  -65.29 | X-H torsion
[ 10718 10713 10712 10709 ] final -125.45 input   66.30 | X-H torsion
[ 10763 10752 10751 10750 ] final  -89.14 input  -60.55 | X-H torsion
[ 11005 11000 10999 10996 ] final  143.91 input  -57.11 | X-H torsion

> <Gold.Protein.ActiveResidues>
 VAL166  LYS551  ARG553  GLY616  TRP617  ASP618  TYR619  PRO620  LYS621  CYS622 
 ASP623  PHE694  ASN695  SER759  ASP760  ASP761  ALA762  ILE779  LEU786  VAL792 
 PHE793  MET794  SER795  GLU796  ALA797  LYS798  CYS799  TRP800  GLU811  SER814 

> <Gold.Protein.RotatedAtoms>
  152.4103  133.6953  159.6392 H   0  0  0  0  0  0  0  0  0  0  0  0  # atno 6907 bound_to 6896
  150.7984  133.8635  159.3247 H   0  0  0  0  0  0  0  0  0  0  0  0  # atno 6908 bound_to 6896
  151.6379  135.1018  160.0187 H   0  0  0  0  0  0  0  0  0  0  0  0  # atno 6909 bound_to 6896
  146.1341  140.5183  142.8680 H   0  0  0  0  0  0  0  0  0  0  0  0  # atno 7974 bound_to 7965
  155.0726  140.0393  157.2613 H   0  0  0  0  0  0  0  0  0  0  0  0  # atno 8008 bound_to 7997
  154.6970  140.2665  155.6731 H   0  0  0  0  0  0  0  0  0  0  0  0  # atno 8009 bound_to 7997
  156.2748  140.2748  156.1568 H   0  0  0  0  0  0  0  0  0  0  0  0  # atno 8010 bound_to 7997
  139.8446  143.7277  152.2661 H   0  0  0  0  0  0  0  0  0  0  0  0  # atno 10167 bound_to 10162
  156.1676  130.6645  151.0136 H   0  0  0  0  0  0  0  0  0  0  0  0  # atno 10718 bound_to 10713
  154.6521  135.5351  153.7914 H   0  0  0  0  0  0  0  0  0  0  0  0  # atno 10763 bound_to 10752
  153.0392  135.6485  154.1001 H   0  0  0  0  0  0  0  0  0  0  0  0  # atno 10764 bound_to 10752
  154.0917  135.2939  155.3250 H   0  0  0  0  0  0  0  0  0  0  0  0  # atno 10765 bound_to 10752
  140.0591  134.9214  157.1153 H   0  0  0  0  0  0  0  0  0  0  0  0  # atno 11005 bound_to 11000
  144.7721  140.5661  143.6663 LP  0  0  0  0  0  0  0  0  0  0  0  0  # atno 17320 bound_to 7965
  145.5195  139.1477  143.3560 LP  0  0  0  0  0  0  0  0  0  0  0  0  # atno 17321 bound_to 7965
  139.7525  144.7530  151.0485 LP  0  0  0  0  0  0  0  0  0  0  0  0  # atno 17342 bound_to 10162
  140.7794  143.4843  150.9976 LP  0  0  0  0  0  0  0  0  0  0  0  0  # atno 17343 bound_to 10162
  157.6779  131.0845  150.7446 LP  0  0  0  0  0  0  0  0  0  0  0  0  # atno 17370 bound_to 10713
  156.7506  130.4767  149.5457 LP  0  0  0  0  0  0  0  0  0  0  0  0  # atno 17371 bound_to 10713
  140.3798  134.2300  155.7172 LP  0  0  0  0  0  0  0  0  0  0  0  0  # atno 17394 bound_to 11000
  141.1965  133.8080  157.0668 LP  0  0  0  0  0  0  0  0  0  0  0  0  # atno 17395 bound_to 11000

$$$$
