AV-unprocessed.smi:3076|AV-procd|sdf|11725|dock3
  -GOLD-   2272017123D 1   1.00000     0.00000
 Structure written by MMmdl.
 21 21  0  0  0  0  0  0  0  0  2 V2000
  142.3265  132.4221  148.2443 N   0  3  0  0  0  0  0  0  0  0  0  0
  143.6760  132.5707  148.8168 C   0  0  0  0  0  0  0  0  0  0  0  0
  143.6496  132.5326  150.3553 C   0  0  2  0  0  0  0  0  0  0  0  0
  142.3063  132.6218  150.7894 O   0  0  0  0  0  0  0  0  0  0  0  0
  144.5092  133.6383  150.9469 C   0  0  0  0  0  0  0  0  0  0  0  0
  145.6377  133.3478  151.7450 C   0  0  0  0  0  0  0  0  0  0  0  0
  146.3896  134.4136  152.2755 C   0  0  0  0  0  0  0  0  0  0  0  0
  145.9816  135.7311  151.9877 C   0  0  0  0  0  0  0  0  0  0  0  0
  144.9038  136.0229  151.2286 N   0  0  0  0  0  0  0  0  0  0  0  0
  144.1884  134.9954  150.7233 C   0  0  0  0  0  0  0  0  0  0  0  0
  142.3690  132.5351  147.2416 H   0  0  0  0  0  0  0  0  0  0  0  0
  141.7207  133.1279  148.6387 H   0  0  0  0  0  0  0  0  0  0  0  0
  144.2949  131.7593  148.4323 H   0  0  0  0  0  0  0  0  0  0  0  0
  144.1141  133.5034  148.4586 H   0  0  0  0  0  0  0  0  0  0  0  0
  144.0391  131.5730  150.6987 H   0  0  0  0  0  0  0  0  0  0  0  0
  141.9041  133.3699  150.3735 H   0  0  0  0  0  0  0  0  0  0  0  0
  145.9235  132.3266  151.9510 H   0  0  0  0  0  0  0  0  0  0  0  0
  147.2585  134.2265  152.8892 H   0  0  0  0  0  0  0  0  0  0  0  0
  146.5343  136.5722  152.3793 H   0  0  0  0  0  0  0  0  0  0  0  0
  143.3315  135.2669  150.1240 H   0  0  0  0  0  0  0  0  0  0  0  0
  141.9639  131.5063  148.4669 H   0  0  0  0  0  0  0  0  0  0  0  0
  1  2  1  0  0  0  0
  1 11  1  0  0  0  0
  1 12  1  0  0  0  0
  1 21  1  0  0  0  0
  2  3  1  0  0  0  0
  2 13  1  0  0  0  0
  2 14  1  0  0  0  0
  3  4  1  0  0  0  0
  3  5  1  0  0  0  0
  3 15  1  0  0  0  0
  4 16  1  0  0  0  0
  5 10  1  0  0  0  0
  5  6  2  0  0  0  0
  6  7  1  0  0  0  0
  6 17  1  0  0  0  0
  7  8  2  0  0  0  0
  7 18  1  0  0  0  0
  8  9  1  0  0  0  0
  8 19  1  0  0  0  0
  9 10  2  0  0  0  0
 10 20  1  0  0  0  0
M  CHG  1   1   1
M  END
> <s_m_source_file>
AV-unprocessed.smi

> <i_m_source_file_index>
3076

> <i_lp_mmshare_version>
43012

> <i_f3d_flags>
0

> <s_epik_input>
W05IMl1bQ0gyXVtDQEhdKFtPSF0pYzFbY0hdW2NIXVtjSF1uW2NIXTE=

> <s_epik_cmdline>
J2VwaWtfcHl0aG9uJywgJy1waCcsICc3LjAnLCAnLXRuJywgJzgnLCAnLW1hJywgJzIwMCcsICctbWV0YWxfYmluZGluZycsICctaW1hZScsICc8aW5maWxlLm1hZT4nLCAnLW9tYWUnLCAnPG91dGZpbGUubWFlPic=

> <r_epik_Ionization_Penalty>
0.0145342

> <r_epik_Ionization_Penalty_Charging>
0.0140431

> <r_epik_Ionization_Penalty_Neutral>
0.000491123

> <r_epik_State_Penalty>
0.0109628

> <r_epik_Charging_Adjusted_Penalty>
0.0250059

> <i_epik_Tot_Q>
1

> <i_epik_Tot_abs_Q>
1

> <r_epik_Metal_State_Penalty>
0.0109916

> <b_epik_Metal_Only>
0

> <s_lp_Force_Field>
OPLS_2005

> <r_lp_Energy>
5.00299

> <b_lp_Chiralities_Consistent>
1

> <s_lp_Variant>
AV-unprocessed.smi:3076-1

> <Gold.Version>
5.8.1

> <Gold.Id.Protein>
6NUR|6NUR_protein|mol2

> <Gold.PLP.Fitness>
40.3086

> <Gold.PLP.PLP>
-22.0758

> <Gold.PLP.part.hbond>
-4.7703

> <Gold.PLP.part.metal>
0.0000

> <Gold.PLP.part.buried>
-3.2361

> <Gold.PLP.part.nonpolar>
-15.8599

> <Gold.PLP.part.repulsive>
0.7128

> <Gold.PLP.ligand.clash>
0.0000

> <Gold.PLP.ligand.torsion>
0.6760

> <Gold.PLP.Chemscore.Hbond>
4.9920

> <Gold.PLP.Chemscore.CHOScore>
1.5339

> <Gold.PLP.Chemscore.Metal>
0.0000

> <Gold.Chemscore.Hbonds>
donor molecule, donor type, donor heavy atom, donor atom, acceptor molecule, acceptor atom, score
      L1  H     1    11       P1 10195  1.00
      L1  H     1    12       P1 10186  2.00
      L1  H     1    21       P1 10952  1.00
      L1  H     4    16       P1 10186  1.00
      L1  C     8    19       P1  7948  0.55
      L1  C    10    20       P1 10186  0.95

> <Gold.PLP.Chemscore.Internal.Correction>
0.0070

> <Gold.Rescore>
     Score         DG    S(hbond)    S(metal)    S(lipo)     H(rot)  DE(clash)    DE(int)     intcor
     18.49     -19.27       3.91        0.00      47.68       1.90       0.05       0.72       ----

> <Gold.Chemscore.Fitness>
18.4923

> <Gold.Chemscore.DG>
-19.2664

> <Gold.Chemscore.ZeroCoef>
-5.4800

> <Gold.Chemscore.Hbond>
3.9123

> <Gold.Chemscore.Metal>
0.0000

> <Gold.Chemscore.Lipo>
47.6803

> <Gold.Chemscore.Internal_Hbond>
0.0000

> <Gold.Chemscore.DEClash>
0.0541

> <Gold.Chemscore.DEInternal>
0.7200

> <Gold.Chemscore.Rot>
1.8981

> <Gold.Chemscore.Internal.Correction>
   9.000000E+99

> <Gold.Chemscore.Hbonds>
donor molecule, donor type, donor heavy atom, donor atom, acceptor molecule, acceptor atom, score
      L1  H     1    11       P1 10195  0.98
      L1  H     1    12       P1 10186  1.00
      L1  H     1    21       P1 10952  0.93
      L1  H     4    16       P1 10186  0.98

> <Gold.Chemscore.Hbond.Weighted>
-13.0670

> <Gold.Chemscore.Metal.Weighted>
-0.0000

> <Gold.Chemscore.Lipo.Weighted>
-5.5786

> <Gold.Chemscore.Internal_Hbond.Weighted>
0.0000

> <Gold.Chemscore.DEClash.Weighted>
0.0541

> <Gold.Chemscore.DEInternal.Weighted>
0.7200

> <Gold.Chemscore.Rot.Weighted>
4.8592

> <Gold.Chemscore.Internal.Correction.Weighted>
   9.000000E+99

> <Gold.Protein.RotatedTorsions>
[ 6907 6896 6895 6894 ] final  -86.99 input  -60.11 | X-H torsion
[ 7974 7965 7964 7962 ] final  -16.99 input  175.53 | X-H torsion
[ 8008 7997 7996 7995 ] final -154.42 input   59.86 | X-H torsion
[ 10167 10162 10161 10158 ] final  -59.28 input  -65.29 | X-H torsion
[ 10718 10713 10712 10709 ] final -130.67 input   66.30 | X-H torsion
[ 10763 10752 10751 10750 ] final -107.96 input  -60.55 | X-H torsion
[ 11005 11000 10999 10996 ] final -146.32 input  -57.11 | X-H torsion

> <Gold.Protein.ActiveResidues>
 VAL166  LYS551  ARG553  GLY616  TRP617  ASP618  TYR619  PRO620  LYS621  CYS622 
 ASP623  PHE694  ASN695  SER759  ASP760  ASP761  ALA762  ILE779  LEU786  VAL792 
 PHE793  MET794  SER795  GLU796  ALA797  LYS798  CYS799  TRP800  GLU811  SER814 

> <Gold.Protein.RotatedAtoms>
  150.6866  134.2966  159.4688 H   0  0  0  0  0  0  0  0  0  0  0  0  # atno 6907 bound_to 6896
  152.0866  134.9433  160.0582 H   0  0  0  0  0  0  0  0  0  0  0  0  # atno 6908 bound_to 6896
  152.0765  133.4097  159.4519 H   0  0  0  0  0  0  0  0  0  0  0  0  # atno 6909 bound_to 6896
  146.1962  140.3715  142.8440 H   0  0  0  0  0  0  0  0  0  0  0  0  # atno 7974 bound_to 7965
  155.6861  140.0750  157.2466 H   0  0  0  0  0  0  0  0  0  0  0  0  # atno 8008 bound_to 7997
  154.4097  140.1673  156.2087 H   0  0  0  0  0  0  0  0  0  0  0  0  # atno 8009 bound_to 7997
  155.9493  140.3378  155.6397 H   0  0  0  0  0  0  0  0  0  0  0  0  # atno 8010 bound_to 7997
  140.6145  143.2398  151.5630 H   0  0  0  0  0  0  0  0  0  0  0  0  # atno 10167 bound_to 10162
  156.2167  130.6953  151.0711 H   0  0  0  0  0  0  0  0  0  0  0  0  # atno 10718 bound_to 10713
  154.8107  135.4655  154.0508 H   0  0  0  0  0  0  0  0  0  0  0  0  # atno 10763 bound_to 10752
  153.1941  135.6859  153.8321 H   0  0  0  0  0  0  0  0  0  0  0  0  # atno 10764 bound_to 10752
  153.7828  135.3254  155.3345 H   0  0  0  0  0  0  0  0  0  0  0  0  # atno 10765 bound_to 10752
  140.7832  134.3054  157.5038 H   0  0  0  0  0  0  0  0  0  0  0  0  # atno 11005 bound_to 11000
  144.8586  140.7106  143.6122 LP  0  0  0  0  0  0  0  0  0  0  0  0  # atno 17320 bound_to 7965
  145.3635  139.1676  143.4370 LP  0  0  0  0  0  0  0  0  0  0  0  0  # atno 17321 bound_to 7965
  139.5387  144.2707  152.1307 LP  0  0  0  0  0  0  0  0  0  0  0  0  # atno 17342 bound_to 10162
  140.1913  144.4749  150.6477 LP  0  0  0  0  0  0  0  0  0  0  0  0  # atno 17343 bound_to 10162
  157.7067  131.0753  150.6643 LP  0  0  0  0  0  0  0  0  0  0  0  0  # atno 17370 bound_to 10713
  156.6704  130.4538  149.5659 LP  0  0  0  0  0  0  0  0  0  0  0  0  # atno 17371 bound_to 10713
  139.8740  134.9331  156.3571 LP  0  0  0  0  0  0  0  0  0  0  0  0  # atno 17394 bound_to 11000
  140.9462  133.7481  156.0211 LP  0  0  0  0  0  0  0  0  0  0  0  0  # atno 17395 bound_to 11000

$$$$
