#       Name:                AV-unprocessed.smi:340
#       Creating user name   scv26
#       Creation time:       Thu Mar 26 22:30:36 2020


#       File generated by GOLD software.
#

@<TRIPOS>MOLECULE
AV-unprocessed.smi:340
    39    40     1
SMALL
NO_CHARGES


@<TRIPOS>ATOM
      1 ****        -3.2700   0.9079  -1.5212 C.3            1 S1                 0.0000
      2 ****        -2.9043   2.2262  -2.7516 S.o2           1 S1                 0.0000
      3 ****        -4.0329   2.2911  -3.6920 O.2            1 S1                 0.0000
      4 ****        -2.4580   3.4328  -2.0384 O.2            1 S1                 0.0000
      5 ****        -1.5552   1.5864  -3.6200 N.pl3          1 S1                 0.0000
      6 ****        -0.1676   1.7547  -3.1848 C.3            1 S1                 0.0000
      7 ****         0.1608   0.9909  -1.9172 C.ar           1 S1                 0.0000
      8 ****         0.1960  -0.4167  -1.9095 C.ar           1 S1                 0.0000
      9 ****         0.4855  -1.0842  -0.7043 C.ar           1 S1                 0.0000
     10 ****         0.7357  -0.3244   0.4637 C.ar           1 S1                 0.0000
     11 ****         1.0244  -0.9730   1.6841 N.3            1 S1                 0.0000
     12 ****         2.1036  -1.9570   1.6406 C.3            1 S1                 0.0000
     13 ****         2.1083  -2.8042   2.9249 C.3            1 S1                 0.0000
     14 ****         2.1795  -1.9538   4.0646 O.3            1 S1                 0.0000
     15 ****         1.0578  -1.0806   4.1446 C.3            1 S1                 0.0000
     16 ****         1.0217  -0.1702   2.9058 C.3            1 S1                 0.0000
     17 ****         0.6970   1.0315   0.4495 N.ar           1 S1                 0.0000
     18 ****         0.4211   1.6671  -0.7086 C.ar           1 S1                 0.0000
     19 ****        -4.1674   1.1752  -0.9639 H              1 S1                 0.0000
     20 ****        -2.4382   0.8050  -0.8257 H              1 S1                 0.0000
     21 ****        -3.4334  -0.0383  -2.0365 H              1 S1                 0.0000
     22 ****        -1.7266   1.2500  -4.5675 H              1 S1                 0.0000
     23 ****         0.4913   1.4079  -3.9810 H              1 S1                 0.0000
     24 ****         0.0388   2.8173  -3.0513 H              1 S1                 0.0000
     25 ****        -0.0057  -0.9780  -2.8100 H              1 S1                 0.0000
     26 ****         0.4943  -2.1638  -0.6864 H              1 S1                 0.0000
     27 ****         2.0141  -2.6188   0.7805 H              1 S1                 0.0000
     28 ****         3.0539  -1.4314   1.5382 H              1 S1                 0.0000
     29 ****         1.2167  -3.4310   2.9803 H              1 S1                 0.0000
     30 ****         2.9681  -3.4741   2.9285 H              1 S1                 0.0000
     31 ****         0.1369  -1.6602   4.2286 H              1 S1                 0.0000
     32 ****         1.1392  -0.4791   5.0500 H              1 S1                 0.0000
     33 ****         1.8880   0.4928   2.9045 H              1 S1                 0.0000
     34 ****         0.1298   0.4566   2.9447 H              1 S1                 0.0000
     35 ****         0.3969   2.7462  -0.6643 H              1 S1                 0.0000
     36 ****         0.1817  -1.5035   1.7766 LP             1 S1                 0.0000
     37 ****         3.0134  -1.4049   4.0072 LP             1 S1                 0.0000
     38 ****         2.2088  -2.5193   4.8889 LP             1 S1                 0.0000
     39 ****         0.8704   1.5526   1.2852 LP             1 S1                 0.0000
@<TRIPOS>BOND
    1    1    2 1     
    2    1   19 1     
    3    1   20 1     
    4    1   21 1     
    5    2    3 2     
    6    2    4 2     
    7    2    5 1     
    8    5    6 1     
    9    5   22 1     
   10    6    7 1     
   11    6   23 1     
   12    6   24 1     
   13    7   18 ar    
   14    7    8 ar    
   15    8    9 ar    
   16    8   25 1     
   17    9   10 ar    
   18    9   26 1     
   19   10   11 1     
   20   10   17 ar    
   21   11   16 1     
   22   11   12 1     
   23   12   13 1     
   24   12   27 1     
   25   12   28 1     
   26   13   14 1     
   27   13   29 1     
   28   13   30 1     
   29   14   15 1     
   30   15   16 1     
   31   15   31 1     
   32   15   32 1     
   33   16   33 1     
   34   16   34 1     
   35   17   18 ar    
   36   18   35 1     
   37   11   36 1     
   38   14   37 1     
   39   14   38 1     
   40   17   39 1     
@<TRIPOS>SUBSTRUCTURE
      1 S1             1
@<TRIPOS>SET
LONE_PAIRS      STATIC     ATOMS    <user>   **** ""
6 3 4 36 37 38 39
DONOR_HYDROGENS      STATIC     ATOMS    <user>   **** ""
1 22
ATOM$BLUE        STATIC     ATOMS    COLORGROUP SYSTEM
6 3 4 36 37 38 39
ATOM$RED        STATIC     ATOMS    COLORGROUP SYSTEM
1 22
