AV-unprocessed.smi:666|AV-procd|sdf|3254|dock1
  -GOLD-   22720 0203D 1   1.00000     0.00000
 Structure written by MMmdl.
 34 35  0  0  0  0  0  0  0  0  2 V2000
  151.4430  140.0481  158.7400 O   0  0  0  0  0  0  0  0  0  0  0  0
  152.6622  139.9142  158.6288 C   0  0  0  0  0  0  0  0  0  0  0  0
  153.5912  140.6776  159.5808 C   0  0  0  0  0  0  0  0  0  0  0  0
  153.1362  142.0793  159.9516 C   0  0  0  0  0  0  0  0  0  0  0  0
  152.9258  142.4514  161.2296 C   0  0  0  0  0  0  0  0  0  0  0  0
  152.4585  143.8343  161.6481 C   0  0  0  0  0  0  0  0  0  0  0  0
  151.9131  144.6499  160.4637 C   0  0  0  0  0  0  0  0  0  0  0  0
  152.8169  144.5095  159.2323 C   0  0  0  0  0  0  0  0  0  0  0  0
  152.9389  143.0411  158.7863 C   0  0  0  0  0  0  0  0  0  0  0  0
  153.3563  139.1445  157.7588 N   0  5  0  0  0  0  0  0  0  0  0  0
  152.6939  137.9091  156.9413 S   0  0  0  0  0  0  0  0  0  0  0  0
  153.5498  136.7121  156.9513 O   0  0  0  0  0  0  0  0  0  0  0  0
  151.2821  137.7199  157.3095 O   0  0  0  0  0  0  0  0  0  0  0  0
  152.6958  138.5302  155.1942 C   0  0  0  0  0  0  0  0  0  0  0  0
  151.8241  139.7491  155.0548 C   0  0  0  0  0  0  0  0  0  0  0  0
  151.7140  140.8673  155.9283 C   0  0  0  0  0  0  0  0  0  0  0  0
  150.7958  141.6667  155.3119 C   0  0  0  0  0  0  0  0  0  0  0  0
  150.3781  141.1026  154.1511 O   0  0  0  0  0  0  0  0  0  0  0  0
  151.0424  139.8808  153.9936 N   0  0  0  0  0  0  0  0  0  0  0  0
  153.7728  140.1199  160.5020 H   0  0  0  0  0  0  0  0  0  0  0  0
  154.5602  140.7496  159.0851 H   0  0  0  0  0  0  0  0  0  0  0  0
  153.1031  141.7459  162.0283 H   0  0  0  0  0  0  0  0  0  0  0  0
  151.6911  143.7377  162.4165 H   0  0  0  0  0  0  0  0  0  0  0  0
  153.3032  144.3509  162.1047 H   0  0  0  0  0  0  0  0  0  0  0  0
  150.9100  144.3023  160.2129 H   0  0  0  0  0  0  0  0  0  0  0  0
  151.8143  145.6983  160.7466 H   0  0  0  0  0  0  0  0  0  0  0  0
  152.4368  145.1169  158.4104 H   0  0  0  0  0  0  0  0  0  0  0  0
  153.8074  144.8993  159.4706 H   0  0  0  0  0  0  0  0  0  0  0  0
  153.7720  142.9439  158.0898 H   0  0  0  0  0  0  0  0  0  0  0  0
  152.0404  142.7379  158.2477 H   0  0  0  0  0  0  0  0  0  0  0  0
  153.7179  138.7296  154.8757 H   0  0  0  0  0  0  0  0  0  0  0  0
  152.3221  137.7209  154.5665 H   0  0  0  0  0  0  0  0  0  0  0  0
  152.2228  141.0485  156.8630 H   0  0  0  0  0  0  0  0  0  0  0  0
  150.3591  142.6228  155.5599 H   0  0  0  0  0  0  0  0  0  0  0  0
  1  2  2  0  0  0  0
  2  3  1  0  0  0  0
  2 10  1  0  0  0  0
  3  4  1  0  0  0  0
  3 20  1  0  0  0  0
  3 21  1  0  0  0  0
  4  9  1  0  0  0  0
  4  5  2  0  0  0  0
  5  6  1  0  0  0  0
  5 22  1  0  0  0  0
  6  7  1  0  0  0  0
  6 23  1  0  0  0  0
  6 24  1  0  0  0  0
  7  8  1  0  0  0  0
  7 25  1  0  0  0  0
  7 26  1  0  0  0  0
  8  9  1  0  0  0  0
  8 27  1  0  0  0  0
  8 28  1  0  0  0  0
  9 29  1  0  0  0  0
  9 30  1  0  0  0  0
 10 11  1  0  0  0  0
 11 12  2  0  0  0  0
 11 13  2  0  0  0  0
 11 14  1  0  0  0  0
 14 15  1  0  0  0  0
 14 31  1  0  0  0  0
 14 32  1  0  0  0  0
 15 19  2  0  0  0  0
 15 16  1  0  0  0  0
 16 17  2  0  0  0  0
 16 33  1  0  0  0  0
 17 18  1  0  0  0  0
 17 34  1  0  0  0  0
 18 19  1  0  0  0  0
M  CHG  1  10  -1
M  END
> <s_m_source_file>
AV-unprocessed.smi

> <i_m_source_file_index>
666

> <i_lp_mmshare_version>
43012

> <i_f3d_flags>
0

> <s_epik_input>
W0NIMl0xW0NIMl1bQ0gyXVtDSDJdW0NIXT1DMVtDSDJdQyg9TylbTkhdUyg9TykoPU8pW0NIMl1jMltjSF1bY0hdb24y

> <s_epik_cmdline>
J2VwaWtfcHl0aG9uJywgJy1waCcsICc3LjAnLCAnLXRuJywgJzgnLCAnLW1hJywgJzIwMCcsICctbWV0YWxfYmluZGluZycsICctaW1hZScsICc8aW5maWxlLm1hZT4nLCAnLW9tYWUnLCAnPG91dGZpbGUubWFlPic=

> <r_epik_Ionization_Penalty>
0.000833246

> <r_epik_Ionization_Penalty_Charging>
0.000833246

> <r_epik_Ionization_Penalty_Neutral>
1.62659e-10

> <r_epik_State_Penalty>
0.000536532

> <r_epik_Charging_Adjusted_Penalty>
0.00136978

> <i_epik_Tot_Q>
-1

> <i_epik_Tot_abs_Q>
1

> <r_epik_Metal_State_Penalty>
-0

> <b_epik_Metal_Only>
0

> <s_lp_Force_Field>
OPLS_2005

> <r_lp_Energy>
4.18867

> <b_lp_Chiralities_Consistent>
1

> <s_lp_Variant>
AV-unprocessed.smi:666-1

> <Gold.Version>
5.8.1

> <Gold.Id.Protein>
6NUR|6NUR_protein|mol2

> <Gold.PLP.Fitness>
56.4093

> <Gold.PLP.PLP>
-45.7480

> <Gold.PLP.part.hbond>
-4.0000

> <Gold.PLP.part.metal>
0.0000

> <Gold.PLP.part.buried>
-4.8457

> <Gold.PLP.part.nonpolar>
-36.8637

> <Gold.PLP.part.repulsive>
0.2621

> <Gold.PLP.ligand.clash>
0.0000

> <Gold.PLP.ligand.torsion>
1.1954

> <Gold.PLP.Chemscore.Hbond>
2.9865

> <Gold.PLP.Chemscore.CHOScore>
1.0000

> <Gold.PLP.Chemscore.Metal>
0.0000

> <Gold.Chemscore.Hbonds>
donor molecule, donor type, donor heavy atom, donor atom, acceptor molecule, acceptor atom, score
      P1  H  7997  8010       L1    10  2.00
      P1  H  8011  8017       L1    18  0.20
      P1  H 10752 10765       L1    12  0.87
      L1  C    17    34       P1  8028  0.93

> <Gold.PLP.Chemscore.Internal.Correction>
1.0926

> <Gold.Rescore>
     Score         DG    S(hbond)    S(metal)    S(lipo)     H(rot)  DE(clash)    DE(int)     intcor
     16.87     -19.42       1.68        0.00     108.49       1.70       0.01       2.54       ----

> <Gold.Chemscore.Fitness>
16.8709

> <Gold.Chemscore.DG>
-19.4242

> <Gold.Chemscore.ZeroCoef>
-5.4800

> <Gold.Chemscore.Hbond>
1.6811

> <Gold.Chemscore.Metal>
0.0000

> <Gold.Chemscore.Lipo>
108.4881

> <Gold.Chemscore.Internal_Hbond>
0.0000

> <Gold.Chemscore.DEClash>
0.0147

> <Gold.Chemscore.DEInternal>
2.5386

> <Gold.Chemscore.Rot>
1.7046

> <Gold.Chemscore.Internal.Correction>
   9.000000E+99

> <Gold.Chemscore.Hbonds>
donor molecule, donor type, donor heavy atom, donor atom, acceptor molecule, acceptor atom, score
      P1  H  7997  8010       L1    10  0.77
      P1  H  8011  8017       L1    18  0.19
      P1  H 10752 10765       L1    12  0.78

> <Gold.Chemscore.Hbond.Weighted>
-5.6149

> <Gold.Chemscore.Metal.Weighted>
-0.0000

> <Gold.Chemscore.Lipo.Weighted>
-12.6931

> <Gold.Chemscore.Internal_Hbond.Weighted>
0.0000

> <Gold.Chemscore.DEClash.Weighted>
0.0147

> <Gold.Chemscore.DEInternal.Weighted>
2.5386

> <Gold.Chemscore.Rot.Weighted>
4.3638

> <Gold.Chemscore.Internal.Correction.Weighted>
   9.000000E+99

> <Gold.Protein.RotatedTorsions>
[ 6907 6896 6895 6894 ] final   56.13 input  -60.11 | X-H torsion
[ 7974 7965 7964 7962 ] final -139.59 input  175.53 | X-H torsion
[ 8008 7997 7996 7995 ] final   38.75 input   59.86 | X-H torsion
[ 10167 10162 10161 10158 ] final   28.83 input  -65.29 | X-H torsion
[ 10718 10713 10712 10709 ] final  -69.54 input   66.30 | X-H torsion
[ 10763 10752 10751 10750 ] final -119.32 input  -60.55 | X-H torsion
[ 11005 11000 10999 10996 ] final   91.65 input  -57.11 | X-H torsion

> <Gold.Protein.ActiveResidues>
 VAL166  LYS551  ARG553  GLY616  TRP617  ASP618  TYR619  PRO620  LYS621  CYS622 
 ASP623  PHE694  ASN695  SER759  ASP760  ASP761  ALA762  ILE779  LEU786  VAL792 
 PHE793  MET794  SER795  GLU796  ALA797  LYS798  CYS799  TRP800  GLU811  SER814 

> <Gold.Protein.RotatedAtoms>
  152.3606  134.6877  160.0208 H   0  0  0  0  0  0  0  0  0  0  0  0  # atno 6907 bound_to 6896
  151.7202  133.3309  159.3321 H   0  0  0  0  0  0  0  0  0  0  0  0  # atno 6908 bound_to 6896
  150.7602  134.6389  159.6271 H   0  0  0  0  0  0  0  0  0  0  0  0  # atno 6909 bound_to 6896
  144.8664  140.6300  143.5295 H   0  0  0  0  0  0  0  0  0  0  0  0  # atno 7974 bound_to 7965
  155.2253  140.3334  155.4310 H   0  0  0  0  0  0  0  0  0  0  0  0  # atno 8008 bound_to 7997
  156.2317  140.1853  156.7273 H   0  0  0  0  0  0  0  0  0  0  0  0  # atno 8009 bound_to 7997
  154.5989  140.0626  156.9326 H   0  0  0  0  0  0  0  0  0  0  0  0  # atno 8010 bound_to 7997
  140.4819  144.0603  150.6268 H   0  0  0  0  0  0  0  0  0  0  0  0  # atno 10167 bound_to 10162
  156.0450  130.4314  150.2163 H   0  0  0  0  0  0  0  0  0  0  0  0  # atno 10718 bound_to 10713
  154.8614  135.4242  154.2280 H   0  0  0  0  0  0  0  0  0  0  0  0  # atno 10763 bound_to 10752
  153.3271  135.6986  153.6985 H   0  0  0  0  0  0  0  0  0  0  0  0  # atno 10764 bound_to 10752
  153.6017  135.3536  155.2921 H   0  0  0  0  0  0  0  0  0  0  0  0  # atno 10765 bound_to 10752
  139.8835  134.8687  156.3459 H   0  0  0  0  0  0  0  0  0  0  0  0  # atno 11005 bound_to 11000
  145.4213  139.1563  143.4072 LP  0  0  0  0  0  0  0  0  0  0  0  0  # atno 17320 bound_to 7965
  146.2899  140.4323  142.8743 LP  0  0  0  0  0  0  0  0  0  0  0  0  # atno 17321 bound_to 7965
  140.3847  143.2784  152.0129 LP  0  0  0  0  0  0  0  0  0  0  0  0  # atno 17342 bound_to 10162
  139.4835  144.6126  151.7405 LP  0  0  0  0  0  0  0  0  0  0  0  0  # atno 17343 bound_to 10162
  157.0254  130.9991  151.3328 LP  0  0  0  0  0  0  0  0  0  0  0  0  # atno 17370 bound_to 10713
  157.5315  130.8061  149.7922 LP  0  0  0  0  0  0  0  0  0  0  0  0  # atno 17371 bound_to 10713
  140.9627  133.7378  156.0423 LP  0  0  0  0  0  0  0  0  0  0  0  0  # atno 17394 bound_to 11000
  140.7969  134.3553  157.5450 LP  0  0  0  0  0  0  0  0  0  0  0  0  # atno 17395 bound_to 11000

$$$$
