AV-unprocessed.smi:3335|AV-procd|sdf|12849|dock5
  -GOLD-   2272019243D 1   1.00000     0.00000
 Structure written by MMmdl.
 46 47  0  0  0  0  0  0  0  0  1 V2000
  144.0467  132.5922  149.5063 C   0  0  0  0  0  0  0  0  0  0  0  0
  144.1237  133.6908  150.5270 C   0  0  0  0  0  0  0  0  0  0  0  0
  143.3443  133.8393  151.7089 C   0  0  0  0  0  0  0  0  0  0  0  0
  143.6589  134.9222  152.3999 N   0  0  0  0  0  0  0  0  0  0  0  0
  144.6478  135.5058  151.6860 N   0  0  0  0  0  0  0  0  0  0  0  0
  145.2525  136.7501  152.1457 C   0  0  2  0  0  0  0  0  0  0  0  0
  146.2613  137.2626  151.0995 C   0  0  0  0  0  0  0  0  0  0  0  0
  145.8718  136.6061  153.5631 C   0  0  2  0  0  0  0  0  0  0  0  0
  146.5967  137.8765  154.0473 C   0  0  0  0  0  0  0  0  0  0  0  0
  146.8599  135.5267  153.5482 N   0  0  0  0  0  0  0  0  0  0  0  0
  147.4183  135.1843  154.8696 C   0  0  1  0  0  0  0  0  0  0  0  0
  146.2753  134.8765  155.8483 C   0  0  0  0  0  0  0  0  0  0  0  0
  148.4021  133.9935  154.8197 C   0  0  0  0  0  0  0  0  0  0  0  0
  149.5471  134.1541  155.2457 O   0  0  0  0  0  0  0  0  0  0  0  0
  147.9913  132.8095  154.3153 N   0  0  0  0  0  0  0  0  0  0  0  0
  148.8485  131.6263  154.2573 C   0  0  0  0  0  0  0  0  0  0  0  0
  147.9364  130.4696  153.8488 C   0  0  0  0  0  0  0  0  0  0  0  0
  146.8046  131.1426  153.0865 C   0  0  0  0  0  0  0  0  0  0  0  0
  146.6766  132.5162  153.7449 C   0  0  0  0  0  0  0  0  0  0  0  0
  144.9479  134.7801  150.5520 C   0  0  0  0  0  0  0  0  0  0  0  0
  144.2653  131.6194  149.9469 H   0  0  0  0  0  0  0  0  0  0  0  0
  144.7564  132.7426  148.6925 H   0  0  0  0  0  0  0  0  0  0  0  0
  143.0545  132.5281  149.0594 H   0  0  0  0  0  0  0  0  0  0  0  0
  142.5626  133.1945  152.0831 H   0  0  0  0  0  0  0  0  0  0  0  0
  144.4433  137.4803  152.2040 H   0  0  0  0  0  0  0  0  0  0  0  0
  146.6050  138.2689  151.3379 H   0  0  0  0  0  0  0  0  0  0  0  0
  145.8100  137.3048  150.1079 H   0  0  0  0  0  0  0  0  0  0  0  0
  147.1385  136.6172  151.0387 H   0  0  0  0  0  0  0  0  0  0  0  0
  145.0676  136.3959  154.2702 H   0  0  0  0  0  0  0  0  0  0  0  0
  145.9076  138.7126  154.1656 H   0  0  0  0  0  0  0  0  0  0  0  0
  147.3740  138.1834  153.3466 H   0  0  0  0  0  0  0  0  0  0  0  0
  147.0677  137.7180  155.0179 H   0  0  0  0  0  0  0  0  0  0  0  0
  147.5905  135.7389  152.8837 H   0  0  0  0  0  0  0  0  0  0  0  0
  147.9272  136.0743  155.2356 H   0  0  0  0  0  0  0  0  0  0  0  0
  146.6562  134.6569  156.8465 H   0  0  0  0  0  0  0  0  0  0  0  0
  145.6858  134.0189  155.5207 H   0  0  0  0  0  0  0  0  0  0  0  0
  145.5993  135.7276  155.9384 H   0  0  0  0  0  0  0  0  0  0  0  0
  149.6238  131.7861  153.5065 H   0  0  0  0  0  0  0  0  0  0  0  0
  149.3372  131.4260  155.2122 H   0  0  0  0  0  0  0  0  0  0  0  0
  148.4525  129.7111  153.2596 H   0  0  0  0  0  0  0  0  0  0  0  0
  147.5370  129.9859  154.7412 H   0  0  0  0  0  0  0  0  0  0  0  0
  147.0909  131.2635  152.0409 H   0  0  0  0  0  0  0  0  0  0  0  0
  145.8760  130.5717  153.1149 H   0  0  0  0  0  0  0  0  0  0  0  0
  145.9390  132.4847  154.5483 H   0  0  0  0  0  0  0  0  0  0  0  0
  146.3633  133.2679  153.0189 H   0  0  0  0  0  0  0  0  0  0  0  0
  145.7152  135.0971  149.8609 H   0  0  0  0  0  0  0  0  0  0  0  0
  1  2  1  0  0  0  0
  1 21  1  0  0  0  0
  1 22  1  0  0  0  0
  1 23  1  0  0  0  0
  2 20  2  0  0  0  0
  2  3  1  0  0  0  0
  3  4  2  0  0  0  0
  3 24  1  0  0  0  0
  4  5  1  0  0  0  0
  5  6  1  0  0  0  0
  5 20  1  0  0  0  0
  6  7  1  0  0  0  0
  6  8  1  0  0  0  0
  6 25  1  0  0  0  0
  7 26  1  0  0  0  0
  7 27  1  0  0  0  0
  7 28  1  0  0  0  0
  8  9  1  0  0  0  0
  8 10  1  0  0  0  0
  8 29  1  0  0  0  0
  9 30  1  0  0  0  0
  9 31  1  0  0  0  0
  9 32  1  0  0  0  0
 10 11  1  0  0  0  0
 10 33  1  0  0  0  0
 11 12  1  0  0  0  0
 11 13  1  0  0  0  0
 11 34  1  0  0  0  0
 12 35  1  0  0  0  0
 12 36  1  0  0  0  0
 12 37  1  0  0  0  0
 13 14  2  0  0  0  0
 13 15  1  0  0  0  0
 15 19  1  0  0  0  0
 15 16  1  0  0  0  0
 16 17  1  0  0  0  0
 16 38  1  0  0  0  0
 16 39  1  0  0  0  0
 17 18  1  0  0  0  0
 17 40  1  0  0  0  0
 17 41  1  0  0  0  0
 18 19  1  0  0  0  0
 18 42  1  0  0  0  0
 18 43  1  0  0  0  0
 19 44  1  0  0  0  0
 19 45  1  0  0  0  0
 20 46  1  0  0  0  0
M  END
> <s_m_source_file>
AV-unprocessed.smi

> <i_m_source_file_index>
3335

> <i_lp_mmshare_version>
43012

> <i_f3d_flags>
0

> <s_epik_input>
W0NIM11jMVtjSF1ubihbY0hdMSlbQ0BIXShbQ0gzXSlbQ0BIXShbQ0gzXSlbTkhdW0NASF0oW0NIM10pQyg9TylOMltDSDJdW0NIMl1bQ0gyXVtDSDJdMg==

> <s_epik_cmdline>
J2VwaWtfcHl0aG9uJywgJy1waCcsICc3LjAnLCAnLXRuJywgJzgnLCAnLW1hJywgJzIwMCcsICctbWV0YWxfYmluZGluZycsICctaW1hZScsICc8aW5maWxlLm1hZT4nLCAnLW9tYWUnLCAnPG91dGZpbGUubWFlPic=

> <r_lp_tautomer_probability>
1

> <r_epik_Ionization_Penalty>
0.918803

> <r_epik_Ionization_Penalty_Charging>
0

> <r_epik_Ionization_Penalty_Neutral>
0.918803

> <r_epik_State_Penalty>
0.958258

> <r_epik_Charging_Adjusted_Penalty>
0.958258

> <i_epik_Tot_Q>
0

> <i_epik_Tot_abs_Q>
0

> <r_epik_Metal_State_Penalty>
0.956786

> <b_epik_Metal_Only>
0

> <s_lp_Force_Field>
OPLS_2005

> <r_lp_Energy>
37.1763

> <b_lp_Chiralities_Consistent>
1

> <s_lp_Variant>
AV-unprocessed.smi:3335-13

> <Gold.Version>
5.8.1

> <Gold.Id.Protein>
6NUR|6NUR_protein|mol2

> <Gold.PLP.Fitness>
38.4156

> <Gold.PLP.PLP>
-29.7812

> <Gold.PLP.part.hbond>
-1.0000

> <Gold.PLP.part.metal>
0.0000

> <Gold.PLP.part.buried>
-0.7335

> <Gold.PLP.part.nonpolar>
-29.5381

> <Gold.PLP.part.repulsive>
0.2489

> <Gold.PLP.ligand.clash>
0.0000

> <Gold.PLP.ligand.torsion>
0.1359

> <Gold.PLP.Chemscore.Hbond>
1.0000

> <Gold.PLP.Chemscore.CHOScore>
1.9436

> <Gold.PLP.Chemscore.Metal>
0.0000

> <Gold.Chemscore.Hbonds>
donor molecule, donor type, donor heavy atom, donor atom, acceptor molecule, acceptor atom, score
      L1  H    10    33       P1  7948  1.00
      L1  C    20    46       P1  7921  1.00

> <Gold.PLP.Chemscore.Internal.Correction>
0.0756

> <Gold.Rescore>
     Score         DG    S(hbond)    S(metal)    S(lipo)     H(rot)  DE(clash)    DE(int)     intcor
     12.51     -12.96       1.00        0.00      70.84       1.62       0.33       0.12       ----

> <Gold.Chemscore.Fitness>
12.5136

> <Gold.Chemscore.DG>
-12.9587

> <Gold.Chemscore.ZeroCoef>
-5.4800

> <Gold.Chemscore.Hbond>
0.9994

> <Gold.Chemscore.Metal>
0.0000

> <Gold.Chemscore.Lipo>
70.8436

> <Gold.Chemscore.Internal_Hbond>
0.0000

> <Gold.Chemscore.DEClash>
0.3252

> <Gold.Chemscore.DEInternal>
0.1198

> <Gold.Chemscore.Rot>
1.6204

> <Gold.Chemscore.Internal.Correction>
   9.000000E+99

> <Gold.Chemscore.Hbonds>
donor molecule, donor type, donor heavy atom, donor atom, acceptor molecule, acceptor atom, score
      L1  H    10    33       P1  7948  1.00

> <Gold.Chemscore.Hbond.Weighted>
-3.3381

> <Gold.Chemscore.Metal.Weighted>
-0.0000

> <Gold.Chemscore.Lipo.Weighted>
-8.2887

> <Gold.Chemscore.Internal_Hbond.Weighted>
0.0000

> <Gold.Chemscore.DEClash.Weighted>
0.3252

> <Gold.Chemscore.DEInternal.Weighted>
0.1198

> <Gold.Chemscore.Rot.Weighted>
4.1482

> <Gold.Chemscore.Internal.Correction.Weighted>
   9.000000E+99

> <Gold.Protein.RotatedTorsions>
[ 6907 6896 6895 6894 ] final  146.37 input  -60.11 | X-H torsion
[ 7974 7965 7964 7962 ] final  -43.25 input  175.53 | X-H torsion
[ 8008 7997 7996 7995 ] final   10.29 input   59.86 | X-H torsion
[ 10167 10162 10161 10158 ] final -146.54 input  -65.29 | X-H torsion
[ 10718 10713 10712 10709 ] final  -45.09 input   66.30 | X-H torsion
[ 10763 10752 10751 10750 ] final  -18.79 input  -60.55 | X-H torsion
[ 11005 11000 10999 10996 ] final   22.38 input  -57.11 | X-H torsion

> <Gold.Protein.ActiveResidues>
 VAL166  LYS551  ARG553  GLY616  TRP617  ASP618  TYR619  PRO620  LYS621  CYS622 
 ASP623  PHE694  ASN695  SER759  ASP760  ASP761  ALA762  ILE779  LEU786  VAL792 
 PHE793  MET794  SER795  GLU796  ALA797  LYS798  CYS799  TRP800  GLU811  SER814 

> <Gold.Protein.RotatedAtoms>
  152.1688  133.4630  159.4898 H   0  0  0  0  0  0  0  0  0  0  0  0  # atno 6907 bound_to 6896
  150.6917  134.1979  159.4319 H   0  0  0  0  0  0  0  0  0  0  0  0  # atno 6908 bound_to 6896
  151.9885  134.9991  160.0611 H   0  0  0  0  0  0  0  0  0  0  0  0  # atno 6909 bound_to 6896
  146.0037  140.7044  142.9258 H   0  0  0  0  0  0  0  0  0  0  0  0  # atno 7974 bound_to 7965
  154.7915  140.2836  155.5988 H   0  0  0  0  0  0  0  0  0  0  0  0  # atno 8008 bound_to 7997
  156.2965  140.2604  156.2692 H   0  0  0  0  0  0  0  0  0  0  0  0  # atno 8009 bound_to 7997
  154.9665  140.0377  157.2204 H   0  0  0  0  0  0  0  0  0  0  0  0  # atno 8010 bound_to 7997
  139.7704  143.8246  152.2623 H   0  0  0  0  0  0  0  0  0  0  0  0  # atno 10167 bound_to 10162
  156.2318  130.4173  149.8865 H   0  0  0  0  0  0  0  0  0  0  0  0  # atno 10718 bound_to 10713
  153.5948  135.7001  153.5408 H   0  0  0  0  0  0  0  0  0  0  0  0  # atno 10763 bound_to 10752
  153.3147  135.4091  155.1366 H   0  0  0  0  0  0  0  0  0  0  0  0  # atno 10764 bound_to 10752
  154.8594  135.3681  154.5481 H   0  0  0  0  0  0  0  0  0  0  0  0  # atno 10765 bound_to 10752
  140.3812  134.1919  155.7663 H   0  0  0  0  0  0  0  0  0  0  0  0  # atno 11005 bound_to 11000
  144.6928  140.3278  143.7221 LP  0  0  0  0  0  0  0  0  0  0  0  0  # atno 17320 bound_to 7965
  145.7448  139.1775  143.2355 LP  0  0  0  0  0  0  0  0  0  0  0  0  # atno 17321 bound_to 7965
  139.8279  144.7267  150.9488 LP  0  0  0  0  0  0  0  0  0  0  0  0  # atno 17342 bound_to 10162
  140.7813  143.4097  151.1012 LP  0  0  0  0  0  0  0  0  0  0  0  0  # atno 17343 bound_to 10162
  156.6477  130.8730  151.3525 LP  0  0  0  0  0  0  0  0  0  0  0  0  # atno 17370 bound_to 10713
  157.7136  130.9470  150.1177 LP  0  0  0  0  0  0  0  0  0  0  0  0  # atno 17371 bound_to 10713
  141.1923  133.8176  157.0845 LP  0  0  0  0  0  0  0  0  0  0  0  0  # atno 17394 bound_to 11000
  140.0477  134.9821  157.1080 LP  0  0  0  0  0  0  0  0  0  0  0  0  # atno 17395 bound_to 11000

$$$$
