AV-unprocessed.smi:1846|AV-procd|sdf|7514|dock2
  -GOLD-   22720 9223D 1   1.00000     0.00000
 Structure written by MMmdl.
 37 38  0  0  0  0  0  0  0  0  1 V2000
  153.9961  136.9180  164.2272 C   0  0  0  0  0  0  0  0  0  0  0  0
  154.0876  136.3874  162.7890 C   0  0  0  0  0  0  0  0  0  0  0  0
  154.4305  137.4518  161.8347 N   0  0  0  0  0  0  0  0  0  0  0  0
  155.6334  138.2197  162.1856 C   0  0  0  0  0  0  0  0  0  0  0  0
  156.8836  137.3274  162.2314 C   0  0  0  0  0  0  0  0  0  0  0  0
  153.6778  137.6701  160.7263 C   0  0  0  0  0  0  0  0  0  0  0  0
  152.6690  137.0025  160.4860 O   0  0  0  0  0  0  0  0  0  0  0  0
  154.1100  138.7631  159.7266 C   0  0  0  0  0  0  0  0  0  0  0  0
  153.7718  140.1440  160.2156 C   0  0  0  0  0  0  0  0  0  0  0  0
  154.1046  140.6951  161.4290 C   0  0  0  0  0  0  0  0  0  0  0  0
  153.5238  142.3302  161.5853 S   0  0  0  0  0  0  0  0  0  0  0  0
  152.8264  142.2009  159.9679 C   0  0  0  0  0  0  0  0  0  0  0  0
  152.1002  143.2145  159.2753 N   0  0  0  0  0  0  0  0  0  0  0  0
  152.1895  144.6197  159.6592 C   0  0  0  0  0  0  0  0  0  0  0  0
  151.2766  145.3295  158.6644 C   0  0  0  0  0  0  0  0  0  0  0  0
  150.7908  144.2322  157.8614 N   0  0  0  0  0  0  0  0  0  0  0  0
  151.2702  143.0414  158.2275 C   0  0  0  0  0  0  0  0  0  0  0  0
  150.9770  141.9833  157.6744 O   0  0  0  0  0  0  0  0  0  0  0  0
  153.0356  141.0090  159.3992 N   0  0  0  0  0  0  0  0  0  0  0  0
  153.7277  136.1181  164.9171 H   0  0  0  0  0  0  0  0  0  0  0  0
  153.2375  137.6966  164.3108 H   0  0  0  0  0  0  0  0  0  0  0  0
  154.9453  137.3370  164.5620 H   0  0  0  0  0  0  0  0  0  0  0  0
  154.8225  135.5822  162.7375 H   0  0  0  0  0  0  0  0  0  0  0  0
  153.1396  135.9230  162.5141 H   0  0  0  0  0  0  0  0  0  0  0  0
  155.7877  139.0160  161.4558 H   0  0  0  0  0  0  0  0  0  0  0  0
  155.5071  138.7397  163.1353 H   0  0  0  0  0  0  0  0  0  0  0  0
  157.7649  137.9127  162.4946 H   0  0  0  0  0  0  0  0  0  0  0  0
  157.0719  136.8665  161.2615 H   0  0  0  0  0  0  0  0  0  0  0  0
  156.7890  136.5266  162.9639 H   0  0  0  0  0  0  0  0  0  0  0  0
  155.1808  138.7030  159.5383 H   0  0  0  0  0  0  0  0  0  0  0  0
  153.6157  138.5728  158.7735 H   0  0  0  0  0  0  0  0  0  0  0  0
  154.6621  140.2418  162.2351 H   0  0  0  0  0  0  0  0  0  0  0  0
  151.8474  144.7616  160.6854 H   0  0  0  0  0  0  0  0  0  0  0  0
  153.2176  144.9763  159.5820 H   0  0  0  0  0  0  0  0  0  0  0  0
  150.4495  145.8401  159.1589 H   0  0  0  0  0  0  0  0  0  0  0  0
  151.8202  146.0459  158.0474 H   0  0  0  0  0  0  0  0  0  0  0  0
  150.1448  144.3658  157.0968 H   0  0  0  0  0  0  0  0  0  0  0  0
  1  2  1  0  0  0  0
  1 20  1  0  0  0  0
  1 21  1  0  0  0  0
  1 22  1  0  0  0  0
  2  3  1  0  0  0  0
  2 23  1  0  0  0  0
  2 24  1  0  0  0  0
  3  4  1  0  0  0  0
  3  6  1  0  0  0  0
  4  5  1  0  0  0  0
  4 25  1  0  0  0  0
  4 26  1  0  0  0  0
  5 27  1  0  0  0  0
  5 28  1  0  0  0  0
  5 29  1  0  0  0  0
  6  7  2  0  0  0  0
  6  8  1  0  0  0  0
  8  9  1  0  0  0  0
  8 30  1  0  0  0  0
  8 31  1  0  0  0  0
  9 19  1  0  0  0  0
  9 10  2  0  0  0  0
 10 11  1  0  0  0  0
 10 32  1  0  0  0  0
 11 12  1  0  0  0  0
 12 13  1  0  0  0  0
 12 19  2  0  0  0  0
 13 17  1  0  0  0  0
 13 14  1  0  0  0  0
 14 15  1  0  0  0  0
 14 33  1  0  0  0  0
 14 34  1  0  0  0  0
 15 16  1  0  0  0  0
 15 35  1  0  0  0  0
 15 36  1  0  0  0  0
 16 17  1  0  0  0  0
 16 37  1  0  0  0  0
 17 18  2  0  0  0  0
M  END
> <s_m_source_file>
AV-unprocessed.smi

> <i_m_source_file_index>
1846

> <i_lp_mmshare_version>
43012

> <i_f3d_flags>
0

> <s_epik_input>
W0NIM11bQ0gyXU4oW0NIMl1bQ0gzXSlDKD1PKVtDSDJdYzFbY0hdc2MobjEpTjJbQ0gyXVtDSDJdW05IXUMyPU8=

> <s_epik_cmdline>
J2VwaWtfcHl0aG9uJywgJy1waCcsICc3LjAnLCAnLXRuJywgJzgnLCAnLW1hJywgJzIwMCcsICctbWV0YWxfYmluZGluZycsICctaW1hZScsICc8aW5maWxlLm1hZT4nLCAnLW9tYWUnLCAnPG91dGZpbGUubWFlPic=

> <r_lp_tautomer_probability>
1

> <r_epik_Ionization_Penalty>
0.000125664

> <r_epik_Ionization_Penalty_Charging>
0

> <r_epik_Ionization_Penalty_Neutral>
0.000125664

> <r_epik_State_Penalty>
-0

> <r_epik_Charging_Adjusted_Penalty>
0

> <i_epik_Tot_Q>
0

> <i_epik_Tot_abs_Q>
0

> <r_epik_Metal_State_Penalty>
-0

> <b_epik_Metal_Only>
0

> <s_lp_Force_Field>
OPLS_2005

> <r_lp_Energy>
40.7708

> <b_lp_Chiralities_Consistent>
1

> <s_lp_Variant>
AV-unprocessed.smi:1846-1

> <Gold.Version>
5.8.1

> <Gold.Id.Protein>
6NUR|6NUR_protein|mol2

> <Gold.PLP.Fitness>
47.2669

> <Gold.PLP.PLP>
-42.8774

> <Gold.PLP.part.hbond>
-1.6334

> <Gold.PLP.part.metal>
0.0000

> <Gold.PLP.part.buried>
-5.8515

> <Gold.PLP.part.nonpolar>
-35.3433

> <Gold.PLP.part.repulsive>
0.0635

> <Gold.PLP.ligand.clash>
0.0000

> <Gold.PLP.ligand.torsion>
0.4817

> <Gold.PLP.Chemscore.Hbond>
1.7475

> <Gold.PLP.Chemscore.CHOScore>
0.0000

> <Gold.PLP.Chemscore.Metal>
0.0000

> <Gold.Chemscore.Hbonds>
donor molecule, donor type, donor heavy atom, donor atom, acceptor molecule, acceptor atom, score
      L1  H    16    37       P1  8028  1.00
      P1  H  6896  6907       L1     7  0.83

> <Gold.PLP.Chemscore.Internal.Correction>
0.1104

> <Gold.Rescore>
     Score         DG    S(hbond)    S(metal)    S(lipo)     H(rot)  DE(clash)    DE(int)     intcor
     15.20     -17.13       1.99        0.00      79.08       1.66       0.00       1.93       ----

> <Gold.Chemscore.Fitness>
15.1986

> <Gold.Chemscore.DG>
-17.1275

> <Gold.Chemscore.ZeroCoef>
-5.4800

> <Gold.Chemscore.Hbond>
1.9878

> <Gold.Chemscore.Metal>
0.0000

> <Gold.Chemscore.Lipo>
79.0844

> <Gold.Chemscore.Internal_Hbond>
0.0000

> <Gold.Chemscore.DEClash>
0.0029

> <Gold.Chemscore.DEInternal>
1.9261

> <Gold.Chemscore.Rot>
1.6581

> <Gold.Chemscore.Internal.Correction>
   9.000000E+99

> <Gold.Chemscore.Hbonds>
donor molecule, donor type, donor heavy atom, donor atom, acceptor molecule, acceptor atom, score
      L1  H    16    37       P1  8028  0.74
      P1  H  6896  6907       L1     7  0.82

> <Gold.Chemscore.Hbond.Weighted>
-6.6393

> <Gold.Chemscore.Metal.Weighted>
-0.0000

> <Gold.Chemscore.Lipo.Weighted>
-9.2529

> <Gold.Chemscore.Internal_Hbond.Weighted>
0.0000

> <Gold.Chemscore.DEClash.Weighted>
0.0029

> <Gold.Chemscore.DEInternal.Weighted>
1.9261

> <Gold.Chemscore.Rot.Weighted>
4.2447

> <Gold.Chemscore.Internal.Correction.Weighted>
   9.000000E+99

> <Gold.Protein.RotatedTorsions>
[ 6907 6896 6895 6894 ] final   29.09 input  -60.11 | X-H torsion
[ 7974 7965 7964 7962 ] final  122.50 input  175.53 | X-H torsion
[ 8008 7997 7996 7995 ] final  154.76 input   59.86 | X-H torsion
[ 10167 10162 10161 10158 ] final -122.88 input  -65.29 | X-H torsion
[ 10718 10713 10712 10709 ] final  -38.92 input   66.30 | X-H torsion
[ 10763 10752 10751 10750 ] final -119.77 input  -60.55 | X-H torsion
[ 11005 11000 10999 10996 ] final  -31.28 input  -57.11 | X-H torsion

> <Gold.Protein.ActiveResidues>
 VAL166  LYS551  ARG553  GLY616  TRP617  ASP618  TYR619  PRO620  LYS621  CYS622 
 ASP623  PHE694  ASN695  SER759  ASP760  ASP761  ALA762  ILE779  LEU786  VAL792 
 PHE793  MET794  SER795  GLU796  ALA797  LYS798  CYS799  TRP800  GLU811  SER814 

> <Gold.Protein.RotatedAtoms>
  152.0264  134.9793  160.0571 H   0  0  0  0  0  0  0  0  0  0  0  0  # atno 6907 bound_to 6896
  152.1287  133.4390  159.4718 H   0  0  0  0  0  0  0  0  0  0  0  0  # atno 6908 bound_to 6896
  150.6854  134.2366  159.4499 H   0  0  0  0  0  0  0  0  0  0  0  0  # atno 6909 bound_to 6896
  145.1069  139.3480  143.4783 H   0  0  0  0  0  0  0  0  0  0  0  0  # atno 7974 bound_to 7965
  156.2514  140.1958  156.6697 H   0  0  0  0  0  0  0  0  0  0  0  0  # atno 8008 bound_to 7997
  154.6402  140.0584  156.9862 H   0  0  0  0  0  0  0  0  0  0  0  0  # atno 8009 bound_to 7997
  155.1574  140.3257  155.4421 H   0  0  0  0  0  0  0  0  0  0  0  0  # atno 8010 bound_to 7997
  140.0095  143.5456  152.2269 H   0  0  0  0  0  0  0  0  0  0  0  0  # atno 10167 bound_to 10162
  156.2983  130.4237  149.8168 H   0  0  0  0  0  0  0  0  0  0  0  0  # atno 10718 bound_to 10713
  154.8626  135.4226  154.2352 H   0  0  0  0  0  0  0  0  0  0  0  0  # atno 10763 bound_to 10752
  153.3329  135.6989  153.6938 H   0  0  0  0  0  0  0  0  0  0  0  0  # atno 10764 bound_to 10752
  153.5947  135.3548  155.2897 H   0  0  0  0  0  0  0  0  0  0  0  0  # atno 10765 bound_to 10752
  140.9454  133.7253  156.1139 H   0  0  0  0  0  0  0  0  0  0  0  0  # atno 11005 bound_to 11000
  146.3528  140.0970  142.8610 LP  0  0  0  0  0  0  0  0  0  0  0  0  # atno 17320 bound_to 7965
  145.0892  140.9273  143.4779 LP  0  0  0  0  0  0  0  0  0  0  0  0  # atno 17321 bound_to 7965
  139.6215  144.7630  151.2730 LP  0  0  0  0  0  0  0  0  0  0  0  0  # atno 17342 bound_to 10162
  140.7387  143.6640  150.8139 LP  0  0  0  0  0  0  0  0  0  0  0  0  # atno 17343 bound_to 10162
  156.5556  130.8361  151.3313 LP  0  0  0  0  0  0  0  0  0  0  0  0  # atno 17370 bound_to 10713
  157.7361  130.9773  150.2119 LP  0  0  0  0  0  0  0  0  0  0  0  0  # atno 17371 bound_to 10713
  140.7676  134.3869  157.5514 LP  0  0  0  0  0  0  0  0  0  0  0  0  # atno 17394 bound_to 11000
  139.8832  134.9001  156.2782 LP  0  0  0  0  0  0  0  0  0  0  0  0  # atno 17395 bound_to 11000

$$$$
