AV-unprocessed.smi:927|AV-procd|sdf|4190|dock3
  -GOLD-   22720 2 93D 1   1.00000     0.00000
 Structure written by MMmdl.
 20 20  0  0  0  0  0  0  0  0  1 V2000
  150.8965  143.9621  157.3123 N   0  0  0  0  0  0  0  0  0  0  0  0
  150.7667  144.4091  158.7082 C   0  0  0  0  0  0  0  0  0  0  0  0
  152.0905  144.9299  159.2955 C   0  0  1  0  0  0  0  0  0  0  0  0
  151.8205  146.1109  160.0244 O   0  0  0  0  0  0  0  0  0  0  0  0
  152.7465  143.8792  160.1784 C   0  0  0  0  0  0  0  0  0  0  0  0
  153.0232  144.1373  161.5386 C   0  0  0  0  0  0  0  0  0  0  0  0
  153.6249  143.1226  162.3092 C   0  0  0  0  0  0  0  0  0  0  0  0
  153.9513  141.9100  161.8133 N   0  0  0  0  0  0  0  0  0  0  0  0
  153.6830  141.6676  160.5124 C   0  0  0  0  0  0  0  0  0  0  0  0
  153.0844  142.6131  159.6557 C   0  0  0  0  0  0  0  0  0  0  0  0
  150.7122  142.9626  157.2392 H   0  0  0  0  0  0  0  0  0  0  0  0
  150.2147  144.4361  156.7217 H   0  0  0  0  0  0  0  0  0  0  0  0
  149.9881  145.1680  158.7952 H   0  0  0  0  0  0  0  0  0  0  0  0
  150.4302  143.5622  159.3071 H   0  0  0  0  0  0  0  0  0  0  0  0
  152.7771  145.1832  158.4863 H   0  0  0  0  0  0  0  0  0  0  0  0
  150.9226  146.3597  159.8677 H   0  0  0  0  0  0  0  0  0  0  0  0
  152.7792  145.0904  161.9846 H   0  0  0  0  0  0  0  0  0  0  0  0
  153.8487  143.2895  163.3524 H   0  0  0  0  0  0  0  0  0  0  0  0
  153.9527  140.6896  160.1423 H   0  0  0  0  0  0  0  0  0  0  0  0
  152.8899  142.3666  158.6223 H   0  0  0  0  0  0  0  0  0  0  0  0
  1  2  1  0  0  0  0
  1 11  1  0  0  0  0
  1 12  1  0  0  0  0
  2  3  1  0  0  0  0
  2 13  1  0  0  0  0
  2 14  1  0  0  0  0
  3  4  1  0  0  0  0
  3  5  1  0  0  0  0
  3 15  1  0  0  0  0
  4 16  1  0  0  0  0
  5 10  1  0  0  0  0
  5  6  2  0  0  0  0
  6  7  1  0  0  0  0
  6 17  1  0  0  0  0
  7  8  2  0  0  0  0
  7 18  1  0  0  0  0
  8  9  1  0  0  0  0
  9 10  2  0  0  0  0
  9 19  1  0  0  0  0
 10 20  1  0  0  0  0
M  END
> <s_m_source_file>
AV-unprocessed.smi

> <i_m_source_file_index>
927

> <i_lp_mmshare_version>
43012

> <i_f3d_flags>
0

> <s_epik_input>
W05IMl1bQ0gyXVtDQEhdKFtPSF0pYzFbY0hdW2NIXW5bY0hdW2NIXTE=

> <s_epik_cmdline>
J2VwaWtfcHl0aG9uJywgJy1waCcsICc3LjAnLCAnLXRuJywgJzgnLCAnLW1hJywgJzIwMCcsICctbWV0YWxfYmluZGluZycsICctaW1hZScsICc8aW5maWxlLm1hZT4nLCAnLW9tYWUnLCAnPG91dGZpbGUubWFlPic=

> <r_epik_Ionization_Penalty>
2.24668

> <r_epik_Ionization_Penalty_Charging>
0

> <r_epik_Ionization_Penalty_Neutral>
2.24668

> <r_epik_State_Penalty>
2.36938

> <r_epik_Charging_Adjusted_Penalty>
2.36938

> <i_epik_Tot_Q>
0

> <i_epik_Tot_abs_Q>
0

> <r_epik_Metal_State_Penalty>
2.3492

> <b_epik_Metal_Only>
0

> <s_lp_Force_Field>
OPLS_2005

> <r_lp_Energy>
12.0252

> <b_lp_Chiralities_Consistent>
1

> <s_lp_Variant>
AV-unprocessed.smi:927-4

> <Gold.Version>
5.8.1

> <Gold.Id.Protein>
6NUR|6NUR_protein|mol2

> <Gold.PLP.Fitness>
35.4183

> <Gold.PLP.PLP>
-33.6110

> <Gold.PLP.part.hbond>
-2.8435

> <Gold.PLP.part.metal>
0.0000

> <Gold.PLP.part.buried>
-6.0645

> <Gold.PLP.part.nonpolar>
-24.0029

> <Gold.PLP.part.repulsive>
0.0127

> <Gold.PLP.ligand.clash>
0.0000

> <Gold.PLP.ligand.torsion>
0.5974

> <Gold.PLP.Chemscore.Hbond>
1.0000

> <Gold.PLP.Chemscore.CHOScore>
0.0000

> <Gold.PLP.Chemscore.Metal>
0.0000

> <Gold.Chemscore.Hbonds>
donor molecule, donor type, donor heavy atom, donor atom, acceptor molecule, acceptor atom, score
      L1  H     1    12       P1  8028  1.00

> <Gold.PLP.Chemscore.Internal.Correction>
0.0021

> <Gold.Rescore>
     Score         DG    S(hbond)    S(metal)    S(lipo)     H(rot)  DE(clash)    DE(int)     intcor
     13.12     -13.83       1.00        0.00      83.30       1.85       0.00       0.71       ----

> <Gold.Chemscore.Fitness>
13.1200

> <Gold.Chemscore.DG>
-13.8309

> <Gold.Chemscore.ZeroCoef>
-5.4800

> <Gold.Chemscore.Hbond>
0.9968

> <Gold.Chemscore.Metal>
0.0000

> <Gold.Chemscore.Lipo>
83.2990

> <Gold.Chemscore.Internal_Hbond>
0.0000

> <Gold.Chemscore.DEClash>
0.0038

> <Gold.Chemscore.DEInternal>
0.7071

> <Gold.Chemscore.Rot>
1.8455

> <Gold.Chemscore.Internal.Correction>
   9.000000E+99

> <Gold.Chemscore.Hbonds>
donor molecule, donor type, donor heavy atom, donor atom, acceptor molecule, acceptor atom, score
      L1  H     1    12       P1  8028  0.93

> <Gold.Chemscore.Hbond.Weighted>
-3.3294

> <Gold.Chemscore.Metal.Weighted>
-0.0000

> <Gold.Chemscore.Lipo.Weighted>
-9.7460

> <Gold.Chemscore.Internal_Hbond.Weighted>
0.0000

> <Gold.Chemscore.DEClash.Weighted>
0.0038

> <Gold.Chemscore.DEInternal.Weighted>
0.7071

> <Gold.Chemscore.Rot.Weighted>
4.7245

> <Gold.Chemscore.Internal.Correction.Weighted>
   9.000000E+99

> <Gold.Protein.RotatedTorsions>
[ 6907 6896 6895 6894 ] final  -98.98 input  -60.11 | X-H torsion
[ 7974 7965 7964 7962 ] final  -37.28 input  175.53 | X-H torsion
[ 8008 7997 7996 7995 ] final  153.80 input   59.86 | X-H torsion
[ 10167 10162 10161 10158 ] final   91.85 input  -65.29 | X-H torsion
[ 10718 10713 10712 10709 ] final   82.86 input   66.30 | X-H torsion
[ 10763 10752 10751 10750 ] final  -51.62 input  -60.55 | X-H torsion
[ 11005 11000 10999 10996 ] final  -98.44 input  -57.11 | X-H torsion

> <Gold.Protein.ActiveResidues>
 VAL166  LYS551  ARG553  GLY616  TRP617  ASP618  TYR619  PRO620  LYS621  CYS622 
 ASP623  PHE694  ASN695  SER759  ASP760  ASP761  ALA762  ILE779  LEU786  VAL792 
 PHE793  MET794  SER795  GLU796  ALA797  LYS798  CYS799  TRP800  GLU811  SER814 

> <Gold.Protein.RotatedAtoms>
  150.7064  134.1110  159.4000 H   0  0  0  0  0  0  0  0  0  0  0  0  # atno 6907 bound_to 6896
  151.9097  135.0342  160.0522 H   0  0  0  0  0  0  0  0  0  0  0  0  # atno 6908 bound_to 6896
  152.2346  133.5050  159.5272 H   0  0  0  0  0  0  0  0  0  0  0  0  # atno 6909 bound_to 6896
  146.0588  140.6378  142.9007 H   0  0  0  0  0  0  0  0  0  0  0  0  # atno 7974 bound_to 7965
  156.2563  140.1984  156.6547 H   0  0  0  0  0  0  0  0  0  0  0  0  # atno 8008 bound_to 7997
  154.6510  140.0572  156.9981 H   0  0  0  0  0  0  0  0  0  0  0  0  # atno 8009 bound_to 7997
  155.1418  140.3243  155.4453 H   0  0  0  0  0  0  0  0  0  0  0  0  # atno 8010 bound_to 7997
  139.8334  144.6676  150.9371 H   0  0  0  0  0  0  0  0  0  0  0  0  # atno 10167 bound_to 10162
  157.6866  131.0066  150.2437 H   0  0  0  0  0  0  0  0  0  0  0  0  # atno 10718 bound_to 10713
  154.1295  135.6522  153.4919 H   0  0  0  0  0  0  0  0  0  0  0  0  # atno 10763 bound_to 10752
  153.0200  135.5289  154.7016 H   0  0  0  0  0  0  0  0  0  0  0  0  # atno 10764 bound_to 10752
  154.6246  135.2969  155.0257 H   0  0  0  0  0  0  0  0  0  0  0  0  # atno 10765 bound_to 10752
  141.1344  133.8246  157.0840 H   0  0  0  0  0  0  0  0  0  0  0  0  # atno 11005 bound_to 11000
  144.7163  140.4221  143.7042 LP  0  0  0  0  0  0  0  0  0  0  0  0  # atno 17320 bound_to 7965
  145.6596  139.1579  143.2816 LP  0  0  0  0  0  0  0  0  0  0  0  0  # atno 17321 bound_to 7965
  140.7805  143.3979  151.1198 LP  0  0  0  0  0  0  0  0  0  0  0  0  # atno 17342 bound_to 10162
  139.7631  143.8605  152.3104 LP  0  0  0  0  0  0  0  0  0  0  0  0  # atno 17343 bound_to 10162
  156.3047  130.3763  149.7717 LP  0  0  0  0  0  0  0  0  0  0  0  0  # atno 17370 bound_to 10713
  156.5336  130.8269  151.3245 LP  0  0  0  0  0  0  0  0  0  0  0  0  # atno 17371 bound_to 10713
  140.0434  134.9843  157.1003 LP  0  0  0  0  0  0  0  0  0  0  0  0  # atno 17394 bound_to 11000
  140.4101  134.1991  155.7163 LP  0  0  0  0  0  0  0  0  0  0  0  0  # atno 17395 bound_to 11000

$$$$
