#       Name:                AV-unprocessed.smi:2627
#       Creating user name   scv26
#       Creation time:       Fri Mar 27 14:24:54 2020


#       File generated by GOLD software.
#

@<TRIPOS>MOLECULE
AV-unprocessed.smi:2627
    44    46     1
SMALL
NO_CHARGES


@<TRIPOS>ATOM
      1 ****        -0.7407   2.8570   0.5292 C.3            1 S1                 0.0000
      2 ****        -0.4839   1.9405   1.7340 C.3            1 S1                 0.0000
      3 ****        -0.8605   2.6266   2.9094 O.3            1 S1                 0.0000
      4 ****        -1.1988   0.6230   1.6035 C.2            1 S1                 0.0000
      5 ****        -2.5323   0.5649   1.5574 N.2            1 S1                 0.0000
      6 ****        -2.7791  -0.7866   1.4302 C.ar           1 S1                 0.0000
      7 ****        -3.9994  -1.4905   1.3182 C.ar           1 S1                 0.0000
      8 ****        -4.0043  -2.8952   1.1950 C.ar           1 S1                 0.0000
      9 ****        -2.7916  -3.6142   1.1826 C.ar           1 S1                 0.0000
     10 ****        -1.5651  -2.9317   1.2951 C.ar           1 S1                 0.0000
     11 ****        -1.5655  -1.5289   1.4176 C.ar           1 S1                 0.0000
     12 ****        -0.5587  -0.5765   1.5491 N.pl3          1 S1                 0.0000
     13 ****         0.8676  -0.8690   1.6144 C.3            1 S1                 0.0000
     14 ****         1.5284  -0.8873   0.2289 C.3            1 S1                 0.0000
     15 ****         1.4725   0.4077  -0.3538 O.3            1 S1                 0.0000
     16 ****         2.0614   0.5939  -1.5864 C.ar           1 S1                 0.0000
     17 ****         2.0733   1.9075  -2.1003 C.ar           1 S1                 0.0000
     18 ****         2.6530   2.1877  -3.3527 C.ar           1 S1                 0.0000
     19 ****         3.2313   1.1509  -4.1077 C.ar           1 S1                 0.0000
     20 ****         3.2282  -0.1644  -3.6073 C.ar           1 S1                 0.0000
     21 ****         2.6467  -0.4447  -2.3551 C.ar           1 S1                 0.0000
     22 ****        -0.4536   2.3684  -0.4014 H              1 S1                 0.0000
     23 ****        -0.1680   3.7813   0.6089 H              1 S1                 0.0000
     24 ****        -1.7946   3.1248   0.4471 H              1 S1                 0.0000
     25 ****         0.5898   1.7817   1.7995 H              1 S1                 0.0000
     26 ****        -1.7896   2.7954   2.8676 H              1 S1                 0.0000
     27 ****        -4.9335  -0.9483   1.3263 H              1 S1                 0.0000
     28 ****        -4.9426  -3.4233   1.1092 H              1 S1                 0.0000
     29 ****        -2.8036  -4.6900   1.0872 H              1 S1                 0.0000
     30 ****        -0.6355  -3.4808   1.2856 H              1 S1                 0.0000
     31 ****         1.3647  -0.1648   2.2801 H              1 S1                 0.0000
     32 ****         0.9921  -1.8455   2.0831 H              1 S1                 0.0000
     33 ****         2.5676  -1.2026   0.3335 H              1 S1                 0.0000
     34 ****         1.0194  -1.6127  -0.4079 H              1 S1                 0.0000
     35 ****         1.6367   2.7119  -1.5270 H              1 S1                 0.0000
     36 ****         2.6550   3.1987  -3.7329 H              1 S1                 0.0000
     37 ****         3.6771   1.3640  -5.0681 H              1 S1                 0.0000
     38 ****         3.6725  -0.9611  -4.1855 H              1 S1                 0.0000
     39 ****         2.6620  -1.4663  -2.0071 H              1 S1                 0.0000
     40 ****        -0.3617   3.4911   2.9714 LP             1 S1                 0.0000
     41 ****        -0.6541   2.0645   3.7104 LP             1 S1                 0.0000
     42 ****        -3.1903   1.3164   1.6037 LP             1 S1                 0.0000
     43 ****         1.9138   1.0390   0.2840 LP             1 S1                 0.0000
     44 ****         0.5067   0.6492  -0.4472 LP             1 S1                 0.0000
@<TRIPOS>BOND
    1    1    2 1     
    2    1   22 1     
    3    1   23 1     
    4    1   24 1     
    5    2    3 1     
    6    2    4 1     
    7    2   25 1     
    8    3   26 1     
    9    4   12 1     
   10    4    5 2     
   11    5    6 1     
   12    6   11 ar    
   13    6    7 ar    
   14    7    8 ar    
   15    7   27 1     
   16    8    9 ar    
   17    8   28 1     
   18    9   10 ar    
   19    9   29 1     
   20   10   11 ar    
   21   10   30 1     
   22   11   12 1     
   23   12   13 1     
   24   13   14 1     
   25   13   31 1     
   26   13   32 1     
   27   14   15 1     
   28   14   33 1     
   29   14   34 1     
   30   15   16 1     
   31   16   21 ar    
   32   16   17 ar    
   33   17   18 ar    
   34   17   35 1     
   35   18   19 ar    
   36   18   36 1     
   37   19   20 ar    
   38   19   37 1     
   39   20   21 ar    
   40   20   38 1     
   41   21   39 1     
   42    3   40 1     
   43    3   41 1     
   44    5   42 1     
   45   15   43 1     
   46   15   44 1     
@<TRIPOS>SUBSTRUCTURE
      1 S1             1
@<TRIPOS>SET
LONE_PAIRS      STATIC     ATOMS    <user>   **** ""
5 40 41 42 43 44
DONOR_HYDROGENS      STATIC     ATOMS    <user>   **** ""
1 26
ATOM$BLUE        STATIC     ATOMS    COLORGROUP SYSTEM
5 40 41 42 43 44
ATOM$RED        STATIC     ATOMS    COLORGROUP SYSTEM
1 26
