AV-unprocessed.smi:828|AV-procd|sdf|3864|dock10
  -GOLD-   22720 1313D 1   1.00000     0.00000
 Structure written by MMmdl.
 34 35  0  0  0  0  0  0  0  0  3 V2000
  144.0738  143.1154  155.3635 C   0  0  0  0  0  0  0  0  0  0  0  0
  145.4961  142.6714  155.3322 C   0  0  0  0  0  0  0  0  0  0  0  0
  146.1357  142.2171  156.4127 N   0  0  0  0  0  0  0  0  0  0  0  0
  147.4477  141.8631  156.1334 N   0  0  0  0  0  0  0  0  0  0  0  0
  147.7780  142.0431  154.8467 C   0  0  0  0  0  0  0  0  0  0  0  0
  149.0022  141.7608  154.3712 N   0  5  0  0  0  0  0  0  0  0  0  0
  150.0323  141.5772  155.2269 C   0  0  0  0  0  0  0  0  0  0  0  0
  150.7717  140.5924  155.2841 O   0  0  0  0  0  0  0  0  0  0  0  0
  150.2102  142.5987  156.0745 N   0  0  0  0  0  0  0  0  0  0  0  0
  151.2164  142.6654  157.1288 C   0  0  0  0  0  0  0  0  0  0  0  0
  151.0855  143.9689  157.9451 C   0  0  2  0  0  0  0  0  0  0  0  0
  152.1506  144.1323  159.0288 C   0  0  0  0  0  0  0  0  0  0  0  0
  151.5801  145.2611  159.8757 C   0  0  0  0  0  0  0  0  0  0  0  0
  150.0760  144.9767  159.8710 C   0  0  0  0  0  0  0  0  0  0  0  0
  149.7807  144.2198  158.6271 N   0  3  2  0  0  0  0  0  0  0  0  0
  148.9131  143.0437  158.8855 C   0  0  0  0  0  0  0  0  0  0  0  0
  146.4655  142.6996  153.8688 S   0  0  0  0  0  0  0  0  0  0  0  0
  143.4133  142.2540  155.2633 H   0  0  0  0  0  0  0  0  0  0  0  0
  143.8754  143.8064  154.5441 H   0  0  0  0  0  0  0  0  0  0  0  0
  143.8548  143.6196  156.3051 H   0  0  0  0  0  0  0  0  0  0  0  0
  149.5887  143.3886  155.9800 H   0  0  0  0  0  0  0  0  0  0  0  0
  151.1652  141.7951  157.7847 H   0  0  0  0  0  0  0  0  0  0  0  0
  152.1968  142.6312  156.6523 H   0  0  0  0  0  0  0  0  0  0  0  0
  151.2145  144.8026  157.2524 H   0  0  0  0  0  0  0  0  0  0  0  0
  152.2335  143.2210  159.6233 H   0  0  0  0  0  0  0  0  0  0  0  0
  153.1356  144.3650  158.6228 H   0  0  0  0  0  0  0  0  0  0  0  0
  152.0024  145.2941  160.8803 H   0  0  0  0  0  0  0  0  0  0  0  0
  151.7791  146.2203  159.3954 H   0  0  0  0  0  0  0  0  0  0  0  0
  149.8241  144.3816  160.7507 H   0  0  0  0  0  0  0  0  0  0  0  0
  149.4880  145.8938  159.9183 H   0  0  0  0  0  0  0  0  0  0  0  0
  149.4366  142.2856  159.4694 H   0  0  0  0  0  0  0  0  0  0  0  0
  148.5567  142.5898  157.9623 H   0  0  0  0  0  0  0  0  0  0  0  0
  148.0281  143.3475  159.4460 H   0  0  0  0  0  0  0  0  0  0  0  0
  149.2545  144.8293  158.0172 H   0  0  0  0  0  0  0  0  0  0  0  0
  1  2  1  0  0  0  0
  1 18  1  0  0  0  0
  1 19  1  0  0  0  0
  1 20  1  0  0  0  0
  2 17  1  0  0  0  0
  2  3  2  0  0  0  0
  3  4  1  0  0  0  0
  4  5  2  0  0  0  0
  5  6  1  0  0  0  0
  5 17  1  0  0  0  0
  6  7  1  0  0  0  0
  7  8  2  0  0  0  0
  7  9  1  0  0  0  0
  9 10  1  0  0  0  0
  9 21  1  0  0  0  0
 10 11  1  0  0  0  0
 10 22  1  0  0  0  0
 10 23  1  0  0  0  0
 11 15  1  0  0  0  0
 11 12  1  0  0  0  0
 11 24  1  0  0  0  0
 12 13  1  0  0  0  0
 12 25  1  0  0  0  0
 12 26  1  0  0  0  0
 13 14  1  0  0  0  0
 13 27  1  0  0  0  0
 13 28  1  0  0  0  0
 14 15  1  0  0  0  0
 14 29  1  0  0  0  0
 14 30  1  0  0  0  0
 15 16  1  0  0  0  0
 15 34  1  0  0  0  0
 16 31  1  0  0  0  0
 16 32  1  0  0  0  0
 16 33  1  0  0  0  0
M  CHG  1   6  -1
M  CHG  1  15   1
M  END
> <s_m_source_file>
AV-unprocessed.smi

> <i_m_source_file_index>
828

> <i_lp_mmshare_version>
43012

> <i_f3d_flags>
0

> <s_epik_input>
W0NIM11jMW5uYyhzMSlbTkhdQyg9TylbTkhdW0NIMl1bQ0BASF0yW0NIMl1bQ0gyXVtDSDJdTjJbQ0gzXQ==

> <s_epik_cmdline>
J2VwaWtfcHl0aG9uJywgJy1waCcsICc3LjAnLCAnLXRuJywgJzgnLCAnLW1hJywgJzIwMCcsICctbWV0YWxfYmluZGluZycsICctaW1hZScsICc8aW5maWxlLm1hZT4nLCAnLW9tYWUnLCAnPG91dGZpbGUubWFlPic=

> <r_lp_tautomer_probability>
1

> <r_epik_Ionization_Penalty>
3.94379

> <r_epik_Ionization_Penalty_Charging>
3.83377

> <r_epik_Ionization_Penalty_Neutral>
0.110023

> <r_epik_State_Penalty>
3.83036

> <r_epik_Charging_Adjusted_Penalty>
7.66413

> <i_epik_Tot_Q>
0

> <i_epik_Tot_abs_Q>
2

> <r_epik_Metal_State_Penalty>
0.575095

> <b_epik_Metal_Only>
1

> <s_lp_Force_Field>
OPLS_2005

> <r_lp_Energy>
28.5427

> <b_lp_Chiralities_Consistent>
1

> <s_lp_Variant>
AV-unprocessed.smi:828-7

> <Gold.Version>
5.8.1

> <Gold.Id.Protein>
6NUR|6NUR_protein|mol2

> <Gold.PLP.Fitness>
42.5340

> <Gold.PLP.PLP>
-32.2657

> <Gold.PLP.part.hbond>
-4.7258

> <Gold.PLP.part.metal>
0.0000

> <Gold.PLP.part.buried>
-3.0343

> <Gold.PLP.part.nonpolar>
-25.5996

> <Gold.PLP.part.repulsive>
0.7208

> <Gold.PLP.ligand.clash>
0.0000

> <Gold.PLP.ligand.torsion>
0.5583

> <Gold.PLP.Chemscore.Hbond>
3.7916

> <Gold.PLP.Chemscore.CHOScore>
0.0000

> <Gold.PLP.Chemscore.Metal>
0.0000

> <Gold.Chemscore.Hbonds>
donor molecule, donor type, donor heavy atom, donor atom, acceptor molecule, acceptor atom, score
      L1  H     9    21       P1  8028  1.00
      L1  H    15    34       P1  8029  1.70
      P1  H  7989  7998       L1     8  0.76
      P1  H  8011  8017       L1     6  0.19

> <Gold.PLP.Chemscore.Internal.Correction>
0.0102

> <Gold.Rescore>
     Score         DG    S(hbond)    S(metal)    S(lipo)     H(rot)  DE(clash)    DE(int)     intcor
     15.12     -16.24       1.66        0.00      73.25       1.31       0.54       0.58       ----

> <Gold.Chemscore.Fitness>
15.1169

> <Gold.Chemscore.DG>
-16.2390

> <Gold.Chemscore.ZeroCoef>
-5.4800

> <Gold.Chemscore.Hbond>
1.6632

> <Gold.Chemscore.Metal>
0.0000

> <Gold.Chemscore.Lipo>
73.2474

> <Gold.Chemscore.Internal_Hbond>
0.0000

> <Gold.Chemscore.DEClash>
0.5403

> <Gold.Chemscore.DEInternal>
0.5818

> <Gold.Chemscore.Rot>
1.3149

> <Gold.Chemscore.Internal.Correction>
   9.000000E+99

> <Gold.Chemscore.Hbonds>
donor molecule, donor type, donor heavy atom, donor atom, acceptor molecule, acceptor atom, score
      L1  H     9    21       P1  8028  0.94
      L1  H    15    34       P1  8029  0.15
      P1  H  7989  7998       L1     8  0.10
      P1  H  8011  8017       L1     6  0.14

> <Gold.Chemscore.Hbond.Weighted>
-5.5552

> <Gold.Chemscore.Metal.Weighted>
-0.0000

> <Gold.Chemscore.Lipo.Weighted>
-8.5699

> <Gold.Chemscore.Internal_Hbond.Weighted>
0.0000

> <Gold.Chemscore.DEClash.Weighted>
0.5403

> <Gold.Chemscore.DEInternal.Weighted>
0.5818

> <Gold.Chemscore.Rot.Weighted>
3.3662

> <Gold.Chemscore.Internal.Correction.Weighted>
   9.000000E+99

> <Gold.Protein.RotatedTorsions>
[ 6907 6896 6895 6894 ] final   -3.94 input  -60.11 | X-H torsion
[ 7974 7965 7964 7962 ] final -133.13 input  175.53 | X-H torsion
[ 8008 7997 7996 7995 ] final  -91.11 input   59.86 | X-H torsion
[ 10167 10162 10161 10158 ] final  107.32 input  -65.29 | X-H torsion
[ 10718 10713 10712 10709 ] final -170.80 input   66.30 | X-H torsion
[ 10763 10752 10751 10750 ] final   81.36 input  -60.55 | X-H torsion
[ 11005 11000 10999 10996 ] final  -96.90 input  -57.11 | X-H torsion

> <Gold.Protein.ActiveResidues>
 VAL166  LYS551  ARG553  GLY616  TRP617  ASP618  TYR619  PRO620  LYS621  CYS622 
 ASP623  PHE694  ASN695  SER759  ASP760  ASP761  ALA762  ILE779  LEU786  VAL792 
 PHE793  MET794  SER795  GLU796  ALA797  LYS798  CYS799  TRP800  GLU811  SER814 

> <Gold.Protein.RotatedAtoms>
  151.5057  135.1063  159.9840 H   0  0  0  0  0  0  0  0  0  0  0  0  # atno 6907 bound_to 6896
  152.4683  133.7968  159.6942 H   0  0  0  0  0  0  0  0  0  0  0  0  # atno 6908 bound_to 6896
  150.8678  133.7486  159.2997 H   0  0  0  0  0  0  0  0  0  0  0  0  # atno 6909 bound_to 6896
  144.9221  140.7027  143.4958 H   0  0  0  0  0  0  0  0  0  0  0  0  # atno 7974 bound_to 7965
  154.7067  140.0523  157.0510 H   0  0  0  0  0  0  0  0  0  0  0  0  # atno 8008 bound_to 7997
  155.0611  140.3189  155.4641 H   0  0  0  0  0  0  0  0  0  0  0  0  # atno 8009 bound_to 7997
  156.2777  140.2098  156.5737 H   0  0  0  0  0  0  0  0  0  0  0  0  # atno 8010 bound_to 7997
  139.6936  144.7104  151.1305 H   0  0  0  0  0  0  0  0  0  0  0  0  # atno 10167 bound_to 10162
  156.7315  130.9308  151.3104 H   0  0  0  0  0  0  0  0  0  0  0  0  # atno 10718 bound_to 10713
  153.1111  135.4768  154.9036 H   0  0  0  0  0  0  0  0  0  0  0  0  # atno 10763 bound_to 10752
  154.7481  135.3099  154.8610 H   0  0  0  0  0  0  0  0  0  0  0  0  # atno 10764 bound_to 10752
  153.9199  135.6856  153.4801 H   0  0  0  0  0  0  0  0  0  0  0  0  # atno 10765 bound_to 10752
  141.1396  133.8131  157.0634 H   0  0  0  0  0  0  0  0  0  0  0  0  # atno 11005 bound_to 11000
  145.3278  139.1768  143.4553 LP  0  0  0  0  0  0  0  0  0  0  0  0  # atno 17320 bound_to 7965
  146.3209  140.3304  142.8640 LP  0  0  0  0  0  0  0  0  0  0  0  0  # atno 17321 bound_to 7965
  140.7690  143.5523  150.9190 LP  0  0  0  0  0  0  0  0  0  0  0  0  # atno 17342 bound_to 10162
  139.9202  143.6615  152.3098 LP  0  0  0  0  0  0  0  0  0  0  0  0  # atno 17343 bound_to 10162
  157.6857  130.9183  150.0380 LP  0  0  0  0  0  0  0  0  0  0  0  0  # atno 17370 bound_to 10713
  156.1526  130.3642  149.9416 LP  0  0  0  0  0  0  0  0  0  0  0  0  # atno 17371 bound_to 10713
  140.0557  134.9782  157.1216 LP  0  0  0  0  0  0  0  0  0  0  0  0  # atno 17394 bound_to 11000
  140.3923  134.2171  155.7166 LP  0  0  0  0  0  0  0  0  0  0  0  0  # atno 17395 bound_to 11000

$$$$
