AV-unprocessed.smi:3251|AV-procd|sdf|12436|dock4
  -GOLD-   2272018323D 1   1.00000     0.00000
 Structure written by MMmdl.
 41 42  0  0  0  0  0  0  0  0  2 V2000
  142.6722  135.3651  153.0432 C   0  0  0  0  0  0  0  0  0  0  0  0
  143.9384  135.9821  152.5226 C   0  0  0  0  0  0  0  0  0  0  0  0
  144.9549  135.3616  151.7423 C   0  0  0  0  0  0  0  0  0  0  0  0
  145.9475  136.1840  151.4438 N   0  0  0  0  0  0  0  0  0  0  0  0
  145.6017  137.3541  152.0214 N   0  0  0  0  0  0  0  0  0  0  0  0
  146.4719  138.5088  151.8915 C   0  0  0  0  0  0  0  0  0  0  0  0
  147.1187  138.8993  153.2293 C   0  0  0  0  0  0  0  0  0  0  0  0
  148.5883  138.7309  153.1908 N   0  3  0  0  0  0  0  0  0  0  0  0
  149.2781  138.8932  154.4909 C   0  0  1  0  0  0  0  0  0  0  0  0
  150.5374  138.0118  154.5118 C   0  0  0  0  0  0  0  0  0  0  0  0
  149.6612  140.3645  154.7503 C   0  0  0  0  0  0  0  0  0  0  0  0
  149.3645  141.2132  153.9074 O   0  0  0  0  0  0  0  0  0  0  0  0
  150.3202  140.6856  155.8846 N   0  0  0  0  0  0  0  0  0  0  0  0
  150.7222  142.0517  156.2166 C   0  0  0  0  0  0  0  0  0  0  0  0
  151.1871  142.0072  157.6722 C   0  0  0  0  0  0  0  0  0  0  0  0
  151.6327  140.5665  157.8745 C   0  0  0  0  0  0  0  0  0  0  0  0
  150.7252  139.7614  156.9444 C   0  0  0  0  0  0  0  0  0  0  0  0
  144.3929  137.2611  152.6778 C   0  0  0  0  0  0  0  0  0  0  0  0
  142.8153  134.3193  153.3162 H   0  0  0  0  0  0  0  0  0  0  0  0
  141.8755  135.3972  152.3000 H   0  0  0  0  0  0  0  0  0  0  0  0
  142.3052  135.8801  153.9313 H   0  0  0  0  0  0  0  0  0  0  0  0
  145.0002  134.3428  151.3863 H   0  0  0  0  0  0  0  0  0  0  0  0
  147.2475  138.2684  151.1633 H   0  0  0  0  0  0  0  0  0  0  0  0
  145.9027  139.3424  151.4768 H   0  0  0  0  0  0  0  0  0  0  0  0
  146.8617  139.9308  153.4734 H   0  0  0  0  0  0  0  0  0  0  0  0
  146.7150  138.2747  154.0266 H   0  0  0  0  0  0  0  0  0  0  0  0
  148.7814  137.8025  152.8439 H   0  0  0  0  0  0  0  0  0  0  0  0
  148.5952  138.5346  155.2611 H   0  0  0  0  0  0  0  0  0  0  0  0
  151.0700  138.0927  155.4601 H   0  0  0  0  0  0  0  0  0  0  0  0
  151.2328  138.2886  153.7181 H   0  0  0  0  0  0  0  0  0  0  0  0
  150.2802  136.9612  154.3735 H   0  0  0  0  0  0  0  0  0  0  0  0
  151.5428  142.3488  155.5616 H   0  0  0  0  0  0  0  0  0  0  0  0
  149.9073  142.7653  156.0842 H   0  0  0  0  0  0  0  0  0  0  0  0
  151.9757  142.7288  157.8873 H   0  0  0  0  0  0  0  0  0  0  0  0
  150.3459  142.2252  158.3316 H   0  0  0  0  0  0  0  0  0  0  0  0
  152.6707  140.4582  157.5569 H   0  0  0  0  0  0  0  0  0  0  0  0
  151.5663  140.2446  158.9142 H   0  0  0  0  0  0  0  0  0  0  0  0
  149.8373  139.4254  157.4821 H   0  0  0  0  0  0  0  0  0  0  0  0
  151.2448  138.8835  156.5596 H   0  0  0  0  0  0  0  0  0  0  0  0
  143.9596  138.1042  153.1960 H   0  0  0  0  0  0  0  0  0  0  0  0
  148.9749  139.4014  152.5406 H   0  0  0  0  0  0  0  0  0  0  0  0
  1  2  1  0  0  0  0
  1 19  1  0  0  0  0
  1 20  1  0  0  0  0
  1 21  1  0  0  0  0
  2 18  2  0  0  0  0
  2  3  1  0  0  0  0
  3  4  2  0  0  0  0
  3 22  1  0  0  0  0
  4  5  1  0  0  0  0
  5  6  1  0  0  0  0
  5 18  1  0  0  0  0
  6  7  1  0  0  0  0
  6 23  1  0  0  0  0
  6 24  1  0  0  0  0
  7  8  1  0  0  0  0
  7 25  1  0  0  0  0
  7 26  1  0  0  0  0
  8  9  1  0  0  0  0
  8 27  1  0  0  0  0
  8 41  1  0  0  0  0
  9 10  1  0  0  0  0
  9 11  1  0  0  0  0
  9 28  1  0  0  0  0
 10 29  1  0  0  0  0
 10 30  1  0  0  0  0
 10 31  1  0  0  0  0
 11 12  2  0  0  0  0
 11 13  1  0  0  0  0
 13 17  1  0  0  0  0
 13 14  1  0  0  0  0
 14 15  1  0  0  0  0
 14 32  1  0  0  0  0
 14 33  1  0  0  0  0
 15 16  1  0  0  0  0
 15 34  1  0  0  0  0
 15 35  1  0  0  0  0
 16 17  1  0  0  0  0
 16 36  1  0  0  0  0
 16 37  1  0  0  0  0
 17 38  1  0  0  0  0
 17 39  1  0  0  0  0
 18 40  1  0  0  0  0
M  CHG  1   8   1
M  END
> <s_m_source_file>
AV-unprocessed.smi

> <i_m_source_file_index>
3251

> <i_lp_mmshare_version>
43012

> <i_f3d_flags>
0

> <s_epik_input>
W0NIM11jMVtjSF1ubihbY0hdMSlbQ0gyXVtDSDJdW05IXVtDQEhdKFtDSDNdKUMoPU8pTjJbQ0gyXVtDSDJdW0NIMl1bQ0gyXTI=

> <s_epik_cmdline>
J2VwaWtfcHl0aG9uJywgJy1waCcsICc3LjAnLCAnLXRuJywgJzgnLCAnLW1hJywgJzIwMCcsICctbWV0YWxfYmluZGluZycsICctaW1hZScsICc8aW5maWxlLm1hZT4nLCAnLW9tYWUnLCAnPG91dGZpbGUubWFlPic=

> <r_lp_tautomer_probability>
1

> <r_epik_Ionization_Penalty>
0.203173

> <r_epik_Ionization_Penalty_Charging>
0.203168

> <r_epik_Ionization_Penalty_Neutral>
5.06494e-06

> <r_epik_State_Penalty>
0.193072

> <r_epik_Charging_Adjusted_Penalty>
0.39624

> <i_epik_Tot_Q>
1

> <i_epik_Tot_abs_Q>
1

> <r_epik_Metal_State_Penalty>
0.193587

> <b_epik_Metal_Only>
0

> <s_lp_Force_Field>
OPLS_2005

> <r_lp_Energy>
29.7429

> <b_lp_Chiralities_Consistent>
1

> <s_lp_Variant>
AV-unprocessed.smi:3251-2

> <Gold.Version>
5.8.1

> <Gold.Id.Protein>
6NUR|6NUR_protein|mol2

> <Gold.PLP.Fitness>
49.1355

> <Gold.PLP.PLP>
-36.2265

> <Gold.PLP.part.hbond>
-3.9582

> <Gold.PLP.part.metal>
0.0000

> <Gold.PLP.part.buried>
-3.6208

> <Gold.PLP.part.nonpolar>
-31.9704

> <Gold.PLP.part.repulsive>
2.5445

> <Gold.PLP.ligand.clash>
0.0000

> <Gold.PLP.ligand.torsion>
0.8248

> <Gold.PLP.Chemscore.Hbond>
3.8480

> <Gold.PLP.Chemscore.CHOScore>
0.9829

> <Gold.PLP.Chemscore.Metal>
0.0000

> <Gold.Chemscore.Hbonds>
donor molecule, donor type, donor heavy atom, donor atom, acceptor molecule, acceptor atom, score
      L1  H     8    27       P1  7948  2.00
      L1  H     8    41       P1  7957  1.00
      P1  H  8011  8017       L1    12  0.85
      L1  C    18    40       P1 10175  1.00

> <Gold.PLP.Chemscore.Internal.Correction>
0.0657

> <Gold.Rescore>
     Score         DG    S(hbond)    S(metal)    S(lipo)     H(rot)  DE(clash)    DE(int)     intcor
     17.44     -18.36       2.75        0.00      70.02       1.76       0.18       0.74       ----

> <Gold.Chemscore.Fitness>
17.4427

> <Gold.Chemscore.DG>
-18.3603

> <Gold.Chemscore.ZeroCoef>
-5.4800

> <Gold.Chemscore.Hbond>
2.7523

> <Gold.Chemscore.Metal>
0.0000

> <Gold.Chemscore.Lipo>
70.0236

> <Gold.Chemscore.Internal_Hbond>
0.0000

> <Gold.Chemscore.DEClash>
0.1767

> <Gold.Chemscore.DEInternal>
0.7408

> <Gold.Chemscore.Rot>
1.7599

> <Gold.Chemscore.Internal.Correction>
   9.000000E+99

> <Gold.Chemscore.Hbonds>
donor molecule, donor type, donor heavy atom, donor atom, acceptor molecule, acceptor atom, score
      L1  H     8    27       P1  7948  1.00
      L1  H     8    41       P1  7957  0.99
      P1  H  8011  8017       L1    12  0.78

> <Gold.Chemscore.Hbond.Weighted>
-9.1928

> <Gold.Chemscore.Metal.Weighted>
-0.0000

> <Gold.Chemscore.Lipo.Weighted>
-8.1928

> <Gold.Chemscore.Internal_Hbond.Weighted>
0.0000

> <Gold.Chemscore.DEClash.Weighted>
0.1767

> <Gold.Chemscore.DEInternal.Weighted>
0.7408

> <Gold.Chemscore.Rot.Weighted>
4.5053

> <Gold.Chemscore.Internal.Correction.Weighted>
   9.000000E+99

> <Gold.Protein.RotatedTorsions>
[ 6907 6896 6895 6894 ] final  102.77 input  -60.11 | X-H torsion
[ 7974 7965 7964 7962 ] final  -49.01 input  175.53 | X-H torsion
[ 8008 7997 7996 7995 ] final   95.97 input   59.86 | X-H torsion
[ 10167 10162 10161 10158 ] final  164.31 input  -65.29 | X-H torsion
[ 10718 10713 10712 10709 ] final -108.57 input   66.30 | X-H torsion
[ 10763 10752 10751 10750 ] final  -18.65 input  -60.55 | X-H torsion
[ 11005 11000 10999 10996 ] final  147.88 input  -57.11 | X-H torsion

> <Gold.Protein.ActiveResidues>
 VAL166  LYS551  ARG553  GLY616  TRP617  ASP618  TYR619  PRO620  LYS621  CYS622 
 ASP623  PHE694  ASN695  SER759  ASP760  ASP761  ALA762  ILE779  LEU786  VAL792 
 PHE793  MET794  SER795  GLU796  ALA797  LYS798  CYS799  TRP800  GLU811  SER814 

> <Gold.Protein.RotatedAtoms>
  152.5314  133.9926  159.7857 H   0  0  0  0  0  0  0  0  0  0  0  0  # atno 6907 bound_to 6896
  151.0159  133.5914  159.2684 H   0  0  0  0  0  0  0  0  0  0  0  0  # atno 6908 bound_to 6896
  151.2971  135.0765  159.9278 H   0  0  0  0  0  0  0  0  0  0  0  0  # atno 6909 bound_to 6896
  145.9451  140.7626  142.9533 H   0  0  0  0  0  0  0  0  0  0  0  0  # atno 7974 bound_to 7965
  156.0746  140.3279  155.7618 H   0  0  0  0  0  0  0  0  0  0  0  0  # atno 8008 bound_to 7997
  155.5250  140.0588  157.2917 H   0  0  0  0  0  0  0  0  0  0  0  0  # atno 8009 bound_to 7997
  154.4549  140.1937  156.0428 H   0  0  0  0  0  0  0  0  0  0  0  0  # atno 8010 bound_to 7997
  139.4887  144.4248  151.9142 H   0  0  0  0  0  0  0  0  0  0  0  0  # atno 10167 bound_to 10162
  156.0492  130.5719  150.7979 H   0  0  0  0  0  0  0  0  0  0  0  0  # atno 10718 bound_to 10713
  153.5925  135.7002  153.5417 H   0  0  0  0  0  0  0  0  0  0  0  0  # atno 10763 bound_to 10752
  153.3166  135.4086  155.1381 H   0  0  0  0  0  0  0  0  0  0  0  0  # atno 10764 bound_to 10752
  154.8598  135.3685  154.5457 H   0  0  0  0  0  0  0  0  0  0  0  0  # atno 10765 bound_to 10752
  140.0912  134.9039  157.1654 H   0  0  0  0  0  0  0  0  0  0  0  0  # atno 11005 bound_to 11000
  144.6785  140.2343  143.7351 LP  0  0  0  0  0  0  0  0  0  0  0  0  # atno 17320 bound_to 7965
  145.8248  139.2059  143.1917 LP  0  0  0  0  0  0  0  0  0  0  0  0  # atno 17321 bound_to 7965
  140.3694  144.2875  150.5922 LP  0  0  0  0  0  0  0  0  0  0  0  0  # atno 17342 bound_to 10162
  140.5333  143.2238  151.8204 LP  0  0  0  0  0  0  0  0  0  0  0  0  # atno 17343 bound_to 10162
  157.5401  131.0940  150.9839 LP  0  0  0  0  0  0  0  0  0  0  0  0  # atno 17370 bound_to 10713
  157.0124  130.5642  149.5322 LP  0  0  0  0  0  0  0  0  0  0  0  0  # atno 17371 bound_to 10713
  140.3349  134.2768  155.7221 LP  0  0  0  0  0  0  0  0  0  0  0  0  # atno 17394 bound_to 11000
  141.2078  133.7794  157.0095 LP  0  0  0  0  0  0  0  0  0  0  0  0  # atno 17395 bound_to 11000

$$$$
