AV-unprocessed.smi:141|AV-procd|sdf|1187|dock2
  -GOLD-   2262018343D 1   1.00000     0.00000
 Structure written by MMmdl.
 56 59  0  0  0  0  0  0  0  0  1 V2000
  149.5793  138.5213  154.1986 O   0  0  0  0  0  0  0  0  0  0  0  0
  149.5359  138.6130  155.4272 C   0  0  0  0  0  0  0  0  0  0  0  0
  149.7758  137.3504  156.2819 C   0  0  0  0  0  0  0  0  0  0  0  0
  148.6474  137.0128  157.1785 N   0  0  0  0  0  0  0  0  0  0  0  0
  147.3559  136.8538  156.6169 C   0  0  0  0  0  0  0  0  0  0  0  0
  147.1606  137.0060  155.4102 O   0  0  0  0  0  0  0  0  0  0  0  0
  146.3011  136.4915  157.5565 C   0  0  0  0  0  0  0  0  0  0  0  0
  145.0469  136.3058  157.1111 F   0  0  0  0  0  0  0  0  0  0  0  0
  146.5651  136.3343  158.8697 C   0  0  0  0  0  0  0  0  0  0  0  0
  147.8244  136.5113  159.4084 N   0  0  0  0  0  0  0  0  0  0  0  0
  148.0373  136.2616  160.8835 C   0  0  2  0  0  0  0  0  0  0  0  0
  147.6177  134.8511  161.3389 C   0  0  0  0  0  0  0  0  0  0  0  0
  146.5785  135.1355  162.4111 C   0  0  0  0  0  0  0  0  0  0  0  0
  146.9019  136.5665  162.8256 C   0  0  0  0  0  0  0  0  0  0  0  0
  147.2785  137.1828  161.6044 O   0  0  0  0  0  0  0  0  0  0  0  0
  148.9091  136.8270  158.5576 C   0  0  0  0  0  0  0  0  0  0  0  0
  150.0543  136.9301  159.0006 O   0  0  0  0  0  0  0  0  0  0  0  0
  149.2889  139.7899  156.0524 N   0  0  0  0  0  0  0  0  0  0  0  0
  149.2735  139.9999  157.5056 C   0  0  0  0  0  0  0  0  0  0  0  0
  150.5214  140.8110  157.8964 C   0  0  0  0  0  0  0  0  0  0  0  0
  150.5713  142.1554  157.1360 C   0  0  0  0  0  0  0  0  0  0  0  0
  151.8603  142.9477  157.4483 C   0  0  0  0  0  0  0  0  0  0  0  0
  152.0927  143.1190  158.9377 C   0  0  0  0  0  0  0  0  0  0  0  0
  152.6336  142.0604  159.6974 C   0  0  0  0  0  0  0  0  0  0  0  0
  152.8551  142.2230  161.0788 C   0  0  0  0  0  0  0  0  0  0  0  0
  152.5367  143.4440  161.7048 C   0  0  0  0  0  0  0  0  0  0  0  0
  151.9997  144.5037  160.9483 C   0  0  0  0  0  0  0  0  0  0  0  0
  151.7785  144.3420  159.5667 C   0  0  0  0  0  0  0  0  0  0  0  0
  150.3821  141.9315  155.6181 C   0  0  0  0  0  0  0  0  0  0  0  0
  149.1467  141.0589  155.3282 C   0  0  0  0  0  0  0  0  0  0  0  0
  149.9904  136.5100  155.6199 H   0  0  0  0  0  0  0  0  0  0  0  0
  150.6938  137.4865  156.8554 H   0  0  0  0  0  0  0  0  0  0  0  0
  145.7489  136.0599  159.5221 H   0  0  0  0  0  0  0  0  0  0  0  0
  149.0961  136.4463  161.0704 H   0  0  0  0  0  0  0  0  0  0  0  0
  147.2310  134.2428  160.5206 H   0  0  0  0  0  0  0  0  0  0  0  0
  148.4893  134.3491  161.7599 H   0  0  0  0  0  0  0  0  0  0  0  0
  145.5761  135.0896  161.9849 H   0  0  0  0  0  0  0  0  0  0  0  0
  146.6226  134.4332  163.2439 H   0  0  0  0  0  0  0  0  0  0  0  0
  146.0550  137.0735  163.2887 H   0  0  0  0  0  0  0  0  0  0  0  0
  147.7422  136.5906  163.5214 H   0  0  0  0  0  0  0  0  0  0  0  0
  148.3723  140.5513  157.7784 H   0  0  0  0  0  0  0  0  0  0  0  0
  149.2300  139.0793  158.0849 H   0  0  0  0  0  0  0  0  0  0  0  0
  150.5228  140.9919  158.9719 H   0  0  0  0  0  0  0  0  0  0  0  0
  151.4159  140.2253  157.6787 H   0  0  0  0  0  0  0  0  0  0  0  0
  149.7140  142.7379  157.4786 H   0  0  0  0  0  0  0  0  0  0  0  0
  152.7318  142.4518  157.0188 H   0  0  0  0  0  0  0  0  0  0  0  0
  151.8331  143.9336  156.9820 H   0  0  0  0  0  0  0  0  0  0  0  0
  152.8820  141.1226  159.2220 H   0  0  0  0  0  0  0  0  0  0  0  0
  153.2700  141.4111  161.6576 H   0  0  0  0  0  0  0  0  0  0  0  0
  152.7061  143.5681  162.7642 H   0  0  0  0  0  0  0  0  0  0  0  0
  151.7579  145.4414  161.4270 H   0  0  0  0  0  0  0  0  0  0  0  0
  151.3695  145.1593  158.9905 H   0  0  0  0  0  0  0  0  0  0  0  0
  150.2849  142.8913  155.1095 H   0  0  0  0  0  0  0  0  0  0  0  0
  151.2670  141.4480  155.2014 H   0  0  0  0  0  0  0  0  0  0  0  0
  149.0331  140.9238  154.2518 H   0  0  0  0  0  0  0  0  0  0  0  0
  148.2397  141.5666  155.6593 H   0  0  0  0  0  0  0  0  0  0  0  0
  1  2  2  0  0  0  0
  2  3  1  0  0  0  0
  2 18  1  0  0  0  0
  3  4  1  0  0  0  0
  3 31  1  0  0  0  0
  3 32  1  0  0  0  0
  4 16  1  0  0  0  0
  4  5  1  0  0  0  0
  5  6  2  0  0  0  0
  5  7  1  0  0  0  0
  7  8  1  0  0  0  0
  7  9  2  0  0  0  0
  9 10  1  0  0  0  0
  9 33  1  0  0  0  0
 10 11  1  0  0  0  0
 10 16  1  0  0  0  0
 11 15  1  0  0  0  0
 11 12  1  0  0  0  0
 11 34  1  0  0  0  0
 12 13  1  0  0  0  0
 12 35  1  0  0  0  0
 12 36  1  0  0  0  0
 13 14  1  0  0  0  0
 13 37  1  0  0  0  0
 13 38  1  0  0  0  0
 14 15  1  0  0  0  0
 14 39  1  0  0  0  0
 14 40  1  0  0  0  0
 16 17  2  0  0  0  0
 18 30  1  0  0  0  0
 18 19  1  0  0  0  0
 19 20  1  0  0  0  0
 19 41  1  0  0  0  0
 19 42  1  0  0  0  0
 20 21  1  0  0  0  0
 20 43  1  0  0  0  0
 20 44  1  0  0  0  0
 21 22  1  0  0  0  0
 21 29  1  0  0  0  0
 21 45  1  0  0  0  0
 22 23  1  0  0  0  0
 22 46  1  0  0  0  0
 22 47  1  0  0  0  0
 23 28  1  0  0  0  0
 23 24  2  0  0  0  0
 24 25  1  0  0  0  0
 24 48  1  0  0  0  0
 25 26  2  0  0  0  0
 25 49  1  0  0  0  0
 26 27  1  0  0  0  0
 26 50  1  0  0  0  0
 27 28  2  0  0  0  0
 27 51  1  0  0  0  0
 28 52  1  0  0  0  0
 29 30  1  0  0  0  0
 29 53  1  0  0  0  0
 29 54  1  0  0  0  0
 30 55  1  0  0  0  0
 30 56  1  0  0  0  0
M  END
> <s_m_source_file>
AV-unprocessed.smi

> <i_m_source_file_index>
141

> <i_lp_mmshare_version>
43012

> <i_f3d_flags>
0

> <s_epik_input>
W2NIXTFbY0hdW2NIXVtjSF1bY0hdYzFbQ0gyXVtDSF0oW0NIMl1bQ0gyXTIpW0NIMl1bQ0gyXU4yQyg9TylbQ0gyXW4zYyg9TyljKEYpW2NIXW4oYzM9TylbQ0BASF00W0NIMl1bQ0gyXVtDSDJdTzQ=

> <s_epik_cmdline>
J2VwaWtfcHl0aG9uJywgJy1waCcsICc3LjAnLCAnLXRuJywgJzgnLCAnLW1hJywgJzIwMCcsICctbWV0YWxfYmluZGluZycsICctaW1hZScsICc8aW5maWxlLm1hZT4nLCAnLW9tYWUnLCAnPG91dGZpbGUubWFlPic=

> <r_lp_tautomer_probability>
1

> <r_epik_Ionization_Penalty>
3.78313e-08

> <r_epik_Ionization_Penalty_Charging>
4.95074e-09

> <r_epik_Ionization_Penalty_Neutral>
3.28806e-08

> <r_epik_State_Penalty>
-0

> <r_epik_Charging_Adjusted_Penalty>
4.95074e-09

> <i_epik_Tot_Q>
0

> <i_epik_Tot_abs_Q>
0

> <r_epik_Metal_State_Penalty>
-0

> <b_epik_Metal_Only>
0

> <s_epik_Chemistry_Notes>
This compound contains an acetal/aminal-like group ( X-CH(R)-Y where X, Y are N, S, or O) that may be acid/base labile, releasing an aldehyde.

> <s_lp_Force_Field>
OPLS_2005

> <r_lp_Energy>
44.5211

> <b_lp_Chiralities_Consistent>
1

> <s_lp_Variant>
AV-unprocessed.smi:141-1

> <Gold.Version>
5.8.1

> <Gold.Id.Protein>
6NUR|6NUR_protein|mol2

> <Gold.PLP.Fitness>
55.8838

> <Gold.PLP.PLP>
-51.1947

> <Gold.PLP.part.hbond>
-2.5059

> <Gold.PLP.part.metal>
0.0000

> <Gold.PLP.part.buried>
-7.9893

> <Gold.PLP.part.nonpolar>
-41.5043

> <Gold.PLP.part.repulsive>
0.2811

> <Gold.PLP.ligand.clash>
0.0000

> <Gold.PLP.ligand.torsion>
0.3398

> <Gold.PLP.Chemscore.Hbond>
1.7589

> <Gold.PLP.Chemscore.CHOScore>
0.0000

> <Gold.PLP.Chemscore.Metal>
0.0000

> <Gold.Chemscore.Hbonds>
donor molecule, donor type, donor heavy atom, donor atom, acceptor molecule, acceptor atom, score
      P1  H  6896  6907       L1    17  0.12
      P1  H  6931  6943       L1    15  0.31
      P1  H  6934  6947       L1    15  0.91

> <Gold.PLP.Chemscore.Internal.Correction>
0.0920

> <Gold.Rescore>
     Score         DG    S(hbond)    S(metal)    S(lipo)     H(rot)  DE(clash)    DE(int)     intcor
     17.98     -19.49       0.89        0.00     134.68       1.85       0.31       1.21       ----

> <Gold.Chemscore.Fitness>
17.9790

> <Gold.Chemscore.DG>
-19.4926

> <Gold.Chemscore.ZeroCoef>
-5.4800

> <Gold.Chemscore.Hbond>
0.8924

> <Gold.Chemscore.Metal>
0.0000

> <Gold.Chemscore.Lipo>
134.6842

> <Gold.Chemscore.Internal_Hbond>
0.0000

> <Gold.Chemscore.DEClash>
0.3079

> <Gold.Chemscore.DEInternal>
1.2057

> <Gold.Chemscore.Rot>
1.8461

> <Gold.Chemscore.Internal.Correction>
   9.000000E+99

> <Gold.Chemscore.Hbonds>
donor molecule, donor type, donor heavy atom, donor atom, acceptor molecule, acceptor atom, score
      P1  H  6896  6907       L1    17  0.15
      P1  H  6931  6943       L1    15  0.01
      P1  H  6934  6947       L1    15  0.84

> <Gold.Chemscore.Hbond.Weighted>
-2.9805

> <Gold.Chemscore.Metal.Weighted>
-0.0000

> <Gold.Chemscore.Lipo.Weighted>
-15.7580

> <Gold.Chemscore.Internal_Hbond.Weighted>
0.0000

> <Gold.Chemscore.DEClash.Weighted>
0.3079

> <Gold.Chemscore.DEInternal.Weighted>
1.2057

> <Gold.Chemscore.Rot.Weighted>
4.7260

> <Gold.Chemscore.Internal.Correction.Weighted>
   9.000000E+99

> <Gold.Protein.RotatedTorsions>
[ 6907 6896 6895 6894 ] final  -13.11 input  -60.11 | X-H torsion
[ 7974 7965 7964 7962 ] final  142.00 input  175.53 | X-H torsion
[ 8008 7997 7996 7995 ] final  114.28 input   59.86 | X-H torsion
[ 10167 10162 10161 10158 ] final  148.67 input  -65.29 | X-H torsion
[ 10718 10713 10712 10709 ] final  -67.34 input   66.30 | X-H torsion
[ 10763 10752 10751 10750 ] final  112.21 input  -60.55 | X-H torsion
[ 11005 11000 10999 10996 ] final  -12.31 input  -57.11 | X-H torsion

> <Gold.Protein.ActiveResidues>
 VAL166  LYS551  ARG553  GLY616  TRP617  ASP618  TYR619  PRO620  LYS621  CYS622 
 ASP623  PHE694  ASN695  SER759  ASP760  ASP761  ALA762  ILE779  LEU786  VAL792 
 PHE793  MET794  SER795  GLU796  ALA797  LYS798  CYS799  TRP800  GLU811  SER814 

> <Gold.Protein.RotatedAtoms>
  151.3601  135.0902  159.9431 H   0  0  0  0  0  0  0  0  0  0  0  0  # atno 6907 bound_to 6896
  152.5164  133.9267  159.7571 H   0  0  0  0  0  0  0  0  0  0  0  0  # atno 6908 bound_to 6896
  150.9659  133.6341  159.2775 H   0  0  0  0  0  0  0  0  0  0  0  0  # atno 6909 bound_to 6896
  144.9046  139.5375  143.5737 H   0  0  0  0  0  0  0  0  0  0  0  0  # atno 7974 bound_to 7965
  156.2311  140.2962  156.0192 H   0  0  0  0  0  0  0  0  0  0  0  0  # atno 8008 bound_to 7997
  155.2221  140.0416  157.2967 H   0  0  0  0  0  0  0  0  0  0  0  0  # atno 8009 bound_to 7997
  154.5998  140.2424  155.7816 H   0  0  0  0  0  0  0  0  0  0  0  0  # atno 8010 bound_to 7997
  139.4872  144.5661  151.7141 H   0  0  0  0  0  0  0  0  0  0  0  0  # atno 10167 bound_to 10162
  156.0563  130.4276  150.1840 H   0  0  0  0  0  0  0  0  0  0  0  0  # atno 10718 bound_to 10713
  153.4745  135.3693  155.2409 H   0  0  0  0  0  0  0  0  0  0  0  0  # atno 10763 bound_to 10752
  154.8756  135.3939  154.3773 H   0  0  0  0  0  0  0  0  0  0  0  0  # atno 10764 bound_to 10752
  153.4366  135.7083  153.6260 H   0  0  0  0  0  0  0  0  0  0  0  0  # atno 10765 bound_to 10752
  140.7644  133.8489  155.9152 H   0  0  0  0  0  0  0  0  0  0  0  0  # atno 11005 bound_to 11000
  146.3127  139.7804  142.9007 LP  0  0  0  0  0  0  0  0  0  0  0  0  # atno 17320 bound_to 7965
  145.3557  141.0316  143.3313 LP  0  0  0  0  0  0  0  0  0  0  0  0  # atno 17321 bound_to 7965
  140.5240  144.0835  150.6031 LP  0  0  0  0  0  0  0  0  0  0  0  0  # atno 17342 bound_to 10162
  140.3802  143.2807  152.0179 LP  0  0  0  0  0  0  0  0  0  0  0  0  # atno 17343 bound_to 10162
  156.9915  130.9895  151.3413 LP  0  0  0  0  0  0  0  0  0  0  0  0  # atno 17370 bound_to 10713
  157.5535  130.8198  149.8175 LP  0  0  0  0  0  0  0  0  0  0  0  0  # atno 17371 bound_to 10713
  140.9633  134.1627  157.4637 LP  0  0  0  0  0  0  0  0  0  0  0  0  # atno 17394 bound_to 11000
  139.8765  134.9952  156.5734 LP  0  0  0  0  0  0  0  0  0  0  0  0  # atno 17395 bound_to 11000

$$$$
