AV-unprocessed.smi:1841|AV-procd|sdf|7496|dock6
  -GOLD-   22720 9193D 1   1.00000     0.00000
 Structure written by MMmdl.
 40 41  0  0  0  0  0  0  0  0  1 V2000
  148.3583  145.8234  161.2501 C   0  0  0  0  0  0  0  0  0  0  0  0
  148.8350  144.5393  160.8881 O   0  0  0  0  0  0  0  0  0  0  0  0
  149.4885  144.5370  159.6297 C   0  0  0  0  0  0  0  0  0  0  0  0
  150.7523  145.3974  159.7187 C   0  0  0  0  0  0  0  0  0  0  0  0
  151.5107  144.9807  160.8501 O   0  0  0  0  0  0  0  0  0  0  0  0
  152.1984  143.7868  160.7801 C   0  0  0  0  0  0  0  0  0  0  0  0
  152.8308  143.3052  161.9428 C   0  0  0  0  0  0  0  0  0  0  0  0
  153.5310  142.0849  161.8839 C   0  0  0  0  0  0  0  0  0  0  0  0
  153.5810  141.3820  160.6553 C   0  0  0  0  0  0  0  0  0  0  0  0
  154.2396  140.1372  160.4497 N   0  0  0  0  0  0  0  0  0  0  0  0
  154.0792  139.2285  159.4693 C   0  0  0  0  0  0  0  0  0  0  0  0
  153.2705  139.3219  158.5465 O   0  0  0  0  0  0  0  0  0  0  0  0
  154.9885  137.9915  159.5549 C   0  0  2  0  0  0  0  0  0  0  0  0
  154.5102  136.8745  158.6046 C   0  0  0  0  0  0  0  0  0  0  0  0
  154.0448  135.7698  159.5384 C   0  0  0  0  0  0  0  0  0  0  0  0
  153.5056  134.7394  159.1377 O   0  0  0  0  0  0  0  0  0  0  0  0
  154.2952  136.0835  160.8122 N   0  0  0  0  0  0  0  0  0  0  0  0
  153.9693  135.2627  161.9703 C   0  0  0  0  0  0  0  0  0  0  0  0
  154.9871  137.3523  160.9615 C   0  0  0  0  0  0  0  0  0  0  0  0
  152.9137  141.9519  159.5507 C   0  0  0  0  0  0  0  0  0  0  0  0
  152.2398  143.1200  159.6007 N   0  0  0  0  0  0  0  0  0  0  0  0
  147.8703  145.7722  162.2234 H   0  0  0  0  0  0  0  0  0  0  0  0
  147.6298  146.1918  160.5269 H   0  0  0  0  0  0  0  0  0  0  0  0
  149.1757  146.5421  161.3215 H   0  0  0  0  0  0  0  0  0  0  0  0
  149.7626  143.5132  159.3702 H   0  0  0  0  0  0  0  0  0  0  0  0
  148.8286  144.9094  158.8446 H   0  0  0  0  0  0  0  0  0  0  0  0
  151.3318  145.3118  158.7978 H   0  0  0  0  0  0  0  0  0  0  0  0
  150.4656  146.4433  159.8397 H   0  0  0  0  0  0  0  0  0  0  0  0
  152.7759  143.8607  162.8675 H   0  0  0  0  0  0  0  0  0  0  0  0
  154.0019  141.7233  162.7834 H   0  0  0  0  0  0  0  0  0  0  0  0
  154.9272  139.9007  161.1504 H   0  0  0  0  0  0  0  0  0  0  0  0
  156.0081  138.2801  159.2929 H   0  0  0  0  0  0  0  0  0  0  0  0
  153.6988  137.1794  157.9415 H   0  0  0  0  0  0  0  0  0  0  0  0
  155.3292  136.5060  157.9863 H   0  0  0  0  0  0  0  0  0  0  0  0
  154.4210  134.2742  161.8798 H   0  0  0  0  0  0  0  0  0  0  0  0
  152.8892  135.1406  162.0594 H   0  0  0  0  0  0  0  0  0  0  0  0
  154.3355  135.7187  162.8903 H   0  0  0  0  0  0  0  0  0  0  0  0
  156.0062  137.1685  161.3042 H   0  0  0  0  0  0  0  0  0  0  0  0
  154.4944  137.9709  161.7139 H   0  0  0  0  0  0  0  0  0  0  0  0
  152.9184  141.4543  158.5918 H   0  0  0  0  0  0  0  0  0  0  0  0
  1  2  1  0  0  0  0
  1 22  1  0  0  0  0
  1 23  1  0  0  0  0
  1 24  1  0  0  0  0
  2  3  1  0  0  0  0
  3  4  1  0  0  0  0
  3 25  1  0  0  0  0
  3 26  1  0  0  0  0
  4  5  1  0  0  0  0
  4 27  1  0  0  0  0
  4 28  1  0  0  0  0
  5  6  1  0  0  0  0
  6 21  1  0  0  0  0
  6  7  2  0  0  0  0
  7  8  1  0  0  0  0
  7 29  1  0  0  0  0
  8  9  2  0  0  0  0
  8 30  1  0  0  0  0
  9 10  1  0  0  0  0
  9 20  1  0  0  0  0
 10 11  1  0  0  0  0
 10 31  1  0  0  0  0
 11 12  2  0  0  0  0
 11 13  1  0  0  0  0
 13 19  1  0  0  0  0
 13 14  1  0  0  0  0
 13 32  1  0  0  0  0
 14 15  1  0  0  0  0
 14 33  1  0  0  0  0
 14 34  1  0  0  0  0
 15 16  2  0  0  0  0
 15 17  1  0  0  0  0
 17 18  1  0  0  0  0
 17 19  1  0  0  0  0
 18 35  1  0  0  0  0
 18 36  1  0  0  0  0
 18 37  1  0  0  0  0
 19 38  1  0  0  0  0
 19 39  1  0  0  0  0
 20 21  2  0  0  0  0
 20 40  1  0  0  0  0
M  END
> <s_m_source_file>
AV-unprocessed.smi

> <i_m_source_file_index>
1841

> <i_lp_mmshare_version>
43012

> <i_f3d_flags>
0

> <s_epik_input>
W0NIM11PW0NIMl1bQ0gyXU9jMVtjSF1bY0hdYyhbY0hdbjEpW05IXUMoPU8pW0NAQEhdMltDSDJdQyg9TylOKFtDSDNdKVtDSDJdMg==

> <s_epik_cmdline>
J2VwaWtfcHl0aG9uJywgJy1waCcsICc3LjAnLCAnLXRuJywgJzgnLCAnLW1hJywgJzIwMCcsICctbWV0YWxfYmluZGluZycsICctaW1hZScsICc8aW5maWxlLm1hZT4nLCAnLW9tYWUnLCAnPG91dGZpbGUubWFlPic=

> <r_lp_tautomer_probability>
1

> <r_epik_Ionization_Penalty>
1.70347e-05

> <r_epik_Ionization_Penalty_Charging>
0

> <r_epik_Ionization_Penalty_Neutral>
1.70347e-05

> <r_epik_State_Penalty>
-0

> <r_epik_Charging_Adjusted_Penalty>
0

> <i_epik_Tot_Q>
0

> <i_epik_Tot_abs_Q>
0

> <r_epik_Metal_State_Penalty>
-0

> <b_epik_Metal_Only>
0

> <s_lp_Force_Field>
OPLS_2005

> <r_lp_Energy>
17.4372

> <b_lp_Chiralities_Consistent>
1

> <s_lp_Variant>
AV-unprocessed.smi:1841-1

> <Gold.Version>
5.8.1

> <Gold.Id.Protein>
6NUR|6NUR_protein|mol2

> <Gold.PLP.Fitness>
45.5725

> <Gold.PLP.PLP>
-38.2115

> <Gold.PLP.part.hbond>
-3.0000

> <Gold.PLP.part.metal>
0.0000

> <Gold.PLP.part.buried>
-7.5817

> <Gold.PLP.part.nonpolar>
-28.2266

> <Gold.PLP.part.repulsive>
1.1504

> <Gold.PLP.ligand.clash>
0.0000

> <Gold.PLP.ligand.torsion>
0.4598

> <Gold.PLP.Chemscore.Hbond>
2.7520

> <Gold.PLP.Chemscore.CHOScore>
0.0000

> <Gold.PLP.Chemscore.Metal>
0.0000

> <Gold.Chemscore.Hbonds>
donor molecule, donor type, donor heavy atom, donor atom, acceptor molecule, acceptor atom, score
      P1  H  6896  6908       L1    16  0.27
      P1  H  6933  6944       L1     2  0.33
      P1  H  7997  8010       L1    12  0.32

> <Gold.PLP.Chemscore.Internal.Correction>
0.0245

> <Gold.Rescore>
     Score         DG    S(hbond)    S(metal)    S(lipo)     H(rot)  DE(clash)    DE(int)     intcor
     16.68     -18.96       2.66        0.00      81.75       1.95       0.07       2.22       ----

> <Gold.Chemscore.Fitness>
16.6751

> <Gold.Chemscore.DG>
-18.9607

> <Gold.Chemscore.ZeroCoef>
-5.4800

> <Gold.Chemscore.Hbond>
2.6646

> <Gold.Chemscore.Metal>
0.0000

> <Gold.Chemscore.Lipo>
81.7494

> <Gold.Chemscore.Internal_Hbond>
0.0000

> <Gold.Chemscore.DEClash>
0.0650

> <Gold.Chemscore.DEInternal>
2.2206

> <Gold.Chemscore.Rot>
1.9468

> <Gold.Chemscore.Internal.Correction>
   9.000000E+99

> <Gold.Chemscore.Hbonds>
donor molecule, donor type, donor heavy atom, donor atom, acceptor molecule, acceptor atom, score
      P1  H  6896  6908       L1    16  0.22
      P1  H  6933  6944       L1     2  0.19
      P1  H  7997  8010       L1    12  0.01

> <Gold.Chemscore.Hbond.Weighted>
-8.8999

> <Gold.Chemscore.Metal.Weighted>
-0.0000

> <Gold.Chemscore.Lipo.Weighted>
-9.5647

> <Gold.Chemscore.Internal_Hbond.Weighted>
0.0000

> <Gold.Chemscore.DEClash.Weighted>
0.0650

> <Gold.Chemscore.DEInternal.Weighted>
2.2206

> <Gold.Chemscore.Rot.Weighted>
4.9839

> <Gold.Chemscore.Internal.Correction.Weighted>
   9.000000E+99

> <Gold.Protein.RotatedTorsions>
[ 6907 6896 6895 6894 ] final  -38.73 input  -60.11 | X-H torsion
[ 7974 7965 7964 7962 ] final -173.00 input  175.53 | X-H torsion
[ 8008 7997 7996 7995 ] final   14.99 input   59.86 | X-H torsion
[ 10167 10162 10161 10158 ] final -116.81 input  -65.29 | X-H torsion
[ 10718 10713 10712 10709 ] final  116.19 input   66.30 | X-H torsion
[ 10763 10752 10751 10750 ] final   17.11 input  -60.55 | X-H torsion
[ 11005 11000 10999 10996 ] final -141.46 input  -57.11 | X-H torsion

> <Gold.Protein.ActiveResidues>
 VAL166  LYS551  ARG553  GLY616  TRP617  ASP618  TYR619  PRO620  LYS621  CYS622 
 ASP623  PHE694  ASN695  SER759  ASP760  ASP761  ALA762  ILE779  LEU786  VAL792 
 PHE793  MET794  SER795  GLU796  ALA797  LYS798  CYS799  TRP800  GLU811  SER814 

> <Gold.Protein.RotatedAtoms>
  150.9989  134.9306  159.7942 H   0  0  0  0  0  0  0  0  0  0  0  0  # atno 6907 bound_to 6896
  152.5272  134.3180  159.9148 H   0  0  0  0  0  0  0  0  0  0  0  0  # atno 6908 bound_to 6896
  151.3186  133.4008  159.2687 H   0  0  0  0  0  0  0  0  0  0  0  0  # atno 6909 bound_to 6896
  144.7141  140.1688  143.6369 H   0  0  0  0  0  0  0  0  0  0  0  0  # atno 7974 bound_to 7965
  154.8563  140.2937  155.5567 H   0  0  0  0  0  0  0  0  0  0  0  0  # atno 8008 bound_to 7997
  156.3018  140.2486  156.3463 H   0  0  0  0  0  0  0  0  0  0  0  0  # atno 8009 bound_to 7997
  154.8966  140.0393  157.1858 H   0  0  0  0  0  0  0  0  0  0  0  0  # atno 8010 bound_to 7997
  140.0752  143.4840  152.1957 H   0  0  0  0  0  0  0  0  0  0  0  0  # atno 10167 bound_to 10162
  157.6176  131.1022  150.7438 H   0  0  0  0  0  0  0  0  0  0  0  0  # atno 10718 bound_to 10713
  153.1369  135.6752  153.9088 H   0  0  0  0  0  0  0  0  0  0  0  0  # atno 10763 bound_to 10752
  153.8557  135.3087  155.3436 H   0  0  0  0  0  0  0  0  0  0  0  0  # atno 10764 bound_to 10752
  154.7755  135.4916  153.9818 H   0  0  0  0  0  0  0  0  0  0  0  0  # atno 10765 bound_to 10752
  140.8322  134.2503  157.4851 H   0  0  0  0  0  0  0  0  0  0  0  0  # atno 11005 bound_to 11000
  145.8963  139.2404  143.1520 LP  0  0  0  0  0  0  0  0  0  0  0  0  # atno 17320 bound_to 7965
  145.9855  140.8647  143.0093 LP  0  0  0  0  0  0  0  0  0  0  0  0  # atno 17321 bound_to 7965
  139.5812  144.7511  151.3635 LP  0  0  0  0  0  0  0  0  0  0  0  0  # atno 17342 bound_to 10162
  140.7106  143.7401  150.7559 LP  0  0  0  0  0  0  0  0  0  0  0  0  # atno 17343 bound_to 10162
  156.7802  130.4857  149.5402 LP  0  0  0  0  0  0  0  0  0  0  0  0  # atno 17370 bound_to 10713
  156.1305  130.6174  151.0326 LP  0  0  0  0  0  0  0  0  0  0  0  0  # atno 17371 bound_to 10713
  139.8704  134.9592  156.4324 LP  0  0  0  0  0  0  0  0  0  0  0  0  # atno 17394 bound_to 11000
  140.8986  133.7796  155.9654 LP  0  0  0  0  0  0  0  0  0  0  0  0  # atno 17395 bound_to 11000

$$$$
