#       Name:                AV-unprocessed.smi:696
#       Creating user name   scv26
#       Creation time:       Fri Mar 27 00:36:44 2020


#       File generated by GOLD software.
#

@<TRIPOS>MOLECULE
AV-unprocessed.smi:696
    43    44     1
SMALL
NO_CHARGES


@<TRIPOS>ATOM
      1 ****         0.6653   1.3549   0.1177 O.2            1 S1                 0.0000
      2 ****         0.1003   0.3186  -0.2339 C.2            1 S1                 0.0000
      3 ****         0.7618  -0.7708  -0.6552 N.am           1 S1                 0.0000
      4 ****         2.2122  -0.8810  -0.7612 C.3            1 S1                 0.0000
      5 ****         2.8594  -1.1760   0.6085 C.3            1 S1                 0.0000
      6 ****         4.3740  -1.3395   0.5922 C.2            1 S1                 0.0000
      7 ****         5.1370  -1.6459   1.5824 N.2            1 S1                 0.0000
      8 ****         6.3570  -1.6473   0.9899 N.am           1 S1                 0.0000
      9 ****         6.3373  -1.3523  -0.3149 C.2            1 S1                 0.0000
     10 ****         7.2905  -1.2839  -1.0872 O.2            1 S1                 0.0000
     11 ****         5.0544  -1.1500  -0.5870 N.am           1 S1                 0.0000
     12 ****        -1.4331   0.2276  -0.2079 C.3            1 S1                 0.0000
     13 ****        -2.0442   1.2959  -1.1449 C.3            1 S1                 0.0000
     14 ****        -3.5100   1.0064  -1.5112 C.3            1 S1                 0.0000
     15 ****        -4.5593   1.5570  -0.5286 C.3            1 S1                 0.0000
     16 ****        -4.2089   1.4838   0.9683 C.3            1 S1                 0.0000
     17 ****        -3.4664   0.2129   1.4117 C.3            1 S1                 0.0000
     18 ****        -1.9399   0.3226   1.2470 C.3            1 S1                 0.0000
     19 ****         7.1740  -1.8602   1.5442 H              1 S1                 0.0000
     20 ****         4.6484  -0.9018  -1.4774 H              1 S1                 0.0000
     21 ****         0.2205  -1.5791  -0.9262 H              1 S1                 0.0000
     22 ****         2.4317  -1.6865  -1.4630 H              1 S1                 0.0000
     23 ****         2.6184   0.0345  -1.1959 H              1 S1                 0.0000
     24 ****         2.6160  -0.3773   1.3100 H              1 S1                 0.0000
     25 ****         2.4257  -2.0870   1.0223 H              1 S1                 0.0000
     26 ****        -1.7052  -0.7566  -0.5934 H              1 S1                 0.0000
     27 ****        -1.9443   2.2965  -0.7217 H              1 S1                 0.0000
     28 ****        -1.4735   1.3118  -2.0750 H              1 S1                 0.0000
     29 ****        -3.7190   1.4319  -2.4935 H              1 S1                 0.0000
     30 ****        -3.6508  -0.0683  -1.6324 H              1 S1                 0.0000
     31 ****        -4.7671   2.5988  -0.7757 H              1 S1                 0.0000
     32 ****        -5.4956   1.0253  -0.7020 H              1 S1                 0.0000
     33 ****        -3.6249   2.3608   1.2502 H              1 S1                 0.0000
     34 ****        -5.1381   1.5668   1.5332 H              1 S1                 0.0000
     35 ****        -3.6713   0.0591   2.4717 H              1 S1                 0.0000
     36 ****        -3.8570  -0.6691   0.9029 H              1 S1                 0.0000
     37 ****        -1.4815  -0.4818   1.8247 H              1 S1                 0.0000
     38 ****        -1.5932   1.2480   1.7102 H              1 S1                 0.0000
     39 ****         1.6635   1.4119   0.0972 LP             1 S1                 0.0000
     40 ****         0.1259   2.1394   0.4237 LP             1 S1                 0.0000
     41 ****         4.8949  -1.8330   2.5345 LP             1 S1                 0.0000
     42 ****         8.2170  -1.4604  -0.7548 LP             1 S1                 0.0000
     43 ****         7.1398  -1.0516  -2.0481 LP             1 S1                 0.0000
@<TRIPOS>BOND
    1    1    2 2     
    2    2    3 am    
    3    2   12 1     
    4    3    4 1     
    5    3   21 1     
    6    4    5 1     
    7    4   22 1     
    8    4   23 1     
    9    5    6 1     
   10    5   24 1     
   11    5   25 1     
   12    6   11 1     
   13    6    7 2     
   14    7    8 1     
   15    8   19 1     
   16    8    9 am    
   17    9   10 2     
   18    9   11 am    
   19   11   20 1     
   20   12   18 1     
   21   12   13 1     
   22   12   26 1     
   23   13   14 1     
   24   13   27 1     
   25   13   28 1     
   26   14   15 1     
   27   14   29 1     
   28   14   30 1     
   29   15   16 1     
   30   15   31 1     
   31   15   32 1     
   32   16   17 1     
   33   16   33 1     
   34   16   34 1     
   35   17   18 1     
   36   17   35 1     
   37   17   36 1     
   38   18   37 1     
   39   18   38 1     
   40    1   39 1     
   41    1   40 1     
   42    7   41 1     
   43   10   42 1     
   44   10   43 1     
@<TRIPOS>SUBSTRUCTURE
      1 S1             1
@<TRIPOS>SET
LONE_PAIRS      STATIC     ATOMS    <user>   **** ""
5 39 40 41 42 43
DONOR_HYDROGENS      STATIC     ATOMS    <user>   **** ""
3 21 19 20
ATOM$BLUE        STATIC     ATOMS    COLORGROUP SYSTEM
5 39 40 41 42 43
ATOM$RED        STATIC     ATOMS    COLORGROUP SYSTEM
3 21 19 20
