AV-unprocessed.smi:2491|AV-procd|sdf|9810|dock3
  -GOLD-   2272013443D 1   1.00000     0.00000
 Structure written by MMmdl.
 27 28  0  0  0  0  0  0  0  0  1 V2000
  151.2668  138.5293  158.2167 N   0  0  0  0  0  0  0  0  0  0  0  0
  152.1373  139.2090  157.4625 C   0  0  0  0  0  0  0  0  0  0  0  0
  153.3398  139.2160  157.7164 O   0  0  0  0  0  0  0  0  0  0  0  0
  151.6028  140.0064  156.2534 C   0  0  1  0  0  0  0  0  0  0  0  0
  150.9713  138.9831  155.2772 C   0  0  0  0  0  0  0  0  0  0  0  0
  150.4370  139.6297  154.1308 O   0  0  0  0  0  0  0  0  0  0  0  0
  149.3985  140.5279  154.4873 C   0  0  0  0  0  0  0  0  0  0  0  0
  149.9878  141.6375  155.3663 C   0  0  0  0  0  0  0  0  0  0  0  0
  150.6453  141.0894  156.5531 N   0  0  0  0  0  0  0  0  0  0  0  0
  150.9534  142.0591  157.5060 C   0  0  0  0  0  0  0  0  0  0  0  0
  152.1233  141.9604  158.1526 N   0  0  0  0  0  0  0  0  0  0  0  0
  152.4115  142.9172  159.0611 C   0  0  0  0  0  0  0  0  0  0  0  0
  151.5239  143.9807  159.3172 C   0  0  0  0  0  0  0  0  0  0  0  0
  151.8864  145.2072  160.4748 Cl  0  0  0  0  0  0  0  0  0  0  0  0
  150.3252  143.9908  158.5774 C   0  0  0  0  0  0  0  0  0  0  0  0
  150.0454  143.0287  157.6714 N   0  0  0  0  0  0  0  0  0  0  0  0
  151.5972  137.9993  159.0100 H   0  0  0  0  0  0  0  0  0  0  0  0
  150.2832  138.5464  157.9880 H   0  0  0  0  0  0  0  0  0  0  0  0
  152.4612  140.4601  155.7544 H   0  0  0  0  0  0  0  0  0  0  0  0
  151.7216  138.2665  154.9400 H   0  0  0  0  0  0  0  0  0  0  0  0
  150.1845  138.4047  155.7660 H   0  0  0  0  0  0  0  0  0  0  0  0
  148.9723  140.9546  153.5791 H   0  0  0  0  0  0  0  0  0  0  0  0
  148.5933  140.0009  155.0020 H   0  0  0  0  0  0  0  0  0  0  0  0
  150.7151  142.2163  154.7948 H   0  0  0  0  0  0  0  0  0  0  0  0
  149.1900  142.3263  155.6475 H   0  0  0  0  0  0  0  0  0  0  0  0
  153.3537  142.8334  159.5823 H   0  0  0  0  0  0  0  0  0  0  0  0
  149.5897  144.7705  158.7100 H   0  0  0  0  0  0  0  0  0  0  0  0
  1  2  1  0  0  0  0
  1 17  1  0  0  0  0
  1 18  1  0  0  0  0
  2  3  2  0  0  0  0
  2  4  1  0  0  0  0
  4  9  1  0  0  0  0
  4  5  1  0  0  0  0
  4 19  1  0  0  0  0
  5  6  1  0  0  0  0
  5 20  1  0  0  0  0
  5 21  1  0  0  0  0
  6  7  1  0  0  0  0
  7  8  1  0  0  0  0
  7 22  1  0  0  0  0
  7 23  1  0  0  0  0
  8  9  1  0  0  0  0
  8 24  1  0  0  0  0
  8 25  1  0  0  0  0
  9 10  1  0  0  0  0
 10 16  1  0  0  0  0
 10 11  2  0  0  0  0
 11 12  1  0  0  0  0
 12 13  2  0  0  0  0
 12 26  1  0  0  0  0
 13 14  1  0  0  0  0
 13 15  1  0  0  0  0
 15 16  2  0  0  0  0
 15 27  1  0  0  0  0
M  END
> <s_m_source_file>
AV-unprocessed.smi

> <i_m_source_file_index>
2491

> <i_lp_mmshare_version>
43012

> <i_f3d_flags>
0

> <s_epik_input>
W05IMl1DKD1PKVtDQEBIXTFbQ0gyXU9bQ0gyXVtDSDJdTjFjMm5bY0hdYyhDbClbY0hdbjI=

> <s_epik_cmdline>
J2VwaWtfcHl0aG9uJywgJy1waCcsICc3LjAnLCAnLXRuJywgJzgnLCAnLW1hJywgJzIwMCcsICctbWV0YWxfYmluZGluZycsICctaW1hZScsICc8aW5maWxlLm1hZT4nLCAnLW9tYWUnLCAnPG91dGZpbGUubWFlPic=

> <r_lp_tautomer_probability>
1

> <r_epik_Ionization_Penalty>
2.68452e-07

> <r_epik_Ionization_Penalty_Charging>
0

> <r_epik_Ionization_Penalty_Neutral>
2.68452e-07

> <r_epik_State_Penalty>
-0

> <r_epik_Charging_Adjusted_Penalty>
0

> <i_epik_Tot_Q>
0

> <i_epik_Tot_abs_Q>
0

> <r_epik_Metal_State_Penalty>
-0

> <b_epik_Metal_Only>
0

> <s_lp_Force_Field>
OPLS_2005

> <r_lp_Energy>
11.1739

> <b_lp_Chiralities_Consistent>
1

> <s_lp_Variant>
AV-unprocessed.smi:2491-2

> <Gold.Version>
5.8.1

> <Gold.Id.Protein>
6NUR|6NUR_protein|mol2

> <Gold.PLP.Fitness>
36.9131

> <Gold.PLP.PLP>
-28.1917

> <Gold.PLP.part.hbond>
-2.0000

> <Gold.PLP.part.metal>
0.0000

> <Gold.PLP.part.buried>
-3.1815

> <Gold.PLP.part.nonpolar>
-24.7834

> <Gold.PLP.part.repulsive>
2.4383

> <Gold.PLP.ligand.clash>
0.0000

> <Gold.PLP.ligand.torsion>
0.3115

> <Gold.PLP.Chemscore.Hbond>
2.0000

> <Gold.PLP.Chemscore.CHOScore>
0.9932

> <Gold.PLP.Chemscore.Metal>
0.0000

> <Gold.Chemscore.Hbonds>
donor molecule, donor type, donor heavy atom, donor atom, acceptor molecule, acceptor atom, score
      P1  H  7989  7998       L1     6  0.90
      P1  H  7997  8009       L1     3  1.00
      L1  C    15    27       P1  8029  1.00

> <Gold.PLP.Chemscore.Internal.Correction>
0.3648

> <Gold.Rescore>
     Score         DG    S(hbond)    S(metal)    S(lipo)     H(rot)  DE(clash)    DE(int)     intcor
     12.57     -14.73       1.44        0.00      70.46       1.49       0.37       1.79       ----

> <Gold.Chemscore.Fitness>
12.5747

> <Gold.Chemscore.DG>
-14.7296

> <Gold.Chemscore.ZeroCoef>
-5.4800

> <Gold.Chemscore.Hbond>
1.4413

> <Gold.Chemscore.Metal>
0.0000

> <Gold.Chemscore.Lipo>
70.4570

> <Gold.Chemscore.Internal_Hbond>
0.0000

> <Gold.Chemscore.DEClash>
0.3690

> <Gold.Chemscore.DEInternal>
1.7858

> <Gold.Chemscore.Rot>
1.4874

> <Gold.Chemscore.Internal.Correction>
   9.000000E+99

> <Gold.Chemscore.Hbonds>
donor molecule, donor type, donor heavy atom, donor atom, acceptor molecule, acceptor atom, score
      P1  H  7989  7998       L1     6  0.14
      P1  H  7997  8009       L1     3  0.91

> <Gold.Chemscore.Hbond.Weighted>
-4.8138

> <Gold.Chemscore.Metal.Weighted>
-0.0000

> <Gold.Chemscore.Lipo.Weighted>
-8.2435

> <Gold.Chemscore.Internal_Hbond.Weighted>
0.0000

> <Gold.Chemscore.DEClash.Weighted>
0.3690

> <Gold.Chemscore.DEInternal.Weighted>
1.7858

> <Gold.Chemscore.Rot.Weighted>
3.8077

> <Gold.Chemscore.Internal.Correction.Weighted>
   9.000000E+99

> <Gold.Protein.RotatedTorsions>
[ 6907 6896 6895 6894 ] final -147.74 input  -60.11 | X-H torsion
[ 7974 7965 7964 7962 ] final   29.17 input  175.53 | X-H torsion
[ 8008 7997 7996 7995 ] final -179.49 input   59.86 | X-H torsion
[ 10167 10162 10161 10158 ] final   30.03 input  -65.29 | X-H torsion
[ 10718 10713 10712 10709 ] final   13.53 input   66.30 | X-H torsion
[ 10763 10752 10751 10750 ] final   86.60 input  -60.55 | X-H torsion
[ 11005 11000 10999 10996 ] final   90.67 input  -57.11 | X-H torsion

> <Gold.Protein.ActiveResidues>
 VAL166  LYS551  ARG553  GLY616  TRP617  ASP618  TYR619  PRO620  LYS621  CYS622 
 ASP623  PHE694  ASN695  SER759  ASP760  ASP761  ALA762  ILE779  LEU786  VAL792 
 PHE793  MET794  SER795  GLU796  ALA797  LYS798  CYS799  TRP800  GLU811  SER814 

> <Gold.Protein.RotatedAtoms>
  151.1599  133.4852  159.2594 H   0  0  0  0  0  0  0  0  0  0  0  0  # atno 6907 bound_to 6896
  151.1465  135.0205  159.8659 H   0  0  0  0  0  0  0  0  0  0  0  0  # atno 6908 bound_to 6896
  152.5463  134.1487  159.8563 H   0  0  0  0  0  0  0  0  0  0  0  0  # atno 6909 bound_to 6896
  146.1687  139.6957  142.8983 H   0  0  0  0  0  0  0  0  0  0  0  0  # atno 7974 bound_to 7965
  156.0311  140.1282  157.0257 H   0  0  0  0  0  0  0  0  0  0  0  0  # atno 8008 bound_to 7997
  154.4350  140.1049  156.6171 H   0  0  0  0  0  0  0  0  0  0  0  0  # atno 8009 bound_to 7997
  155.5805  140.3468  155.4541 H   0  0  0  0  0  0  0  0  0  0  0  0  # atno 8010 bound_to 7997
  140.4714  144.0757  150.6238 H   0  0  0  0  0  0  0  0  0  0  0  0  # atno 10167 bound_to 10162
  157.0261  130.6174  149.5728 H   0  0  0  0  0  0  0  0  0  0  0  0  # atno 10718 bound_to 10713
  153.1587  135.4574  154.9740 H   0  0  0  0  0  0  0  0  0  0  0  0  # atno 10763 bound_to 10752
  154.7881  135.3211  154.7843 H   0  0  0  0  0  0  0  0  0  0  0  0  # atno 10764 bound_to 10752
  153.8337  135.6936  153.4866 H   0  0  0  0  0  0  0  0  0  0  0  0  # atno 10765 bound_to 10752
  139.8852  134.8628  156.3318 H   0  0  0  0  0  0  0  0  0  0  0  0  # atno 11005 bound_to 11000
  145.4399  141.0421  143.2863 LP  0  0  0  0  0  0  0  0  0  0  0  0  # atno 17320 bound_to 7965
  144.8130  139.5927  143.7021 LP  0  0  0  0  0  0  0  0  0  0  0  0  # atno 17321 bound_to 7965
  140.3973  143.2722  151.9990 LP  0  0  0  0  0  0  0  0  0  0  0  0  # atno 17342 bound_to 10162
  139.4819  144.6027  151.7576 LP  0  0  0  0  0  0  0  0  0  0  0  0  # atno 17343 bound_to 10162
  156.0085  130.5175  150.7912 LP  0  0  0  0  0  0  0  0  0  0  0  0  # atno 17370 bound_to 10713
  157.5213  131.0931  151.0074 LP  0  0  0  0  0  0  0  0  0  0  0  0  # atno 17371 bound_to 10713
  140.9717  133.7323  156.0545 LP  0  0  0  0  0  0  0  0  0  0  0  0  # atno 17394 bound_to 11000
  140.7862  134.3670  157.5476 LP  0  0  0  0  0  0  0  0  0  0  0  0  # atno 17395 bound_to 11000

$$$$
