#       Name:                AV-unprocessed.smi:2837
#       Creating user name   scv26
#       Creation time:       Fri Mar 27 15:36:57 2020


#       File generated by GOLD software.
#

@<TRIPOS>MOLECULE
AV-unprocessed.smi:2837
    37    39     1
SMALL
NO_CHARGES


@<TRIPOS>ATOM
      1 ****        -5.5616   3.0276  -1.3107 F              1 S1                 0.0000
      2 ****        -5.4316   2.0730  -0.3569 C.3            1 S1                 0.0000
      3 ****        -6.6762   1.6452  -0.0355 F              1 S1                 0.0000
      4 ****        -4.6945   1.0309  -0.8249 O.3            1 S1                 0.0000
      5 ****        -3.3277   1.0435  -0.6607 C.ar           1 S1                 0.0000
      6 ****        -2.5565   2.2262  -0.5682 C.ar           1 S1                 0.0000
      7 ****        -1.1605   2.1227  -0.4166 C.ar           1 S1                 0.0000
      8 ****        -0.5732   0.8418  -0.3705 C.ar           1 S1                 0.0000
      9 ****         0.8180   0.7473  -0.2220 N.pl3          1 S1                 0.0000
     10 ****         1.4954  -0.5433  -0.1628 C.3            1 S1                 0.0000
     11 ****         1.3178  -1.2596   1.1823 C.3            1 S1                 0.0000
     12 ****         2.7716  -1.4918   1.6122 C.3            1 S1                 0.0000
     13 ****         3.4856  -2.5215   0.7253 C.3            1 S1                 0.0000
     14 ****         3.6955  -1.7306  -0.5654 C.3            1 S1                 0.0000
     15 ****         3.0248  -0.3923  -0.2279 C.3            1 S1                 0.0000
     16 ****         3.3609  -0.2910   1.1467 O.3            1 S1                 0.0000
     17 ****        -1.3036  -0.2936  -0.4700 N.ar           1 S1                 0.0000
     18 ****        -2.6417  -0.1869  -0.6130 C.ar           1 S1                 0.0000
     19 ****        -4.9886   2.5103   0.5382 H              1 S1                 0.0000
     20 ****        -3.0139   3.2031  -0.6171 H              1 S1                 0.0000
     21 ****        -0.5548   3.0142  -0.3420 H              1 S1                 0.0000
     22 ****         1.3717   1.5877  -0.1376 H              1 S1                 0.0000
     23 ****         1.1511  -1.1628  -0.9923 H              1 S1                 0.0000
     24 ****         0.8072  -0.6276   1.9105 H              1 S1                 0.0000
     25 ****         0.7563  -2.1896   1.0910 H              1 S1                 0.0000
     26 ****         2.8934  -1.6668   2.6814 H              1 S1                 0.0000
     27 ****         4.4451  -2.8093   1.1565 H              1 S1                 0.0000
     28 ****         2.8911  -3.4240   0.5784 H              1 S1                 0.0000
     29 ****         4.7597  -1.5905  -0.7589 H              1 S1                 0.0000
     30 ****         3.2511  -2.2130  -1.4365 H              1 S1                 0.0000
     31 ****         3.3732   0.4375  -0.8445 H              1 S1                 0.0000
     32 ****        -3.1856  -1.1167  -0.6892 H              1 S1                 0.0000
     33 ****        -4.8695   0.9680  -1.8074 LP             1 S1                 0.0000
     34 ****        -5.0348   0.2066  -0.3723 LP             1 S1                 0.0000
     35 ****         4.3505  -0.2796   1.2902 LP             1 S1                 0.0000
     36 ****         2.9529   0.5161   1.5734 LP             1 S1                 0.0000
     37 ****        -0.8622  -1.1903  -0.4383 LP             1 S1                 0.0000
@<TRIPOS>BOND
    1    1    2 1     
    2    2    3 1     
    3    2    4 1     
    4    2   19 1     
    5    4    5 1     
    6    5   18 ar    
    7    5    6 ar    
    8    6    7 ar    
    9    6   20 1     
   10    7    8 ar    
   11    7   21 1     
   12    8    9 1     
   13    8   17 ar    
   14    9   10 1     
   15    9   22 1     
   16   10   15 1     
   17   10   11 1     
   18   10   23 1     
   19   11   12 1     
   20   11   24 1     
   21   11   25 1     
   22   12   16 1     
   23   12   13 1     
   24   12   26 1     
   25   13   14 1     
   26   13   27 1     
   27   13   28 1     
   28   14   15 1     
   29   14   29 1     
   30   14   30 1     
   31   15   16 1     
   32   15   31 1     
   33   17   18 ar    
   34   18   32 1     
   35    4   33 1     
   36    4   34 1     
   37   16   35 1     
   38   16   36 1     
   39   17   37 1     
@<TRIPOS>SUBSTRUCTURE
      1 S1             1
@<TRIPOS>SET
LONE_PAIRS      STATIC     ATOMS    <user>   **** ""
5 33 34 35 36 37
DONOR_HYDROGENS      STATIC     ATOMS    <user>   **** ""
1 22
ATOM$BLUE        STATIC     ATOMS    COLORGROUP SYSTEM
5 33 34 35 36 37
ATOM$RED        STATIC     ATOMS    COLORGROUP SYSTEM
1 22
