#       Name:                AV-unprocessed.smi:2656
#       Creating user name   scv26
#       Creation time:       Fri Mar 27 14:32:16 2020


#       File generated by GOLD software.
#

@<TRIPOS>MOLECULE
AV-unprocessed.smi:2656
    48    49     1
SMALL
NO_CHARGES


@<TRIPOS>ATOM
      1 ****        -3.1127  -1.9975   0.2645 C.3            1 S1                 0.0000
      2 ****        -2.9515  -0.5455   0.3817 N.am           1 S1                 0.0000
      3 ****        -3.9765   0.2182  -0.3400 C.3            1 S1                 0.0000
      4 ****        -1.9725   0.1189   1.0544 C.2            1 S1                 0.0000
      5 ****        -1.9901   1.3517   1.0949 O.2            1 S1                 0.0000
      6 ****        -0.7933  -0.6250   1.7744 C.3            1 S1                 0.0000
      7 ****        -0.0387  -1.6328   0.8502 C.3            1 S1                 0.0000
      8 ****         0.2908  -1.0864  -0.4672 N.am           1 S1                 0.0000
      9 ****         1.4409  -0.4823  -0.7978 C.2            1 S1                 0.0000
     10 ****         2.3857  -0.3451  -0.0213 O.2            1 S1                 0.0000
     11 ****         1.4074  -0.0337  -2.0645 N.am           1 S1                 0.0000
     12 ****         2.4081   0.6876  -2.7708 C.ar           1 S1                 0.0000
     13 ****         1.9953   1.4737  -3.8695 C.ar           1 S1                 0.0000
     14 ****         2.9548   2.1980  -4.6059 C.ar           1 S1                 0.0000
     15 ****         4.2591   2.1266  -4.2640 N.pl3          1 S1                 1.0000
     16 ****         4.7037   1.3760  -3.2332 C.ar           1 S1                 0.0000
     17 ****         3.7908   0.6303  -2.4598 C.ar           1 S1                 0.0000
     18 ****         0.2386   0.3915   2.3417 C.3            1 S1                 0.0000
     19 ****        -0.3056   0.9067   3.6796 C.3            1 S1                 0.0000
     20 ****        -1.3060  -0.1507   4.1514 C.3            1 S1                 0.0000
     21 ****        -1.2709  -1.2661   3.0989 C.3            1 S1                 0.0000
     22 ****        -2.7743  -2.5488   1.1369 H              1 S1                 0.0000
     23 ****        -2.5702  -2.3636  -0.6074 H              1 S1                 0.0000
     24 ****        -4.1602  -2.2726   0.1365 H              1 S1                 0.0000
     25 ****        -4.6143   0.7564   0.3625 H              1 S1                 0.0000
     26 ****        -4.6209  -0.4124  -0.9536 H              1 S1                 0.0000
     27 ****        -3.5202   0.9464  -1.0129 H              1 S1                 0.0000
     28 ****         0.8726  -1.9827   1.3383 H              1 S1                 0.0000
     29 ****        -0.6077  -2.5466   0.7010 H              1 S1                 0.0000
     30 ****        -0.4278  -1.1537  -1.1730 H              1 S1                 0.0000
     31 ****         0.5317  -0.1526  -2.5524 H              1 S1                 0.0000
     32 ****         0.9515   1.5302  -4.1434 H              1 S1                 0.0000
     33 ****         2.7198   2.8269  -5.4523 H              1 S1                 0.0000
     34 ****         5.7702   1.3898  -3.0614 H              1 S1                 0.0000
     35 ****         4.1698   0.0220  -1.6527 H              1 S1                 0.0000
     36 ****         1.1856  -0.1113   2.5424 H              1 S1                 0.0000
     37 ****         0.4767   1.2061   1.6562 H              1 S1                 0.0000
     38 ****         0.4984   1.0571   4.4009 H              1 S1                 0.0000
     39 ****        -0.8081   1.8655   3.5479 H              1 S1                 0.0000
     40 ****        -1.0645  -0.5296   5.1449 H              1 S1                 0.0000
     41 ****        -2.3044   0.2856   4.2023 H              1 S1                 0.0000
     42 ****        -2.2422  -1.7533   3.0396 H              1 S1                 0.0000
     43 ****        -0.5578  -2.0299   3.4127 H              1 S1                 0.0000
     44 ****         4.9378   2.6583  -4.8101 H              1 S1                 0.0000
     45 ****        -2.7206   1.8567   0.6352 LP             1 S1                 0.0000
     46 ****        -1.2738   1.8460   1.5874 LP             1 S1                 0.0000
     47 ****         2.3193  -0.6938   0.9136 LP             1 S1                 0.0000
     48 ****         3.2199   0.1150  -0.3252 LP             1 S1                 0.0000
@<TRIPOS>BOND
    1    1    2 1     
    2    1   22 1     
    3    1   23 1     
    4    1   24 1     
    5    2    3 1     
    6    2    4 am    
    7    3   25 1     
    8    3   26 1     
    9    3   27 1     
   10    4    5 2     
   11    4    6 1     
   12    6   21 1     
   13    6    7 1     
   14    6   18 1     
   15    7    8 1     
   16    7   28 1     
   17    7   29 1     
   18    8    9 am    
   19    8   30 1     
   20    9   10 2     
   21    9   11 am    
   22   11   12 1     
   23   11   31 1     
   24   12   17 ar    
   25   12   13 ar    
   26   13   14 ar    
   27   13   32 1     
   28   14   15 ar    
   29   14   33 1     
   30   15   16 ar    
   31   15   44 1     
   32   16   17 ar    
   33   16   34 1     
   34   17   35 1     
   35   18   19 1     
   36   18   36 1     
   37   18   37 1     
   38   19   20 1     
   39   19   38 1     
   40   19   39 1     
   41   20   21 1     
   42   20   40 1     
   43   20   41 1     
   44   21   42 1     
   45   21   43 1     
   46    5   45 1     
   47    5   46 1     
   48   10   47 1     
   49   10   48 1     
@<TRIPOS>SUBSTRUCTURE
      1 S1             1
@<TRIPOS>SET
LONE_PAIRS      STATIC     ATOMS    <user>   **** ""
4 45 46 47 48
DONOR_HYDROGENS      STATIC     ATOMS    <user>   **** ""
3 30 31 44
ATOM$BLUE        STATIC     ATOMS    COLORGROUP SYSTEM
4 45 46 47 48
ATOM$RED        STATIC     ATOMS    COLORGROUP SYSTEM
3 30 31 44
