#       Name:                AV-unprocessed.smi:1362
#       Creating user name   scv26
#       Creation time:       Fri Mar 27 05:15:25 2020


#       File generated by GOLD software.
#

@<TRIPOS>MOLECULE
AV-unprocessed.smi:1362
    44    44     1
SMALL
NO_CHARGES


@<TRIPOS>ATOM
      1 ****        -4.4406   3.9761  -1.7195 C.3            1 S1                 0.0000
      2 ****        -3.6783   2.9118  -0.9602 C.2            1 S1                 0.0000
      3 ****        -2.9759   2.0412  -1.7768 N.pl3          1 S1                 0.0000
      4 ****        -2.2429   1.0355  -1.1720 C.2            1 S1                 0.0000
      5 ****        -1.5000   0.1278  -2.1373 C.3            1 S1                 0.0000
      6 ****        -2.2098   0.9052   0.1786 C.2            1 S1                 0.0000
      7 ****        -1.4066  -0.1877   0.8824 C.3            1 S1                 0.0000
      8 ****         0.0949   0.0743   1.0249 C.2            1 S1                 0.0000
      9 ****         0.5255   1.2270   1.0669 O.2            1 S1                 0.0000
     10 ****         0.8810  -1.0111   1.0931 N.am           1 S1                 0.0000
     11 ****         2.3401  -1.0019   1.1935 C.3            1 S1                 0.0000
     12 ****         2.7352  -0.8947   2.6788 C.3            1 S1                 0.0000
     13 ****         2.9319  -2.2518   0.4895 C.3            1 S1                 0.0000
     14 ****         4.4709  -2.2725   0.5260 C.3            1 S1                 0.0000
     15 ****         2.4521  -2.3827  -0.9697 C.3            1 S1                 0.0000
     16 ****        -2.9792   1.8694   1.0003 C.2            1 S1                 0.0000
     17 ****        -2.9812   1.8112   2.2292 O.2            1 S1                 0.0000
     18 ****        -3.7105   2.8683   0.3370 N.2            1 S1                 0.0000
     19 ****        -2.9686   2.1055  -2.7845 H              1 S1                 0.0000
     20 ****        -5.1118   4.5229  -1.0562 H              1 S1                 0.0000
     21 ****        -5.0391   3.5274  -2.5131 H              1 S1                 0.0000
     22 ****        -3.7480   4.6889  -2.1678 H              1 S1                 0.0000
     23 ****        -1.8542  -0.8991  -2.0443 H              1 S1                 0.0000
     24 ****        -0.4297   0.1442  -1.9302 H              1 S1                 0.0000
     25 ****        -1.6440   0.4392  -3.1727 H              1 S1                 0.0000
     26 ****        -1.5452  -1.1184   0.3307 H              1 S1                 0.0000
     27 ****        -1.8128  -0.3902   1.8738 H              1 S1                 0.0000
     28 ****         0.4366  -1.9168   1.0553 H              1 S1                 0.0000
     29 ****         2.7196  -0.1187   0.6759 H              1 S1                 0.0000
     30 ****         3.8081  -0.7516   2.8017 H              1 S1                 0.0000
     31 ****         2.4493  -1.7902   3.2317 H              1 S1                 0.0000
     32 ****         2.2495  -0.0429   3.1560 H              1 S1                 0.0000
     33 ****         2.5830  -3.1368   1.0237 H              1 S1                 0.0000
     34 ****         4.8901  -1.3787   0.0625 H              1 S1                 0.0000
     35 ****         4.8644  -3.1376  -0.0085 H              1 S1                 0.0000
     36 ****         4.8526  -2.3338   1.5446 H              1 S1                 0.0000
     37 ****         2.7306  -1.5066  -1.5561 H              1 S1                 0.0000
     38 ****         1.3700  -2.4974  -1.0366 H              1 S1                 0.0000
     39 ****         2.8928  -3.2564  -1.4507 H              1 S1                 0.0000
     40 ****        -0.1068   1.9995   1.0078 LP             1 S1                 0.0000
     41 ****         1.5076   1.3908   1.1601 LP             1 S1                 0.0000
     42 ****        -2.4551   1.1010   2.6970 LP             1 S1                 0.0000
     43 ****        -3.5089   2.4742   2.7603 LP             1 S1                 0.0000
     44 ****        -4.2468   3.5347   0.8550 LP             1 S1                 0.0000
@<TRIPOS>BOND
    1    1   20 1     
    2    1   21 1     
    3    1   22 1     
    4    1    2 1     
    5    2    3 1     
    6    2   18 2     
    7    3    4 1     
    8    3   19 1     
    9    4    6 2     
   10    4    5 1     
   11    5   23 1     
   12    5   24 1     
   13    5   25 1     
   14    6   16 1     
   15    6    7 1     
   16    7    8 1     
   17    7   26 1     
   18    7   27 1     
   19    8    9 2     
   20    8   10 am    
   21   10   11 1     
   22   10   28 1     
   23   11   12 1     
   24   11   13 1     
   25   11   29 1     
   26   12   30 1     
   27   12   31 1     
   28   12   32 1     
   29   13   14 1     
   30   13   15 1     
   31   13   33 1     
   32   14   34 1     
   33   14   35 1     
   34   14   36 1     
   35   15   37 1     
   36   15   38 1     
   37   15   39 1     
   38   16   17 2     
   39   16   18 1     
   40    9   40 1     
   41    9   41 1     
   42   17   42 1     
   43   17   43 1     
   44   18   44 1     
@<TRIPOS>SUBSTRUCTURE
      1 S1             1
@<TRIPOS>SET
LONE_PAIRS      STATIC     ATOMS    <user>   **** ""
5 40 41 42 43 44
DONOR_HYDROGENS      STATIC     ATOMS    <user>   **** ""
2 19 28
ATOM$BLUE        STATIC     ATOMS    COLORGROUP SYSTEM
5 40 41 42 43 44
ATOM$RED        STATIC     ATOMS    COLORGROUP SYSTEM
2 19 28
