AV-unprocessed.smi:1793|AV-procd|sdf|7229|dock3
  -GOLD-   22720 8473D 1   1.00000     0.00000
 Structure written by MMmdl.
 47 49  0  0  0  0  0  0  0  0  2 V2000
  148.2282  140.4502  153.9500 C   0  0  0  0  0  0  0  0  0  0  0  0
  148.8880  139.1387  154.4001 C   0  0  1  0  0  0  0  0  0  0  0  0
  148.1585  138.0151  153.8145 N   0  0  0  0  0  0  0  0  0  0  0  0
  146.8683  137.7185  154.0260 C   0  0  0  0  0  0  0  0  0  0  0  0
  146.1239  138.3714  154.7567 O   0  0  0  0  0  0  0  0  0  0  0  0
  146.5015  136.6323  153.3259 N   0  0  0  0  0  0  0  0  0  0  0  0
  145.2030  136.0590  153.2220 C   0  0  0  0  0  0  0  0  0  0  0  0
  144.0457  136.8778  153.1642 C   0  0  0  0  0  0  0  0  0  0  0  0
  142.7679  136.2886  153.1340 C   0  0  0  0  0  0  0  0  0  0  0  0
  142.6641  134.8882  153.1792 C   0  0  0  0  0  0  0  0  0  0  0  0
  143.7824  134.1370  153.2461 N   0  3  0  0  0  0  0  0  0  0  0  0
  145.0412  134.6429  153.2624 C   0  0  0  0  0  0  0  0  0  0  0  0
  146.1162  133.7259  153.3245 N   0  0  0  0  0  0  0  0  0  0  0  0
  146.8351  133.3468  152.1136 C   0  0  0  0  0  0  0  0  0  0  0  0
  148.0998  132.6476  152.6047 C   0  0  0  0  0  0  0  0  0  0  0  0
  148.4257  133.4166  153.8813 C   0  0  0  0  0  0  0  0  0  0  0  0
  147.0494  133.7841  154.4454 C   0  0  0  0  0  0  0  0  0  0  0  0
  150.3736  139.0734  153.9954 C   0  0  2  0  0  0  0  0  0  0  0  0
  151.0954  137.7878  154.4002 C   0  0  0  0  0  0  0  0  0  0  0  0
  152.5560  138.2047  154.4331 C   0  0  0  0  0  0  0  0  0  0  0  0
  152.5041  139.7312  154.5506 C   0  0  0  0  0  0  0  0  0  0  0  0
  151.1270  140.0582  154.6853 O   0  0  0  0  0  0  0  0  0  0  0  0
  148.7263  141.3130  154.3929 H   0  0  0  0  0  0  0  0  0  0  0  0
  147.1810  140.4869  154.2527 H   0  0  0  0  0  0  0  0  0  0  0  0
  148.2668  140.5643  152.8661 H   0  0  0  0  0  0  0  0  0  0  0  0
  148.8305  139.0981  155.4892 H   0  0  0  0  0  0  0  0  0  0  0  0
  148.6854  137.4158  153.1963 H   0  0  0  0  0  0  0  0  0  0  0  0
  147.1980  136.2505  152.7028 H   0  0  0  0  0  0  0  0  0  0  0  0
  144.1171  137.9550  153.1660 H   0  0  0  0  0  0  0  0  0  0  0  0
  141.8811  136.9039  153.0905 H   0  0  0  0  0  0  0  0  0  0  0  0
  141.7280  134.3487  153.1690 H   0  0  0  0  0  0  0  0  0  0  0  0
  146.2336  132.6959  151.4786 H   0  0  0  0  0  0  0  0  0  0  0  0
  147.1070  134.2335  151.5396 H   0  0  0  0  0  0  0  0  0  0  0  0
  147.8827  131.6054  152.8429 H   0  0  0  0  0  0  0  0  0  0  0  0
  148.9087  132.6681  151.8738 H   0  0  0  0  0  0  0  0  0  0  0  0
  149.0313  132.8422  154.5826 H   0  0  0  0  0  0  0  0  0  0  0  0
  148.9740  134.3257  153.6309 H   0  0  0  0  0  0  0  0  0  0  0  0
  147.0653  134.7660  154.9199 H   0  0  0  0  0  0  0  0  0  0  0  0
  146.7456  133.0495  155.1913 H   0  0  0  0  0  0  0  0  0  0  0  0
  150.4840  139.2344  152.9211 H   0  0  0  0  0  0  0  0  0  0  0  0
  150.7808  137.4794  155.3983 H   0  0  0  0  0  0  0  0  0  0  0  0
  150.9059  136.9600  153.7162 H   0  0  0  0  0  0  0  0  0  0  0  0
  153.0821  137.7454  155.2704 H   0  0  0  0  0  0  0  0  0  0  0  0
  153.0669  137.9135  153.5146 H   0  0  0  0  0  0  0  0  0  0  0  0
  153.0727  140.1027  155.4032 H   0  0  0  0  0  0  0  0  0  0  0  0
  152.8998  140.1992  153.6483 H   0  0  0  0  0  0  0  0  0  0  0  0
  143.6735  133.1233  153.2793 H   0  0  0  0  0  0  0  0  0  0  0  0
  1  2  1  0  0  0  0
  1 23  1  0  0  0  0
  1 24  1  0  0  0  0
  1 25  1  0  0  0  0
  2  3  1  0  0  0  0
  2 18  1  0  0  0  0
  2 26  1  0  0  0  0
  3  4  1  0  0  0  0
  3 27  1  0  0  0  0
  4  5  2  0  0  0  0
  4  6  1  0  0  0  0
  6  7  1  0  0  0  0
  6 28  1  0  0  0  0
  7 12  1  0  0  0  0
  7  8  2  0  0  0  0
  8  9  1  0  0  0  0
  8 29  1  0  0  0  0
  9 10  2  0  0  0  0
  9 30  1  0  0  0  0
 10 11  1  0  0  0  0
 10 31  1  0  0  0  0
 11 12  2  0  0  0  0
 11 47  1  0  0  0  0
 12 13  1  0  0  0  0
 13 17  1  0  0  0  0
 13 14  1  0  0  0  0
 14 15  1  0  0  0  0
 14 32  1  0  0  0  0
 14 33  1  0  0  0  0
 15 16  1  0  0  0  0
 15 34  1  0  0  0  0
 15 35  1  0  0  0  0
 16 17  1  0  0  0  0
 16 36  1  0  0  0  0
 16 37  1  0  0  0  0
 17 38  1  0  0  0  0
 17 39  1  0  0  0  0
 18 22  1  0  0  0  0
 18 19  1  0  0  0  0
 18 40  1  0  0  0  0
 19 20  1  0  0  0  0
 19 41  1  0  0  0  0
 19 42  1  0  0  0  0
 20 21  1  0  0  0  0
 20 43  1  0  0  0  0
 20 44  1  0  0  0  0
 21 22  1  0  0  0  0
 21 45  1  0  0  0  0
 21 46  1  0  0  0  0
M  CHG  1  11   1
M  END
> <s_m_source_file>
AV-unprocessed.smi

> <i_m_source_file_index>
1793

> <i_lp_mmshare_version>
43012

> <i_f3d_flags>
0

> <s_epik_input>
TzFbQ0gyXVtDSDJdW0NIMl1bQ0BIXTFbQ0BIXShbQ0gzXSlbTkhdQyg9TylbTkhdYzJbY0hdW2NIXVtjSF1uYzJOM1tDSDJdW0NIMl1bQ0gyXVtDSDJdMw==

> <s_epik_cmdline>
J2VwaWtfcHl0aG9uJywgJy1waCcsICc3LjAnLCAnLXRuJywgJzgnLCAnLW1hJywgJzIwMCcsICctbWV0YWxfYmluZGluZycsICctaW1hZScsICc8aW5maWxlLm1hZT4nLCAnLW9tYWUnLCAnPG91dGZpbGUubWFlPic=

> <r_lp_tautomer_probability>
0.999994

> <r_epik_Ionization_Penalty>
1.11092

> <r_epik_Ionization_Penalty_Charging>
1.1109

> <r_epik_Ionization_Penalty_Neutral>
1.9363e-05

> <r_epik_State_Penalty>
1.16888

> <r_epik_Charging_Adjusted_Penalty>
2.27978

> <i_epik_Tot_Q>
1

> <i_epik_Tot_abs_Q>
1

> <r_epik_Metal_State_Penalty>
1.25472

> <b_epik_Metal_Only>
0

> <s_lp_Force_Field>
OPLS_2005

> <r_lp_Energy>
51.9838

> <b_lp_Chiralities_Consistent>
1

> <s_lp_Variant>
AV-unprocessed.smi:1793-6

> <Gold.Version>
5.8.1

> <Gold.Id.Protein>
6NUR|6NUR_protein|mol2

> <Gold.PLP.Fitness>
40.5523

> <Gold.PLP.PLP>
-29.7292

> <Gold.PLP.part.hbond>
-4.0000

> <Gold.PLP.part.metal>
0.0000

> <Gold.PLP.part.buried>
-1.0537

> <Gold.PLP.part.nonpolar>
-26.0617

> <Gold.PLP.part.repulsive>
0.2260

> <Gold.PLP.ligand.clash>
0.0000

> <Gold.PLP.ligand.torsion>
0.6409

> <Gold.PLP.Chemscore.Hbond>
3.8878

> <Gold.PLP.Chemscore.CHOScore>
0.0000

> <Gold.PLP.Chemscore.Metal>
0.0000

> <Gold.Chemscore.Hbonds>
donor molecule, donor type, donor heavy atom, donor atom, acceptor molecule, acceptor atom, score
      L1  H     3    27       P1  7948  1.00
      L1  H     6    28       P1  7948  1.00
      L1  H    11    47       P1 10957  0.58

> <Gold.PLP.Chemscore.Internal.Correction>
0.4416

> <Gold.Rescore>
     Score         DG    S(hbond)    S(metal)    S(lipo)     H(rot)  DE(clash)    DE(int)     intcor
     14.96     -18.75       2.44        0.00      73.99       1.38       1.19       2.60       ----

> <Gold.Chemscore.Fitness>
14.9597

> <Gold.Chemscore.DG>
-18.7499

> <Gold.Chemscore.ZeroCoef>
-5.4800

> <Gold.Chemscore.Hbond>
2.4390

> <Gold.Chemscore.Metal>
0.0000

> <Gold.Chemscore.Lipo>
73.9906

> <Gold.Chemscore.Internal_Hbond>
0.0000

> <Gold.Chemscore.DEClash>
1.1938

> <Gold.Chemscore.DEInternal>
2.5964

> <Gold.Chemscore.Rot>
1.3802

> <Gold.Chemscore.Internal.Correction>
   9.000000E+99

> <Gold.Chemscore.Hbonds>
donor molecule, donor type, donor heavy atom, donor atom, acceptor molecule, acceptor atom, score
      L1  H     3    27       P1  7948  0.99
      L1  H     6    28       P1  7948  0.97
      L1  H    11    47       P1 10957  0.23

> <Gold.Chemscore.Hbond.Weighted>
-8.1462

> <Gold.Chemscore.Metal.Weighted>
-0.0000

> <Gold.Chemscore.Lipo.Weighted>
-8.6569

> <Gold.Chemscore.Internal_Hbond.Weighted>
0.0000

> <Gold.Chemscore.DEClash.Weighted>
1.1938

> <Gold.Chemscore.DEInternal.Weighted>
2.5964

> <Gold.Chemscore.Rot.Weighted>
3.5332

> <Gold.Chemscore.Internal.Correction.Weighted>
   9.000000E+99

> <Gold.Protein.RotatedTorsions>
[ 6907 6896 6895 6894 ] final   90.67 input  -60.11 | X-H torsion
[ 7974 7965 7964 7962 ] final  -80.66 input  175.53 | X-H torsion
[ 8008 7997 7996 7995 ] final   97.50 input   59.86 | X-H torsion
[ 10167 10162 10161 10158 ] final  143.89 input  -65.29 | X-H torsion
[ 10718 10713 10712 10709 ] final  -59.47 input   66.30 | X-H torsion
[ 10763 10752 10751 10750 ] final   35.87 input  -60.55 | X-H torsion
[ 11005 11000 10999 10996 ] final  -52.52 input  -57.11 | X-H torsion

> <Gold.Protein.ActiveResidues>
 VAL166  LYS551  ARG553  GLY616  TRP617  ASP618  TYR619  PRO620  LYS621  CYS622 
 ASP623  PHE694  ASN695  SER759  ASP760  ASP761  ALA762  ILE779  LEU786  VAL792 
 PHE793  MET794  SER795  GLU796  ALA797  LYS798  CYS799  TRP800  GLU811  SER814 

> <Gold.Protein.RotatedAtoms>
  152.5446  134.1776  159.8621 H   0  0  0  0  0  0  0  0  0  0  0  0  # atno 6907 bound_to 6896
  151.1781  133.4735  159.2601 H   0  0  0  0  0  0  0  0  0  0  0  0  # atno 6908 bound_to 6896
  151.1207  135.0089  159.8592 H   0  0  0  0  0  0  0  0  0  0  0  0  # atno 6909 bound_to 6896
  145.5570  140.9488  143.1468 H   0  0  0  0  0  0  0  0  0  0  0  0  # atno 7974 bound_to 7965
  156.0907  140.3257  155.7812 H   0  0  0  0  0  0  0  0  0  0  0  0  # atno 8008 bound_to 7997
  155.5001  140.0568  157.2958 H   0  0  0  0  0  0  0  0  0  0  0  0  # atno 8009 bound_to 7997
  154.4636  140.1978  156.0194 H   0  0  0  0  0  0  0  0  0  0  0  0  # atno 8010 bound_to 7997
  139.4959  144.6010  151.6482 H   0  0  0  0  0  0  0  0  0  0  0  0  # atno 10167 bound_to 10162
  156.1059  130.4180  150.0720 H   0  0  0  0  0  0  0  0  0  0  0  0  # atno 10718 bound_to 10713
  153.0100  135.6321  154.1896 H   0  0  0  0  0  0  0  0  0  0  0  0  # atno 10763 bound_to 10752
  154.1638  135.2822  155.3102 H   0  0  0  0  0  0  0  0  0  0  0  0  # atno 10764 bound_to 10752
  154.5961  135.5602  153.7387 H   0  0  0  0  0  0  0  0  0  0  0  0  # atno 10765 bound_to 10752
  141.0928  133.6629  156.4036 H   0  0  0  0  0  0  0  0  0  0  0  0  # atno 11005 bound_to 11000
  144.7501  139.7215  143.7276 LP  0  0  0  0  0  0  0  0  0  0  0  0  # atno 17320 bound_to 7965
  146.1878  139.5102  142.9825 LP  0  0  0  0  0  0  0  0  0  0  0  0  # atno 17321 bound_to 7965
  140.5659  144.0190  150.6192 LP  0  0  0  0  0  0  0  0  0  0  0  0  # atno 17342 bound_to 10162
  140.3292  143.3088  152.0705 LP  0  0  0  0  0  0  0  0  0  0  0  0  # atno 17343 bound_to 10162
  156.8695  130.9519  151.3610 LP  0  0  0  0  0  0  0  0  0  0  0  0  # atno 17370 bound_to 10713
  157.6236  130.8674  149.9150 LP  0  0  0  0  0  0  0  0  0  0  0  0  # atno 17371 bound_to 10713
  140.5211  134.6304  157.5318 LP  0  0  0  0  0  0  0  0  0  0  0  0  # atno 17394 bound_to 11000
  139.9758  134.7218  155.9953 LP  0  0  0  0  0  0  0  0  0  0  0  0  # atno 17395 bound_to 11000

$$$$
