AV-unprocessed.smi:843|AV-procd|sdf|3922|dock4
  -GOLD-   22720 1383D 1   1.00000     0.00000
 Structure written by MMmdl.
 46 47  0  0  0  0  0  0  0  0  2 V2000
  146.3321  129.8771  151.7118 C   0  0  0  0  0  0  0  0  0  0  0  0
  145.6028  130.9594  150.9020 C   0  0  0  0  0  0  0  0  0  0  0  0
  145.1839  132.1156  151.7345 N   0  3  2  0  0  0  0  0  0  0  0  0
  144.1588  132.9493  151.0540 C   0  0  0  0  0  0  0  0  0  0  0  0
  143.6473  134.0762  151.9712 C   0  0  0  0  0  0  0  0  0  0  0  0
  144.7902  134.9609  152.5032 C   0  0  2  0  0  0  0  0  0  0  0  0
  145.3521  135.9049  151.4133 C   0  0  0  0  0  0  0  0  0  0  0  0
  146.5302  136.6391  151.8670 N   0  0  0  0  0  0  0  0  0  0  0  0
  146.5134  137.7946  152.5474 C   0  0  0  0  0  0  0  0  0  0  0  0
  145.4773  138.3690  152.8803 O   0  0  0  0  0  0  0  0  0  0  0  0
  147.7614  138.2200  152.8080 N   0  0  0  0  0  0  0  0  0  0  0  0
  148.1885  139.4084  153.4651 C   0  0  0  0  0  0  0  0  0  0  0  0
  147.4049  140.5841  153.5690 C   0  0  0  0  0  0  0  0  0  0  0  0
  147.9393  141.7060  154.2285 C   0  0  0  0  0  0  0  0  0  0  0  0
  149.2403  141.6177  154.7554 C   0  0  0  0  0  0  0  0  0  0  0  0
  150.0036  140.5106  154.6541 N   0  0  0  0  0  0  0  0  0  0  0  0
  149.4908  139.4274  154.0182 C   0  0  0  0  0  0  0  0  0  0  0  0
  150.2790  138.2975  153.9083 O   0  0  0  0  0  0  0  0  0  0  0  0
  151.6139  138.3492  154.4003 C   0  0  0  0  0  0  0  0  0  0  0  0
  145.8434  134.0491  153.1660 C   0  0  0  0  0  0  0  0  0  0  0  0
  146.3250  132.9367  152.2185 C   0  0  0  0  0  0  0  0  0  0  0  0
  146.5223  129.0003  151.0925 H   0  0  0  0  0  0  0  0  0  0  0  0
  145.7361  129.5538  152.5657 H   0  0  0  0  0  0  0  0  0  0  0  0
  147.2968  130.2214  152.0831 H   0  0  0  0  0  0  0  0  0  0  0  0
  146.2218  131.3008  150.0709 H   0  0  0  0  0  0  0  0  0  0  0  0
  144.7175  130.5005  150.4599 H   0  0  0  0  0  0  0  0  0  0  0  0
  144.5745  133.3618  150.1337 H   0  0  0  0  0  0  0  0  0  0  0  0
  143.3154  132.3230  150.7609 H   0  0  0  0  0  0  0  0  0  0  0  0
  142.9125  134.6842  151.4423 H   0  0  0  0  0  0  0  0  0  0  0  0
  143.1174  133.6318  152.8148 H   0  0  0  0  0  0  0  0  0  0  0  0
  144.3717  135.5991  153.2831 H   0  0  0  0  0  0  0  0  0  0  0  0
  145.5659  135.3626  150.4917 H   0  0  0  0  0  0  0  0  0  0  0  0
  144.5953  136.6447  151.1509 H   0  0  0  0  0  0  0  0  0  0  0  0
  147.4286  136.2367  151.6425 H   0  0  0  0  0  0  0  0  0  0  0  0
  148.5065  137.5982  152.5296 H   0  0  0  0  0  0  0  0  0  0  0  0
  146.4148  140.6586  153.1486 H   0  0  0  0  0  0  0  0  0  0  0  0
  147.3653  142.6159  154.3238 H   0  0  0  0  0  0  0  0  0  0  0  0
  149.6825  142.4602  155.2663 H   0  0  0  0  0  0  0  0  0  0  0  0
  152.0997  137.3890  154.2275 H   0  0  0  0  0  0  0  0  0  0  0  0
  151.6364  138.5428  155.4738 H   0  0  0  0  0  0  0  0  0  0  0  0
  152.1999  139.1123  153.8858 H   0  0  0  0  0  0  0  0  0  0  0  0
  146.6916  134.6279  153.5298 H   0  0  0  0  0  0  0  0  0  0  0  0
  145.4055  133.5880  154.0524 H   0  0  0  0  0  0  0  0  0  0  0  0
  147.0389  132.3129  152.7546 H   0  0  0  0  0  0  0  0  0  0  0  0
  146.8591  133.3611  151.3678 H   0  0  0  0  0  0  0  0  0  0  0  0
  144.7336  131.7301  152.5523 H   0  0  0  0  0  0  0  0  0  0  0  0
  1  2  1  0  0  0  0
  1 22  1  0  0  0  0
  1 23  1  0  0  0  0
  1 24  1  0  0  0  0
  2  3  1  0  0  0  0
  2 25  1  0  0  0  0
  2 26  1  0  0  0  0
  3 21  1  0  0  0  0
  3  4  1  0  0  0  0
  3 46  1  0  0  0  0
  4  5  1  0  0  0  0
  4 27  1  0  0  0  0
  4 28  1  0  0  0  0
  5  6  1  0  0  0  0
  5 29  1  0  0  0  0
  5 30  1  0  0  0  0
  6  7  1  0  0  0  0
  6 20  1  0  0  0  0
  6 31  1  0  0  0  0
  7  8  1  0  0  0  0
  7 32  1  0  0  0  0
  7 33  1  0  0  0  0
  8  9  1  0  0  0  0
  8 34  1  0  0  0  0
  9 10  2  0  0  0  0
  9 11  1  0  0  0  0
 11 12  1  0  0  0  0
 11 35  1  0  0  0  0
 12 17  1  0  0  0  0
 12 13  2  0  0  0  0
 13 14  1  0  0  0  0
 13 36  1  0  0  0  0
 14 15  2  0  0  0  0
 14 37  1  0  0  0  0
 15 16  1  0  0  0  0
 15 38  1  0  0  0  0
 16 17  2  0  0  0  0
 17 18  1  0  0  0  0
 18 19  1  0  0  0  0
 19 39  1  0  0  0  0
 19 40  1  0  0  0  0
 19 41  1  0  0  0  0
 20 21  1  0  0  0  0
 20 42  1  0  0  0  0
 20 43  1  0  0  0  0
 21 44  1  0  0  0  0
 21 45  1  0  0  0  0
M  CHG  1   3   1
M  END
> <s_m_source_file>
AV-unprocessed.smi

> <i_m_source_file_index>
843

> <i_lp_mmshare_version>
43012

> <i_f3d_flags>
0

> <s_epik_input>
W0NIM11bQ0gyXU4xW0NIMl1bQ0gyXVtDSF0oW0NIMl1bQ0gyXTEpW0NIMl1bTkhdQyg9TylbTkhdYzJbY0hdW2NIXVtjSF1uYzJPW0NIM10=

> <s_epik_cmdline>
J2VwaWtfcHl0aG9uJywgJy1waCcsICc3LjAnLCAnLXRuJywgJzgnLCAnLW1hJywgJzIwMCcsICctbWV0YWxfYmluZGluZycsICctaW1hZScsICc8aW5maWxlLm1hZT4nLCAnLW9tYWUnLCAnPG91dGZpbGUubWFlPic=

> <r_lp_tautomer_probability>
1

> <r_epik_Ionization_Penalty>
0.00115026

> <r_epik_Ionization_Penalty_Charging>
0.00106265

> <r_epik_Ionization_Penalty_Neutral>
8.76119e-05

> <r_epik_State_Penalty>
0.000695551

> <r_epik_Charging_Adjusted_Penalty>
0.0017582

> <i_epik_Tot_Q>
1

> <i_epik_Tot_abs_Q>
1

> <r_epik_Metal_State_Penalty>
-0

> <b_epik_Metal_Only>
0

> <s_lp_Force_Field>
OPLS_2005

> <r_lp_Energy>
22.0854

> <b_lp_Chiralities_Consistent>
1

> <s_lp_Variant>
AV-unprocessed.smi:843-2

> <Gold.Version>
5.8.1

> <Gold.Id.Protein>
6NUR|6NUR_protein|mol2

> <Gold.PLP.Fitness>
45.6614

> <Gold.PLP.PLP>
-34.8011

> <Gold.PLP.part.hbond>
-3.5971

> <Gold.PLP.part.metal>
0.0000

> <Gold.PLP.part.buried>
-0.2213

> <Gold.PLP.part.nonpolar>
-34.3454

> <Gold.PLP.part.repulsive>
3.2990

> <Gold.PLP.ligand.clash>
0.0000

> <Gold.PLP.ligand.torsion>
0.4224

> <Gold.PLP.Chemscore.Hbond>
2.8880

> <Gold.PLP.Chemscore.CHOScore>
1.0000

> <Gold.PLP.Chemscore.Metal>
0.0000

> <Gold.Chemscore.Hbonds>
donor molecule, donor type, donor heavy atom, donor atom, acceptor molecule, acceptor atom, score
      L1  H     8    34       P1  7948  0.94
      L1  H    11    35       P1  7948  0.99
      P1  H  7989  7998       L1    16  0.90
      L1  C    15    38       P1  8028  1.00

> <Gold.PLP.Chemscore.Internal.Correction>
0.0410

> <Gold.Rescore>
     Score         DG    S(hbond)    S(metal)    S(lipo)     H(rot)  DE(clash)    DE(int)     intcor
     15.02     -17.83       1.96        0.00      85.76       1.65       1.47       1.34       ----

> <Gold.Chemscore.Fitness>
15.0174

> <Gold.Chemscore.DG>
-17.8320

> <Gold.Chemscore.ZeroCoef>
-5.4800

> <Gold.Chemscore.Hbond>
1.9581

> <Gold.Chemscore.Metal>
0.0000

> <Gold.Chemscore.Lipo>
85.7599

> <Gold.Chemscore.Internal_Hbond>
0.0000

> <Gold.Chemscore.DEClash>
1.4700

> <Gold.Chemscore.DEInternal>
1.3446

> <Gold.Chemscore.Rot>
1.6492

> <Gold.Chemscore.Internal.Correction>
   9.000000E+99

> <Gold.Chemscore.Hbonds>
donor molecule, donor type, donor heavy atom, donor atom, acceptor molecule, acceptor atom, score
      L1  H     8    34       P1  7948  0.85
      L1  H    11    35       P1  7948  0.91
      P1  H  7989  7998       L1    16  0.16

> <Gold.Chemscore.Hbond.Weighted>
-6.5400

> <Gold.Chemscore.Metal.Weighted>
-0.0000

> <Gold.Chemscore.Lipo.Weighted>
-10.0339

> <Gold.Chemscore.Internal_Hbond.Weighted>
0.0000

> <Gold.Chemscore.DEClash.Weighted>
1.4700

> <Gold.Chemscore.DEInternal.Weighted>
1.3446

> <Gold.Chemscore.Rot.Weighted>
4.2219

> <Gold.Chemscore.Internal.Correction.Weighted>
   9.000000E+99

> <Gold.Protein.RotatedTorsions>
[ 6907 6896 6895 6894 ] final   96.26 input  -60.11 | X-H torsion
[ 7974 7965 7964 7962 ] final  -76.25 input  175.53 | X-H torsion
[ 8008 7997 7996 7995 ] final  158.91 input   59.86 | X-H torsion
[ 10167 10162 10161 10158 ] final -132.73 input  -65.29 | X-H torsion
[ 10718 10713 10712 10709 ] final  -22.58 input   66.30 | X-H torsion
[ 10763 10752 10751 10750 ] final  -12.46 input  -60.55 | X-H torsion
[ 11005 11000 10999 10996 ] final  -10.62 input  -57.11 | X-H torsion

> <Gold.Protein.ActiveResidues>
 VAL166  LYS551  ARG553  GLY616  TRP617  ASP618  TYR619  PRO620  LYS621  CYS622 
 ASP623  PHE694  ASN695  SER759  ASP760  ASP761  ALA762  ILE779  LEU786  VAL792 
 PHE793  MET794  SER795  GLU796  ALA797  LYS798  CYS799  TRP800  GLU811  SER814 

> <Gold.Protein.RotatedAtoms>
  152.5436  134.0913  159.8277 H   0  0  0  0  0  0  0  0  0  0  0  0  # atno 6907 bound_to 6896
  151.1002  133.5241  159.2617 H   0  0  0  0  0  0  0  0  0  0  0  0  # atno 6908 bound_to 6896
  151.1999  135.0447  159.8922 H   0  0  0  0  0  0  0  0  0  0  0  0  # atno 6909 bound_to 6896
  145.6153  140.9376  143.1167 H   0  0  0  0  0  0  0  0  0  0  0  0  # atno 7974 bound_to 7965
  156.2273  140.1845  156.7331 H   0  0  0  0  0  0  0  0  0  0  0  0  # atno 8008 bound_to 7997
  154.5962  140.0643  156.9335 H   0  0  0  0  0  0  0  0  0  0  0  0  # atno 8009 bound_to 7997
  155.2251  140.3310  155.4313 H   0  0  0  0  0  0  0  0  0  0  0  0  # atno 8010 bound_to 7997
  139.9055  143.6556  152.2586 H   0  0  0  0  0  0  0  0  0  0  0  0  # atno 10167 bound_to 10162
  156.5026  130.4591  149.6692 H   0  0  0  0  0  0  0  0  0  0  0  0  # atno 10718 bound_to 10713
  153.4989  135.7017  153.5843 H   0  0  0  0  0  0  0  0  0  0  0  0  # atno 10763 bound_to 10752
  153.3983  135.3878  155.1970 H   0  0  0  0  0  0  0  0  0  0  0  0  # atno 10764 bound_to 10752
  154.8712  135.3875  154.4457 H   0  0  0  0  0  0  0  0  0  0  0  0  # atno 10765 bound_to 10752
  140.7466  133.8626  155.9011 H   0  0  0  0  0  0  0  0  0  0  0  0  # atno 11005 bound_to 11000
  144.7253  139.7896  143.7367 LP  0  0  0  0  0  0  0  0  0  0  0  0  # atno 17320 bound_to 7965
  146.1473  139.4546  143.0071 LP  0  0  0  0  0  0  0  0  0  0  0  0  # atno 17321 bound_to 7965
  139.6988  144.7638  151.1310 LP  0  0  0  0  0  0  0  0  0  0  0  0  # atno 17342 bound_to 10162
  140.7697  143.5487  150.9229 LP  0  0  0  0  0  0  0  0  0  0  0  0  # atno 17343 bound_to 10162
  156.3318  130.7335  151.2266 LP  0  0  0  0  0  0  0  0  0  0  0  0  # atno 17370 bound_to 10713
  157.7461  131.0428  150.4711 LP  0  0  0  0  0  0  0  0  0  0  0  0  # atno 17371 bound_to 10713
  140.9788  134.1433  157.4512 LP  0  0  0  0  0  0  0  0  0  0  0  0  # atno 17394 bound_to 11000
  139.8795  135.0003  156.6006 LP  0  0  0  0  0  0  0  0  0  0  0  0  # atno 17395 bound_to 11000

$$$$
