AV-unprocessed.smi:2555|AV-procd|sdf|10022|dock5
  -GOLD-   2272014 63D 1   1.00000     0.00000
 Structure written by MMmdl.
 40 41  0  0  0  0  0  0  0  0  1 V2000
  150.1960  138.5966  155.8101 C   0  0  0  0  0  0  0  0  0  0  0  0
  149.2288  139.4924  155.0908 C   0  0  0  0  0  0  0  0  0  0  0  0
  148.7760  139.1433  153.8983 N   0  0  0  0  0  0  0  0  0  0  0  0
  147.9107  140.1678  153.5023 O   0  0  0  0  0  0  0  0  0  0  0  0
  147.8777  141.1053  154.4832 C   0  0  0  0  0  0  0  0  0  0  0  0
  147.0054  142.2918  154.2481 C   0  0  0  0  0  0  0  0  0  0  0  0
  148.6903  140.7390  155.5207 C   0  0  0  0  0  0  0  0  0  0  0  0
  148.9583  141.4726  156.8089 C   0  0  0  0  0  0  0  0  0  0  0  0
  150.4339  141.8661  156.8767 C   0  0  0  0  0  0  0  0  0  0  0  0
  151.2935  140.9990  157.0330 O   0  0  0  0  0  0  0  0  0  0  0  0
  150.7114  143.1743  156.7600 N   0  0  0  0  0  0  0  0  0  0  0  0
  152.0432  143.7687  156.8294 C   0  0  0  0  0  0  0  0  0  0  0  0
  152.4827  144.0767  158.2769 C   0  0  0  0  0  0  0  0  0  0  0  0
  152.5782  142.8118  159.1609 C   0  0  0  0  0  0  0  0  0  0  0  0
  152.9788  143.1492  160.6065 C   0  0  0  0  0  0  0  0  0  0  0  0
  152.0202  144.1748  161.2285 C   0  0  0  0  0  0  0  0  0  0  0  0
  151.9352  145.4414  160.3646 C   0  0  0  0  0  0  0  0  0  0  0  0
  151.5273  145.1023  158.9220 C   0  0  0  0  0  0  0  0  0  0  0  0
  151.1270  139.1215  156.0239 H   0  0  0  0  0  0  0  0  0  0  0  0
  150.4435  137.7120  155.2220 H   0  0  0  0  0  0  0  0  0  0  0  0
  149.7799  138.2579  156.7590 H   0  0  0  0  0  0  0  0  0  0  0  0
  147.4674  143.1968  154.6431 H   0  0  0  0  0  0  0  0  0  0  0  0
  146.0403  142.1633  154.7384 H   0  0  0  0  0  0  0  0  0  0  0  0
  146.8279  142.4432  153.1832 H   0  0  0  0  0  0  0  0  0  0  0  0
  148.3535  142.3769  156.8832 H   0  0  0  0  0  0  0  0  0  0  0  0
  148.6977  140.8646  157.6763 H   0  0  0  0  0  0  0  0  0  0  0  0
  149.9379  143.8103  156.6302 H   0  0  0  0  0  0  0  0  0  0  0  0
  152.7361  143.0550  156.3827 H   0  0  0  0  0  0  0  0  0  0  0  0
  152.1027  144.6685  156.2146 H   0  0  0  0  0  0  0  0  0  0  0  0
  153.4743  144.5300  158.2339 H   0  0  0  0  0  0  0  0  0  0  0  0
  151.6199  142.2906  159.1608 H   0  0  0  0  0  0  0  0  0  0  0  0
  153.3077  142.1138  158.7505 H   0  0  0  0  0  0  0  0  0  0  0  0
  152.9916  142.2406  161.2089 H   0  0  0  0  0  0  0  0  0  0  0  0
  153.9955  143.5438  160.6208 H   0  0  0  0  0  0  0  0  0  0  0  0
  151.0279  143.7335  161.3307 H   0  0  0  0  0  0  0  0  0  0  0  0
  152.3508  144.4314  162.2354 H   0  0  0  0  0  0  0  0  0  0  0  0
  151.2182  146.1389  160.7986 H   0  0  0  0  0  0  0  0  0  0  0  0
  152.9000  145.9501  160.3629 H   0  0  0  0  0  0  0  0  0  0  0  0
  151.5063  146.0167  158.3281 H   0  0  0  0  0  0  0  0  0  0  0  0
  150.5094  144.7103  158.9173 H   0  0  0  0  0  0  0  0  0  0  0  0
  1  2  1  0  0  0  0
  1 19  1  0  0  0  0
  1 20  1  0  0  0  0
  1 21  1  0  0  0  0
  2  7  1  0  0  0  0
  2  3  2  0  0  0  0
  3  4  1  0  0  0  0
  4  5  1  0  0  0  0
  5  6  1  0  0  0  0
  5  7  2  0  0  0  0
  6 22  1  0  0  0  0
  6 23  1  0  0  0  0
  6 24  1  0  0  0  0
  7  8  1  0  0  0  0
  8  9  1  0  0  0  0
  8 25  1  0  0  0  0
  8 26  1  0  0  0  0
  9 10  2  0  0  0  0
  9 11  1  0  0  0  0
 11 12  1  0  0  0  0
 11 27  1  0  0  0  0
 12 13  1  0  0  0  0
 12 28  1  0  0  0  0
 12 29  1  0  0  0  0
 13 18  1  0  0  0  0
 13 14  1  0  0  0  0
 13 30  1  0  0  0  0
 14 15  1  0  0  0  0
 14 31  1  0  0  0  0
 14 32  1  0  0  0  0
 15 16  1  0  0  0  0
 15 33  1  0  0  0  0
 15 34  1  0  0  0  0
 16 17  1  0  0  0  0
 16 35  1  0  0  0  0
 16 36  1  0  0  0  0
 17 18  1  0  0  0  0
 17 37  1  0  0  0  0
 17 38  1  0  0  0  0
 18 39  1  0  0  0  0
 18 40  1  0  0  0  0
M  END
> <s_m_source_file>
AV-unprocessed.smi

> <i_m_source_file_index>
2555

> <i_lp_mmshare_version>
43012

> <i_f3d_flags>
0

> <s_epik_input>
W0NIM11jMW5vYyhbQ0gzXSljMVtDSDJdQyg9TylbTkhdW0NIMl1bQ0hdMltDSDJdW0NIMl1bQ0gyXVtDSDJdW0NIMl0y

> <s_epik_cmdline>
J2VwaWtfcHl0aG9uJywgJy1waCcsICc3LjAnLCAnLXRuJywgJzgnLCAnLW1hJywgJzIwMCcsICctbWV0YWxfYmluZGluZycsICctaW1hZScsICc8aW5maWxlLm1hZT4nLCAnLW9tYWUnLCAnPG91dGZpbGUubWFlPic=

> <r_lp_tautomer_probability>
1

> <r_epik_Ionization_Penalty>
1.94914e-08

> <r_epik_Ionization_Penalty_Charging>
0

> <r_epik_Ionization_Penalty_Neutral>
1.94914e-08

> <r_epik_State_Penalty>
-0

> <r_epik_Charging_Adjusted_Penalty>
0

> <i_epik_Tot_Q>
0

> <i_epik_Tot_abs_Q>
0

> <r_epik_Metal_State_Penalty>
-0

> <b_epik_Metal_Only>
0

> <s_lp_Force_Field>
OPLS_2005

> <r_lp_Energy>
4.99285

> <b_lp_Chiralities_Consistent>
1

> <s_lp_Variant>
AV-unprocessed.smi:2555-1

> <Gold.Version>
5.8.1

> <Gold.Id.Protein>
6NUR|6NUR_protein|mol2

> <Gold.PLP.Fitness>
40.8519

> <Gold.PLP.PLP>
-38.6658

> <Gold.PLP.part.hbond>
-1.0000

> <Gold.PLP.part.metal>
0.0000

> <Gold.PLP.part.buried>
-8.4443

> <Gold.PLP.part.nonpolar>
-32.8067

> <Gold.PLP.part.repulsive>
3.3654

> <Gold.PLP.ligand.clash>
0.0000

> <Gold.PLP.ligand.torsion>
0.2885

> <Gold.PLP.Chemscore.Hbond>
0.9120

> <Gold.PLP.Chemscore.CHOScore>
0.0000

> <Gold.PLP.Chemscore.Metal>
0.0000

> <Gold.Chemscore.Hbonds>
donor molecule, donor type, donor heavy atom, donor atom, acceptor molecule, acceptor atom, score
      L1  H    11    27       P1  8028  1.00

> <Gold.PLP.Chemscore.Internal.Correction>
0.0271

> <Gold.Rescore>
     Score         DG    S(hbond)    S(metal)    S(lipo)     H(rot)  DE(clash)    DE(int)     intcor
     15.89     -19.06       0.99        0.00     119.23       1.43       2.80       0.37       ----

> <Gold.Chemscore.Fitness>
15.8885

> <Gold.Chemscore.DG>
-19.0636

> <Gold.Chemscore.ZeroCoef>
-5.4800

> <Gold.Chemscore.Hbond>
0.9886

> <Gold.Chemscore.Metal>
0.0000

> <Gold.Chemscore.Lipo>
119.2314

> <Gold.Chemscore.Internal_Hbond>
0.0000

> <Gold.Chemscore.DEClash>
2.8034

> <Gold.Chemscore.DEInternal>
0.3717

> <Gold.Chemscore.Rot>
1.4329

> <Gold.Chemscore.Internal.Correction>
   9.000000E+99

> <Gold.Chemscore.Hbonds>
donor molecule, donor type, donor heavy atom, donor atom, acceptor molecule, acceptor atom, score
      L1  H    11    27       P1  8028  0.97

> <Gold.Chemscore.Hbond.Weighted>
-3.3019

> <Gold.Chemscore.Metal.Weighted>
-0.0000

> <Gold.Chemscore.Lipo.Weighted>
-13.9501

> <Gold.Chemscore.Internal_Hbond.Weighted>
0.0000

> <Gold.Chemscore.DEClash.Weighted>
2.8034

> <Gold.Chemscore.DEInternal.Weighted>
0.3717

> <Gold.Chemscore.Rot.Weighted>
3.6683

> <Gold.Chemscore.Internal.Correction.Weighted>
   9.000000E+99

> <Gold.Protein.RotatedTorsions>
[ 6907 6896 6895 6894 ] final -105.38 input  -60.11 | X-H torsion
[ 7974 7965 7964 7962 ] final -171.72 input  175.53 | X-H torsion
[ 8008 7997 7996 7995 ] final -161.59 input   59.86 | X-H torsion
[ 10167 10162 10161 10158 ] final -119.45 input  -65.29 | X-H torsion
[ 10718 10713 10712 10709 ] final   74.40 input   66.30 | X-H torsion
[ 10763 10752 10751 10750 ] final  139.76 input  -60.55 | X-H torsion
[ 11005 11000 10999 10996 ] final -104.67 input  -57.11 | X-H torsion

> <Gold.Protein.ActiveResidues>
 VAL166  LYS551  ARG553  GLY616  TRP617  ASP618  TYR619  PRO620  LYS621  CYS622 
 ASP623  PHE694  ASN695  SER759  ASP760  ASP761  ALA762  ILE779  LEU786  VAL792 
 PHE793  MET794  SER795  GLU796  ALA797  LYS798  CYS799  TRP800  GLU811  SER814 

> <Gold.Protein.RotatedAtoms>
  150.7334  134.0135  159.3677 H   0  0  0  0  0  0  0  0  0  0  0  0  # atno 6907 bound_to 6896
  151.8096  135.0682  160.0420 H   0  0  0  0  0  0  0  0  0  0  0  0  # atno 6908 bound_to 6896
  152.3082  133.5689  159.5699 H   0  0  0  0  0  0  0  0  0  0  0  0  # atno 6909 bound_to 6896
  144.7154  140.1879  143.6351 H   0  0  0  0  0  0  0  0  0  0  0  0  # atno 7974 bound_to 7965
  155.7944  140.0883  157.1991 H   0  0  0  0  0  0  0  0  0  0  0  0  # atno 8008 bound_to 7997
  154.3984  140.1484  156.3259 H   0  0  0  0  0  0  0  0  0  0  0  0  # atno 8009 bound_to 7997
  155.8526  140.3434  155.5706 H   0  0  0  0  0  0  0  0  0  0  0  0  # atno 8010 bound_to 7997
  140.0465  143.5102  152.2104 H   0  0  0  0  0  0  0  0  0  0  0  0  # atno 10167 bound_to 10162
  157.6590  130.9676  150.1205 H   0  0  0  0  0  0  0  0  0  0  0  0  # atno 10718 bound_to 10713
  153.9114  135.3011  155.3448 H   0  0  0  0  0  0  0  0  0  0  0  0  # atno 10763 bound_to 10752
  154.7621  135.4928  153.9488 H   0  0  0  0  0  0  0  0  0  0  0  0  # atno 10764 bound_to 10752
  153.1191  135.6778  153.9469 H   0  0  0  0  0  0  0  0  0  0  0  0  # atno 10765 bound_to 10752
  141.1090  133.8742  157.1639 H   0  0  0  0  0  0  0  0  0  0  0  0  # atno 11005 bound_to 11000
  145.8796  139.2315  143.1613 LP  0  0  0  0  0  0  0  0  0  0  0  0  # atno 17320 bound_to 7965
  146.0008  140.8522  143.0019 LP  0  0  0  0  0  0  0  0  0  0  0  0  # atno 17321 bound_to 7965
  139.5980  144.7573  151.3239 LP  0  0  0  0  0  0  0  0  0  0  0  0  # atno 17342 bound_to 10162
  140.7236  143.7065  150.7803 LP  0  0  0  0  0  0  0  0  0  0  0  0  # atno 17343 bound_to 10162
  156.2078  130.3664  149.8708 LP  0  0  0  0  0  0  0  0  0  0  0  0  # atno 17370 bound_to 10713
  156.6595  130.8776  151.3545 LP  0  0  0  0  0  0  0  0  0  0  0  0  # atno 17371 bound_to 10713
  139.9974  135.0041  157.0112 LP  0  0  0  0  0  0  0  0  0  0  0  0  # atno 17394 bound_to 11000
  140.4827  134.1273  155.7219 LP  0  0  0  0  0  0  0  0  0  0  0  0  # atno 17395 bound_to 11000

$$$$
