AV-unprocessed.smi:1703|AV-procd|sdf|6859|dock6
  -GOLD-   22720 8 43D 1   1.00000     0.00000
 Structure written by MMmdl.
 49 51  0  0  0  0  0  0  0  0  2 V2000
  143.5748  144.8933  157.3993 C   0  0  0  0  0  0  0  0  0  0  0  0
  144.9356  144.8204  158.1006 C   0  0  2  0  0  0  0  0  0  0  0  0
  145.7786  143.6326  157.6019 C   0  0  0  0  0  0  0  0  0  0  0  0
  147.0446  143.5434  158.3639 N   0  3  2  0  0  0  0  0  0  0  0  0
  147.9511  142.4865  157.8494 C   0  0  0  0  0  0  0  0  0  0  0  0
  149.4092  142.6911  158.3150 C   0  0  2  0  0  0  0  0  0  0  0  0
  149.6130  144.0622  158.5903 O   0  0  0  0  0  0  0  0  0  0  0  0
  150.4601  142.2555  157.2747 C   0  0  0  0  0  0  0  0  0  0  0  0
  151.4939  141.4033  157.8473 N   0  0  0  0  0  0  0  0  0  0  0  0
  151.9370  140.1958  157.4116 C   0  0  0  0  0  0  0  0  0  0  0  0
  151.3824  139.5270  156.1913 C   0  0  0  0  0  0  0  0  0  0  0  0
  151.8847  140.0774  154.9927 O   0  0  0  0  0  0  0  0  0  0  0  0
  152.9000  139.6338  158.1425 N   0  0  0  0  0  0  0  0  0  0  0  0
  153.1113  140.5668  159.1382 C   0  0  0  0  0  0  0  0  0  0  0  0
  154.0118  140.5599  160.2274 C   0  0  0  0  0  0  0  0  0  0  0  0
  154.0483  141.6428  161.1300 C   0  0  0  0  0  0  0  0  0  0  0  0
  153.1874  142.7459  160.9568 C   0  0  0  0  0  0  0  0  0  0  0  0
  152.2827  142.7729  159.8780 C   0  0  0  0  0  0  0  0  0  0  0  0
  152.2490  141.6885  158.9809 C   0  0  0  0  0  0  0  0  0  0  0  0
  146.7618  143.4262  159.8156 C   0  0  0  0  0  0  0  0  0  0  0  0
  145.8785  144.5914  160.3018 C   0  0  1  0  0  0  0  0  0  0  0  0
  146.6291  145.9317  160.3967 C   0  0  0  0  0  0  0  0  0  0  0  0
  144.7006  144.6842  159.5000 O   0  0  0  0  0  0  0  0  0  0  0  0
  143.6933  145.0089  156.3216 H   0  0  0  0  0  0  0  0  0  0  0  0
  142.9945  145.7422  157.7618 H   0  0  0  0  0  0  0  0  0  0  0  0
  142.9894  143.9906  157.5767 H   0  0  0  0  0  0  0  0  0  0  0  0
  145.4657  145.7529  157.9054 H   0  0  0  0  0  0  0  0  0  0  0  0
  145.2236  142.6987  157.7064 H   0  0  0  0  0  0  0  0  0  0  0  0
  145.9952  143.7610  156.5406 H   0  0  0  0  0  0  0  0  0  0  0  0
  147.5667  141.5155  158.1640 H   0  0  0  0  0  0  0  0  0  0  0  0
  147.9344  142.4789  156.7585 H   0  0  0  0  0  0  0  0  0  0  0  0
  149.5902  142.1402  159.2370 H   0  0  0  0  0  0  0  0  0  0  0  0
  148.9408  144.5629  158.1529 H   0  0  0  0  0  0  0  0  0  0  0  0
  149.9806  141.7447  156.4403 H   0  0  0  0  0  0  0  0  0  0  0  0
  150.9491  143.1331  156.8490 H   0  0  0  0  0  0  0  0  0  0  0  0
  151.6316  138.4654  156.2171 H   0  0  0  0  0  0  0  0  0  0  0  0
  150.2946  139.5926  156.1959 H   0  0  0  0  0  0  0  0  0  0  0  0
  152.7177  139.6742  154.8017 H   0  0  0  0  0  0  0  0  0  0  0  0
  154.6768  139.7206  160.3678 H   0  0  0  0  0  0  0  0  0  0  0  0
  154.7415  141.6278  161.9582 H   0  0  0  0  0  0  0  0  0  0  0  0
  153.2237  143.5721  161.6518 H   0  0  0  0  0  0  0  0  0  0  0  0
  151.6247  143.6182  159.7419 H   0  0  0  0  0  0  0  0  0  0  0  0
  146.2511  142.4802  160.0031 H   0  0  0  0  0  0  0  0  0  0  0  0
  147.6854  143.4004  160.3931 H   0  0  0  0  0  0  0  0  0  0  0  0
  145.5382  144.3503  161.3093 H   0  0  0  0  0  0  0  0  0  0  0  0
  147.4495  145.8640  161.1114 H   0  0  0  0  0  0  0  0  0  0  0  0
  145.9639  146.7266  160.7345 H   0  0  0  0  0  0  0  0  0  0  0  0
  147.0576  146.2365  159.4424 H   0  0  0  0  0  0  0  0  0  0  0  0
  147.5237  144.4218  158.2226 H   0  0  0  0  0  0  0  0  0  0  0  0
  1  2  1  0  0  0  0
  1 24  1  0  0  0  0
  1 25  1  0  0  0  0
  1 26  1  0  0  0  0
  2 23  1  0  0  0  0
  2  3  1  0  0  0  0
  2 27  1  0  0  0  0
  3  4  1  0  0  0  0
  3 28  1  0  0  0  0
  3 29  1  0  0  0  0
  4  5  1  0  0  0  0
  4 20  1  0  0  0  0
  4 49  1  0  0  0  0
  5  6  1  0  0  0  0
  5 30  1  0  0  0  0
  5 31  1  0  0  0  0
  6  7  1  0  0  0  0
  6  8  1  0  0  0  0
  6 32  1  0  0  0  0
  7 33  1  0  0  0  0
  8  9  1  0  0  0  0
  8 34  1  0  0  0  0
  8 35  1  0  0  0  0
  9 19  1  0  0  0  0
  9 10  1  0  0  0  0
 10 11  1  0  0  0  0
 10 13  2  0  0  0  0
 11 12  1  0  0  0  0
 11 36  1  0  0  0  0
 11 37  1  0  0  0  0
 12 38  1  0  0  0  0
 13 14  1  0  0  0  0
 14 19  2  0  0  0  0
 14 15  1  0  0  0  0
 15 16  2  0  0  0  0
 15 39  1  0  0  0  0
 16 17  1  0  0  0  0
 16 40  1  0  0  0  0
 17 18  2  0  0  0  0
 17 41  1  0  0  0  0
 18 19  1  0  0  0  0
 18 42  1  0  0  0  0
 20 21  1  0  0  0  0
 20 43  1  0  0  0  0
 20 44  1  0  0  0  0
 21 22  1  0  0  0  0
 21 23  1  0  0  0  0
 21 45  1  0  0  0  0
 22 46  1  0  0  0  0
 22 47  1  0  0  0  0
 22 48  1  0  0  0  0
M  CHG  1   4   1
M  END
> <s_m_source_file>
AV-unprocessed.smi

> <i_m_source_file_index>
1703

> <i_lp_mmshare_version>
43012

> <i_f3d_flags>
0

> <s_epik_input>
W0NIM11bQ0BASF0xW0NIMl1OKFtDSDJdW0NASF0oTzEpW0NIM10pW0NIMl1bQ0BIXShbT0hdKVtDSDJdbihjKG4yKVtDSDJdW09IXSljKGMyMylbY0hdW2NIXVtjSF1bY0hdMw==

> <s_epik_cmdline>
J2VwaWtfcHl0aG9uJywgJy1waCcsICc3LjAnLCAnLXRuJywgJzgnLCAnLW1hJywgJzIwMCcsICctbWV0YWxfYmluZGluZycsICctaW1hZScsICc8aW5maWxlLm1hZT4nLCAnLW9tYWUnLCAnPG91dGZpbGUubWFlPic=

> <r_epik_Ionization_Penalty>
0.655661

> <r_epik_Ionization_Penalty_Charging>
0.608065

> <r_epik_Ionization_Penalty_Neutral>
0.0475963

> <r_epik_State_Penalty>
0.695267

> <r_epik_Charging_Adjusted_Penalty>
1.30333

> <i_epik_Tot_Q>
1

> <i_epik_Tot_abs_Q>
1

> <r_epik_Metal_State_Penalty>
0.653591

> <b_epik_Metal_Only>
0

> <s_lp_Force_Field>
OPLS_2005

> <r_lp_Energy>
25.4362

> <b_lp_Chiralities_Consistent>
1

> <s_lp_Variant>
AV-unprocessed.smi:1703-7

> <Gold.Version>
5.8.1

> <Gold.Id.Protein>
6NUR|6NUR_protein|mol2

> <Gold.PLP.Fitness>
51.4175

> <Gold.PLP.PLP>
-40.1355

> <Gold.PLP.part.hbond>
-4.8867

> <Gold.PLP.part.metal>
0.0000

> <Gold.PLP.part.buried>
-4.3973

> <Gold.PLP.part.nonpolar>
-30.6607

> <Gold.PLP.part.repulsive>
0.1375

> <Gold.PLP.ligand.clash>
0.0000

> <Gold.PLP.ligand.torsion>
1.5705

> <Gold.PLP.Chemscore.Hbond>
4.7840

> <Gold.PLP.Chemscore.CHOScore>
0.0000

> <Gold.PLP.Chemscore.Metal>
0.0000

> <Gold.Chemscore.Hbonds>
donor molecule, donor type, donor heavy atom, donor atom, acceptor molecule, acceptor atom, score
      L1  H     4    49       P1  8029  2.00
      L1  H     7    33       P1  8029  1.00
      P1  H  7989  7998       L1    12  0.79
      P1  H  7997  8009       L1    13  0.76

> <Gold.PLP.Chemscore.Internal.Correction>
0.0709

> <Gold.Rescore>
     Score         DG    S(hbond)    S(metal)    S(lipo)     H(rot)  DE(clash)    DE(int)     intcor
     13.61     -15.08       1.71        0.00      98.04       2.96       0.19       1.28       ----

> <Gold.Chemscore.Fitness>
13.6119

> <Gold.Chemscore.DG>
-15.0809

> <Gold.Chemscore.ZeroCoef>
-5.4800

> <Gold.Chemscore.Hbond>
1.7097

> <Gold.Chemscore.Metal>
0.0000

> <Gold.Chemscore.Lipo>
98.0429

> <Gold.Chemscore.Internal_Hbond>
0.0000

> <Gold.Chemscore.DEClash>
0.1858

> <Gold.Chemscore.DEInternal>
1.2832

> <Gold.Chemscore.Rot>
2.9611

> <Gold.Chemscore.Internal.Correction>
   9.000000E+99

> <Gold.Chemscore.Hbonds>
donor molecule, donor type, donor heavy atom, donor atom, acceptor molecule, acceptor atom, score
      L1  H     4    49       P1  8029  0.63
      L1  H     7    33       P1  8029  0.25
      P1  H  7989  7998       L1    12  0.15
      P1  H  7997  8009       L1    13  0.05

> <Gold.Chemscore.Hbond.Weighted>
-5.7103

> <Gold.Chemscore.Metal.Weighted>
-0.0000

> <Gold.Chemscore.Lipo.Weighted>
-11.4710

> <Gold.Chemscore.Internal_Hbond.Weighted>
0.0000

> <Gold.Chemscore.DEClash.Weighted>
0.1858

> <Gold.Chemscore.DEInternal.Weighted>
1.2832

> <Gold.Chemscore.Rot.Weighted>
7.5803

> <Gold.Chemscore.Internal.Correction.Weighted>
   9.000000E+99

> <Gold.Protein.RotatedTorsions>
[ 6907 6896 6895 6894 ] final  178.53 input  -60.11 | X-H torsion
[ 7974 7965 7964 7962 ] final  124.23 input  175.53 | X-H torsion
[ 8008 7997 7996 7995 ] final  151.65 input   59.86 | X-H torsion
[ 10167 10162 10161 10158 ] final   95.12 input  -65.29 | X-H torsion
[ 10718 10713 10712 10709 ] final   26.67 input   66.30 | X-H torsion
[ 10763 10752 10751 10750 ] final   73.36 input  -60.55 | X-H torsion
[ 11005 11000 10999 10996 ] final   11.49 input  -57.11 | X-H torsion

> <Gold.Protein.ActiveResidues>
 VAL166  LYS551  ARG553  GLY616  TRP617  ASP618  TYR619  PRO620  LYS621  CYS622 
 ASP623  PHE694  ASN695  SER759  ASP760  ASP761  ALA762  ILE779  LEU786  VAL792 
 PHE793  MET794  SER795  GLU796  ALA797  LYS798  CYS799  TRP800  GLU811  SER814 

> <Gold.Protein.RotatedAtoms>
  151.6863  133.3311  159.3231 H   0  0  0  0  0  0  0  0  0  0  0  0  # atno 6907 bound_to 6896
  150.7799  134.6737  159.6415 H   0  0  0  0  0  0  0  0  0  0  0  0  # atno 6908 bound_to 6896
  152.3854  134.6529  160.0180 H   0  0  0  0  0  0  0  0  0  0  0  0  # atno 6909 bound_to 6896
  145.0867  139.3616  143.4881 H   0  0  0  0  0  0  0  0  0  0  0  0  # atno 7974 bound_to 7965
  156.2664  140.2042  156.6209 H   0  0  0  0  0  0  0  0  0  0  0  0  # atno 8008 bound_to 7997
  154.6757  140.0545  157.0237 H   0  0  0  0  0  0  0  0  0  0  0  0  # atno 8009 bound_to 7997
  155.1072  140.3212  155.4534 H   0  0  0  0  0  0  0  0  0  0  0  0  # atno 8010 bound_to 7997
  139.8019  144.6810  150.9754 H   0  0  0  0  0  0  0  0  0  0  0  0  # atno 10167 bound_to 10162
  157.2099  130.6929  149.6224 H   0  0  0  0  0  0  0  0  0  0  0  0  # atno 10718 bound_to 10713
  153.0517  135.5066  154.7882 H   0  0  0  0  0  0  0  0  0  0  0  0  # atno 10763 bound_to 10752
  154.6739  135.2957  154.9707 H   0  0  0  0  0  0  0  0  0  0  0  0  # atno 10764 bound_to 10752
  154.0515  135.6703  153.4853 H   0  0  0  0  0  0  0  0  0  0  0  0  # atno 10765 bound_to 10752
  140.5026  134.0731  155.7797 H   0  0  0  0  0  0  0  0  0  0  0  0  # atno 11005 bound_to 11000
  146.3531  140.0683  142.8625 LP  0  0  0  0  0  0  0  0  0  0  0  0  # atno 17320 bound_to 7965
  145.1114  140.9407  143.4654 LP  0  0  0  0  0  0  0  0  0  0  0  0  # atno 17321 bound_to 7965
  140.7820  143.4273  151.0748 LP  0  0  0  0  0  0  0  0  0  0  0  0  # atno 17342 bound_to 10162
  139.7944  143.8172  152.3156 LP  0  0  0  0  0  0  0  0  0  0  0  0  # atno 17343 bound_to 10162
  155.9692  130.4555  150.5888 LP  0  0  0  0  0  0  0  0  0  0  0  0  # atno 17370 bound_to 10713
  157.3683  131.0761  151.1579 LP  0  0  0  0  0  0  0  0  0  0  0  0  # atno 17371 bound_to 10713
  141.1428  133.9109  157.2287 LP  0  0  0  0  0  0  0  0  0  0  0  0  # atno 17394 bound_to 11000
  139.9705  135.0130  156.9498 LP  0  0  0  0  0  0  0  0  0  0  0  0  # atno 17395 bound_to 11000

$$$$
