AV-unprocessed.smi:2474|AV-procd|sdf|9751|dock6
  -GOLD-   2272013393D 1   1.00000     0.00000
 Structure written by MMmdl.
 40 41  0  0  0  0  0  0  0  0  1 V2000
  151.6675  139.9597  155.5266 C   0  0  0  0  0  0  0  0  0  0  0  0
  150.2399  140.0497  155.1065 C   0  0  0  0  0  0  0  0  0  0  0  0
  149.4301  141.1582  155.1146 C   0  0  0  0  0  0  0  0  0  0  0  0
  148.1283  140.9092  154.6752 N   0  0  0  0  0  0  0  0  0  0  0  0
  147.9387  139.6315  154.3331 C   0  0  0  0  0  0  0  0  0  0  0  0
  146.6155  139.0711  153.9029 C   0  0  2  0  0  0  0  0  0  0  0  0
  146.2262  137.8248  154.7110 C   0  0  0  0  0  0  0  0  0  0  0  0
  146.5120  138.8563  152.3756 C   0  0  0  0  0  0  0  0  0  0  0  0
  146.7337  137.4602  152.0037 N   0  0  0  0  0  0  0  0  0  0  0  0
  145.7837  136.5170  151.9316 C   0  0  0  0  0  0  0  0  0  0  0  0
  144.5782  136.7374  152.0476 O   0  0  0  0  0  0  0  0  0  0  0  0
  146.3111  135.2946  151.7812 N   0  0  0  0  0  0  0  0  0  0  0  0
  145.5572  134.0465  151.8451 C   0  0  2  0  0  0  0  0  0  0  0  0
  146.5129  132.8454  151.6733 C   0  0  0  0  0  0  0  0  0  0  0  0
  145.7912  131.4932  151.7764 C   0  0  0  0  0  0  0  0  0  0  0  0
  144.7120  131.3228  150.6983 C   0  0  0  0  0  0  0  0  0  0  0  0
  143.4157  132.5801  150.8624 S   0  0  0  0  0  0  0  0  0  0  0  0
  144.4593  134.0607  150.7675 C   0  0  0  0  0  0  0  0  0  0  0  0
  149.3855  138.6458  154.5238 S   0  0  0  0  0  0  0  0  0  0  0  0
  152.0315  140.9212  155.8893 H   0  0  0  0  0  0  0  0  0  0  0  0
  152.2979  139.6541  154.6912 H   0  0  0  0  0  0  0  0  0  0  0  0
  151.7889  139.2307  156.3283 H   0  0  0  0  0  0  0  0  0  0  0  0
  149.6939  142.1584  155.4246 H   0  0  0  0  0  0  0  0  0  0  0  0
  145.8742  139.8309  154.1543 H   0  0  0  0  0  0  0  0  0  0  0  0
  146.2155  138.0380  155.7802 H   0  0  0  0  0  0  0  0  0  0  0  0
  146.9270  137.0069  154.5408 H   0  0  0  0  0  0  0  0  0  0  0  0
  145.2323  137.4727  154.4343 H   0  0  0  0  0  0  0  0  0  0  0  0
  145.5429  139.2018  152.0112 H   0  0  0  0  0  0  0  0  0  0  0  0
  147.2609  139.4624  151.8652 H   0  0  0  0  0  0  0  0  0  0  0  0
  147.6939  137.1723  151.8848 H   0  0  0  0  0  0  0  0  0  0  0  0
  147.3135  135.2163  151.6936 H   0  0  0  0  0  0  0  0  0  0  0  0
  145.0730  133.9805  152.8215 H   0  0  0  0  0  0  0  0  0  0  0  0
  147.0265  132.9131  150.7134 H   0  0  0  0  0  0  0  0  0  0  0  0
  147.2922  132.8815  152.4358 H   0  0  0  0  0  0  0  0  0  0  0  0
  146.5226  130.6899  151.6833 H   0  0  0  0  0  0  0  0  0  0  0  0
  145.3455  131.3870  152.7662 H   0  0  0  0  0  0  0  0  0  0  0  0
  145.1530  131.3937  149.7035 H   0  0  0  0  0  0  0  0  0  0  0  0
  144.2536  130.3368  150.7758 H   0  0  0  0  0  0  0  0  0  0  0  0
  143.8203  134.9363  150.8863 H   0  0  0  0  0  0  0  0  0  0  0  0
  144.8995  134.1183  149.7712 H   0  0  0  0  0  0  0  0  0  0  0  0
  1  2  1  0  0  0  0
  1 20  1  0  0  0  0
  1 21  1  0  0  0  0
  1 22  1  0  0  0  0
  2 19  1  0  0  0  0
  2  3  2  0  0  0  0
  3  4  1  0  0  0  0
  3 23  1  0  0  0  0
  4  5  2  0  0  0  0
  5  6  1  0  0  0  0
  5 19  1  0  0  0  0
  6  7  1  0  0  0  0
  6  8  1  0  0  0  0
  6 24  1  0  0  0  0
  7 25  1  0  0  0  0
  7 26  1  0  0  0  0
  7 27  1  0  0  0  0
  8  9  1  0  0  0  0
  8 28  1  0  0  0  0
  8 29  1  0  0  0  0
  9 10  1  0  0  0  0
  9 30  1  0  0  0  0
 10 11  2  0  0  0  0
 10 12  1  0  0  0  0
 12 13  1  0  0  0  0
 12 31  1  0  0  0  0
 13 18  1  0  0  0  0
 13 14  1  0  0  0  0
 13 32  1  0  0  0  0
 14 15  1  0  0  0  0
 14 33  1  0  0  0  0
 14 34  1  0  0  0  0
 15 16  1  0  0  0  0
 15 35  1  0  0  0  0
 15 36  1  0  0  0  0
 16 17  1  0  0  0  0
 16 37  1  0  0  0  0
 16 38  1  0  0  0  0
 17 18  1  0  0  0  0
 18 39  1  0  0  0  0
 18 40  1  0  0  0  0
M  END
> <s_m_source_file>
AV-unprocessed.smi

> <i_m_source_file_index>
2474

> <i_lp_mmshare_version>
43012

> <i_f3d_flags>
0

> <s_epik_input>
W0NIM11jMVtjSF1uYyhzMSlbQ0BIXShbQ0gzXSlbQ0gyXVtOSF1DKD1PKVtOSF1bQ0BASF0yW0NIMl1bQ0gyXVtDSDJdU1tDSDJdMg==

> <s_epik_cmdline>
J2VwaWtfcHl0aG9uJywgJy1waCcsICc3LjAnLCAnLXRuJywgJzgnLCAnLW1hJywgJzIwMCcsICctbWV0YWxfYmluZGluZycsICctaW1hZScsICc8aW5maWxlLm1hZT4nLCAnLW9tYWUnLCAnPG91dGZpbGUubWFlPic=

> <r_epik_Ionization_Penalty>
0.000644338

> <r_epik_Ionization_Penalty_Charging>
0

> <r_epik_Ionization_Penalty_Neutral>
0.000644338

> <r_epik_State_Penalty>
0.000374131

> <r_epik_Charging_Adjusted_Penalty>
0.000374131

> <i_epik_Tot_Q>
0

> <i_epik_Tot_abs_Q>
0

> <r_epik_Metal_State_Penalty>
-0

> <b_epik_Metal_Only>
0

> <s_lp_Force_Field>
OPLS_2005

> <r_lp_Energy>
-6.83814

> <b_lp_Chiralities_Consistent>
1

> <s_lp_Variant>
AV-unprocessed.smi:2474-1

> <Gold.Version>
5.8.1

> <Gold.Id.Protein>
6NUR|6NUR_protein|mol2

> <Gold.PLP.Fitness>
40.6224

> <Gold.PLP.PLP>
-33.8620

> <Gold.PLP.part.hbond>
-1.9060

> <Gold.PLP.part.metal>
0.0000

> <Gold.PLP.part.buried>
-3.7469

> <Gold.PLP.part.nonpolar>
-30.4666

> <Gold.PLP.part.repulsive>
1.7226

> <Gold.PLP.ligand.clash>
0.0000

> <Gold.PLP.ligand.torsion>
1.0046

> <Gold.PLP.Chemscore.Hbond>
1.8800

> <Gold.PLP.Chemscore.CHOScore>
1.0000

> <Gold.PLP.Chemscore.Metal>
0.0000

> <Gold.Chemscore.Hbonds>
donor molecule, donor type, donor heavy atom, donor atom, acceptor molecule, acceptor atom, score
      L1  H     9    30       P1  7948  1.00
      L1  H    12    31       P1  7948  0.88
      L1  C     3    23       P1  8028  0.59

> <Gold.PLP.Chemscore.Internal.Correction>
0.1297

> <Gold.Rescore>
     Score         DG    S(hbond)    S(metal)    S(lipo)     H(rot)  DE(clash)    DE(int)     intcor
     14.51     -18.58       1.85        0.00      91.06       1.46       1.56       2.52       ----

> <Gold.Chemscore.Fitness>
14.5107

> <Gold.Chemscore.DG>
-18.5846

> <Gold.Chemscore.ZeroCoef>
-5.4800

> <Gold.Chemscore.Hbond>
1.8538

> <Gold.Chemscore.Metal>
0.0000

> <Gold.Chemscore.Lipo>
91.0628

> <Gold.Chemscore.Internal_Hbond>
0.0000

> <Gold.Chemscore.DEClash>
1.5583

> <Gold.Chemscore.DEInternal>
2.5156

> <Gold.Chemscore.Rot>
1.4616

> <Gold.Chemscore.Internal.Correction>
   9.000000E+99

> <Gold.Chemscore.Hbonds>
donor molecule, donor type, donor heavy atom, donor atom, acceptor molecule, acceptor atom, score
      L1  H     9    30       P1  7948  0.95
      L1  H    12    31       P1  7948  0.82

> <Gold.Chemscore.Hbond.Weighted>
-6.1918

> <Gold.Chemscore.Metal.Weighted>
-0.0000

> <Gold.Chemscore.Lipo.Weighted>
-10.6543

> <Gold.Chemscore.Internal_Hbond.Weighted>
0.0000

> <Gold.Chemscore.DEClash.Weighted>
1.5583

> <Gold.Chemscore.DEInternal.Weighted>
2.5156

> <Gold.Chemscore.Rot.Weighted>
3.7416

> <Gold.Chemscore.Internal.Correction.Weighted>
   9.000000E+99

> <Gold.Protein.RotatedTorsions>
[ 6907 6896 6895 6894 ] final  109.06 input  -60.11 | X-H torsion
[ 7974 7965 7964 7962 ] final  109.10 input  175.53 | X-H torsion
[ 8008 7997 7996 7995 ] final -169.47 input   59.86 | X-H torsion
[ 10167 10162 10161 10158 ] final  -77.44 input  -65.29 | X-H torsion
[ 10718 10713 10712 10709 ] final   31.56 input   66.30 | X-H torsion
[ 10763 10752 10751 10750 ] final  -54.88 input  -60.55 | X-H torsion
[ 11005 11000 10999 10996 ] final  115.05 input  -57.11 | X-H torsion

> <Gold.Protein.ActiveResidues>
 VAL166  LYS551  ARG553  GLY616  TRP617  ASP618  TYR619  PRO620  LYS621  CYS622 
 ASP623  PHE694  ASN695  SER759  ASP760  ASP761  ALA762  ILE779  LEU786  VAL792 
 PHE793  MET794  SER795  GLU796  ALA797  LYS798  CYS799  TRP800  GLU811  SER814 

> <Gold.Protein.RotatedAtoms>
  152.5084  133.8999  159.7435 H   0  0  0  0  0  0  0  0  0  0  0  0  # atno 6907 bound_to 6896
  150.9417  133.6640  159.2796 H   0  0  0  0  0  0  0  0  0  0  0  0  # atno 6908 bound_to 6896
  151.3949  135.0967  159.9590 H   0  0  0  0  0  0  0  0  0  0  0  0  # atno 6909 bound_to 6896
  145.2721  139.2663  143.3961 H   0  0  0  0  0  0  0  0  0  0  0  0  # atno 7974 bound_to 7965
  155.9054  140.1048  157.1319 H   0  0  0  0  0  0  0  0  0  0  0  0  # atno 8008 bound_to 7997
  154.4032  140.1284  156.4554 H   0  0  0  0  0  0  0  0  0  0  0  0  # atno 8009 bound_to 7997
  155.7373  140.3467  155.5090 H   0  0  0  0  0  0  0  0  0  0  0  0  # atno 8010 bound_to 7997
  140.4770  143.2412  151.8117 H   0  0  0  0  0  0  0  0  0  0  0  0  # atno 10167 bound_to 10162
  157.2740  130.7222  149.6520 H   0  0  0  0  0  0  0  0  0  0  0  0  # atno 10718 bound_to 10713
  154.1820  135.6442  153.5036 H   0  0  0  0  0  0  0  0  0  0  0  0  # atno 10763 bound_to 10752
  153.0057  135.5408  154.6505 H   0  0  0  0  0  0  0  0  0  0  0  0  # atno 10764 bound_to 10752
  154.5871  135.2930  155.0646 H   0  0  0  0  0  0  0  0  0  0  0  0  # atno 10765 bound_to 10752
  139.8998  134.9578  156.6986 H   0  0  0  0  0  0  0  0  0  0  0  0  # atno 11005 bound_to 11000
  146.3243  140.3166  142.8630 LP  0  0  0  0  0  0  0  0  0  0  0  0  # atno 17320 bound_to 7965
  144.9326  140.7991  143.5680 LP  0  0  0  0  0  0  0  0  0  0  0  0  # atno 17321 bound_to 7965
  139.4827  144.4821  151.9293 LP  0  0  0  0  0  0  0  0  0  0  0  0  # atno 17342 bound_to 10162
  140.3906  144.2620  150.5900 LP  0  0  0  0  0  0  0  0  0  0  0  0  # atno 17343 bound_to 10162
  155.9663  130.4359  150.5109 LP  0  0  0  0  0  0  0  0  0  0  0  0  # atno 17370 bound_to 10713
  157.3040  131.0650  151.2048 LP  0  0  0  0  0  0  0  0  0  0  0  0  # atno 17371 bound_to 10713
  140.7168  133.9175  155.8120 LP  0  0  0  0  0  0  0  0  0  0  0  0  # atno 17394 bound_to 11000
  141.0258  134.0826  157.4070 LP  0  0  0  0  0  0  0  0  0  0  0  0  # atno 17395 bound_to 11000

$$$$
