#       Name:                AV-unprocessed.smi:1443
#       Creating user name   scv26
#       Creation time:       Fri Mar 27 05:55:39 2020


#       File generated by GOLD software.
#

@<TRIPOS>MOLECULE
AV-unprocessed.smi:1443
    31    32     1
SMALL
NO_CHARGES


@<TRIPOS>ATOM
      1 ****         5.0517  -4.4441   4.0324 C.3            1 S1                 0.0000
      2 ****         3.6837  -5.5875   4.3678 S.3            1 S1                 0.0000
      3 ****         2.2564  -4.8663   3.6239 C.2            1 S1                 0.0000
      4 ****         1.0568  -5.4688   3.7142 N.2            1 S1                 0.0000
      5 ****        -0.0831  -4.5239   2.8975 S.3            1 S1                 0.0000
      6 ****         1.1379  -3.3586   2.4782 C.2            1 S1                 0.0000
      7 ****         0.8523  -2.1902   1.7134 N.am           1 S1                 0.0000
      8 ****         1.6503  -1.1812   1.3014 C.2            1 S1                 0.0000
      9 ****         2.8490  -1.1680   1.5763 O.2            1 S1                 0.0000
     10 ****         1.0557  -0.2151   0.5837 N.am           1 S1                 0.0000
     11 ****         1.6891   0.9416   0.0432 C.3            1 S1                 0.0000
     12 ****         0.8439   2.1921  -0.0635 C.3            1 S1                 0.0000
     13 ****         1.2192   1.4368  -1.3099 C.3            1 S1                 0.0000
     14 ****         2.1916   2.0441  -2.2976 C.3            1 S1                 0.0000
     15 ****         2.3349  -3.7047   2.9516 N.2            1 S1                 0.0000
     16 ****         5.9778  -4.8313   4.4571 H              1 S1                 0.0000
     17 ****         4.8501  -3.4679   4.4739 H              1 S1                 0.0000
     18 ****         5.1902  -4.3182   2.9583 H              1 S1                 0.0000
     19 ****        -0.1113  -2.1062   1.4239 H              1 S1                 0.0000
     20 ****         0.0659  -0.3116   0.4066 H              1 S1                 0.0000
     21 ****         2.7410   1.0950   0.2810 H              1 S1                 0.0000
     22 ****        -0.1939   2.1361   0.2608 H              1 S1                 0.0000
     23 ****         1.3364   3.1447   0.1219 H              1 S1                 0.0000
     24 ****         0.4190   0.8677  -1.7802 H              1 S1                 0.0000
     25 ****         2.9705   2.6054  -1.7805 H              1 S1                 0.0000
     26 ****         1.6660   2.7188  -2.9732 H              1 S1                 0.0000
     27 ****         2.6634   1.2582  -2.8876 H              1 S1                 0.0000
     28 ****         0.8706  -6.3310   4.1853 LP             1 S1                 0.0000
     29 ****         3.2472  -1.9120   2.1128 LP             1 S1                 0.0000
     30 ****         3.4255  -0.4132   1.2632 LP             1 S1                 0.0000
     31 ****         3.1735  -3.1749   2.8245 LP             1 S1                 0.0000
@<TRIPOS>BOND
    1    1    2 1     
    2    1   16 1     
    3    1   17 1     
    4    1   18 1     
    5    2    3 1     
    6    3   15 1     
    7    3    4 2     
    8    4    5 1     
    9    5    6 1     
   10    6    7 1     
   11    6   15 2     
   12    7    8 am    
   13    7   19 1     
   14    8    9 2     
   15    8   10 am    
   16   10   11 1     
   17   10   20 1     
   18   11   13 1     
   19   11   12 1     
   20   11   21 1     
   21   12   13 1     
   22   12   22 1     
   23   12   23 1     
   24   13   14 1     
   25   13   24 1     
   26   14   25 1     
   27   14   26 1     
   28   14   27 1     
   29    4   28 1     
   30    9   29 1     
   31    9   30 1     
   32   15   31 1     
@<TRIPOS>SUBSTRUCTURE
      1 S1             1
@<TRIPOS>SET
LONE_PAIRS      STATIC     ATOMS    <user>   **** ""
4 28 29 30 31
DONOR_HYDROGENS      STATIC     ATOMS    <user>   **** ""
2 19 20
ATOM$BLUE        STATIC     ATOMS    COLORGROUP SYSTEM
4 28 29 30 31
ATOM$RED        STATIC     ATOMS    COLORGROUP SYSTEM
2 19 20
