AV-unprocessed.smi:103|AV-procd|sdf|985|dock9
  -GOLD-   2262017553D 1   1.00000     0.00000
 Structure written by MMmdl.
 53 55  0  0  0  0  0  0  0  0  1 V2000
  152.4668  144.7770  158.0245 C   0  0  0  0  0  0  0  0  0  0  0  0
  152.0135  143.3234  157.9898 C   0  0  0  0  0  0  0  0  0  0  0  0
  152.4797  142.4867  158.7634 O   0  0  0  0  0  0  0  0  0  0  0  0
  151.0832  143.0996  157.0439 O   0  0  0  0  0  0  0  0  0  0  0  0
  150.6876  141.7731  156.7204 C   0  0  0  0  0  0  0  0  0  0  0  0
  149.1593  141.6791  156.5569 C   0  0  2  0  0  0  0  0  0  0  0  0
  148.5078  141.8678  157.8060 O   0  0  0  0  0  0  0  0  0  0  0  0
  147.2495  141.2817  157.7652 C   0  0  1  0  0  0  0  0  0  0  0  0
  146.2492  142.3188  157.2922 N   0  0  0  0  0  0  0  0  0  0  0  0
  145.4655  143.1426  158.0809 C   0  0  0  0  0  0  0  0  0  0  0  0
  145.3809  143.1476  159.8700 S   0  0  0  0  0  0  0  0  0  0  0  0
  146.8159  144.2081  160.3157 C   0  0  0  0  0  0  0  0  0  0  0  0
  144.1327  143.8280  160.2479 O   0  0  0  0  0  0  0  0  0  0  0  0
  145.6417  141.7694  160.3150 O   0  0  0  0  0  0  0  0  0  0  0  0
  144.6296  143.9334  157.4680 N   0  0  0  0  0  0  0  0  0  0  0  0
  144.9166  143.7167  156.1316 C   0  0  0  0  0  0  0  0  0  0  0  0
  144.4125  144.2636  154.9245 C   0  0  0  0  0  0  0  0  0  0  0  0
  143.4489  145.1948  154.8903 N   0  0  0  0  0  0  0  0  0  0  0  0
  144.9279  143.8303  153.7519 N   0  0  0  0  0  0  0  0  0  0  0  0
  145.8914  142.9060  153.7618 C   0  0  0  0  0  0  0  0  0  0  0  0
  146.4560  142.3029  154.8099 N   0  0  0  0  0  0  0  0  0  0  0  0
  145.9395  142.7314  156.0004 C   0  0  0  0  0  0  0  0  0  0  0  0
  147.3955  140.0237  156.8919 C   0  0  1  0  0  0  0  0  0  0  0  0
  146.2471  139.7277  156.1062 O   0  0  0  0  0  0  0  0  0  0  0  0
  145.0587  139.5167  156.6953 C   0  0  0  0  0  0  0  0  0  0  0  0
  143.9523  139.2430  155.6862 C   0  0  0  0  0  0  0  0  0  0  0  0
  144.8345  139.5468  157.9053 O   0  0  0  0  0  0  0  0  0  0  0  0
  148.6296  140.3244  156.0365 C   0  0  2  0  0  0  0  0  0  0  0  0
  149.5862  139.2803  156.1920 O   0  0  0  0  0  0  0  0  0  0  0  0
  150.5561  139.1060  155.2755 C   0  0  0  0  0  0  0  0  0  0  0  0
  151.3658  137.8393  155.5179 C   0  0  0  0  0  0  0  0  0  0  0  0
  150.7983  139.8510  154.3259 O   0  0  0  0  0  0  0  0  0  0  0  0
  152.8153  145.0899  157.0401 H   0  0  0  0  0  0  0  0  0  0  0  0
  153.2819  144.9073  158.7367 H   0  0  0  0  0  0  0  0  0  0  0  0
  151.6411  145.4232  158.3228 H   0  0  0  0  0  0  0  0  0  0  0  0
  151.1640  141.5260  155.7715 H   0  0  0  0  0  0  0  0  0  0  0  0
  151.0550  141.0501  157.4505 H   0  0  0  0  0  0  0  0  0  0  0  0
  148.8366  142.4685  155.8796 H   0  0  0  0  0  0  0  0  0  0  0  0
  146.9128  141.0161  158.7637 H   0  0  0  0  0  0  0  0  0  0  0  0
  146.8924  144.2769  161.4006 H   0  0  0  0  0  0  0  0  0  0  0  0
  146.6828  145.2051  159.8982 H   0  0  0  0  0  0  0  0  0  0  0  0
  147.7289  143.7679  159.9153 H   0  0  0  0  0  0  0  0  0  0  0  0
  143.0496  145.5366  155.7526 H   0  0  0  0  0  0  0  0  0  0  0  0
  143.1277  145.5562  154.0039 H   0  0  0  0  0  0  0  0  0  0  0  0
  146.2610  142.6039  152.7929 H   0  0  0  0  0  0  0  0  0  0  0  0
  147.6240  139.1900  157.5585 H   0  0  0  0  0  0  0  0  0  0  0  0
  144.3142  138.5928  154.8893 H   0  0  0  0  0  0  0  0  0  0  0  0
  143.6086  140.1776  155.2423 H   0  0  0  0  0  0  0  0  0  0  0  0
  143.1053  138.7563  156.1704 H   0  0  0  0  0  0  0  0  0  0  0  0
  148.3700  140.4314  154.9822 H   0  0  0  0  0  0  0  0  0  0  0  0
  151.4919  137.6627  156.5863 H   0  0  0  0  0  0  0  0  0  0  0  0
  152.3535  137.9259  155.0646 H   0  0  0  0  0  0  0  0  0  0  0  0
  150.8591  136.9789  155.0809 H   0  0  0  0  0  0  0  0  0  0  0  0
  1  2  1  0  0  0  0
  1 33  1  0  0  0  0
  1 34  1  0  0  0  0
  1 35  1  0  0  0  0
  2  3  2  0  0  0  0
  2  4  1  0  0  0  0
  4  5  1  0  0  0  0
  5  6  1  0  0  0  0
  5 36  1  0  0  0  0
  5 37  1  0  0  0  0
  6 28  1  0  0  0  0
  6  7  1  0  0  0  0
  6 38  1  0  0  0  0
  7  8  1  0  0  0  0
  8  9  1  0  0  0  0
  8 23  1  0  0  0  0
  8 39  1  0  0  0  0
  9 22  1  0  0  0  0
  9 10  1  0  0  0  0
 10 11  1  0  0  0  0
 10 15  2  0  0  0  0
 11 12  1  0  0  0  0
 11 13  2  0  0  0  0
 11 14  2  0  0  0  0
 12 40  1  0  0  0  0
 12 41  1  0  0  0  0
 12 42  1  0  0  0  0
 15 16  1  0  0  0  0
 16 22  2  0  0  0  0
 16 17  1  0  0  0  0
 17 18  1  0  0  0  0
 17 19  2  0  0  0  0
 18 43  1  0  0  0  0
 18 44  1  0  0  0  0
 19 20  1  0  0  0  0
 20 21  2  0  0  0  0
 20 45  1  0  0  0  0
 21 22  1  0  0  0  0
 23 24  1  0  0  0  0
 23 28  1  0  0  0  0
 23 46  1  0  0  0  0
 24 25  1  0  0  0  0
 25 26  1  0  0  0  0
 25 27  2  0  0  0  0
 26 47  1  0  0  0  0
 26 48  1  0  0  0  0
 26 49  1  0  0  0  0
 28 29  1  0  0  0  0
 28 50  1  0  0  0  0
 29 30  1  0  0  0  0
 30 31  1  0  0  0  0
 30 32  2  0  0  0  0
 31 51  1  0  0  0  0
 31 52  1  0  0  0  0
 31 53  1  0  0  0  0
M  END
> <s_m_source_file>
AV-unprocessed.smi

> <i_m_source_file_index>
103

> <i_lp_mmshare_version>
43012

> <i_f3d_flags>
0

> <s_epik_input>
W0NIM11DKD1PKU9bQ0gyXVtDQEBIXTFPW0NASF0oW0NAQEhdKE9DKD1PKVtDSDNdKVtDQEhdMU9DKD1PKVtDSDNdKW4oYyhuMilTKD1PKSg9TylbQ0gzXSljKGMyMyluW2NIXW5jM1tOSDJd

> <s_epik_cmdline>
J2VwaWtfcHl0aG9uJywgJy1waCcsICc3LjAnLCAnLXRuJywgJzgnLCAnLW1hJywgJzIwMCcsICctbWV0YWxfYmluZGluZycsICctaW1hZScsICc8aW5maWxlLm1hZT4nLCAnLW9tYWUnLCAnPG91dGZpbGUubWFlPic=

> <r_lp_tautomer_probability>
1

> <r_epik_Ionization_Penalty>
1.51338e-05

> <r_epik_Ionization_Penalty_Charging>
0

> <r_epik_Ionization_Penalty_Neutral>
1.51338e-05

> <r_epik_State_Penalty>
-0

> <r_epik_Charging_Adjusted_Penalty>
0

> <i_epik_Tot_Q>
0

> <i_epik_Tot_abs_Q>
0

> <r_epik_Metal_State_Penalty>
-0

> <b_epik_Metal_Only>
0

> <s_epik_Chemistry_Notes>
This compound has an ester and may undergo hydrolysis at high or low pH. This compound contains an acetal/aminal-like group ( X-CH(R)-Y where X, Y are N, S, or O) that may be acid/base labile, releasing an aldehyde.

> <s_lp_Force_Field>
OPLS_2005

> <r_lp_Energy>
17.8584

> <b_lp_Chiralities_Consistent>
1

> <s_lp_Variant>
AV-unprocessed.smi:103-9

> <Gold.Version>
5.8.1

> <Gold.Id.Protein>
6NUR|6NUR_protein|mol2

> <Gold.PLP.Fitness>
38.8157

> <Gold.PLP.PLP>
-35.3886

> <Gold.PLP.part.hbond>
-2.0000

> <Gold.PLP.part.metal>
0.0000

> <Gold.PLP.part.buried>
-10.0499

> <Gold.PLP.part.nonpolar>
-25.0434

> <Gold.PLP.part.repulsive>
0.9135

> <Gold.PLP.ligand.clash>
0.0000

> <Gold.PLP.ligand.torsion>
2.3870

> <Gold.PLP.Chemscore.Hbond>
2.0000

> <Gold.PLP.Chemscore.CHOScore>
0.0000

> <Gold.PLP.Chemscore.Metal>
0.0000

> <Gold.Chemscore.Hbonds>
donor molecule, donor type, donor heavy atom, donor atom, acceptor molecule, acceptor atom, score
      P1  H  6934  6946       L1    14  1.00
      P1  H  7989  7998       L1    32  1.00

> <Gold.PLP.Chemscore.Internal.Correction>
2.2011

> <Gold.Rescore>
     Score         DG    S(hbond)    S(metal)    S(lipo)     H(rot)  DE(clash)    DE(int)     intcor
      1.83      -6.35       1.99        0.00      43.59       4.25       0.04       4.48       ----

> <Gold.Chemscore.Fitness>
1.8321

> <Gold.Chemscore.DG>
-6.3527

> <Gold.Chemscore.ZeroCoef>
-5.4800

> <Gold.Chemscore.Hbond>
1.9883

> <Gold.Chemscore.Metal>
0.0000

> <Gold.Chemscore.Lipo>
43.5946

> <Gold.Chemscore.Internal_Hbond>
0.0000

> <Gold.Chemscore.DEClash>
0.0431

> <Gold.Chemscore.DEInternal>
4.4775

> <Gold.Chemscore.Rot>
4.2456

> <Gold.Chemscore.Internal.Correction>
   9.000000E+99

> <Gold.Chemscore.Hbonds>
donor molecule, donor type, donor heavy atom, donor atom, acceptor molecule, acceptor atom, score
      P1  H  6934  6946       L1    14  0.99
      P1  H  7989  7998       L1    32  0.95

> <Gold.Chemscore.Hbond.Weighted>
-6.6408

> <Gold.Chemscore.Metal.Weighted>
-0.0000

> <Gold.Chemscore.Lipo.Weighted>
-5.1006

> <Gold.Chemscore.Internal_Hbond.Weighted>
0.0000

> <Gold.Chemscore.DEClash.Weighted>
0.0431

> <Gold.Chemscore.DEInternal.Weighted>
4.4775

> <Gold.Chemscore.Rot.Weighted>
10.8687

> <Gold.Chemscore.Internal.Correction.Weighted>
   9.000000E+99

> <Gold.Protein.RotatedTorsions>
[ 6907 6896 6895 6894 ] final   78.01 input  -60.11 | X-H torsion
[ 7974 7965 7964 7962 ] final  -73.19 input  175.53 | X-H torsion
[ 8008 7997 7996 7995 ] final   63.67 input   59.86 | X-H torsion
[ 10167 10162 10161 10158 ] final -115.09 input  -65.29 | X-H torsion
[ 10718 10713 10712 10709 ] final  159.18 input   66.30 | X-H torsion
[ 10763 10752 10751 10750 ] final -141.55 input  -60.55 | X-H torsion
[ 11005 11000 10999 10996 ] final  -46.25 input  -57.11 | X-H torsion

> <Gold.Protein.ActiveResidues>
 VAL166  LYS551  ARG553  GLY616  TRP617  ASP618  TYR619  PRO620  LYS621  CYS622 
 ASP623  PHE694  ASN695  SER759  ASP760  ASP761  ALA762  ILE779  LEU786  VAL792 
 PHE793  MET794  SER795  GLU796  ALA797  LYS798  CYS799  TRP800  GLU811  SER814 

> <Gold.Protein.RotatedAtoms>
  152.5142  134.3729  159.9324 H   0  0  0  0  0  0  0  0  0  0  0  0  # atno 6907 bound_to 6896
  151.3684  133.3857  159.2705 H   0  0  0  0  0  0  0  0  0  0  0  0  # atno 6908 bound_to 6896
  150.9597  134.9006  159.7781 H   0  0  0  0  0  0  0  0  0  0  0  0  # atno 6909 bound_to 6896
  145.6554  140.9269  143.0962 H   0  0  0  0  0  0  0  0  0  0  0  0  # atno 7974 bound_to 7965
  155.6338  140.3496  155.4692 H   0  0  0  0  0  0  0  0  0  0  0  0  # atno 8008 bound_to 7997
  155.9981  140.1207  157.0597 H   0  0  0  0  0  0  0  0  0  0  0  0  # atno 8009 bound_to 7997
  154.4240  140.1106  156.5645 H   0  0  0  0  0  0  0  0  0  0  0  0  # atno 8010 bound_to 7997
  140.0939  143.4675  152.1853 H   0  0  0  0  0  0  0  0  0  0  0  0  # atno 10167 bound_to 10162
  157.1677  131.0602  151.2199 H   0  0  0  0  0  0  0  0  0  0  0  0  # atno 10718 bound_to 10713
  154.8541  135.3521  154.5886 H   0  0  0  0  0  0  0  0  0  0  0  0  # atno 10763 bound_to 10752
  153.6496  135.6994  153.5218 H   0  0  0  0  0  0  0  0  0  0  0  0  # atno 10764 bound_to 10752
  153.2904  135.4236  155.1120 H   0  0  0  0  0  0  0  0  0  0  0  0  # atno 10765 bound_to 10752
  141.0567  133.6723  156.3129 H   0  0  0  0  0  0  0  0  0  0  0  0  # atno 11005 bound_to 11000
  144.7108  139.8380  143.7415 LP  0  0  0  0  0  0  0  0  0  0  0  0  # atno 17320 bound_to 7965
  146.1169  139.4182  143.0252 LP  0  0  0  0  0  0  0  0  0  0  0  0  # atno 17321 bound_to 7965
  139.5709  144.7462  151.3893 LP  0  0  0  0  0  0  0  0  0  0  0  0  # atno 17342 bound_to 10162
  140.7014  143.7622  150.7409 LP  0  0  0  0  0  0  0  0  0  0  0  0  # atno 17343 bound_to 10162
  157.4073  130.7366  149.6812 LP  0  0  0  0  0  0  0  0  0  0  0  0  # atno 17370 bound_to 10713
  155.9743  130.4105  150.3932 LP  0  0  0  0  0  0  0  0  0  0  0  0  # atno 17371 bound_to 10713
  140.5949  134.5613  157.5507 LP  0  0  0  0  0  0  0  0  0  0  0  0  # atno 17394 bound_to 11000
  139.9396  134.7811  156.0712 LP  0  0  0  0  0  0  0  0  0  0  0  0  # atno 17395 bound_to 11000

$$$$
