#       Name:                AV-unprocessed.smi:231
#       Creating user name   scv26
#       Creation time:       Thu Mar 26 20:30:02 2020


#       File generated by GOLD software.
#

@<TRIPOS>MOLECULE
AV-unprocessed.smi:231
    59    62     1
SMALL
NO_CHARGES


@<TRIPOS>ATOM
      1 ****        -3.6826   0.2436  -3.3899 C.3            1 S1                 0.0000
      2 ****        -4.1096   0.5901  -1.9546 C.3            1 S1                 0.0000
      3 ****        -3.1563   0.1113  -0.9430 N.pl3          1 S1                 0.0000
      4 ****        -1.8905   0.6024  -0.9888 C.ar           1 S1                 0.0000
      5 ****        -1.6723   1.8937  -1.3537 N.ar           1 S1                 0.0000
      6 ****        -0.4297   2.3847  -1.3801 C.ar           1 S1                 0.0000
      7 ****         0.7171   1.7707  -1.0818 N.ar           1 S1                 0.0000
      8 ****         0.5030   0.4747  -0.7147 C.ar           1 S1                 0.0000
      9 ****        -0.7561  -0.1843  -0.6466 C.ar           1 S1                 0.0000
     10 ****        -0.5800  -1.5056  -0.2540 N.2            1 S1                 0.0000
     11 ****         0.7112  -1.6210  -0.1001 C.2            1 S1                 0.0000
     12 ****         1.4355  -0.4723  -0.3312 N.pl3          1 S1                 0.0000
     13 ****         2.8585  -0.3124  -0.2644 C.3            1 S1                 0.0000
     14 ****         3.7458  -1.2815   0.5249 C.3            1 S1                 0.0000
     15 ****         4.6972  -0.1109   0.8662 C.3            1 S1                 0.0000
     16 ****         5.2836  -0.0930   2.2918 C.3            1 S1                 0.0000
     17 ****         4.2993  -0.2893   3.2876 O.3            1 S1                 0.0000
     18 ****         5.8755   0.0507  -0.1134 C.3            1 S1                 0.0000
     19 ****         6.4695   1.3289  -0.0068 O.3            1 S1                 0.0000
     20 ****         3.4771   0.7980   0.5894 C.3            1 S1                 0.0000
     21 ****        -3.6145  -0.2093   0.4183 C.3            1 S1                 0.0000
     22 ****        -4.4803  -1.4800   0.4688 C.3            1 S1                 0.0000
     23 ****        -5.5335  -1.1942   1.5509 C.3            1 S1                 0.0000
     24 ****        -5.5363   0.2510   1.6849 N.am           1 S1                 0.0000
     25 ****        -4.5148   0.8397   1.0643 C.2            1 S1                 0.0000
     26 ****        -4.2990   2.0494   1.0255 O.2            1 S1                 0.0000
     27 ****        -4.4366   0.5722  -4.1053 H              1 S1                 0.0000
     28 ****        -3.5582  -0.8328  -3.5115 H              1 S1                 0.0000
     29 ****        -2.7424   0.7222  -3.6643 H              1 S1                 0.0000
     30 ****        -4.2476   1.6680  -1.8600 H              1 S1                 0.0000
     31 ****        -5.0924   0.1565  -1.7727 H              1 S1                 0.0000
     32 ****        -0.3428   3.4187  -1.6796 H              1 S1                 0.0000
     33 ****         1.1692  -2.5541   0.1937 H              1 S1                 0.0000
     34 ****         3.1990  -0.2362  -1.2985 H              1 S1                 0.0000
     35 ****         3.2356  -1.6992   1.3941 H              1 S1                 0.0000
     36 ****         4.1918  -2.0732  -0.0778 H              1 S1                 0.0000
     37 ****         6.0383  -0.8713   2.4105 H              1 S1                 0.0000
     38 ****         5.7755   0.8570   2.5023 H              1 S1                 0.0000
     39 ****         4.7180  -0.2574   4.1341 H              1 S1                 0.0000
     40 ****         6.6400  -0.7062   0.0645 H              1 S1                 0.0000
     41 ****         5.5534  -0.0797  -1.1467 H              1 S1                 0.0000
     42 ****         7.1700   1.3890  -0.6383 H              1 S1                 0.0000
     43 ****         3.6964   1.7147   0.0411 H              1 S1                 0.0000
     44 ****         2.8818   1.0136   1.4782 H              1 S1                 0.0000
     45 ****        -2.7745  -0.3400   1.1028 H              1 S1                 0.0000
     46 ****        -4.9783  -1.6698  -0.4822 H              1 S1                 0.0000
     47 ****        -3.8886  -2.3660   0.7008 H              1 S1                 0.0000
     48 ****        -6.5187  -1.5702   1.2738 H              1 S1                 0.0000
     49 ****        -5.2489  -1.6405   2.5045 H              1 S1                 0.0000
     50 ****        -6.2562   0.7502   2.1873 H              1 S1                 0.0000
     51 ****        -2.4444   2.4782  -1.6032 LP             1 S1                 0.0000
     52 ****         1.6170   2.2048  -1.1222 LP             1 S1                 0.0000
     53 ****        -1.2807  -2.2064  -0.1202 LP             1 S1                 0.0000
     54 ****         3.8637  -1.1804   3.1602 LP             1 S1                 0.0000
     55 ****         3.6086   0.4312   3.2257 LP             1 S1                 0.0000
     56 ****         6.8353   1.4546   0.9153 LP             1 S1                 0.0000
     57 ****         5.7861   2.0347  -0.1934 LP             1 S1                 0.0000
     58 ****        -3.4921   2.3983   0.5489 LP             1 S1                 0.0000
     59 ****        -4.9304   2.6844   1.4705 LP             1 S1                 0.0000
@<TRIPOS>BOND
    1    1    2 1     
    2    1   27 1     
    3    1   28 1     
    4    1   29 1     
    5    2    3 1     
    6    2   30 1     
    7    2   31 1     
    8    3    4 1     
    9    3   21 1     
   10    4    9 ar    
   11    4    5 ar    
   12    5    6 ar    
   13    6    7 ar    
   14    6   32 1     
   15    7    8 ar    
   16    8   12 1     
   17    8    9 ar    
   18    9   10 1     
   19   10   11 2     
   20   11   12 1     
   21   11   33 1     
   22   12   13 1     
   23   13   20 1     
   24   13   14 1     
   25   13   34 1     
   26   14   15 1     
   27   14   35 1     
   28   14   36 1     
   29   15   16 1     
   30   15   18 1     
   31   15   20 1     
   32   16   17 1     
   33   16   37 1     
   34   16   38 1     
   35   17   39 1     
   36   18   19 1     
   37   18   40 1     
   38   18   41 1     
   39   19   42 1     
   40   20   43 1     
   41   20   44 1     
   42   21   25 1     
   43   21   22 1     
   44   21   45 1     
   45   22   23 1     
   46   22   46 1     
   47   22   47 1     
   48   23   24 1     
   49   23   48 1     
   50   23   49 1     
   51   24   25 am    
   52   24   50 1     
   53   25   26 2     
   54    5   51 1     
   55    7   52 1     
   56   10   53 1     
   57   17   54 1     
   58   17   55 1     
   59   19   56 1     
   60   19   57 1     
   61   26   58 1     
   62   26   59 1     
@<TRIPOS>SUBSTRUCTURE
      1 S1             1
@<TRIPOS>SET
LONE_PAIRS      STATIC     ATOMS    <user>   **** ""
9 51 52 53 54 55 56 57 58 59
DONOR_HYDROGENS      STATIC     ATOMS    <user>   **** ""
3 39 42 50
ATOM$BLUE        STATIC     ATOMS    COLORGROUP SYSTEM
9 51 52 53 54 55 56 57 58 59
ATOM$RED        STATIC     ATOMS    COLORGROUP SYSTEM
3 39 42 50
