AV-unprocessed.smi:1395|AV-procd|sdf|5669|dock5
  -GOLD-   22720 5293D 1   1.00000     0.00000
 Structure written by MMmdl.
 42 43  0  0  0  0  0  0  0  0  1 V2000
  151.2779  144.9570  158.2906 C   0  0  0  0  0  0  0  0  0  0  0  0
  151.7692  143.5706  158.6745 C   0  0  0  0  0  0  0  0  0  0  0  0
  152.8214  143.4444  159.6062 C   0  0  0  0  0  0  0  0  0  0  0  0
  153.2748  142.1620  159.9595 C   0  0  0  0  0  0  0  0  0  0  0  0
  152.6523  141.0527  159.3621 C   0  0  0  0  0  0  0  0  0  0  0  0
  151.6465  141.1640  158.4707 N   0  0  0  0  0  0  0  0  0  0  0  0
  151.1968  142.3948  158.1186 C   0  0  0  0  0  0  0  0  0  0  0  0
  150.1414  142.5892  157.1832 N   0  0  0  0  0  0  0  0  0  0  0  0
  149.3121  141.6732  156.6526 C   0  0  0  0  0  0  0  0  0  0  0  0
  149.3264  140.4673  156.9015 O   0  0  0  0  0  0  0  0  0  0  0  0
  148.4454  142.2425  155.8025 N   0  0  0  0  0  0  0  0  0  0  0  0
  147.4066  141.5363  155.0589 C   0  0  0  0  0  0  0  0  0  0  0  0
  146.4495  140.8395  156.0361 C   0  0  0  0  0  0  0  0  0  0  0  0
  145.4166  139.9758  155.2912 C   0  0  0  0  0  0  0  0  0  0  0  0
  146.0922  138.9719  154.4561 N   0  0  0  0  0  0  0  0  0  0  0  0
  145.1412  138.0609  153.7793 C   0  0  0  0  0  0  0  0  0  0  0  0
  145.8013  136.9492  152.9533 C   0  0  0  0  0  0  0  0  0  0  0  0
  145.6123  136.9771  151.6318 N   0  0  0  0  0  0  0  0  0  0  0  0
  146.4699  136.0755  153.5016 O   0  0  0  0  0  0  0  0  0  0  0  0
  146.9304  139.6325  153.4500 C   0  0  0  0  0  0  0  0  0  0  0  0
  148.0219  140.4813  154.1251 C   0  0  0  0  0  0  0  0  0  0  0  0
  151.8295  145.7345  158.8197 H   0  0  0  0  0  0  0  0  0  0  0  0
  150.2214  145.0696  158.5365 H   0  0  0  0  0  0  0  0  0  0  0  0
  151.4055  145.1238  157.2207 H   0  0  0  0  0  0  0  0  0  0  0  0
  153.2783  144.3184  160.0469 H   0  0  0  0  0  0  0  0  0  0  0  0
  154.0781  142.0319  160.6694 H   0  0  0  0  0  0  0  0  0  0  0  0
  152.9695  140.0496  159.6054 H   0  0  0  0  0  0  0  0  0  0  0  0
  150.0022  143.5425  156.8833 H   0  0  0  0  0  0  0  0  0  0  0  0
  148.5045  143.2401  155.6603 H   0  0  0  0  0  0  0  0  0  0  0  0
  146.8335  142.2515  154.4654 H   0  0  0  0  0  0  0  0  0  0  0  0
  147.0135  140.2093  156.7257 H   0  0  0  0  0  0  0  0  0  0  0  0
  145.9353  141.5822  156.6474 H   0  0  0  0  0  0  0  0  0  0  0  0
  144.7784  139.4992  156.0350 H   0  0  0  0  0  0  0  0  0  0  0  0
  144.7695  140.6034  154.6760 H   0  0  0  0  0  0  0  0  0  0  0  0
  144.4659  137.6225  154.5170 H   0  0  0  0  0  0  0  0  0  0  0  0
  144.5177  138.6352  153.0924 H   0  0  0  0  0  0  0  0  0  0  0  0
  146.0259  136.2658  151.0470 H   0  0  0  0  0  0  0  0  0  0  0  0
  145.0534  137.7118  151.2223 H   0  0  0  0  0  0  0  0  0  0  0  0
  147.4098  138.8839  152.8178 H   0  0  0  0  0  0  0  0  0  0  0  0
  146.3193  140.2557  152.7946 H   0  0  0  0  0  0  0  0  0  0  0  0
  148.6328  140.9652  153.3622 H   0  0  0  0  0  0  0  0  0  0  0  0
  148.6907  139.8289  154.6884 H   0  0  0  0  0  0  0  0  0  0  0  0
  1  2  1  0  0  0  0
  1 22  1  0  0  0  0
  1 23  1  0  0  0  0
  1 24  1  0  0  0  0
  2  7  1  0  0  0  0
  2  3  2  0  0  0  0
  3  4  1  0  0  0  0
  3 25  1  0  0  0  0
  4  5  2  0  0  0  0
  4 26  1  0  0  0  0
  5  6  1  0  0  0  0
  5 27  1  0  0  0  0
  6  7  2  0  0  0  0
  7  8  1  0  0  0  0
  8  9  1  0  0  0  0
  8 28  1  0  0  0  0
  9 10  2  0  0  0  0
  9 11  1  0  0  0  0
 11 12  1  0  0  0  0
 11 29  1  0  0  0  0
 12 21  1  0  0  0  0
 12 13  1  0  0  0  0
 12 30  1  0  0  0  0
 13 14  1  0  0  0  0
 13 31  1  0  0  0  0
 13 32  1  0  0  0  0
 14 15  1  0  0  0  0
 14 33  1  0  0  0  0
 14 34  1  0  0  0  0
 15 16  1  0  0  0  0
 15 20  1  0  0  0  0
 16 17  1  0  0  0  0
 16 35  1  0  0  0  0
 16 36  1  0  0  0  0
 17 18  1  0  0  0  0
 17 19  2  0  0  0  0
 18 37  1  0  0  0  0
 18 38  1  0  0  0  0
 20 21  1  0  0  0  0
 20 39  1  0  0  0  0
 20 40  1  0  0  0  0
 21 41  1  0  0  0  0
 21 42  1  0  0  0  0
M  END
> <s_m_source_file>
AV-unprocessed.smi

> <i_m_source_file_index>
1395

> <i_lp_mmshare_version>
43012

> <i_f3d_flags>
0

> <s_epik_input>
W0NIM11jMVtjSF1bY0hdW2NIXW5jMVtOSF1DKD1PKVtOSF1bQ0hdMltDSDJdW0NIMl1OKFtDSDJdW0NIMl0yKVtDSDJdQyg9TylbTkgyXQ==

> <s_epik_cmdline>
J2VwaWtfcHl0aG9uJywgJy1waCcsICc3LjAnLCAnLXRuJywgJzgnLCAnLW1hJywgJzIwMCcsICctbWV0YWxfYmluZGluZycsICctaW1hZScsICc8aW5maWxlLm1hZT4nLCAnLW9tYWUnLCAnPG91dGZpbGUubWFlPic=

> <r_epik_Ionization_Penalty>
0.164795

> <r_epik_Ionization_Penalty_Charging>
0

> <r_epik_Ionization_Penalty_Neutral>
0.164795

> <r_epik_State_Penalty>
0.154069

> <r_epik_Charging_Adjusted_Penalty>
0.154069

> <i_epik_Tot_Q>
0

> <i_epik_Tot_abs_Q>
0

> <r_epik_Metal_State_Penalty>
0.171366

> <b_epik_Metal_Only>
0

> <s_lp_Force_Field>
OPLS_2005

> <r_lp_Energy>
15.3703

> <b_lp_Chiralities_Consistent>
1

> <s_lp_Variant>
AV-unprocessed.smi:1395-1

> <Gold.Version>
5.8.1

> <Gold.Id.Protein>
6NUR|6NUR_protein|mol2

> <Gold.PLP.Fitness>
40.0900

> <Gold.PLP.PLP>
-31.5259

> <Gold.PLP.part.hbond>
-2.9621

> <Gold.PLP.part.metal>
0.0000

> <Gold.PLP.part.buried>
-5.2807

> <Gold.PLP.part.nonpolar>
-24.9855

> <Gold.PLP.part.repulsive>
1.6281

> <Gold.PLP.ligand.clash>
0.0000

> <Gold.PLP.ligand.torsion>
0.0520

> <Gold.PLP.Chemscore.Hbond>
2.8873

> <Gold.PLP.Chemscore.CHOScore>
0.0000

> <Gold.PLP.Chemscore.Metal>
0.0000

> <Gold.Chemscore.Hbonds>
donor molecule, donor type, donor heavy atom, donor atom, acceptor molecule, acceptor atom, score
      L1  H     8    28       P1  8028  0.88
      L1  H    11    29       P1  8028  0.96
      L1  H    18    38       P1 10171  0.98

> <Gold.PLP.Chemscore.Internal.Correction>
0.0065

> <Gold.Rescore>
     Score         DG    S(hbond)    S(metal)    S(lipo)     H(rot)  DE(clash)    DE(int)     intcor
     16.50     -19.17       2.82        0.00      79.02       1.94       0.19       2.48       ----

> <Gold.Chemscore.Fitness>
16.5018

> <Gold.Chemscore.DG>
-19.1718

> <Gold.Chemscore.ZeroCoef>
-5.4800

> <Gold.Chemscore.Hbond>
2.8170

> <Gold.Chemscore.Metal>
0.0000

> <Gold.Chemscore.Lipo>
79.0176

> <Gold.Chemscore.Internal_Hbond>
0.0000

> <Gold.Chemscore.DEClash>
0.1889

> <Gold.Chemscore.DEInternal>
2.4810

> <Gold.Chemscore.Rot>
1.9383

> <Gold.Chemscore.Internal.Correction>
   9.000000E+99

> <Gold.Chemscore.Hbonds>
donor molecule, donor type, donor heavy atom, donor atom, acceptor molecule, acceptor atom, score
      L1  H     8    28       P1  8028  0.81
      L1  H    11    29       P1  8028  0.90
      L1  H    18    38       P1 10171  0.91

> <Gold.Chemscore.Hbond.Weighted>
-9.4087

> <Gold.Chemscore.Metal.Weighted>
-0.0000

> <Gold.Chemscore.Lipo.Weighted>
-9.2451

> <Gold.Chemscore.Internal_Hbond.Weighted>
0.0000

> <Gold.Chemscore.DEClash.Weighted>
0.1889

> <Gold.Chemscore.DEInternal.Weighted>
2.4810

> <Gold.Chemscore.Rot.Weighted>
4.9620

> <Gold.Chemscore.Internal.Correction.Weighted>
   9.000000E+99

> <Gold.Protein.RotatedTorsions>
[ 6907 6896 6895 6894 ] final  -27.01 input  -60.11 | X-H torsion
[ 7974 7965 7964 7962 ] final  -47.66 input  175.53 | X-H torsion
[ 8008 7997 7996 7995 ] final   65.68 input   59.86 | X-H torsion
[ 10167 10162 10161 10158 ] final   -7.81 input  -65.29 | X-H torsion
[ 10718 10713 10712 10709 ] final   63.75 input   66.30 | X-H torsion
[ 10763 10752 10751 10750 ] final -107.35 input  -60.55 | X-H torsion
[ 11005 11000 10999 10996 ] final -137.08 input  -57.11 | X-H torsion

> <Gold.Protein.ActiveResidues>
 VAL166  LYS551  ARG553  GLY616  TRP617  ASP618  TYR619  PRO620  LYS621  CYS622 
 ASP623  PHE694  ASN695  SER759  ASP760  ASP761  ALA762  ILE779  LEU786  VAL792 
 PHE793  MET794  SER795  GLU796  ALA797  LYS798  CYS799  TRP800  GLU811  SER814 

> <Gold.Protein.RotatedAtoms>
  151.1529  135.0236  159.8675 H   0  0  0  0  0  0  0  0  0  0  0  0  # atno 6907 bound_to 6896
  152.5452  134.1368  159.8472 H   0  0  0  0  0  0  0  0  0  0  0  0  # atno 6908 bound_to 6896
  151.1455  133.4896  159.2629 H   0  0  0  0  0  0  0  0  0  0  0  0  # atno 6909 bound_to 6896
  145.9592  140.7496  142.9466 H   0  0  0  0  0  0  0  0  0  0  0  0  # atno 7974 bound_to 7965
  155.6655  140.3497  155.4798 H   0  0  0  0  0  0  0  0  0  0  0  0  # atno 8008 bound_to 7997
  155.9732  140.1160  157.0816 H   0  0  0  0  0  0  0  0  0  0  0  0  # atno 8009 bound_to 7997
  154.4172  140.1153  156.5321 H   0  0  0  0  0  0  0  0  0  0  0  0  # atno 8010 bound_to 7997
  140.7040  143.6039  150.8771 H   0  0  0  0  0  0  0  0  0  0  0  0  # atno 10167 bound_to 10162
  157.5993  130.9122  149.9756 H   0  0  0  0  0  0  0  0  0  0  0  0  # atno 10718 bound_to 10713
  154.8069  135.4678  154.0416 H   0  0  0  0  0  0  0  0  0  0  0  0  # atno 10763 bound_to 10752
  153.1878  135.6850  153.8399 H   0  0  0  0  0  0  0  0  0  0  0  0  # atno 10764 bound_to 10752
  153.7928  135.3241  155.3358 H   0  0  0  0  0  0  0  0  0  0  0  0  # atno 10765 bound_to 10752
  140.8745  134.2009  157.4630 H   0  0  0  0  0  0  0  0  0  0  0  0  # atno 11005 bound_to 11000
  144.6811  140.2563  143.7325 LP  0  0  0  0  0  0  0  0  0  0  0  0  # atno 17320 bound_to 7965
  145.8063  139.1985  143.2019 LP  0  0  0  0  0  0  0  0  0  0  0  0  # atno 17321 bound_to 7965
  139.9762  143.6001  152.2957 LP  0  0  0  0  0  0  0  0  0  0  0  0  # atno 17342 bound_to 10162
  139.6606  144.7662  151.1970 LP  0  0  0  0  0  0  0  0  0  0  0  0  # atno 17343 bound_to 10162
  156.1062  130.3652  150.0129 LP  0  0  0  0  0  0  0  0  0  0  0  0  # atno 17370 bound_to 10713
  156.8236  130.9367  151.3640 LP  0  0  0  0  0  0  0  0  0  0  0  0  # atno 17371 bound_to 10713
  139.8714  134.9789  156.5016 LP  0  0  0  0  0  0  0  0  0  0  0  0  # atno 17394 bound_to 11000
  140.8534  133.8114  155.9192 LP  0  0  0  0  0  0  0  0  0  0  0  0  # atno 17395 bound_to 11000

$$$$
