AV-unprocessed.smi:114|AV-procd|sdf|1111|dock9
  -GOLD-   2262018233D 1   1.00000     0.00000
 Structure written by MMmdl.
 32 34  0  0  0  0  0  0  0  0  1 V2000
  150.6939  135.2813  155.3276 N   0  0  0  0  0  0  0  0  0  0  0  0
  150.8138  136.6018  155.1315 C   0  0  0  0  0  0  0  0  0  0  0  0
  152.0440  137.1073  154.8807 N   0  0  0  0  0  0  0  0  0  0  0  0
  152.2082  138.4209  154.6797 C   0  0  0  0  0  0  0  0  0  0  0  0
  153.4726  138.8379  154.4357 F   0  0  0  0  0  0  0  0  0  0  0  0
  151.2637  139.3681  154.6929 N   0  0  0  0  0  0  0  0  0  0  0  0
  150.0229  138.8599  154.9454 C   0  0  0  0  0  0  0  0  0  0  0  0
  149.7143  137.4933  155.1745 C   0  0  0  0  0  0  0  0  0  0  0  0
  148.3518  137.3466  155.3964 N   0  0  0  0  0  0  0  0  0  0  0  0
  147.8860  138.5639  155.3040 C   0  0  0  0  0  0  0  0  0  0  0  0
  148.8251  139.5357  155.0261 N   0  0  0  0  0  0  0  0  0  0  0  0
  148.6381  141.0121  154.8535 C   0  0  2  0  0  0  0  0  0  0  0  0
  147.9301  141.4752  155.9648 O   0  0  0  0  0  0  0  0  0  0  0  0
  146.7105  142.1030  155.5708 C   0  0  2  0  0  0  0  0  0  0  0  0
  145.6168  141.9024  156.6343 C   0  0  0  0  0  0  0  0  0  0  0  0
  144.4235  142.5350  156.2253 O   0  0  0  0  0  0  0  0  0  0  0  0
  146.4002  141.5261  154.1820 C   0  0  2  0  0  0  0  0  0  0  0  0
  145.6808  140.3070  154.2712 O   0  0  0  0  0  0  0  0  0  0  0  0
  147.7974  141.3431  153.6062 C   0  0  2  0  0  0  0  0  0  0  0  0
  147.8494  140.3903  152.5585 O   0  0  0  0  0  0  0  0  0  0  0  0
  149.6492  141.4197  154.8250 H   0  0  0  0  0  0  0  0  0  0  0  0
  146.9154  143.1680  155.4446 H   0  0  0  0  0  0  0  0  0  0  0  0
  145.8086  142.2204  153.5845 H   0  0  0  0  0  0  0  0  0  0  0  0
  148.1504  142.3021  153.2248 H   0  0  0  0  0  0  0  0  0  0  0  0
  149.7859  134.8814  155.5165 H   0  0  0  0  0  0  0  0  0  0  0  0
  151.5108  134.6892  155.2859 H   0  0  0  0  0  0  0  0  0  0  0  0
  146.8369  138.7845  155.4371 H   0  0  0  0  0  0  0  0  0  0  0  0
  145.3976  140.8409  156.7537 H   0  0  0  0  0  0  0  0  0  0  0  0
  145.9314  142.2821  157.6068 H   0  0  0  0  0  0  0  0  0  0  0  0
  144.2083  142.2363  155.3549 H   0  0  0  0  0  0  0  0  0  0  0  0
  145.3020  140.1219  153.4251 H   0  0  0  0  0  0  0  0  0  0  0  0
  148.7555  140.2585  152.3241 H   0  0  0  0  0  0  0  0  0  0  0  0
  1  2  1  0  0  0  0
  1 25  1  0  0  0  0
  1 26  1  0  0  0  0
  2  8  1  0  0  0  0
  2  3  2  0  0  0  0
  3  4  1  0  0  0  0
  4  5  1  0  0  0  0
  4  6  2  0  0  0  0
  6  7  1  0  0  0  0
  7 11  1  0  0  0  0
  7  8  2  0  0  0  0
  8  9  1  0  0  0  0
  9 10  2  0  0  0  0
 10 11  1  0  0  0  0
 10 27  1  0  0  0  0
 11 12  1  0  0  0  0
 12 21  1  0  0  0  0
 12 19  1  0  0  0  0
 12 13  1  0  0  0  0
 13 14  1  0  0  0  0
 14 22  1  0  0  0  0
 14 15  1  0  0  0  0
 14 17  1  0  0  0  0
 15 16  1  0  0  0  0
 15 28  1  0  0  0  0
 15 29  1  0  0  0  0
 16 30  1  0  0  0  0
 17 23  1  0  0  0  0
 17 18  1  0  0  0  0
 17 19  1  0  0  0  0
 18 31  1  0  0  0  0
 19 24  1  0  0  0  0
 19 20  1  0  0  0  0
 20 32  1  0  0  0  0
M  END
> <s_m_source_file>
AV-unprocessed.smi

> <i_m_source_file_index>
114

> <i_lp_mmshare_version>
43012

> <i_f3d_flags>
0

> <s_epik_input>
RmMobjEpbmMoW05IMl0pYyhjMTIpbltjSF1uMltDQEBIXTNPW0NASF0oW0NIMl1bT0hdKVtDQEBIXShbT0hdKVtDQEBIXTNbT0hd

> <s_epik_cmdline>
J2VwaWtfcHl0aG9uJywgJy1waCcsICc3LjAnLCAnLXRuJywgJzgnLCAnLW1hJywgJzIwMCcsICctbWV0YWxfYmluZGluZycsICctaW1hZScsICc8aW5maWxlLm1hZT4nLCAnLW9tYWUnLCAnPG91dGZpbGUubWFlPic=

> <r_lp_tautomer_probability>
1

> <r_epik_Ionization_Penalty>
1.13199e-05

> <r_epik_Ionization_Penalty_Charging>
0

> <r_epik_Ionization_Penalty_Neutral>
1.13199e-05

> <r_epik_State_Penalty>
-0

> <r_epik_Charging_Adjusted_Penalty>
0

> <i_epik_Tot_Q>
0

> <i_epik_Tot_abs_Q>
0

> <r_epik_Metal_State_Penalty>
-0

> <b_epik_Metal_Only>
0

> <s_epik_Chemistry_Notes>
This compound contains an acetal/aminal-like group ( X-CH(R)-Y where X, Y are N, S, or O) that may be acid/base labile, releasing an aldehyde.

> <s_lp_Force_Field>
OPLS_2005

> <r_lp_Energy>
42.0109

> <b_lp_Chiralities_Consistent>
1

> <s_lp_Variant>
AV-unprocessed.smi:114-5

> <Gold.Version>
5.8.1

> <Gold.Id.Protein>
6NUR|6NUR_protein|mol2

> <Gold.PLP.Fitness>
37.7172

> <Gold.PLP.PLP>
-26.4344

> <Gold.PLP.part.hbond>
-3.6893

> <Gold.PLP.part.metal>
0.0000

> <Gold.PLP.part.buried>
-5.8863

> <Gold.PLP.part.nonpolar>
-17.1696

> <Gold.PLP.part.repulsive>
0.4543

> <Gold.PLP.ligand.clash>
0.1776

> <Gold.PLP.ligand.torsion>
0.0948

> <Gold.PLP.Chemscore.Hbond>
3.8000

> <Gold.PLP.Chemscore.CHOScore>
0.0000

> <Gold.PLP.Chemscore.Metal>
0.0000

> <Gold.Chemscore.Hbonds>
donor molecule, donor type, donor heavy atom, donor atom, acceptor molecule, acceptor atom, score
      L1  H    18    31       P1 10175  0.77
      L1  H    20    32       P1  7957  0.65
      P1  H  7989  7998       L1     6  1.00
      P1  H 10752 10764       L1     3  0.82

> <Gold.PLP.Chemscore.Internal.Correction>
0.2499

> <Gold.Rescore>
     Score         DG    S(hbond)    S(metal)    S(lipo)     H(rot)  DE(clash)    DE(int)     intcor
      7.17      -8.75       3.32        0.00      21.31       4.03       0.42       1.16       ----

> <Gold.Chemscore.Fitness>
7.1698

> <Gold.Chemscore.DG>
-8.7499

> <Gold.Chemscore.ZeroCoef>
-5.4800

> <Gold.Chemscore.Hbond>
3.3195

> <Gold.Chemscore.Metal>
0.0000

> <Gold.Chemscore.Lipo>
21.3128

> <Gold.Chemscore.Internal_Hbond>
0.0000

> <Gold.Chemscore.DEClash>
0.4186

> <Gold.Chemscore.DEInternal>
1.1615

> <Gold.Chemscore.Rot>
4.0277

> <Gold.Chemscore.Internal.Correction>
   9.000000E+99

> <Gold.Chemscore.Hbonds>
donor molecule, donor type, donor heavy atom, donor atom, acceptor molecule, acceptor atom, score
      L1  H    18    31       P1 10175  0.76
      L1  H    20    32       P1  7957  0.63
      P1  H  7989  7998       L1     6  0.84
      P1  H 10752 10764       L1     3  0.32

> <Gold.Chemscore.Hbond.Weighted>
-11.0873

> <Gold.Chemscore.Metal.Weighted>
-0.0000

> <Gold.Chemscore.Lipo.Weighted>
-2.4936

> <Gold.Chemscore.Internal_Hbond.Weighted>
0.0000

> <Gold.Chemscore.DEClash.Weighted>
0.4186

> <Gold.Chemscore.DEInternal.Weighted>
1.1615

> <Gold.Chemscore.Rot.Weighted>
10.3110

> <Gold.Chemscore.Internal.Correction.Weighted>
   9.000000E+99

> <Gold.Protein.RotatedTorsions>
[ 6907 6896 6895 6894 ] final -118.35 input  -60.11 | X-H torsion
[ 7974 7965 7964 7962 ] final -152.73 input  175.53 | X-H torsion
[ 8008 7997 7996 7995 ] final  -70.17 input   59.86 | X-H torsion
[ 10167 10162 10161 10158 ] final   -6.79 input  -65.29 | X-H torsion
[ 10718 10713 10712 10709 ] final   27.36 input   66.30 | X-H torsion
[ 10763 10752 10751 10750 ] final  -79.88 input  -60.55 | X-H torsion
[ 11005 11000 10999 10996 ] final   12.26 input  -57.11 | X-H torsion

> <Gold.Protein.ActiveResidues>
 VAL166  LYS551  ARG553  GLY616  TRP617  ASP618  TYR619  PRO620  LYS621  CYS622 
 ASP623  PHE694  ASN695  SER759  ASP760  ASP761  ALA762  ILE779  LEU786  VAL792 
 PHE793  MET794  SER795  GLU796  ALA797  LYS798  CYS799  TRP800  GLU811  SER814 

> <Gold.Protein.RotatedAtoms>
  150.8213  133.8248  159.3137 H   0  0  0  0  0  0  0  0  0  0  0  0  # atno 6907 bound_to 6896
  151.6006  135.1046  160.0069 H   0  0  0  0  0  0  0  0  0  0  0  0  # atno 6908 bound_to 6896
  152.4301  133.7223  159.6597 H   0  0  0  0  0  0  0  0  0  0  0  0  # atno 6909 bound_to 6896
  144.7778  140.4623  143.5860 H   0  0  0  0  0  0  0  0  0  0  0  0  # atno 7974 bound_to 7965
  154.4992  140.0839  156.7762 H   0  0  0  0  0  0  0  0  0  0  0  0  # atno 8008 bound_to 7997
  155.4043  140.3438  155.4241 H   0  0  0  0  0  0  0  0  0  0  0  0  # atno 8009 bound_to 7997
  156.1434  140.1536  156.8872 H   0  0  0  0  0  0  0  0  0  0  0  0  # atno 8010 bound_to 7997
  140.7008  143.6154  150.8664 H   0  0  0  0  0  0  0  0  0  0  0  0  # atno 10167 bound_to 10162
  157.2192  130.6970  149.6262 H   0  0  0  0  0  0  0  0  0  0  0  0  # atno 10718 bound_to 10713
  154.5442  135.5680  153.6866 H   0  0  0  0  0  0  0  0  0  0  0  0  # atno 10763 bound_to 10752
  152.9972  135.6235  154.2461 H   0  0  0  0  0  0  0  0  0  0  0  0  # atno 10764 bound_to 10752
  154.2393  135.2863  155.2840 H   0  0  0  0  0  0  0  0  0  0  0  0  # atno 10765 bound_to 10752
  140.4940  134.0812  155.7778 H   0  0  0  0  0  0  0  0  0  0  0  0  # atno 11005 bound_to 11000
  145.6135  139.1516  143.3062 LP  0  0  0  0  0  0  0  0  0  0  0  0  # atno 17320 bound_to 7965
  146.1969  140.6249  142.9120 LP  0  0  0  0  0  0  0  0  0  0  0  0  # atno 17321 bound_to 7965
  139.9876  143.5883  152.2921 LP  0  0  0  0  0  0  0  0  0  0  0  0  # atno 17342 bound_to 10162
  139.6526  144.7661  151.2118 LP  0  0  0  0  0  0  0  0  0  0  0  0  # atno 17343 bound_to 10162
  155.9684  130.4525  150.5778 LP  0  0  0  0  0  0  0  0  0  0  0  0  # atno 17370 bound_to 10713
  157.3593  131.0747  151.1649 LP  0  0  0  0  0  0  0  0  0  0  0  0  # atno 17371 bound_to 10713
  141.1469  133.9038  157.2193 LP  0  0  0  0  0  0  0  0  0  0  0  0  # atno 17394 bound_to 11000
  139.9752  135.0116  156.9613 LP  0  0  0  0  0  0  0  0  0  0  0  0  # atno 17395 bound_to 11000

$$$$
