AV-unprocessed.smi:2888|AV-procd|sdf|11100|dock6
  -GOLD-   2272015573D 1   1.00000     0.00000
 Structure written by MMmdl.
 33 35  0  0  0  0  0  0  0  0  1 V2000
  153.7340  140.9603  160.6858 C   0  0  0  0  0  0  0  0  0  0  0  0
  152.9002  141.8794  159.8189 C   0  0  0  0  0  0  0  0  0  0  0  0
  152.8741  143.2737  160.0311 C   0  0  0  0  0  0  0  0  0  0  0  0
  152.0576  144.0190  159.1548 C   0  0  0  0  0  0  0  0  0  0  0  0
  151.9408  145.5241  159.2688 C   0  0  0  0  0  0  0  0  0  0  0  0
  151.3447  143.4284  158.1699 N   0  0  0  0  0  0  0  0  0  0  0  0
  151.4469  142.1015  158.0577 C   0  0  0  0  0  0  0  0  0  0  0  0
  150.7115  141.5327  157.0342 N   0  0  0  0  0  0  0  0  0  0  0  0
  150.7093  140.1106  156.7152 C   0  0  2  0  0  0  0  0  0  0  0  0
  152.0738  139.6037  156.2313 C   0  0  0  0  0  0  0  0  0  0  0  0
  151.7185  138.9884  154.8722 C   0  0  1  0  0  0  0  0  0  0  0  0
  150.8722  137.7157  155.0133 C   0  0  0  0  0  0  0  0  0  0  0  0
  149.5162  138.2868  155.4274 C   0  0  0  0  0  0  0  0  0  0  0  0
  149.8162  139.7900  155.5049 C   0  0  2  0  0  0  0  0  0  0  0  0
  150.7368  139.9099  154.4319 O   0  0  0  0  0  0  0  0  0  0  0  0
  152.1864  141.2968  158.8309 N   0  0  0  0  0  0  0  0  0  0  0  0
  154.2073  141.5092  161.5004 H   0  0  0  0  0  0  0  0  0  0  0  0
  154.5167  140.4883  160.0914 H   0  0  0  0  0  0  0  0  0  0  0  0
  153.1110  140.1778  161.1195 H   0  0  0  0  0  0  0  0  0  0  0  0
  153.4467  143.7430  160.8178 H   0  0  0  0  0  0  0  0  0  0  0  0
  152.4574  145.8926  160.1553 H   0  0  0  0  0  0  0  0  0  0  0  0
  150.8939  145.8212  159.3376 H   0  0  0  0  0  0  0  0  0  0  0  0
  152.3786  146.0047  158.3938 H   0  0  0  0  0  0  0  0  0  0  0  0
  150.2830  142.1643  156.3733 H   0  0  0  0  0  0  0  0  0  0  0  0
  150.3650  139.5543  157.5881 H   0  0  0  0  0  0  0  0  0  0  0  0
  152.7839  140.4215  156.0982 H   0  0  0  0  0  0  0  0  0  0  0  0
  152.5192  138.8797  156.9145 H   0  0  0  0  0  0  0  0  0  0  0  0
  152.5696  138.8832  154.1989 H   0  0  0  0  0  0  0  0  0  0  0  0
  150.7917  137.1923  154.0599 H   0  0  0  0  0  0  0  0  0  0  0  0
  151.2850  137.0252  155.7495 H   0  0  0  0  0  0  0  0  0  0  0  0
  148.7664  138.0823  154.6623 H   0  0  0  0  0  0  0  0  0  0  0  0
  149.1565  137.8826  156.3741 H   0  0  0  0  0  0  0  0  0  0  0  0
  148.9281  140.4171  155.4164 H   0  0  0  0  0  0  0  0  0  0  0  0
  1  2  1  0  0  0  0
  1 17  1  0  0  0  0
  1 18  1  0  0  0  0
  1 19  1  0  0  0  0
  2 16  1  0  0  0  0
  2  3  2  0  0  0  0
  3  4  1  0  0  0  0
  3 20  1  0  0  0  0
  4  5  1  0  0  0  0
  4  6  2  0  0  0  0
  5 21  1  0  0  0  0
  5 22  1  0  0  0  0
  5 23  1  0  0  0  0
  6  7  1  0  0  0  0
  7  8  1  0  0  0  0
  7 16  2  0  0  0  0
  8  9  1  0  0  0  0
  8 24  1  0  0  0  0
  9 14  1  0  0  0  0
  9 10  1  0  0  0  0
  9 25  1  0  0  0  0
 10 11  1  0  0  0  0
 10 26  1  0  0  0  0
 10 27  1  0  0  0  0
 11 15  1  0  0  0  0
 11 12  1  0  0  0  0
 11 28  1  0  0  0  0
 12 13  1  0  0  0  0
 12 29  1  0  0  0  0
 12 30  1  0  0  0  0
 13 14  1  0  0  0  0
 13 31  1  0  0  0  0
 13 32  1  0  0  0  0
 14 15  1  0  0  0  0
 14 33  1  0  0  0  0
M  END
> <s_m_source_file>
AV-unprocessed.smi

> <i_m_source_file_index>
2888

> <i_lp_mmshare_version>
43012

> <i_f3d_flags>
0

> <s_epik_input>
W0NIM11jMVtjSF1jKFtDSDNdKW5jKG4xKVtOSF1bQ0BIXShbQ0gyXVtDQEBIXTIzKVtDQEBIXShPMylbQ0gyXVtDSDJdMg==

> <s_epik_cmdline>
J2VwaWtfcHl0aG9uJywgJy1waCcsICc3LjAnLCAnLXRuJywgJzgnLCAnLW1hJywgJzIwMCcsICctbWV0YWxfYmluZGluZycsICctaW1hZScsICc8aW5maWxlLm1hZT4nLCAnLW9tYWUnLCAnPG91dGZpbGUubWFlPic=

> <r_lp_tautomer_probability>
1

> <r_epik_Ionization_Penalty>
0.00890508

> <r_epik_Ionization_Penalty_Charging>
0

> <r_epik_Ionization_Penalty_Neutral>
0.00890508

> <r_epik_State_Penalty>
0.0067342

> <r_epik_Charging_Adjusted_Penalty>
0.0067342

> <i_epik_Tot_Q>
0

> <i_epik_Tot_abs_Q>
0

> <r_epik_Metal_State_Penalty>
0.00663442

> <b_epik_Metal_Only>
0

> <s_lp_Force_Field>
OPLS_2005

> <r_lp_Energy>
31.5378

> <b_lp_Chiralities_Consistent>
1

> <s_lp_Variant>
AV-unprocessed.smi:2888-1

> <Gold.Version>
5.8.1

> <Gold.Id.Protein>
6NUR|6NUR_protein|mol2

> <Gold.PLP.Fitness>
38.8403

> <Gold.PLP.PLP>
-35.8742

> <Gold.PLP.part.hbond>
-1.0000

> <Gold.PLP.part.metal>
0.0000

> <Gold.PLP.part.buried>
-4.1285

> <Gold.PLP.part.nonpolar>
-31.2495

> <Gold.PLP.part.repulsive>
0.2578

> <Gold.PLP.ligand.clash>
0.0000

> <Gold.PLP.ligand.torsion>
0.0132

> <Gold.PLP.Chemscore.Hbond>
0.9913

> <Gold.PLP.Chemscore.CHOScore>
0.0000

> <Gold.PLP.Chemscore.Metal>
0.0000

> <Gold.Chemscore.Hbonds>
donor molecule, donor type, donor heavy atom, donor atom, acceptor molecule, acceptor atom, score
      P1  H  7989  7998       L1    15  1.00

> <Gold.PLP.Chemscore.Internal.Correction>
0.0187

> <Gold.Rescore>
     Score         DG    S(hbond)    S(metal)    S(lipo)     H(rot)  DE(clash)    DE(int)     intcor
     17.05     -17.14       0.99        0.00      93.36       1.00       0.07       0.02       ----

> <Gold.Chemscore.Fitness>
17.0543

> <Gold.Chemscore.DG>
-17.1386

> <Gold.Chemscore.ZeroCoef>
-5.4800

> <Gold.Chemscore.Hbond>
0.9867

> <Gold.Chemscore.Metal>
0.0000

> <Gold.Chemscore.Lipo>
93.3591

> <Gold.Chemscore.Internal_Hbond>
0.0000

> <Gold.Chemscore.DEClash>
0.0689

> <Gold.Chemscore.DEInternal>
0.0154

> <Gold.Chemscore.Rot>
1.0000

> <Gold.Chemscore.Internal.Correction>
   9.000000E+99

> <Gold.Chemscore.Hbonds>
donor molecule, donor type, donor heavy atom, donor atom, acceptor molecule, acceptor atom, score
      P1  H  7989  7998       L1    15  0.30

> <Gold.Chemscore.Hbond.Weighted>
-3.2956

> <Gold.Chemscore.Metal.Weighted>
-0.0000

> <Gold.Chemscore.Lipo.Weighted>
-10.9230

> <Gold.Chemscore.Internal_Hbond.Weighted>
0.0000

> <Gold.Chemscore.DEClash.Weighted>
0.0689

> <Gold.Chemscore.DEInternal.Weighted>
0.0154

> <Gold.Chemscore.Rot.Weighted>
2.5600

> <Gold.Chemscore.Internal.Correction.Weighted>
   9.000000E+99

> <Gold.Protein.RotatedTorsions>
[ 6907 6896 6895 6894 ] final   64.11 input  -60.11 | X-H torsion
[ 7974 7965 7964 7962 ] final  152.36 input  175.53 | X-H torsion
[ 8008 7997 7996 7995 ] final  -31.80 input   59.86 | X-H torsion
[ 10167 10162 10161 10158 ] final   14.05 input  -65.29 | X-H torsion
[ 10718 10713 10712 10709 ] final   44.61 input   66.30 | X-H torsion
[ 10763 10752 10751 10750 ] final  -26.78 input  -60.55 | X-H torsion
[ 11005 11000 10999 10996 ] final  123.26 input  -57.11 | X-H torsion

> <Gold.Protein.ActiveResidues>
 VAL166  LYS551  ARG553  GLY616  TRP617  ASP618  TYR619  PRO620  LYS621  CYS622 
 ASP623  PHE694  ASN695  SER759  ASP760  ASP761  ALA762  ILE779  LEU786  VAL792 
 PHE793  MET794  SER795  GLU796  ALA797  LYS798  CYS799  TRP800  GLU811  SER814 

> <Gold.Protein.RotatedAtoms>
  152.4306  134.5784  159.9940 H   0  0  0  0  0  0  0  0  0  0  0  0  # atno 6907 bound_to 6896
  151.5909  133.3361  159.3035 H   0  0  0  0  0  0  0  0  0  0  0  0  # atno 6908 bound_to 6896
  150.8199  134.7437  159.6828 H   0  0  0  0  0  0  0  0  0  0  0  0  # atno 6909 bound_to 6896
  144.8227  139.6659  143.6093 H   0  0  0  0  0  0  0  0  0  0  0  0  # atno 7974 bound_to 7965
  154.4201  140.1755  156.1624 H   0  0  0  0  0  0  0  0  0  0  0  0  # atno 8008 bound_to 7997
  155.9827  140.3376  155.6654 H   0  0  0  0  0  0  0  0  0  0  0  0  # atno 8009 bound_to 7997
  155.6478  140.0687  157.2588 H   0  0  0  0  0  0  0  0  0  0  0  0  # atno 8010 bound_to 7997
  140.5961  143.8698  150.6920 H   0  0  0  0  0  0  0  0  0  0  0  0  # atno 10167 bound_to 10162
  157.4287  130.8012  149.7583 H   0  0  0  0  0  0  0  0  0  0  0  0  # atno 10718 bound_to 10713
  153.7215  135.6944  153.5012 H   0  0  0  0  0  0  0  0  0  0  0  0  # atno 10763 bound_to 10752
  153.2200  135.4373  155.0478 H   0  0  0  0  0  0  0  0  0  0  0  0  # atno 10764 bound_to 10752
  154.8283  135.3458  154.6748 H   0  0  0  0  0  0  0  0  0  0  0  0  # atno 10765 bound_to 10752
  139.9304  134.9641  156.8232 H   0  0  0  0  0  0  0  0  0  0  0  0  # atno 11005 bound_to 11000
  146.2533  139.6247  142.9412 LP  0  0  0  0  0  0  0  0  0  0  0  0  # atno 17320 bound_to 7965
  145.5068  141.0436  143.2510 LP  0  0  0  0  0  0  0  0  0  0  0  0  # atno 17321 bound_to 7965
  140.2232  143.3792  152.1626 LP  0  0  0  0  0  0  0  0  0  0  0  0  # atno 17342 bound_to 10162
  139.5259  144.7102  151.5230 LP  0  0  0  0  0  0  0  0  0  0  0  0  # atno 17343 bound_to 10162
  155.9905  130.3944  150.3023 LP  0  0  0  0  0  0  0  0  0  0  0  0  # atno 17370 bound_to 10713
  157.1178  131.0238  151.3022 LP  0  0  0  0  0  0  0  0  0  0  0  0  # atno 17371 bound_to 10713
  140.6217  133.9988  155.7621 LP  0  0  0  0  0  0  0  0  0  0  0  0  # atno 17394 bound_to 11000
  141.0890  133.9946  157.3268 LP  0  0  0  0  0  0  0  0  0  0  0  0  # atno 17395 bound_to 11000

$$$$
