AV-unprocessed.smi:2297|AV-procd|sdf|9223|dock6
  -GOLD-   2272012443D 1   1.00000     0.00000
 Structure written by MMmdl.
 44 45  0  0  0  0  0  0  0  0  1 V2000
  151.5135  145.4237  159.1051 C   0  0  0  0  0  0  0  0  0  0  0  0
  151.7999  143.9361  159.0919 C   0  0  0  0  0  0  0  0  0  0  0  0
  152.7980  143.3960  159.9272 C   0  0  0  0  0  0  0  0  0  0  0  0
  153.0584  142.0120  159.9125 C   0  0  0  0  0  0  0  0  0  0  0  0
  154.1350  141.4389  160.8113 C   0  0  0  0  0  0  0  0  0  0  0  0
  152.3159  141.1697  159.0596 C   0  0  0  0  0  0  0  0  0  0  0  0
  151.3149  141.6942  158.2166 C   0  0  0  0  0  0  0  0  0  0  0  0
  150.6397  140.7972  157.4173 O   0  0  0  0  0  0  0  0  0  0  0  0
  151.3199  139.6207  156.9994 C   0  0  0  0  0  0  0  0  0  0  0  0
  151.7450  139.7878  155.5323 C   0  0  1  0  0  0  0  0  0  0  0  0
  153.0851  139.3493  155.4364 O   0  0  0  0  0  0  0  0  0  0  0  0
  150.8699  138.9525  154.5697 C   0  0  0  0  0  0  0  0  0  0  0  0
  149.4351  139.2349  154.7411 N   0  0  0  0  0  0  0  0  0  0  0  0
  148.6727  138.2305  155.3612 C   0  0  0  0  0  0  0  0  0  0  0  0
  147.4039  138.3695  155.5663 N   0  0  0  0  0  0  0  0  0  0  0  0
  146.7591  139.5450  155.1710 C   0  0  0  0  0  0  0  0  0  0  0  0
  145.2694  139.6041  155.4585 C   0  0  0  0  0  0  0  0  0  0  0  0
  147.4414  140.5585  154.5713 C   0  0  0  0  0  0  0  0  0  0  0  0
  146.7918  141.8605  154.1190 C   0  0  0  0  0  0  0  0  0  0  0  0
  148.8868  140.4152  154.3324 C   0  0  0  0  0  0  0  0  0  0  0  0
  149.5653  141.2950  153.7992 O   0  0  0  0  0  0  0  0  0  0  0  0
  151.0622  143.0889  158.2402 C   0  0  0  0  0  0  0  0  0  0  0  0
  152.2030  145.9570  159.7603 H   0  0  0  0  0  0  0  0  0  0  0  0
  150.4976  145.6095  159.4552 H   0  0  0  0  0  0  0  0  0  0  0  0
  151.6113  145.8370  158.1009 H   0  0  0  0  0  0  0  0  0  0  0  0
  153.3661  144.0422  160.5810 H   0  0  0  0  0  0  0  0  0  0  0  0
  154.1765  140.3516  160.7417 H   0  0  0  0  0  0  0  0  0  0  0  0
  153.9423  141.7056  161.8508 H   0  0  0  0  0  0  0  0  0  0  0  0
  155.1108  141.8356  160.5298 H   0  0  0  0  0  0  0  0  0  0  0  0
  152.5137  140.1077  159.0472 H   0  0  0  0  0  0  0  0  0  0  0  0
  152.2039  139.4746  157.6226 H   0  0  0  0  0  0  0  0  0  0  0  0
  150.6786  138.7442  157.1083 H   0  0  0  0  0  0  0  0  0  0  0  0
  151.7081  140.8470  155.2744 H   0  0  0  0  0  0  0  0  0  0  0  0
  153.1396  138.4696  155.7770 H   0  0  0  0  0  0  0  0  0  0  0  0
  151.1925  139.0915  153.5362 H   0  0  0  0  0  0  0  0  0  0  0  0
  151.0377  137.8894  154.7540 H   0  0  0  0  0  0  0  0  0  0  0  0
  149.2263  137.3379  155.6578 H   0  0  0  0  0  0  0  0  0  0  0  0
  144.7054  139.7182  154.5323 H   0  0  0  0  0  0  0  0  0  0  0  0
  145.0403  140.4452  156.1133 H   0  0  0  0  0  0  0  0  0  0  0  0
  144.9235  138.6943  155.9509 H   0  0  0  0  0  0  0  0  0  0  0  0
  147.2611  142.7084  154.6188 H   0  0  0  0  0  0  0  0  0  0  0  0
  145.7249  141.9047  154.3310 H   0  0  0  0  0  0  0  0  0  0  0  0
  146.9177  141.9893  153.0436 H   0  0  0  0  0  0  0  0  0  0  0  0
  150.3031  143.5327  157.6139 H   0  0  0  0  0  0  0  0  0  0  0  0
  1  2  1  0  0  0  0
  1 23  1  0  0  0  0
  1 24  1  0  0  0  0
  1 25  1  0  0  0  0
  2 22  1  0  0  0  0
  2  3  2  0  0  0  0
  3  4  1  0  0  0  0
  3 26  1  0  0  0  0
  4  5  1  0  0  0  0
  4  6  2  0  0  0  0
  5 27  1  0  0  0  0
  5 28  1  0  0  0  0
  5 29  1  0  0  0  0
  6  7  1  0  0  0  0
  6 30  1  0  0  0  0
  7  8  1  0  0  0  0
  7 22  2  0  0  0  0
  8  9  1  0  0  0  0
  9 10  1  0  0  0  0
  9 31  1  0  0  0  0
  9 32  1  0  0  0  0
 10 11  1  0  0  0  0
 10 12  1  0  0  0  0
 10 33  1  0  0  0  0
 11 34  1  0  0  0  0
 12 13  1  0  0  0  0
 12 35  1  0  0  0  0
 12 36  1  0  0  0  0
 13 20  1  0  0  0  0
 13 14  1  0  0  0  0
 14 15  2  0  0  0  0
 14 37  1  0  0  0  0
 15 16  1  0  0  0  0
 16 17  1  0  0  0  0
 16 18  2  0  0  0  0
 17 38  1  0  0  0  0
 17 39  1  0  0  0  0
 17 40  1  0  0  0  0
 18 19  1  0  0  0  0
 18 20  1  0  0  0  0
 19 41  1  0  0  0  0
 19 42  1  0  0  0  0
 19 43  1  0  0  0  0
 20 21  2  0  0  0  0
 22 44  1  0  0  0  0
M  END
> <s_m_source_file>
AV-unprocessed.smi

> <i_m_source_file_index>
2297

> <i_lp_mmshare_version>
43012

> <i_f3d_flags>
0

> <s_epik_input>
W0NIM11jMVtjSF1jKFtDSDNdKVtjSF1jKFtjSF0xKU9bQ0gyXVtDQEhdKFtPSF0pW0NIMl1uMltjSF1uYyhbQ0gzXSljKFtDSDNdKWMyPU8=

> <s_epik_cmdline>
J2VwaWtfcHl0aG9uJywgJy1waCcsICc3LjAnLCAnLXRuJywgJzgnLCAnLW1hJywgJzIwMCcsICctbWV0YWxfYmluZGluZycsICctaW1hZScsICc8aW5maWxlLm1hZT4nLCAnLW9tYWUnLCAnPG91dGZpbGUubWFlPic=

> <r_lp_tautomer_probability>
1

> <r_epik_Ionization_Penalty>
3.72236e-05

> <r_epik_Ionization_Penalty_Charging>
8.38864e-08

> <r_epik_Ionization_Penalty_Neutral>
3.71397e-05

> <r_epik_State_Penalty>
-0

> <r_epik_Charging_Adjusted_Penalty>
8.38864e-08

> <i_epik_Tot_Q>
0

> <i_epik_Tot_abs_Q>
0

> <r_epik_Metal_State_Penalty>
-0

> <b_epik_Metal_Only>
0

> <s_lp_Force_Field>
OPLS_2005

> <r_lp_Energy>
22.4286

> <b_lp_Chiralities_Consistent>
1

> <s_lp_Variant>
AV-unprocessed.smi:2297-2

> <Gold.Version>
5.8.1

> <Gold.Id.Protein>
6NUR|6NUR_protein|mol2

> <Gold.PLP.Fitness>
48.8417

> <Gold.PLP.PLP>
-45.6569

> <Gold.PLP.part.hbond>
-3.0000

> <Gold.PLP.part.metal>
0.0000

> <Gold.PLP.part.buried>
-4.6483

> <Gold.PLP.part.nonpolar>
-40.0446

> <Gold.PLP.part.repulsive>
0.9809

> <Gold.PLP.ligand.clash>
0.0000

> <Gold.PLP.ligand.torsion>
1.4784

> <Gold.PLP.Chemscore.Hbond>
2.0240

> <Gold.PLP.Chemscore.CHOScore>
0.0000

> <Gold.PLP.Chemscore.Metal>
0.0000

> <Gold.Chemscore.Hbonds>
donor molecule, donor type, donor heavy atom, donor atom, acceptor molecule, acceptor atom, score
      P1  H  7989  7998       L1    21  0.20
      P1  H  7997  8008       L1    11  1.00
      P1  H  8011  8017       L1    21  0.83

> <Gold.PLP.Chemscore.Internal.Correction>
0.0696

> <Gold.Rescore>
     Score         DG    S(hbond)    S(metal)    S(lipo)     H(rot)  DE(clash)    DE(int)     intcor
     17.88     -19.76       1.95        0.00     117.34       2.32       0.49       1.39       ----

> <Gold.Chemscore.Fitness>
17.8838

> <Gold.Chemscore.DG>
-19.7628

> <Gold.Chemscore.ZeroCoef>
-5.4800

> <Gold.Chemscore.Hbond>
1.9469

> <Gold.Chemscore.Metal>
0.0000

> <Gold.Chemscore.Lipo>
117.3371

> <Gold.Chemscore.Internal_Hbond>
0.0000

> <Gold.Chemscore.DEClash>
0.4895

> <Gold.Chemscore.DEInternal>
1.3895

> <Gold.Chemscore.Rot>
2.3236

> <Gold.Chemscore.Internal.Correction>
   9.000000E+99

> <Gold.Chemscore.Hbonds>
donor molecule, donor type, donor heavy atom, donor atom, acceptor molecule, acceptor atom, score
      P1  H  7989  7998       L1    21  0.19
      P1  H  7997  8008       L1    11  0.55
      P1  H  8011  8017       L1    21  0.83

> <Gold.Chemscore.Hbond.Weighted>
-6.5028

> <Gold.Chemscore.Metal.Weighted>
-0.0000

> <Gold.Chemscore.Lipo.Weighted>
-13.7284

> <Gold.Chemscore.Internal_Hbond.Weighted>
0.0000

> <Gold.Chemscore.DEClash.Weighted>
0.4895

> <Gold.Chemscore.DEInternal.Weighted>
1.3895

> <Gold.Chemscore.Rot.Weighted>
5.9484

> <Gold.Chemscore.Internal.Correction.Weighted>
   9.000000E+99

> <Gold.Protein.RotatedTorsions>
[ 6907 6896 6895 6894 ] final   65.54 input  -60.11 | X-H torsion
[ 7974 7965 7964 7962 ] final  144.96 input  175.53 | X-H torsion
[ 8008 7997 7996 7995 ] final  -27.11 input   59.86 | X-H torsion
[ 10167 10162 10161 10158 ] final  146.82 input  -65.29 | X-H torsion
[ 10718 10713 10712 10709 ] final   55.61 input   66.30 | X-H torsion
[ 10763 10752 10751 10750 ] final  -54.39 input  -60.55 | X-H torsion
[ 11005 11000 10999 10996 ] final  115.78 input  -57.11 | X-H torsion

> <Gold.Protein.ActiveResidues>
 VAL166  LYS551  ARG553  GLY616  TRP617  ASP618  TYR619  PRO620  LYS621  CYS622 
 ASP623  PHE694  ASN695  SER759  ASP760  ASP761  ALA762  ILE779  LEU786  VAL792 
 PHE793  MET794  SER795  GLU796  ALA797  LYS798  CYS799  TRP800  GLU811  SER814 

> <Gold.Protein.RotatedAtoms>
  152.4415  134.5581  159.9885 H   0  0  0  0  0  0  0  0  0  0  0  0  # atno 6907 bound_to 6896
  151.5677  133.3388  159.2991 H   0  0  0  0  0  0  0  0  0  0  0  0  # atno 6908 bound_to 6896
  150.8322  134.7614  159.6927 H   0  0  0  0  0  0  0  0  0  0  0  0  # atno 6909 bound_to 6896
  144.8792  139.5725  143.5851 H   0  0  0  0  0  0  0  0  0  0  0  0  # atno 7974 bound_to 7965
  154.4392  140.1881  156.0881 H   0  0  0  0  0  0  0  0  0  0  0  0  # atno 8008 bound_to 7997
  156.0387  140.3322  155.7193 H   0  0  0  0  0  0  0  0  0  0  0  0  # atno 8009 bound_to 7997
  155.5732  140.0614  157.2792 H   0  0  0  0  0  0  0  0  0  0  0  0  # atno 8010 bound_to 7997
  139.4900  144.5801  151.6888 H   0  0  0  0  0  0  0  0  0  0  0  0  # atno 10167 bound_to 10162
  157.5360  130.8663  149.8754 H   0  0  0  0  0  0  0  0  0  0  0  0  # atno 10718 bound_to 10713
  154.1741  135.6454  153.5017 H   0  0  0  0  0  0  0  0  0  0  0  0  # atno 10763 bound_to 10752
  153.0076  135.5390  154.6582 H   0  0  0  0  0  0  0  0  0  0  0  0  # atno 10764 bound_to 10752
  154.5929  135.2936  155.0589 H   0  0  0  0  0  0  0  0  0  0  0  0  # atno 10765 bound_to 10752
  139.9020  134.9589  156.7097 H   0  0  0  0  0  0  0  0  0  0  0  0  # atno 11005 bound_to 11000
  146.2983  139.7346  142.9110 LP  0  0  0  0  0  0  0  0  0  0  0  0  # atno 17320 bound_to 7965
  145.3986  141.0382  143.3083 LP  0  0  0  0  0  0  0  0  0  0  0  0  # atno 17321 bound_to 7965
  140.5406  144.0586  150.6087 LP  0  0  0  0  0  0  0  0  0  0  0  0  # atno 17342 bound_to 10162
  140.3607  143.2910  152.0387 LP  0  0  0  0  0  0  0  0  0  0  0  0  # atno 17343 bound_to 10162
  156.0459  130.3728  150.1319 LP  0  0  0  0  0  0  0  0  0  0  0  0  # atno 17370 bound_to 10713
  156.9502  130.9772  151.3499 LP  0  0  0  0  0  0  0  0  0  0  0  0  # atno 17371 bound_to 10713
  140.7085  133.9244  155.8069 LP  0  0  0  0  0  0  0  0  0  0  0  0  # atno 17394 bound_to 11000
  141.0318  134.0745  157.4005 LP  0  0  0  0  0  0  0  0  0  0  0  0  # atno 17395 bound_to 11000

$$$$
