#       Name:                AV-unprocessed.smi:3070
#       Creating user name   scv26
#       Creation time:       Fri Mar 27 17:11:39 2020


#       File generated by GOLD software.
#

@<TRIPOS>MOLECULE
AV-unprocessed.smi:3070
    23    24     1
SMALL
NO_CHARGES


@<TRIPOS>ATOM
      1 ****        -3.3306   0.0991  -0.0100 C.2            1 S1                 0.0000
      2 ****        -3.4394  -1.2624  -0.0091 N.2            1 S1                 0.0000
      3 ****        -2.1545  -1.5879   0.0004 C.2            1 S1                 0.0000
      4 ****        -1.3305  -0.5383   0.0033 N.pl3          1 S1                 0.0000
      5 ****         0.1239  -0.4888   0.0104 C.3            1 S1                 0.0000
      6 ****         0.7162   0.2545   1.2074 C.3            1 S1                 0.0000
      7 ****         2.1314   0.5848   0.7305 C.3            1 S1                 0.0000
      8 ****         2.0484   0.7396  -0.7364 N.4            1 S1                 1.0000
      9 ****         0.7288   0.2543  -1.1871 C.3            1 S1                 0.0000
     10 ****        -2.0891   0.5850  -0.0034 N.2            1 S1                 0.0000
     11 ****        -4.1915   0.7514  -0.0163 H              1 S1                 0.0000
     12 ****        -1.8088  -2.6114   0.0039 H              1 S1                 0.0000
     13 ****         0.5014  -1.5130   0.0153 H              1 S1                 0.0000
     14 ****         0.1722   1.1801   1.4012 H              1 S1                 0.0000
     15 ****         0.7064  -0.3383   2.1226 H              1 S1                 0.0000
     16 ****         2.5349   1.4791   1.2060 H              1 S1                 0.0000
     17 ****         2.8036  -0.2454   0.9507 H              1 S1                 0.0000
     18 ****         2.1478   1.7128  -0.9882 H              1 S1                 0.0000
     19 ****         0.8160  -0.3800  -2.0695 H              1 S1                 0.0000
     20 ****         0.1305   1.1246  -1.4594 H              1 S1                 0.0000
     21 ****         2.7834   0.2001  -1.1713 H              1 S1                 0.0000
     22 ****        -4.2524  -1.8446  -0.0142 LP             1 S1                 0.0000
     23 ****        -1.7918   1.5398  -0.0034 LP             1 S1                 0.0000
@<TRIPOS>BOND
    1    1   10 2     
    2    1    2 1     
    3    1   11 1     
    4    2    3 2     
    5    3    4 1     
    6    3   12 1     
    7    4    5 1     
    8    4   10 1     
    9    5    9 1     
   10    5    6 1     
   11    5   13 1     
   12    6    7 1     
   13    6   14 1     
   14    6   15 1     
   15    7    8 1     
   16    7   16 1     
   17    7   17 1     
   18    8    9 1     
   19    8   18 1     
   20    8   21 1     
   21    9   19 1     
   22    9   20 1     
   23    2   22 1     
   24   10   23 1     
@<TRIPOS>SUBSTRUCTURE
      1 S1             1
@<TRIPOS>SET
LONE_PAIRS      STATIC     ATOMS    <user>   **** ""
2 22 23
DONOR_HYDROGENS      STATIC     ATOMS    <user>   **** ""
2 18 21
ATOM$BLUE        STATIC     ATOMS    COLORGROUP SYSTEM
2 22 23
ATOM$RED        STATIC     ATOMS    COLORGROUP SYSTEM
2 18 21
