AV-unprocessed.smi:1920|AV-procd|sdf|7784|dock10
  -GOLD-   22720 9533D 1   1.00000     0.00000
 Structure written by MMmdl.
 36 37  0  0  0  0  0  0  0  0  1 V2000
  146.9981  142.3460  154.0440 C   0  0  0  0  0  0  0  0  0  0  0  0
  147.8763  141.3894  154.8617 C   0  0  1  0  0  0  0  0  0  0  0  0
  148.4026  140.2274  153.9948 C   0  0  0  0  0  0  0  0  0  0  0  0
  147.3426  139.3545  153.5228 N   0  0  0  0  0  0  0  0  0  0  0  0
  146.9836  139.1069  152.2043 C   0  0  0  0  0  0  0  0  0  0  0  0
  145.9336  138.2177  152.2434 C   0  0  0  0  0  0  0  0  0  0  0  0
  145.6369  137.8996  153.5667 N   0  0  0  0  0  0  0  0  0  0  0  0
  146.5129  138.6093  154.2660 C   0  0  0  0  0  0  0  0  0  0  0  0
  148.9890  142.1403  155.4418 N   0  0  0  0  0  0  0  0  0  0  0  0
  149.9331  141.6432  156.2569 C   0  0  0  0  0  0  0  0  0  0  0  0
  149.9487  140.4750  156.6456 O   0  0  0  0  0  0  0  0  0  0  0  0
  151.0328  142.6193  156.6912 C   0  0  0  0  0  0  0  0  0  0  0  0
  150.9290  143.0713  158.1655 C   0  0  1  0  0  0  0  0  0  0  0  0
  152.0053  142.4940  159.0532 C   0  0  0  0  0  0  0  0  0  0  0  0
  152.7011  143.4283  159.6960 C   0  0  0  0  0  0  0  0  0  0  0  0
  152.2338  144.8196  159.3712 C   0  0  0  0  0  0  0  0  0  0  0  0
  151.1002  144.6023  158.3434 C   0  0  0  0  0  0  0  0  0  0  0  0
  146.1430  141.8225  153.6153 H   0  0  0  0  0  0  0  0  0  0  0  0
  147.5570  142.7975  153.2235 H   0  0  0  0  0  0  0  0  0  0  0  0
  146.6101  143.1526  154.6672 H   0  0  0  0  0  0  0  0  0  0  0  0
  147.2483  140.9741  155.6519 H   0  0  0  0  0  0  0  0  0  0  0  0
  148.9254  140.6183  153.1210 H   0  0  0  0  0  0  0  0  0  0  0  0
  149.1281  139.6323  154.5520 H   0  0  0  0  0  0  0  0  0  0  0  0
  147.4871  139.5749  151.3712 H   0  0  0  0  0  0  0  0  0  0  0  0
  145.3743  137.7845  151.4273 H   0  0  0  0  0  0  0  0  0  0  0  0
  146.5484  138.5892  155.3455 H   0  0  0  0  0  0  0  0  0  0  0  0
  149.0608  143.1133  155.1820 H   0  0  0  0  0  0  0  0  0  0  0  0
  152.0074  142.1584  156.5216 H   0  0  0  0  0  0  0  0  0  0  0  0
  150.9866  143.4908  156.0376 H   0  0  0  0  0  0  0  0  0  0  0  0
  149.9651  142.7674  158.5764 H   0  0  0  0  0  0  0  0  0  0  0  0
  152.1614  141.4303  159.1523 H   0  0  0  0  0  0  0  0  0  0  0  0
  153.5086  143.2375  160.3876 H   0  0  0  0  0  0  0  0  0  0  0  0
  151.8725  145.3140  160.2735 H   0  0  0  0  0  0  0  0  0  0  0  0
  153.0517  145.4076  158.9541 H   0  0  0  0  0  0  0  0  0  0  0  0
  151.3558  145.0855  157.3996 H   0  0  0  0  0  0  0  0  0  0  0  0
  150.1712  145.0573  158.6891 H   0  0  0  0  0  0  0  0  0  0  0  0
  1  2  1  0  0  0  0
  1 18  1  0  0  0  0
  1 19  1  0  0  0  0
  1 20  1  0  0  0  0
  2  3  1  0  0  0  0
  2  9  1  0  0  0  0
  2 21  1  0  0  0  0
  3  4  1  0  0  0  0
  3 22  1  0  0  0  0
  3 23  1  0  0  0  0
  4  8  1  0  0  0  0
  4  5  1  0  0  0  0
  5  6  2  0  0  0  0
  5 24  1  0  0  0  0
  6  7  1  0  0  0  0
  6 25  1  0  0  0  0
  7  8  2  0  0  0  0
  8 26  1  0  0  0  0
  9 10  1  0  0  0  0
  9 27  1  0  0  0  0
 10 11  2  0  0  0  0
 10 12  1  0  0  0  0
 12 13  1  0  0  0  0
 12 28  1  0  0  0  0
 12 29  1  0  0  0  0
 13 17  1  0  0  0  0
 13 14  1  0  0  0  0
 13 30  1  0  0  0  0
 14 15  2  0  0  0  0
 14 31  1  0  0  0  0
 15 16  1  0  0  0  0
 15 32  1  0  0  0  0
 16 17  1  0  0  0  0
 16 33  1  0  0  0  0
 16 34  1  0  0  0  0
 17 35  1  0  0  0  0
 17 36  1  0  0  0  0
M  END
> <s_m_source_file>
AV-unprocessed.smi

> <i_m_source_file_index>
1920

> <i_lp_mmshare_version>
43012

> <i_f3d_flags>
0

> <s_epik_input>
W2NIXTFuW2NIXVtjSF1uMVtDSDJdW0NAQEhdKFtDSDNdKVtOSF1DKD1PKVtDSDJdW0NAQEhdMltDSF09W0NIXVtDSDJdW0NIMl0y

> <s_epik_cmdline>
J2VwaWtfcHl0aG9uJywgJy1waCcsICc3LjAnLCAnLXRuJywgJzgnLCAnLW1hJywgJzIwMCcsICctbWV0YWxfYmluZGluZycsICctaW1hZScsICc8aW5maWxlLm1hZT4nLCAnLW9tYWUnLCAnPG91dGZpbGUubWFlPic=

> <r_lp_tautomer_probability>
1

> <r_epik_Ionization_Penalty>
0.635367

> <r_epik_Ionization_Penalty_Charging>
0.635367

> <r_epik_Ionization_Penalty_Neutral>
2.1249e-08

> <r_epik_State_Penalty>
0.65258

> <r_epik_Charging_Adjusted_Penalty>
1.28795

> <i_epik_Tot_Q>
0

> <i_epik_Tot_abs_Q>
0

> <r_epik_Metal_State_Penalty>
0.310403

> <b_epik_Metal_Only>
0

> <s_lp_Force_Field>
OPLS_2005

> <r_lp_Energy>
18.2419

> <b_lp_Chiralities_Consistent>
1

> <s_lp_Variant>
AV-unprocessed.smi:1920-8

> <Gold.Version>
5.8.1

> <Gold.Id.Protein>
6NUR|6NUR_protein|mol2

> <Gold.PLP.Fitness>
43.8111

> <Gold.PLP.PLP>
-36.4762

> <Gold.PLP.part.hbond>
-1.0000

> <Gold.PLP.part.metal>
0.0000

> <Gold.PLP.part.buried>
-1.5189

> <Gold.PLP.part.nonpolar>
-35.3413

> <Gold.PLP.part.repulsive>
0.3347

> <Gold.PLP.ligand.clash>
0.0000

> <Gold.PLP.ligand.torsion>
0.8467

> <Gold.PLP.Chemscore.Hbond>
1.0000

> <Gold.PLP.Chemscore.CHOScore>
2.0000

> <Gold.PLP.Chemscore.Metal>
0.0000

> <Gold.Chemscore.Hbonds>
donor molecule, donor type, donor heavy atom, donor atom, acceptor molecule, acceptor atom, score
      L1  H     9    27       P1  8028  0.96
      L1  C     5    24       P1  7957  1.00
      L1  C     6    25       P1 10171  1.00

> <Gold.PLP.Chemscore.Internal.Correction>
0.0283

> <Gold.Rescore>
     Score         DG    S(hbond)    S(metal)    S(lipo)     H(rot)  DE(clash)    DE(int)     intcor
     14.81     -15.69       0.95        0.00     102.31       1.93       0.15       0.73       ----

> <Gold.Chemscore.Fitness>
14.8109

> <Gold.Chemscore.DG>
-15.6930

> <Gold.Chemscore.ZeroCoef>
-5.4800

> <Gold.Chemscore.Hbond>
0.9537

> <Gold.Chemscore.Metal>
0.0000

> <Gold.Chemscore.Lipo>
102.3076

> <Gold.Chemscore.Internal_Hbond>
0.0000

> <Gold.Chemscore.DEClash>
0.1510

> <Gold.Chemscore.DEInternal>
0.7311

> <Gold.Chemscore.Rot>
1.9306

> <Gold.Chemscore.Internal.Correction>
   9.000000E+99

> <Gold.Chemscore.Hbonds>
donor molecule, donor type, donor heavy atom, donor atom, acceptor molecule, acceptor atom, score
      L1  H     9    27       P1  8028  0.92

> <Gold.Chemscore.Hbond.Weighted>
-3.1854

> <Gold.Chemscore.Metal.Weighted>
-0.0000

> <Gold.Chemscore.Lipo.Weighted>
-11.9700

> <Gold.Chemscore.Internal_Hbond.Weighted>
0.0000

> <Gold.Chemscore.DEClash.Weighted>
0.1510

> <Gold.Chemscore.DEInternal.Weighted>
0.7311

> <Gold.Chemscore.Rot.Weighted>
4.9424

> <Gold.Chemscore.Internal.Correction.Weighted>
   9.000000E+99

> <Gold.Protein.RotatedTorsions>
[ 6907 6896 6895 6894 ] final   -7.94 input  -60.11 | X-H torsion
[ 7974 7965 7964 7962 ] final   73.99 input  175.53 | X-H torsion
[ 8008 7997 7996 7995 ] final  119.38 input   59.86 | X-H torsion
[ 10167 10162 10161 10158 ] final  -70.49 input  -65.29 | X-H torsion
[ 10718 10713 10712 10709 ] final  -12.95 input   66.30 | X-H torsion
[ 10763 10752 10751 10750 ] final    3.39 input  -60.55 | X-H torsion
[ 11005 11000 10999 10996 ] final  -17.93 input  -57.11 | X-H torsion

> <Gold.Protein.ActiveResidues>
 VAL166  LYS551  ARG553  GLY616  TRP617  ASP618  TYR619  PRO620  LYS621  CYS622 
 ASP623  PHE694  ASN695  SER759  ASP760  ASP761  ALA762  ILE779  LEU786  VAL792 
 PHE793  MET794  SER795  GLU796  ALA797  LYS798  CYS799  TRP800  GLU811  SER814 

> <Gold.Protein.RotatedAtoms>
  151.4415  135.1020  159.9671 H   0  0  0  0  0  0  0  0  0  0  0  0  # atno 6907 bound_to 6896
  152.4921  133.8524  159.7219 H   0  0  0  0  0  0  0  0  0  0  0  0  # atno 6908 bound_to 6896
  150.9085  133.6969  159.2888 H   0  0  0  0  0  0  0  0  0  0  0  0  # atno 6909 bound_to 6896
  145.7339  139.2694  143.1525 H   0  0  0  0  0  0  0  0  0  0  0  0  # atno 7974 bound_to 7965
  156.2593  140.2854  156.0982 H   0  0  0  0  0  0  0  0  0  0  0  0  # atno 8008 bound_to 7997
  155.1388  140.0395  157.2811 H   0  0  0  0  0  0  0  0  0  0  0  0  # atno 8009 bound_to 7997
  154.6545  140.2552  155.7183 H   0  0  0  0  0  0  0  0  0  0  0  0  # atno 8010 bound_to 7997
  140.5348  143.2319  151.7197 H   0  0  0  0  0  0  0  0  0  0  0  0  # atno 10167 bound_to 10162
  156.6373  130.4918  149.6107 H   0  0  0  0  0  0  0  0  0  0  0  0  # atno 10718 bound_to 10713
  153.2839  135.6943  153.7359 H   0  0  0  0  0  0  0  0  0  0  0  0  # atno 10763 bound_to 10752
  153.6336  135.3406  155.3050 H   0  0  0  0  0  0  0  0  0  0  0  0  # atno 10764 bound_to 10752
  154.8503  135.4415  154.1900 H   0  0  0  0  0  0  0  0  0  0  0  0  # atno 10765 bound_to 10752
  140.8218  133.8063  155.9667 H   0  0  0  0  0  0  0  0  0  0  0  0  # atno 11005 bound_to 11000
  146.0512  140.8067  142.9781 LP  0  0  0  0  0  0  0  0  0  0  0  0  # atno 17320 bound_to 7965
  144.6886  140.3055  143.7256 LP  0  0  0  0  0  0  0  0  0  0  0  0  # atno 17321 bound_to 7965
  139.4967  144.4059  152.0132 LP  0  0  0  0  0  0  0  0  0  0  0  0  # atno 17342 bound_to 10162
  140.3164  144.3479  150.6020 LP  0  0  0  0  0  0  0  0  0  0  0  0  # atno 17343 bound_to 10162
  156.2187  130.6724  151.1346 LP  0  0  0  0  0  0  0  0  0  0  0  0  # atno 17370 bound_to 10713
  157.7182  131.0697  150.6244 LP  0  0  0  0  0  0  0  0  0  0  0  0  # atno 17371 bound_to 10713
  140.9091  134.2283  157.4996 LP  0  0  0  0  0  0  0  0  0  0  0  0  # atno 17394 bound_to 11000
  139.8708  134.9742  156.4836 LP  0  0  0  0  0  0  0  0  0  0  0  0  # atno 17395 bound_to 11000

$$$$
