AV-unprocessed.smi:2237|AV-procd|sdf|9051|dock4
  -GOLD-   2272012253D 1   1.00000     0.00000
 Structure written by MMmdl.
 54 56  0  0  0  0  0  0  0  0  2 V2000
  152.7880  141.5386  160.5880 C   0  0  0  0  0  0  0  0  0  0  0  0
  152.3736  142.7736  159.8159 C   0  0  0  0  0  0  0  0  0  0  0  0
  153.3325  143.5887  159.1828 C   0  0  0  0  0  0  0  0  0  0  0  0
  152.8803  144.7195  158.4796 C   0  0  0  0  0  0  0  0  0  0  0  0
  151.4982  144.9860  158.4377 C   0  0  0  0  0  0  0  0  0  0  0  0
  150.6020  144.1169  159.0998 C   0  0  0  0  0  0  0  0  0  0  0  0
  149.2313  144.4712  158.9920 N   0  0  0  0  0  0  0  0  0  0  0  0
  148.2637  144.3459  159.9172 C   0  0  0  0  0  0  0  0  0  0  0  0
  148.4202  143.9153  161.0604 O   0  0  0  0  0  0  0  0  0  0  0  0
  147.0814  144.7598  159.4386 N   0  0  0  0  0  0  0  0  0  0  0  0
  145.8229  144.7528  160.1784 C   0  0  0  0  0  0  0  0  0  0  0  0
  145.4495  143.3175  160.5578 C   0  0  0  0  0  0  0  0  0  0  0  0
  144.0654  143.2591  161.2263 C   0  0  0  0  0  0  0  0  0  0  0  0
  143.0120  143.7874  160.3435 N   0  0  0  0  0  0  0  0  0  0  0  0
  141.6642  143.6518  160.9432 C   0  0  2  0  0  0  0  0  0  0  0  0
  141.0674  142.2242  160.8379 C   0  0  0  0  0  0  0  0  0  0  0  0
  140.7314  141.8481  159.3834 C   0  0  0  0  0  0  0  0  0  0  0  0
  139.7825  142.8193  158.7859 N   0  3  2  0  0  0  0  0  0  0  0  0
  139.3780  142.4401  157.4152 C   0  0  0  0  0  0  0  0  0  0  0  0
  140.2822  144.2140  158.8626 C   0  0  0  0  0  0  0  0  0  0  0  0
  140.6156  144.6051  160.3137 C   0  0  0  0  0  0  0  0  0  0  0  0
  143.3315  145.1956  160.0526 C   0  0  0  0  0  0  0  0  0  0  0  0
  144.6846  145.3377  159.3343 C   0  0  0  0  0  0  0  0  0  0  0  0
  151.0480  143.0289  159.7758 N   0  0  0  0  0  0  0  0  0  0  0  0
  153.8703  141.4958  160.7143 H   0  0  0  0  0  0  0  0  0  0  0  0
  152.4697  140.6395  160.0597 H   0  0  0  0  0  0  0  0  0  0  0  0
  152.3306  141.5357  161.5777 H   0  0  0  0  0  0  0  0  0  0  0  0
  154.3861  143.3565  159.2323 H   0  0  0  0  0  0  0  0  0  0  0  0
  153.5806  145.3718  157.9794 H   0  0  0  0  0  0  0  0  0  0  0  0
  151.1346  145.8500  157.9007 H   0  0  0  0  0  0  0  0  0  0  0  0
  148.9529  144.8576  158.1023 H   0  0  0  0  0  0  0  0  0  0  0  0
  147.0471  145.0996  158.4886 H   0  0  0  0  0  0  0  0  0  0  0  0
  145.9327  145.3376  161.0939 H   0  0  0  0  0  0  0  0  0  0  0  0
  145.4476  142.6822  159.6707 H   0  0  0  0  0  0  0  0  0  0  0  0
  146.2005  142.9041  161.2321 H   0  0  0  0  0  0  0  0  0  0  0  0
  143.8922  142.2122  161.4616 H   0  0  0  0  0  0  0  0  0  0  0  0
  144.0742  143.8061  162.1704 H   0  0  0  0  0  0  0  0  0  0  0  0
  141.7582  143.8978  162.0022 H   0  0  0  0  0  0  0  0  0  0  0  0
  141.6897  141.4629  161.3037 H   0  0  0  0  0  0  0  0  0  0  0  0
  140.1436  142.1952  161.4176 H   0  0  0  0  0  0  0  0  0  0  0  0
  141.6427  141.8061  158.7846 H   0  0  0  0  0  0  0  0  0  0  0  0
  140.2910  140.8507  159.3585 H   0  0  0  0  0  0  0  0  0  0  0  0
  140.2344  142.4430  156.7395 H   0  0  0  0  0  0  0  0  0  0  0  0
  138.6331  143.1353  157.0266 H   0  0  0  0  0  0  0  0  0  0  0  0
  138.9381  141.4422  157.4060 H   0  0  0  0  0  0  0  0  0  0  0  0
  141.1634  144.3259  158.2286 H   0  0  0  0  0  0  0  0  0  0  0  0
  139.5225  144.8909  158.4701 H   0  0  0  0  0  0  0  0  0  0  0  0
  139.6987  144.5431  160.9016 H   0  0  0  0  0  0  0  0  0  0  0  0
  140.8947  145.6545  160.3739 H   0  0  0  0  0  0  0  0  0  0  0  0
  142.5922  145.6419  159.3933 H   0  0  0  0  0  0  0  0  0  0  0  0
  143.3291  145.7784  160.9751 H   0  0  0  0  0  0  0  0  0  0  0  0
  144.8774  146.3903  159.1235 H   0  0  0  0  0  0  0  0  0  0  0  0
  144.6358  144.8335  158.3679 H   0  0  0  0  0  0  0  0  0  0  0  0
  138.9459  142.7855  159.3509 H   0  0  0  0  0  0  0  0  0  0  0  0
  1  2  1  0  0  0  0
  1 25  1  0  0  0  0
  1 26  1  0  0  0  0
  1 27  1  0  0  0  0
  2 24  1  0  0  0  0
  2  3  2  0  0  0  0
  3  4  1  0  0  0  0
  3 28  1  0  0  0  0
  4  5  2  0  0  0  0
  4 29  1  0  0  0  0
  5  6  1  0  0  0  0
  5 30  1  0  0  0  0
  6  7  1  0  0  0  0
  6 24  2  0  0  0  0
  7  8  1  0  0  0  0
  7 31  1  0  0  0  0
  8  9  2  0  0  0  0
  8 10  1  0  0  0  0
 10 11  1  0  0  0  0
 10 32  1  0  0  0  0
 11 23  1  0  0  0  0
 11 12  1  0  0  0  0
 11 33  1  0  0  0  0
 12 13  1  0  0  0  0
 12 34  1  0  0  0  0
 12 35  1  0  0  0  0
 13 14  1  0  0  0  0
 13 36  1  0  0  0  0
 13 37  1  0  0  0  0
 14 15  1  0  0  0  0
 14 22  1  0  0  0  0
 15 21  1  0  0  0  0
 15 16  1  0  0  0  0
 15 38  1  0  0  0  0
 16 17  1  0  0  0  0
 16 39  1  0  0  0  0
 16 40  1  0  0  0  0
 17 18  1  0  0  0  0
 17 41  1  0  0  0  0
 17 42  1  0  0  0  0
 18 19  1  0  0  0  0
 18 20  1  0  0  0  0
 18 54  1  0  0  0  0
 19 43  1  0  0  0  0
 19 44  1  0  0  0  0
 19 45  1  0  0  0  0
 20 21  1  0  0  0  0
 20 46  1  0  0  0  0
 20 47  1  0  0  0  0
 21 48  1  0  0  0  0
 21 49  1  0  0  0  0
 22 23  1  0  0  0  0
 22 50  1  0  0  0  0
 22 51  1  0  0  0  0
 23 52  1  0  0  0  0
 23 53  1  0  0  0  0
M  CHG  1  18   1
M  END
> <s_m_source_file>
AV-unprocessed.smi

> <i_m_source_file_index>
2237

> <i_lp_mmshare_version>
43012

> <i_f3d_flags>
0

> <s_epik_input>
W0NIM11jMVtjSF1bY0hdW2NIXWMobjEpW05IXUMoPU8pW05IXVtDSF0yW0NIMl1bQ0gyXU4oW0NIMl1bQ0gyXTIpW0NIXTNbQ0gyXVtDSDJdTihbQ0gzXSlbQ0gyXVtDSDJdMw==

> <s_epik_cmdline>
J2VwaWtfcHl0aG9uJywgJy1waCcsICc3LjAnLCAnLXRuJywgJzgnLCAnLW1hJywgJzIwMCcsICctbWV0YWxfYmluZGluZycsICctaW1hZScsICc8aW5maWxlLm1hZT4nLCAnLW9tYWUnLCAnPG91dGZpbGUubWFlPic=

> <r_epik_Ionization_Penalty>
1.00983

> <r_epik_Ionization_Penalty_Charging>
0.000974969

> <r_epik_Ionization_Penalty_Neutral>
1.00886

> <r_epik_State_Penalty>
1.10286

> <r_epik_Charging_Adjusted_Penalty>
1.10383

> <i_epik_Tot_Q>
1

> <i_epik_Tot_abs_Q>
1

> <r_epik_Metal_State_Penalty>
1.10284

> <b_epik_Metal_Only>
0

> <s_lp_Force_Field>
OPLS_2005

> <r_lp_Energy>
36.6088

> <b_lp_Chiralities_Consistent>
1

> <s_lp_Variant>
AV-unprocessed.smi:2237-6

> <Gold.Version>
5.8.1

> <Gold.Id.Protein>
6NUR|6NUR_protein|mol2

> <Gold.PLP.Fitness>
41.6016

> <Gold.PLP.PLP>
-34.3865

> <Gold.PLP.part.hbond>
-3.7842

> <Gold.PLP.part.metal>
0.0000

> <Gold.PLP.part.buried>
-4.7628

> <Gold.PLP.part.nonpolar>
-26.8873

> <Gold.PLP.part.repulsive>
0.4589

> <Gold.PLP.ligand.clash>
0.0000

> <Gold.PLP.ligand.torsion>
0.6413

> <Gold.PLP.Chemscore.Hbond>
2.8320

> <Gold.PLP.Chemscore.CHOScore>
0.0000

> <Gold.PLP.Chemscore.Metal>
0.0000

> <Gold.Chemscore.Hbonds>
donor molecule, donor type, donor heavy atom, donor atom, acceptor molecule, acceptor atom, score
      L1  H     7    31       P1  8029  0.94
      L1  H    10    32       P1  8029  0.93
      P1  H  6933  6944       L1     9  0.98

> <Gold.PLP.Chemscore.Internal.Correction>
0.0018

> <Gold.Rescore>
     Score         DG    S(hbond)    S(metal)    S(lipo)     H(rot)  DE(clash)    DE(int)     intcor
     21.06     -22.67       2.50        0.00     102.22       1.22       0.21       1.40       ----

> <Gold.Chemscore.Fitness>
21.0607

> <Gold.Chemscore.DG>
-22.6687

> <Gold.Chemscore.ZeroCoef>
-5.4800

> <Gold.Chemscore.Hbond>
2.4989

> <Gold.Chemscore.Metal>
0.0000

> <Gold.Chemscore.Lipo>
102.2224

> <Gold.Chemscore.Internal_Hbond>
0.0000

> <Gold.Chemscore.DEClash>
0.2111

> <Gold.Chemscore.DEInternal>
1.3969

> <Gold.Chemscore.Rot>
1.2179

> <Gold.Chemscore.Internal.Correction>
   9.000000E+99

> <Gold.Chemscore.Hbonds>
donor molecule, donor type, donor heavy atom, donor atom, acceptor molecule, acceptor atom, score
      L1  H     7    31       P1  8029  0.32
      L1  H    10    32       P1  8029  0.89
      P1  H  6933  6944       L1     9  0.92

> <Gold.Chemscore.Hbond.Weighted>
-8.3464

> <Gold.Chemscore.Metal.Weighted>
-0.0000

> <Gold.Chemscore.Lipo.Weighted>
-11.9600

> <Gold.Chemscore.Internal_Hbond.Weighted>
0.0000

> <Gold.Chemscore.DEClash.Weighted>
0.2111

> <Gold.Chemscore.DEInternal.Weighted>
1.3969

> <Gold.Chemscore.Rot.Weighted>
3.1177

> <Gold.Chemscore.Internal.Correction.Weighted>
   9.000000E+99

> <Gold.Protein.RotatedTorsions>
[ 6907 6896 6895 6894 ] final  -23.12 input  -60.11 | X-H torsion
[ 7974 7965 7964 7962 ] final  -74.71 input  175.53 | X-H torsion
[ 8008 7997 7996 7995 ] final  172.65 input   59.86 | X-H torsion
[ 10167 10162 10161 10158 ] final   41.92 input  -65.29 | X-H torsion
[ 10718 10713 10712 10709 ] final  -58.28 input   66.30 | X-H torsion
[ 10763 10752 10751 10750 ] final -138.96 input  -60.55 | X-H torsion
[ 11005 11000 10999 10996 ] final   34.32 input  -57.11 | X-H torsion

> <Gold.Protein.ActiveResidues>
 VAL166  LYS551  ARG553  GLY616  TRP617  ASP618  TYR619  PRO620  LYS621  CYS622 
 ASP623  PHE694  ASN695  SER759  ASP760  ASP761  ALA762  ILE779  LEU786  VAL792 
 PHE793  MET794  SER795  GLU796  ALA797  LYS798  CYS799  TRP800  GLU811  SER814 

> <Gold.Protein.RotatedAtoms>
  151.2086  135.0472  159.8901 H   0  0  0  0  0  0  0  0  0  0  0  0  # atno 6907 bound_to 6896
  152.5426  134.0770  159.8229 H   0  0  0  0  0  0  0  0  0  0  0  0  # atno 6908 bound_to 6896
  151.0920  133.5261  159.2646 H   0  0  0  0  0  0  0  0  0  0  0  0  # atno 6909 bound_to 6896
  145.6356  140.9325  143.1063 H   0  0  0  0  0  0  0  0  0  0  0  0  # atno 7974 bound_to 7965
  156.1154  140.1480  156.9281 H   0  0  0  0  0  0  0  0  0  0  0  0  # atno 8008 bound_to 7997
  154.4796  140.0883  156.7389 H   0  0  0  0  0  0  0  0  0  0  0  0  # atno 8009 bound_to 7997
  155.4524  140.3435  155.4304 H   0  0  0  0  0  0  0  0  0  0  0  0  # atno 8010 bound_to 7997
  140.3595  144.2246  150.6139 H   0  0  0  0  0  0  0  0  0  0  0  0  # atno 10167 bound_to 10162
  156.1147  130.4171  150.0555 H   0  0  0  0  0  0  0  0  0  0  0  0  # atno 10718 bound_to 10713
  154.8622  135.3596  154.5470 H   0  0  0  0  0  0  0  0  0  0  0  0  # atno 10763 bound_to 10752
  153.6089  135.7010  153.5359 H   0  0  0  0  0  0  0  0  0  0  0  0  # atno 10764 bound_to 10752
  153.3226  135.4147  155.1390 H   0  0  0  0  0  0  0  0  0  0  0  0  # atno 10765 bound_to 10752
  140.2540  134.3270  155.7880 H   0  0  0  0  0  0  0  0  0  0  0  0  # atno 11005 bound_to 11000
  144.7177  139.8139  143.7393 LP  0  0  0  0  0  0  0  0  0  0  0  0  # atno 17320 bound_to 7965
  146.1322  139.4360  143.0161 LP  0  0  0  0  0  0  0  0  0  0  0  0  # atno 17321 bound_to 7965
  140.5140  143.2283  151.8491 LP  0  0  0  0  0  0  0  0  0  0  0  0  # atno 17342 bound_to 10162
  139.4816  144.4915  151.9178 LP  0  0  0  0  0  0  0  0  0  0  0  0  # atno 17343 bound_to 10162
  156.8509  130.9458  151.3625 LP  0  0  0  0  0  0  0  0  0  0  0  0  # atno 17370 bound_to 10713
  157.6330  130.8744  149.9308 LP  0  0  0  0  0  0  0  0  0  0  0  0  # atno 17371 bound_to 10713
  141.2198  133.7370  156.9082 LP  0  0  0  0  0  0  0  0  0  0  0  0  # atno 17394 bound_to 11000
  140.1530  134.9217  157.2617 LP  0  0  0  0  0  0  0  0  0  0  0  0  # atno 17395 bound_to 11000

$$$$
