#       Name:                AV-unprocessed.smi:14
#       Creating user name   scv26
#       Creation time:       Thu Mar 26 15:20:19 2020


#       File generated by GOLD software.
#

@<TRIPOS>MOLECULE
AV-unprocessed.smi:14
    67    70     1
SMALL
NO_CHARGES


@<TRIPOS>ATOM
      1 ****        -4.1538  -1.1629  -4.3202 N.1            1 S1                 0.0000
      2 ****        -3.6219  -1.4243  -3.3266 C.1            1 S1                 0.0000
      3 ****        -2.9457  -1.7571  -2.0635 C.3            1 S1                 0.0000
      4 ****        -3.1739  -0.7302  -0.9404 C.3            1 S1                 0.0000
      5 ****        -2.5402   0.5642  -1.1889 N.pl3          1 S1                 0.0000
      6 ****        -3.1999   1.4857  -2.1169 C.3            1 S1                 0.0000
      7 ****        -2.8910   2.9722  -1.8275 C.3            1 S1                 0.0000
      8 ****        -3.4492   3.4565  -0.5000 C.3            1 S1                 0.0000
      9 ****        -4.8958   3.8118  -0.8389 C.3            1 S1                 0.0000
     10 ****        -4.9203   4.0891  -2.2364 O.3            1 S1                 0.0000
     11 ****        -3.6233   3.9038  -2.7920 C.3            1 S1                 0.0000
     12 ****        -1.1833   0.5344  -1.1625 C.ar           1 S1                 0.0000
     13 ****        -0.4777   0.7742  -2.2999 N.ar           1 S1                 0.0000
     14 ****         0.8577   0.7336  -2.2854 C.ar           1 S1                 0.0000
     15 ****         1.6733   0.4728  -1.2619 N.ar           1 S1                 0.0000
     16 ****         0.9710   0.2293  -0.1184 C.ar           1 S1                 0.0000
     17 ****        -0.4457   0.2428   0.0181 C.ar           1 S1                 0.0000
     18 ****        -0.7974  -0.0300   1.3340 N.2            1 S1                 0.0000
     19 ****         0.3455  -0.2008   1.9395 C.2            1 S1                 0.0000
     20 ****         1.4601  -0.0818   1.1393 N.pl3          1 S1                 0.0000
     21 ****         2.8494  -0.2173   1.5544 C.3            1 S1                 0.0000
     22 ****         3.4208  -1.6696   1.4977 C.3            1 S1                 0.0000
     23 ****         3.3650  -2.1634   0.0251 C.3            1 S1                 0.0000
     24 ****         3.9417  -3.4408  -0.1628 O.3            1 S1                 0.0000
     25 ****         4.8870  -1.6547   2.0030 C.3            1 S1                 0.0000
     26 ****         4.9903  -1.4248   3.5234 C.3            1 S1                 0.0000
     27 ****         4.2198  -2.3959   4.2212 O.3            1 S1                 0.0000
     28 ****         2.8343  -2.3416   3.9044 C.3            1 S1                 0.0000
     29 ****         2.6294  -2.6432   2.4091 C.3            1 S1                 0.0000
     30 ****        -3.3275  -2.7285  -1.7489 H              1 S1                 0.0000
     31 ****        -1.8827  -1.8892  -2.2665 H              1 S1                 0.0000
     32 ****        -4.2441  -0.5779  -0.7973 H              1 S1                 0.0000
     33 ****        -2.8105  -1.1407   0.0010 H              1 S1                 0.0000
     34 ****        -2.9050   1.2432  -3.1384 H              1 S1                 0.0000
     35 ****        -4.2770   1.3209  -2.0726 H              1 S1                 0.0000
     36 ****        -1.8165   3.1472  -1.8846 H              1 S1                 0.0000
     37 ****        -3.3676   2.7283   0.3075 H              1 S1                 0.0000
     38 ****        -2.9155   4.3553  -0.1880 H              1 S1                 0.0000
     39 ****        -5.5561   2.9669  -0.6410 H              1 S1                 0.0000
     40 ****        -5.2546   4.6631  -0.2599 H              1 S1                 0.0000
     41 ****        -3.1237   4.8727  -2.8301 H              1 S1                 0.0000
     42 ****        -3.6746   3.5148  -3.8094 H              1 S1                 0.0000
     43 ****         1.3413   0.9382  -3.2292 H              1 S1                 0.0000
     44 ****         0.4059  -0.4243   2.9945 H              1 S1                 0.0000
     45 ****         3.4513   0.4395   0.9249 H              1 S1                 0.0000
     46 ****         2.9243   0.2011   2.5567 H              1 S1                 0.0000
     47 ****         2.3347  -2.2228  -0.3249 H              1 S1                 0.0000
     48 ****         3.8821  -1.4614  -0.6299 H              1 S1                 0.0000
     49 ****         3.8846  -3.6645  -1.0792 H              1 S1                 0.0000
     50 ****         5.3699  -2.6081   1.7872 H              1 S1                 0.0000
     51 ****         5.4668  -0.8995   1.4712 H              1 S1                 0.0000
     52 ****         6.0294  -1.5174   3.8396 H              1 S1                 0.0000
     53 ****         4.6729  -0.4207   3.8044 H              1 S1                 0.0000
     54 ****         2.3121  -3.0855   4.5061 H              1 S1                 0.0000
     55 ****         2.4209  -1.3717   4.1817 H              1 S1                 0.0000
     56 ****         1.5683  -2.6422   2.1629 H              1 S1                 0.0000
     57 ****         2.9650  -3.6660   2.2356 H              1 S1                 0.0000
     58 ****        -4.6136  -0.9370  -5.1790 LP             1 S1                 0.0000
     59 ****        -5.2106   5.0349  -2.3813 LP             1 S1                 0.0000
     60 ****        -5.5646   3.4701  -2.6856 LP             1 S1                 0.0000
     61 ****        -0.9603   0.9818  -3.1508 LP             1 S1                 0.0000
     62 ****         2.6712   0.4578  -1.3252 LP             1 S1                 0.0000
     63 ****        -1.7155  -0.0833   1.7268 LP             1 S1                 0.0000
     64 ****         3.4459  -4.1179   0.3810 LP             1 S1                 0.0000
     65 ****         4.9005  -3.4229   0.1207 LP             1 S1                 0.0000
     66 ****         4.3279  -2.2422   5.2034 LP             1 S1                 0.0000
     67 ****         4.5646  -3.3047   3.9861 LP             1 S1                 0.0000
@<TRIPOS>BOND
    1    1    2 3     
    2    2    3 1     
    3    3    4 1     
    4    3   30 1     
    5    3   31 1     
    6    4    5 1     
    7    4   32 1     
    8    4   33 1     
    9    5    6 1     
   10    5   12 1     
   11    6    7 1     
   12    6   34 1     
   13    6   35 1     
   14    7   11 1     
   15    7    8 1     
   16    7   36 1     
   17    8    9 1     
   18    8   37 1     
   19    8   38 1     
   20    9   10 1     
   21    9   39 1     
   22    9   40 1     
   23   10   11 1     
   24   11   41 1     
   25   11   42 1     
   26   12   17 ar    
   27   12   13 ar    
   28   13   14 ar    
   29   14   15 ar    
   30   14   43 1     
   31   15   16 ar    
   32   16   20 1     
   33   16   17 ar    
   34   17   18 1     
   35   18   19 2     
   36   19   20 1     
   37   19   44 1     
   38   20   21 1     
   39   21   22 1     
   40   21   45 1     
   41   21   46 1     
   42   22   29 1     
   43   22   23 1     
   44   22   25 1     
   45   23   24 1     
   46   23   47 1     
   47   23   48 1     
   48   24   49 1     
   49   25   26 1     
   50   25   50 1     
   51   25   51 1     
   52   26   27 1     
   53   26   52 1     
   54   26   53 1     
   55   27   28 1     
   56   28   29 1     
   57   28   54 1     
   58   28   55 1     
   59   29   56 1     
   60   29   57 1     
   61    1   58 1     
   62   10   59 1     
   63   10   60 1     
   64   13   61 1     
   65   15   62 1     
   66   18   63 1     
   67   24   64 1     
   68   24   65 1     
   69   27   66 1     
   70   27   67 1     
@<TRIPOS>SUBSTRUCTURE
      1 S1             1
@<TRIPOS>SET
LONE_PAIRS      STATIC     ATOMS    <user>   **** ""
10 58 59 60 61 62 63 64 65 66 67
DONOR_HYDROGENS      STATIC     ATOMS    <user>   **** ""
1 49
ATOM$BLUE        STATIC     ATOMS    COLORGROUP SYSTEM
10 58 59 60 61 62 63 64 65 66 67
ATOM$RED        STATIC     ATOMS    COLORGROUP SYSTEM
1 49
