AV-unprocessed.smi:2477|AV-procd|sdf|9760|dock6
  -GOLD-   2272013403D 1   1.00000     0.00000
 Structure written by MMmdl.
 51 53  0  0  0  0  0  0  0  0  1 V2000
  143.9532  136.4934  162.6253 C   0  0  0  0  0  0  0  0  0  0  0  0
  145.2429  136.0629  162.0793 N   0  0  0  0  0  0  0  0  0  0  0  0
  145.7661  134.8408  162.5342 C   0  0  0  0  0  0  0  0  0  0  0  0
  146.9391  134.3692  162.0896 C   0  0  0  0  0  0  0  0  0  0  0  0
  147.6693  135.1495  161.1196 C   0  0  0  0  0  0  0  0  0  0  0  0
  147.1784  136.3283  160.6601 C   0  0  0  0  0  0  0  0  0  0  0  0
  147.8270  137.1530  159.7241 N   0  0  0  0  0  0  0  0  0  0  0  0
  148.8962  136.8883  158.9510 C   0  0  0  0  0  0  0  0  0  0  0  0
  149.5024  135.8184  158.8999 O   0  0  0  0  0  0  0  0  0  0  0  0
  149.2252  137.9549  158.2089 N   0  0  0  0  0  0  0  0  0  0  0  0
  150.3378  138.0167  157.2636 C   0  0  1  0  0  0  0  0  0  0  0  0
  149.8232  138.4338  155.8724 C   0  0  0  0  0  0  0  0  0  0  0  0
  150.9703  138.5256  154.8539 C   0  0  0  0  0  0  0  0  0  0  0  0
  152.0763  139.4738  155.3420 C   0  0  0  0  0  0  0  0  0  0  0  0
  152.5895  139.0623  156.7316 C   0  0  0  0  0  0  0  0  0  0  0  0
  151.4447  138.9742  157.7633 C   0  0  1  0  0  0  0  0  0  0  0  0
  150.8556  140.2506  157.9970 O   0  0  0  0  0  0  0  0  0  0  0  0
  151.7683  141.3273  158.1645 C   0  0  0  0  0  0  0  0  0  0  0  0
  152.3280  141.3338  159.5855 C   0  0  0  0  0  0  0  0  0  0  0  0
  152.7773  142.7800  159.8218 C   0  0  0  0  0  0  0  0  0  0  0  0
  151.9671  143.6462  158.8432 C   0  0  0  0  0  0  0  0  0  0  0  0
  151.0678  142.6824  158.0612 C   0  0  0  0  0  0  0  0  0  0  0  0
  145.8906  136.8444  161.1644 C   0  0  0  0  0  0  0  0  0  0  0  0
  145.4117  137.9176  160.7894 O   0  0  0  0  0  0  0  0  0  0  0  0
  143.5258  135.7680  163.3185 H   0  0  0  0  0  0  0  0  0  0  0  0
  143.2274  136.6416  161.8245 H   0  0  0  0  0  0  0  0  0  0  0  0
  144.0614  137.4353  163.1650 H   0  0  0  0  0  0  0  0  0  0  0  0
  145.1606  134.3162  163.2591 H   0  0  0  0  0  0  0  0  0  0  0  0
  147.3290  133.4277  162.4476 H   0  0  0  0  0  0  0  0  0  0  0  0
  148.6207  134.7622  160.7935 H   0  0  0  0  0  0  0  0  0  0  0  0
  147.3993  138.0591  159.5989 H   0  0  0  0  0  0  0  0  0  0  0  0
  148.6749  138.7947  158.3135 H   0  0  0  0  0  0  0  0  0  0  0  0
  150.7623  137.0150  157.1710 H   0  0  0  0  0  0  0  0  0  0  0  0
  149.0787  137.7188  155.5202 H   0  0  0  0  0  0  0  0  0  0  0  0
  149.3178  139.3986  155.9358 H   0  0  0  0  0  0  0  0  0  0  0  0
  151.3888  137.5324  154.6860 H   0  0  0  0  0  0  0  0  0  0  0  0
  150.5868  138.8661  153.8917 H   0  0  0  0  0  0  0  0  0  0  0  0
  152.9012  139.4789  154.6292 H   0  0  0  0  0  0  0  0  0  0  0  0
  151.6945  140.4948  155.3790 H   0  0  0  0  0  0  0  0  0  0  0  0
  153.0747  138.0886  156.6564 H   0  0  0  0  0  0  0  0  0  0  0  0
  153.3627  139.7529  157.0668 H   0  0  0  0  0  0  0  0  0  0  0  0
  151.8403  138.5866  158.7037 H   0  0  0  0  0  0  0  0  0  0  0  0
  152.6012  141.2868  157.4594 H   0  0  0  0  0  0  0  0  0  0  0  0
  151.5362  141.0820  160.2928 H   0  0  0  0  0  0  0  0  0  0  0  0
  153.1341  140.6124  159.7226 H   0  0  0  0  0  0  0  0  0  0  0  0
  152.6218  143.0798  160.8587 H   0  0  0  0  0  0  0  0  0  0  0  0
  153.8423  142.8818  159.6091 H   0  0  0  0  0  0  0  0  0  0  0  0
  151.3811  144.4072  159.3592 H   0  0  0  0  0  0  0  0  0  0  0  0
  152.6444  144.1624  158.1619 H   0  0  0  0  0  0  0  0  0  0  0  0
  150.9072  143.0017  157.0316 H   0  0  0  0  0  0  0  0  0  0  0  0
  150.0912  142.6265  158.5442 H   0  0  0  0  0  0  0  0  0  0  0  0
  1  2  1  0  0  0  0
  1 25  1  0  0  0  0
  1 26  1  0  0  0  0
  1 27  1  0  0  0  0
  2 23  1  0  0  0  0
  2  3  1  0  0  0  0
  3  4  2  0  0  0  0
  3 28  1  0  0  0  0
  4  5  1  0  0  0  0
  4 29  1  0  0  0  0
  5  6  2  0  0  0  0
  5 30  1  0  0  0  0
  6  7  1  0  0  0  0
  6 23  1  0  0  0  0
  7  8  1  0  0  0  0
  7 31  1  0  0  0  0
  8  9  2  0  0  0  0
  8 10  1  0  0  0  0
 10 11  1  0  0  0  0
 10 32  1  0  0  0  0
 11 16  1  0  0  0  0
 11 12  1  0  0  0  0
 11 33  1  0  0  0  0
 12 13  1  0  0  0  0
 12 34  1  0  0  0  0
 12 35  1  0  0  0  0
 13 14  1  0  0  0  0
 13 36  1  0  0  0  0
 13 37  1  0  0  0  0
 14 15  1  0  0  0  0
 14 38  1  0  0  0  0
 14 39  1  0  0  0  0
 15 16  1  0  0  0  0
 15 40  1  0  0  0  0
 15 41  1  0  0  0  0
 16 17  1  0  0  0  0
 16 42  1  0  0  0  0
 17 18  1  0  0  0  0
 18 22  1  0  0  0  0
 18 19  1  0  0  0  0
 18 43  1  0  0  0  0
 19 20  1  0  0  0  0
 19 44  1  0  0  0  0
 19 45  1  0  0  0  0
 20 21  1  0  0  0  0
 20 46  1  0  0  0  0
 20 47  1  0  0  0  0
 21 22  1  0  0  0  0
 21 48  1  0  0  0  0
 21 49  1  0  0  0  0
 22 50  1  0  0  0  0
 22 51  1  0  0  0  0
 23 24  2  0  0  0  0
M  END
> <s_m_source_file>
AV-unprocessed.smi

> <i_m_source_file_index>
2477

> <i_lp_mmshare_version>
43012

> <i_f3d_flags>
0

> <s_epik_input>
W0NIM11uMVtjSF1bY0hdW2NIXWMoYzE9TylbTkhdQyg9TylbTkhdW0NAQEhdMltDSDJdW0NIMl1bQ0gyXVtDSDJdW0NASF0yT1tDSF0zW0NIMl1bQ0gyXVtDSDJdW0NIMl0z

> <s_epik_cmdline>
J2VwaWtfcHl0aG9uJywgJy1waCcsICc3LjAnLCAnLXRuJywgJzgnLCAnLW1hJywgJzIwMCcsICctbWV0YWxfYmluZGluZycsICctaW1hZScsICc8aW5maWxlLm1hZT4nLCAnLW9tYWUnLCAnPG91dGZpbGUubWFlPic=

> <r_lp_tautomer_probability>
1

> <r_epik_Ionization_Penalty>
2.40753e-05

> <r_epik_Ionization_Penalty_Charging>
4.84018e-06

> <r_epik_Ionization_Penalty_Neutral>
1.92352e-05

> <r_epik_State_Penalty>
-0

> <r_epik_Charging_Adjusted_Penalty>
4.84018e-06

> <i_epik_Tot_Q>
0

> <i_epik_Tot_abs_Q>
0

> <r_epik_Metal_State_Penalty>
-0

> <b_epik_Metal_Only>
0

> <s_lp_Force_Field>
OPLS_2005

> <r_lp_Energy>
43.088

> <b_lp_Chiralities_Consistent>
1

> <s_lp_Variant>
AV-unprocessed.smi:2477-2

> <Gold.Version>
5.8.1

> <Gold.Id.Protein>
6NUR|6NUR_protein|mol2

> <Gold.PLP.Fitness>
47.2554

> <Gold.PLP.PLP>
-42.2574

> <Gold.PLP.part.hbond>
-2.0000

> <Gold.PLP.part.metal>
0.0000

> <Gold.PLP.part.buried>
-4.6040

> <Gold.PLP.part.nonpolar>
-36.0295

> <Gold.PLP.part.repulsive>
0.6240

> <Gold.PLP.ligand.clash>
0.0000

> <Gold.PLP.ligand.torsion>
0.3228

> <Gold.PLP.Chemscore.Hbond>
1.8640

> <Gold.PLP.Chemscore.CHOScore>
0.0000

> <Gold.PLP.Chemscore.Metal>
0.0000

> <Gold.Chemscore.Hbonds>
donor molecule, donor type, donor heavy atom, donor atom, acceptor molecule, acceptor atom, score
      P1  H  6896  6907       L1     9  1.00
      P1  H  6934  6947       L1    24  0.71

> <Gold.PLP.Chemscore.Internal.Correction>
0.0515

> <Gold.Rescore>
     Score         DG    S(hbond)    S(metal)    S(lipo)     H(rot)  DE(clash)    DE(int)     intcor
     19.88     -21.41       1.86        0.00     112.74       1.36       0.07       1.46       ----

> <Gold.Chemscore.Fitness>
19.8837

> <Gold.Chemscore.DG>
-21.4071

> <Gold.Chemscore.ZeroCoef>
-5.4800

> <Gold.Chemscore.Hbond>
1.8588

> <Gold.Chemscore.Metal>
0.0000

> <Gold.Chemscore.Lipo>
112.7432

> <Gold.Chemscore.Internal_Hbond>
0.0000

> <Gold.Chemscore.DEClash>
0.0650

> <Gold.Chemscore.DEInternal>
1.4584

> <Gold.Chemscore.Rot>
1.3564

> <Gold.Chemscore.Internal.Correction>
   9.000000E+99

> <Gold.Chemscore.Hbonds>
donor molecule, donor type, donor heavy atom, donor atom, acceptor molecule, acceptor atom, score
      P1  H  6896  6907       L1     9  1.00
      P1  H  6934  6947       L1    24  0.13

> <Gold.Chemscore.Hbond.Weighted>
-6.2085

> <Gold.Chemscore.Metal.Weighted>
-0.0000

> <Gold.Chemscore.Lipo.Weighted>
-13.1909

> <Gold.Chemscore.Internal_Hbond.Weighted>
0.0000

> <Gold.Chemscore.DEClash.Weighted>
0.0650

> <Gold.Chemscore.DEInternal.Weighted>
1.4584

> <Gold.Chemscore.Rot.Weighted>
3.4724

> <Gold.Chemscore.Internal.Correction.Weighted>
   9.000000E+99

> <Gold.Protein.RotatedTorsions>
[ 6907 6896 6895 6894 ] final  -55.31 input  -60.11 | X-H torsion
[ 7974 7965 7964 7962 ] final   17.76 input  175.53 | X-H torsion
[ 8008 7997 7996 7995 ] final  102.53 input   59.86 | X-H torsion
[ 10167 10162 10161 10158 ] final -112.97 input  -65.29 | X-H torsion
[ 10718 10713 10712 10709 ] final  -36.60 input   66.30 | X-H torsion
[ 10763 10752 10751 10750 ] final   36.19 input  -60.55 | X-H torsion
[ 11005 11000 10999 10996 ] final  122.79 input  -57.11 | X-H torsion

> <Gold.Protein.ActiveResidues>
 VAL166  LYS551  ARG553  GLY616  TRP617  ASP618  TYR619  PRO620  LYS621  CYS622 
 ASP623  PHE694  ASN695  SER759  ASP760  ASP761  ALA762  ILE779  LEU786  VAL792 
 PHE793  MET794  SER795  GLU796  ALA797  LYS798  CYS799  TRP800  GLU811  SER814 

> <Gold.Protein.RotatedAtoms>
  150.8263  134.7495  159.6815 H   0  0  0  0  0  0  0  0  0  0  0  0  # atno 6907 bound_to 6896
  152.4373  134.5657  159.9917 H   0  0  0  0  0  0  0  0  0  0  0  0  # atno 6908 bound_to 6896
  151.5829  133.3338  159.3048 H   0  0  0  0  0  0  0  0  0  0  0  0  # atno 6909 bound_to 6896
  146.2207  139.8555  142.8614 H   0  0  0  0  0  0  0  0  0  0  0  0  # atno 7974 bound_to 7965
  156.1401  140.3179  155.8483 H   0  0  0  0  0  0  0  0  0  0  0  0  # atno 8008 bound_to 7997
  155.4169  140.0509  157.3045 H   0  0  0  0  0  0  0  0  0  0  0  0  # atno 8009 bound_to 7997
  154.4969  140.2114  155.9439 H   0  0  0  0  0  0  0  0  0  0  0  0  # atno 8010 bound_to 7997
  140.1169  143.4477  152.1716 H   0  0  0  0  0  0  0  0  0  0  0  0  # atno 10167 bound_to 10162
  156.3249  130.4271  149.7926 H   0  0  0  0  0  0  0  0  0  0  0  0  # atno 10718 bound_to 10713
  153.0087  135.6312  154.1946 H   0  0  0  0  0  0  0  0  0  0  0  0  # atno 10763 bound_to 10752
  154.1689  135.2819  155.3088 H   0  0  0  0  0  0  0  0  0  0  0  0  # atno 10764 bound_to 10752
  154.5924  135.5613  153.7352 H   0  0  0  0  0  0  0  0  0  0  0  0  # atno 10765 bound_to 10752
  139.9284  134.9641  156.8162 H   0  0  0  0  0  0  0  0  0  0  0  0  # atno 11005 bound_to 11000
  145.2758  141.0123  143.3746 LP  0  0  0  0  0  0  0  0  0  0  0  0  # atno 17320 bound_to 7965
  144.9188  139.4437  143.6551 LP  0  0  0  0  0  0  0  0  0  0  0  0  # atno 17321 bound_to 7965
  139.5589  144.7392  151.4213 LP  0  0  0  0  0  0  0  0  0  0  0  0  # atno 17342 bound_to 10162
  140.6894  143.7898  150.7233 LP  0  0  0  0  0  0  0  0  0  0  0  0  # atno 17343 bound_to 10162
  156.5220  130.8219  151.3207 LP  0  0  0  0  0  0  0  0  0  0  0  0  # atno 17370 bound_to 10713
  157.7419  130.9880  150.2479 LP  0  0  0  0  0  0  0  0  0  0  0  0  # atno 17371 bound_to 10713
  140.6271  133.9940  155.7645 LP  0  0  0  0  0  0  0  0  0  0  0  0  # atno 17394 bound_to 11000
  141.0857  133.9995  157.3317 LP  0  0  0  0  0  0  0  0  0  0  0  0  # atno 17395 bound_to 11000

$$$$
