AV-unprocessed.smi:1978|AV-procd|sdf|8015|dock8
  -GOLD-   2272010203D 1   1.00000     0.00000
 Structure written by MMmdl.
 44 45  0  0  0  0  0  0  0  0  3 V2000
  152.4743  143.8158  159.4687 C   0  0  0  0  0  0  0  0  0  0  0  0
  151.8094  142.7296  158.6952 C   0  0  0  0  0  0  0  0  0  0  0  0
  150.8622  142.7351  157.7106 C   0  0  0  0  0  0  0  0  0  0  0  0
  150.6828  141.3545  157.4298 C   0  0  0  0  0  0  0  0  0  0  0  0
  149.7518  140.9324  156.4443 N   0  0  0  0  0  0  0  0  0  0  0  0
  149.9432  140.0980  155.4063 C   0  0  0  0  0  0  0  0  0  0  0  0
  151.0594  139.6096  155.1951 O   0  0  0  0  0  0  0  0  0  0  0  0
  148.8017  139.8965  154.6928 N   0  5  0  0  0  0  0  0  0  0  0  0
  148.3780  138.6138  154.1304 C   0  0  0  0  0  0  0  0  0  0  0  0
  147.1031  138.7999  153.2686 C   0  0  1  0  0  0  0  0  0  0  0  0
  147.2418  139.8970  152.1788 C   0  0  0  0  0  0  0  0  0  0  0  0
  146.6648  137.4734  152.7286 N   0  3  2  0  0  0  0  0  0  0  0  0
  145.8082  137.4975  151.5056 C   0  0  0  0  0  0  0  0  0  0  0  0
  145.7051  136.0984  150.8783 C   0  0  0  0  0  0  0  0  0  0  0  0
  145.1882  135.0743  151.8955 C   0  0  0  0  0  0  0  0  0  0  0  0
  146.0732  135.0881  153.1503 C   0  0  0  0  0  0  0  0  0  0  0  0
  146.1956  136.4996  153.7617 C   0  0  2  0  0  0  0  0  0  0  0  0
  144.9045  136.9410  154.4822 C   0  0  0  0  0  0  0  0  0  0  0  0
  151.4553  140.5768  158.1741 N   0  0  0  0  0  0  0  0  0  0  0  0
  152.1813  141.4542  158.9884 O   0  0  0  0  0  0  0  0  0  0  0  0
  152.0386  144.7865  159.2313 H   0  0  0  0  0  0  0  0  0  0  0  0
  153.5391  143.8577  159.2388 H   0  0  0  0  0  0  0  0  0  0  0  0
  152.3644  143.6495  160.5405 H   0  0  0  0  0  0  0  0  0  0  0  0
  150.3740  143.5898  157.2666 H   0  0  0  0  0  0  0  0  0  0  0  0
  148.8149  141.2924  156.5484 H   0  0  0  0  0  0  0  0  0  0  0  0
  149.1605  138.1622  153.5201 H   0  0  0  0  0  0  0  0  0  0  0  0
  148.1582  137.8791  154.9067 H   0  0  0  0  0  0  0  0  0  0  0  0
  146.3257  139.1379  153.9559 H   0  0  0  0  0  0  0  0  0  0  0  0
  147.4166  140.8818  152.6162 H   0  0  0  0  0  0  0  0  0  0  0  0
  146.3315  139.9844  151.5868 H   0  0  0  0  0  0  0  0  0  0  0  0
  148.0616  139.7052  151.4844 H   0  0  0  0  0  0  0  0  0  0  0  0
  144.8121  137.8719  151.7419 H   0  0  0  0  0  0  0  0  0  0  0  0
  146.2333  138.1782  150.7675 H   0  0  0  0  0  0  0  0  0  0  0  0
  145.0462  136.1266  150.0099 H   0  0  0  0  0  0  0  0  0  0  0  0
  146.6852  135.7890  150.5128 H   0  0  0  0  0  0  0  0  0  0  0  0
  144.1554  135.3018  152.1610 H   0  0  0  0  0  0  0  0  0  0  0  0
  145.1816  134.0776  151.4531 H   0  0  0  0  0  0  0  0  0  0  0  0
  145.6868  134.3862  153.8900 H   0  0  0  0  0  0  0  0  0  0  0  0
  147.0680  134.7274  152.8846 H   0  0  0  0  0  0  0  0  0  0  0  0
  146.9766  136.4356  154.5210 H   0  0  0  0  0  0  0  0  0  0  0  0
  144.6013  136.1960  155.2182 H   0  0  0  0  0  0  0  0  0  0  0  0
  144.0703  137.0760  153.7946 H   0  0  0  0  0  0  0  0  0  0  0  0
  145.0458  137.8764  155.0225 H   0  0  0  0  0  0  0  0  0  0  0  0
  147.5343  137.0693  152.4102 H   0  0  0  0  0  0  0  0  0  0  0  0
  1  2  1  0  0  0  0
  1 21  1  0  0  0  0
  1 22  1  0  0  0  0
  1 23  1  0  0  0  0
  2 20  1  0  0  0  0
  2  3  2  0  0  0  0
  3  4  1  0  0  0  0
  3 24  1  0  0  0  0
  4  5  1  0  0  0  0
  4 19  2  0  0  0  0
  5  6  1  0  0  0  0
  5 25  1  0  0  0  0
  6  7  2  0  0  0  0
  6  8  1  0  0  0  0
  8  9  1  0  0  0  0
  9 10  1  0  0  0  0
  9 26  1  0  0  0  0
  9 27  1  0  0  0  0
 10 11  1  0  0  0  0
 10 12  1  0  0  0  0
 10 28  1  0  0  0  0
 11 29  1  0  0  0  0
 11 30  1  0  0  0  0
 11 31  1  0  0  0  0
 12 17  1  0  0  0  0
 12 13  1  0  0  0  0
 12 44  1  0  0  0  0
 13 14  1  0  0  0  0
 13 32  1  0  0  0  0
 13 33  1  0  0  0  0
 14 15  1  0  0  0  0
 14 34  1  0  0  0  0
 14 35  1  0  0  0  0
 15 16  1  0  0  0  0
 15 36  1  0  0  0  0
 15 37  1  0  0  0  0
 16 17  1  0  0  0  0
 16 38  1  0  0  0  0
 16 39  1  0  0  0  0
 17 18  1  0  0  0  0
 17 40  1  0  0  0  0
 18 41  1  0  0  0  0
 18 42  1  0  0  0  0
 18 43  1  0  0  0  0
 19 20  1  0  0  0  0
M  CHG  1   8  -1
M  CHG  1  12   1
M  END
> <s_m_source_file>
AV-unprocessed.smi

> <i_m_source_file_index>
1978

> <i_lp_mmshare_version>
43012

> <i_f3d_flags>
0

> <s_epik_input>
W0NIM11jMVtjSF1jKG5vMSlbTkhdQyg9TylbTkhdW0NIMl1bQ0BIXShbQ0gzXSlOMltDSDJdW0NIMl1bQ0gyXVtDSDJdW0NASF0yW0NIM10=

> <s_epik_cmdline>
J2VwaWtfcHl0aG9uJywgJy1waCcsICc3LjAnLCAnLXRuJywgJzgnLCAnLW1hJywgJzIwMCcsICctbWV0YWxfYmluZGluZycsICctaW1hZScsICc8aW5maWxlLm1hZT4nLCAnLW9tYWUnLCAnPG91dGZpbGUubWFlPic=

> <r_epik_Ionization_Penalty>
6.7666

> <r_epik_Ionization_Penalty_Charging>
6.7666

> <r_epik_Ionization_Penalty_Neutral>
5.77131e-06

> <r_epik_State_Penalty>
6.79217

> <r_epik_Charging_Adjusted_Penalty>
13.5588

> <i_epik_Tot_Q>
0

> <i_epik_Tot_abs_Q>
2

> <r_epik_Metal_State_Penalty>
2.72569

> <b_epik_Metal_Only>
1

> <s_lp_Force_Field>
OPLS_2005

> <r_lp_Energy>
20.871

> <b_lp_Chiralities_Consistent>
1

> <s_lp_Variant>
AV-unprocessed.smi:1978-24

> <Gold.Version>
5.8.1

> <Gold.Id.Protein>
6NUR|6NUR_protein|mol2

> <Gold.PLP.Fitness>
35.9910

> <Gold.PLP.PLP>
-29.0458

> <Gold.PLP.part.hbond>
-2.0000

> <Gold.PLP.part.metal>
0.0000

> <Gold.PLP.part.buried>
1.7392

> <Gold.PLP.part.nonpolar>
-29.9809

> <Gold.PLP.part.repulsive>
0.2629

> <Gold.PLP.ligand.clash>
0.0000

> <Gold.PLP.ligand.torsion>
1.1608

> <Gold.PLP.Chemscore.Hbond>
3.0000

> <Gold.PLP.Chemscore.CHOScore>
0.0000

> <Gold.PLP.Chemscore.Metal>
0.0000

> <Gold.Chemscore.Hbonds>
donor molecule, donor type, donor heavy atom, donor atom, acceptor molecule, acceptor atom, score
      L1  H    12    44       P1  7948  2.00
      P1  H  7989  7998       L1     7  0.54

> <Gold.PLP.Chemscore.Internal.Correction>
0.2668

> <Gold.Rescore>
     Score         DG    S(hbond)    S(metal)    S(lipo)     H(rot)  DE(clash)    DE(int)     intcor
     13.53     -17.59       1.96        0.00      80.81       1.52       2.60       1.47       ----

> <Gold.Chemscore.Fitness>
13.5303

> <Gold.Chemscore.DG>
-17.5926

> <Gold.Chemscore.ZeroCoef>
-5.4800

> <Gold.Chemscore.Hbond>
1.9600

> <Gold.Chemscore.Metal>
0.0000

> <Gold.Chemscore.Lipo>
80.8124

> <Gold.Chemscore.Internal_Hbond>
0.0000

> <Gold.Chemscore.DEClash>
2.5951

> <Gold.Chemscore.DEInternal>
1.4673

> <Gold.Chemscore.Rot>
1.5190

> <Gold.Chemscore.Internal.Correction>
   9.000000E+99

> <Gold.Chemscore.Hbonds>
donor molecule, donor type, donor heavy atom, donor atom, acceptor molecule, acceptor atom, score
      L1  H    12    44       P1  7948  1.00
      P1  H  7989  7998       L1     7  0.11

> <Gold.Chemscore.Hbond.Weighted>
-6.5462

> <Gold.Chemscore.Metal.Weighted>
-0.0000

> <Gold.Chemscore.Lipo.Weighted>
-9.4550

> <Gold.Chemscore.Internal_Hbond.Weighted>
0.0000

> <Gold.Chemscore.DEClash.Weighted>
2.5951

> <Gold.Chemscore.DEInternal.Weighted>
1.4673

> <Gold.Chemscore.Rot.Weighted>
3.8886

> <Gold.Chemscore.Internal.Correction.Weighted>
   9.000000E+99

> <Gold.Protein.RotatedTorsions>
[ 6907 6896 6895 6894 ] final   -8.14 input  -60.11 | X-H torsion
[ 7974 7965 7964 7962 ] final  -49.10 input  175.53 | X-H torsion
[ 8008 7997 7996 7995 ] final  139.15 input   59.86 | X-H torsion
[ 10167 10162 10161 10158 ] final  146.80 input  -65.29 | X-H torsion
[ 10718 10713 10712 10709 ] final   29.66 input   66.30 | X-H torsion
[ 10763 10752 10751 10750 ] final  138.15 input  -60.55 | X-H torsion
[ 11005 11000 10999 10996 ] final  168.94 input  -57.11 | X-H torsion

> <Gold.Protein.ActiveResidues>
 VAL166  LYS551  ARG553  GLY616  TRP617  ASP618  TYR619  PRO620  LYS621  CYS622 
 ASP623  PHE694  ASN695  SER759  ASP760  ASP761  ALA762  ILE779  LEU786  VAL792 
 PHE793  MET794  SER795  GLU796  ALA797  LYS798  CYS799  TRP800  GLU811  SER814 

> <Gold.Protein.RotatedAtoms>
  151.4385  135.1017  159.9662 H   0  0  0  0  0  0  0  0  0  0  0  0  # atno 6907 bound_to 6896
  152.4931  133.8551  159.7232 H   0  0  0  0  0  0  0  0  0  0  0  0  # atno 6908 bound_to 6896
  150.9105  133.6945  159.2883 H   0  0  0  0  0  0  0  0  0  0  0  0  # atno 6909 bound_to 6896
  145.9442  140.7634  142.9537 H   0  0  0  0  0  0  0  0  0  0  0  0  # atno 7974 bound_to 7965
  156.2992  140.2375  156.4191 H   0  0  0  0  0  0  0  0  0  0  0  0  # atno 8008 bound_to 7997
  154.8372  140.0430  157.1537 H   0  0  0  0  0  0  0  0  0  0  0  0  # atno 8009 bound_to 7997
  154.9143  140.2995  155.5253 H   0  0  0  0  0  0  0  0  0  0  0  0  # atno 8010 bound_to 7997
  139.4901  144.5803  151.6885 H   0  0  0  0  0  0  0  0  0  0  0  0  # atno 10167 bound_to 10162
  157.2494  130.7107  149.6398 H   0  0  0  0  0  0  0  0  0  0  0  0  # atno 10718 bound_to 10713
  153.8848  135.3040  155.3446 H   0  0  0  0  0  0  0  0  0  0  0  0  # atno 10763 bound_to 10752
  154.7744  135.4869  153.9718 H   0  0  0  0  0  0  0  0  0  0  0  0  # atno 10764 bound_to 10752
  153.1331  135.6808  153.9244 H   0  0  0  0  0  0  0  0  0  0  0  0  # atno 10765 bound_to 10752
  140.2925  134.7661  157.3850 H   0  0  0  0  0  0  0  0  0  0  0  0  # atno 11005 bound_to 11000
  144.6784  140.2329  143.7353 LP  0  0  0  0  0  0  0  0  0  0  0  0  # atno 17320 bound_to 7965
  145.8259  139.2064  143.1911 LP  0  0  0  0  0  0  0  0  0  0  0  0  # atno 17321 bound_to 7965
  140.5407  144.0583  150.6087 LP  0  0  0  0  0  0  0  0  0  0  0  0  # atno 17342 bound_to 10162
  140.3604  143.2911  152.0389 LP  0  0  0  0  0  0  0  0  0  0  0  0  # atno 17343 bound_to 10162
  155.9667  130.4432  150.5413 LP  0  0  0  0  0  0  0  0  0  0  0  0  # atno 17370 bound_to 10713
  157.3294  131.0696  151.1872 LP  0  0  0  0  0  0  0  0  0  0  0  0  # atno 17371 bound_to 10713
  140.1182  134.5254  155.8206 LP  0  0  0  0  0  0  0  0  0  0  0  0  # atno 17394 bound_to 11000
  141.2143  133.6747  156.6817 LP  0  0  0  0  0  0  0  0  0  0  0  0  # atno 17395 bound_to 11000

$$$$
