AV-unprocessed.smi:2980|AV-procd|sdf|11372|dock3
  -GOLD-   2272016293D 1   1.00000     0.00000
 Structure written by MMmdl.
 38 39  0  0  0  0  0  0  0  0  1 V2000
  147.6327  141.9068  154.1649 C   0  0  0  0  0  0  0  0  0  0  0  0
  149.0280  141.3460  154.4482 C   0  0  0  0  0  0  0  0  0  0  0  0
  148.9690  140.5311  155.6066 O   0  0  0  0  0  0  0  0  0  0  0  0
  148.8875  141.2869  156.8026 C   0  0  0  0  0  0  0  0  0  0  0  0
  150.1088  142.2084  156.8889 C   0  0  0  0  0  0  0  0  0  0  0  0
  151.2313  141.5612  157.5515 N   0  0  0  0  0  0  0  0  0  0  0  0
  151.9062  140.4357  157.1949 C   0  0  0  0  0  0  0  0  0  0  0  0
  151.5799  139.6272  155.9691 C   0  0  0  0  0  0  0  0  0  0  0  0
  152.6923  138.6439  155.5609 C   0  0  0  0  0  0  0  0  0  0  0  0
  152.5440  138.0936  154.1348 C   0  0  0  0  0  0  0  0  0  0  0  0
  151.7160  136.9514  154.1470 O   0  0  0  0  0  0  0  0  0  0  0  0
  152.8709  140.0548  158.0340 N   0  0  0  0  0  0  0  0  0  0  0  0
  152.8504  141.0421  158.9980 C   0  0  0  0  0  0  0  0  0  0  0  0
  153.6491  141.2173  160.1507 C   0  0  0  0  0  0  0  0  0  0  0  0
  153.4424  142.3234  161.0009 C   0  0  0  0  0  0  0  0  0  0  0  0
  152.4352  143.2667  160.7118 C   0  0  0  0  0  0  0  0  0  0  0  0
  151.6265  143.1087  159.5699 C   0  0  0  0  0  0  0  0  0  0  0  0
  151.8378  142.0032  158.7236 C   0  0  0  0  0  0  0  0  0  0  0  0
  147.6399  142.5389  153.2769 H   0  0  0  0  0  0  0  0  0  0  0  0
  147.2761  142.5086  155.0012 H   0  0  0  0  0  0  0  0  0  0  0  0
  146.9143  141.1038  153.9989 H   0  0  0  0  0  0  0  0  0  0  0  0
  149.3748  140.7613  153.5949 H   0  0  0  0  0  0  0  0  0  0  0  0
  149.7337  142.1643  154.5984 H   0  0  0  0  0  0  0  0  0  0  0  0
  147.9696  141.8734  156.8091 H   0  0  0  0  0  0  0  0  0  0  0  0
  148.8601  140.6186  157.6648 H   0  0  0  0  0  0  0  0  0  0  0  0
  150.4215  142.4949  155.8843 H   0  0  0  0  0  0  0  0  0  0  0  0
  149.8655  143.1405  157.3976 H   0  0  0  0  0  0  0  0  0  0  0  0
  150.6625  139.0724  156.1682 H   0  0  0  0  0  0  0  0  0  0  0  0
  151.3608  140.2742  155.1223 H   0  0  0  0  0  0  0  0  0  0  0  0
  153.6628  139.1311  155.6657 H   0  0  0  0  0  0  0  0  0  0  0  0
  152.6971  137.8100  156.2640 H   0  0  0  0  0  0  0  0  0  0  0  0
  152.0965  138.8409  153.4801 H   0  0  0  0  0  0  0  0  0  0  0  0
  153.5128  137.8214  153.7151 H   0  0  0  0  0  0  0  0  0  0  0  0
  151.3720  136.8199  153.2767 H   0  0  0  0  0  0  0  0  0  0  0  0
  154.4230  140.4998  160.3798 H   0  0  0  0  0  0  0  0  0  0  0  0
  154.0595  142.4489  161.8784 H   0  0  0  0  0  0  0  0  0  0  0  0
  152.2835  144.1115  161.3678 H   0  0  0  0  0  0  0  0  0  0  0  0
  150.8544  143.8300  159.3473 H   0  0  0  0  0  0  0  0  0  0  0  0
  1  2  1  0  0  0  0
  1 19  1  0  0  0  0
  1 20  1  0  0  0  0
  1 21  1  0  0  0  0
  2  3  1  0  0  0  0
  2 22  1  0  0  0  0
  2 23  1  0  0  0  0
  3  4  1  0  0  0  0
  4  5  1  0  0  0  0
  4 24  1  0  0  0  0
  4 25  1  0  0  0  0
  5  6  1  0  0  0  0
  5 26  1  0  0  0  0
  5 27  1  0  0  0  0
  6 18  1  0  0  0  0
  6  7  1  0  0  0  0
  7  8  1  0  0  0  0
  7 12  2  0  0  0  0
  8  9  1  0  0  0  0
  8 28  1  0  0  0  0
  8 29  1  0  0  0  0
  9 10  1  0  0  0  0
  9 30  1  0  0  0  0
  9 31  1  0  0  0  0
 10 11  1  0  0  0  0
 10 32  1  0  0  0  0
 10 33  1  0  0  0  0
 11 34  1  0  0  0  0
 12 13  1  0  0  0  0
 13 18  2  0  0  0  0
 13 14  1  0  0  0  0
 14 15  2  0  0  0  0
 14 35  1  0  0  0  0
 15 16  1  0  0  0  0
 15 36  1  0  0  0  0
 16 17  2  0  0  0  0
 16 37  1  0  0  0  0
 17 18  1  0  0  0  0
 17 38  1  0  0  0  0
M  END
> <s_m_source_file>
AV-unprocessed.smi

> <i_m_source_file_index>
2980

> <i_lp_mmshare_version>
43012

> <i_f3d_flags>
0

> <s_epik_input>
W0NIM11bQ0gyXU9bQ0gyXVtDSDJdbihjKG4xKVtDSDJdW0NIMl1bQ0gyXVtPSF0pYyhjMTIpW2NIXVtjSF1bY0hdW2NIXTI=

> <s_epik_cmdline>
J2VwaWtfcHl0aG9uJywgJy1waCcsICc3LjAnLCAnLXRuJywgJzgnLCAnLW1hJywgJzIwMCcsICctbWV0YWxfYmluZGluZycsICctaW1hZScsICc8aW5maWxlLm1hZT4nLCAnLW9tYWUnLCAnPG91dGZpbGUubWFlPic=

> <r_epik_Ionization_Penalty>
0.173195

> <r_epik_Ionization_Penalty_Charging>
0

> <r_epik_Ionization_Penalty_Neutral>
0.173195

> <r_epik_State_Penalty>
0.162604

> <r_epik_Charging_Adjusted_Penalty>
0.162604

> <i_epik_Tot_Q>
0

> <i_epik_Tot_abs_Q>
0

> <r_epik_Metal_State_Penalty>
0.000187077

> <b_epik_Metal_Only>
0

> <s_lp_Force_Field>
OPLS_2005

> <r_lp_Energy>
8.24734

> <b_lp_Chiralities_Consistent>
1

> <s_lp_Variant>
AV-unprocessed.smi:2980-1

> <Gold.Version>
5.8.1

> <Gold.Id.Protein>
6NUR|6NUR_protein|mol2

> <Gold.PLP.Fitness>
48.1650

> <Gold.PLP.PLP>
-40.4668

> <Gold.PLP.part.hbond>
-3.0000

> <Gold.PLP.part.metal>
0.0000

> <Gold.PLP.part.buried>
-2.1795

> <Gold.PLP.part.nonpolar>
-34.0120

> <Gold.PLP.part.repulsive>
0.0696

> <Gold.PLP.ligand.clash>
0.0000

> <Gold.PLP.ligand.torsion>
0.6766

> <Gold.PLP.Chemscore.Hbond>
3.0000

> <Gold.PLP.Chemscore.CHOScore>
0.0000

> <Gold.PLP.Chemscore.Metal>
0.0000

> <Gold.Chemscore.Hbonds>
donor molecule, donor type, donor heavy atom, donor atom, acceptor molecule, acceptor atom, score
      L1  H    11    34       P1  7949  1.00
      P1  H  7997  8008       L1    12  1.00
      P1  H 10752 10764       L1    11  1.00

> <Gold.PLP.Chemscore.Internal.Correction>
0.0515

> <Gold.Rescore>
     Score         DG    S(hbond)    S(metal)    S(lipo)     H(rot)  DE(clash)    DE(int)     intcor
     17.75     -19.24       2.22        0.00     108.44       2.48       0.42       1.07       ----

> <Gold.Chemscore.Fitness>
17.7497

> <Gold.Chemscore.DG>
-19.2350

> <Gold.Chemscore.ZeroCoef>
-5.4800

> <Gold.Chemscore.Hbond>
2.2217

> <Gold.Chemscore.Metal>
0.0000

> <Gold.Chemscore.Lipo>
108.4401

> <Gold.Chemscore.Internal_Hbond>
0.0000

> <Gold.Chemscore.DEClash>
0.4197

> <Gold.Chemscore.DEInternal>
1.0656

> <Gold.Chemscore.Rot>
2.4817

> <Gold.Chemscore.Internal.Correction>
   9.000000E+99

> <Gold.Chemscore.Hbonds>
donor molecule, donor type, donor heavy atom, donor atom, acceptor molecule, acceptor atom, score
      L1  H    11    34       P1  7949  0.76
      P1  H  7997  8008       L1    12  0.33
      P1  H 10752 10764       L1    11  0.08

> <Gold.Chemscore.Hbond.Weighted>
-7.4206

> <Gold.Chemscore.Metal.Weighted>
-0.0000

> <Gold.Chemscore.Lipo.Weighted>
-12.6875

> <Gold.Chemscore.Internal_Hbond.Weighted>
0.0000

> <Gold.Chemscore.DEClash.Weighted>
0.4197

> <Gold.Chemscore.DEInternal.Weighted>
1.0656

> <Gold.Chemscore.Rot.Weighted>
6.3531

> <Gold.Chemscore.Internal.Correction.Weighted>
   9.000000E+99

> <Gold.Protein.RotatedTorsions>
[ 6907 6896 6895 6894 ] final -144.81 input  -60.11 | X-H torsion
[ 7974 7965 7964 7962 ] final  -42.62 input  175.53 | X-H torsion
[ 8008 7997 7996 7995 ] final  -76.32 input   59.86 | X-H torsion
[ 10167 10162 10161 10158 ] final   47.74 input  -65.29 | X-H torsion
[ 10718 10713 10712 10709 ] final  -65.67 input   66.30 | X-H torsion
[ 10763 10752 10751 10750 ] final  -82.11 input  -60.55 | X-H torsion
[ 11005 11000 10999 10996 ] final  -33.98 input  -57.11 | X-H torsion

> <Gold.Protein.ActiveResidues>
 VAL166  LYS551  ARG553  GLY616  TRP617  ASP618  TYR619  PRO620  LYS621  CYS622 
 ASP623  PHE694  ASN695  SER759  ASP760  ASP761  ALA762  ILE779  LEU786  VAL792 
 PHE793  MET794  SER795  GLU796  ALA797  LYS798  CYS799  TRP800  GLU811  SER814 

> <Gold.Protein.RotatedAtoms>
  151.1191  133.5117  159.2602 H   0  0  0  0  0  0  0  0  0  0  0  0  # atno 6907 bound_to 6896
  151.1881  135.0390  159.8831 H   0  0  0  0  0  0  0  0  0  0  0  0  # atno 6908 bound_to 6896
  152.5455  134.1035  159.8381 H   0  0  0  0  0  0  0  0  0  0  0  0  # atno 6909 bound_to 6896
  146.0098  140.6978  142.9230 H   0  0  0  0  0  0  0  0  0  0  0  0  # atno 7974 bound_to 7965
  154.5494  140.0729  156.8643 H   0  0  0  0  0  0  0  0  0  0  0  0  # atno 8008 bound_to 7997
  155.3022  140.3385  155.4229 H   0  0  0  0  0  0  0  0  0  0  0  0  # atno 8009 bound_to 7997
  156.1948  140.1699  156.8006 H   0  0  0  0  0  0  0  0  0  0  0  0  # atno 8010 bound_to 7997
  140.3005  144.2940  150.6220 H   0  0  0  0  0  0  0  0  0  0  0  0  # atno 10167 bound_to 10162
  156.0656  130.4250  150.1597 H   0  0  0  0  0  0  0  0  0  0  0  0  # atno 10718 bound_to 10713
  154.5717  135.5603  153.7101 H   0  0  0  0  0  0  0  0  0  0  0  0  # atno 10763 bound_to 10752
  153.0051  135.6298  154.2105 H   0  0  0  0  0  0  0  0  0  0  0  0  # atno 10764 bound_to 10752
  154.2045  135.2876  155.2959 H   0  0  0  0  0  0  0  0  0  0  0  0  # atno 10765 bound_to 10752
  140.9679  133.7126  156.1475 H   0  0  0  0  0  0  0  0  0  0  0  0  # atno 11005 bound_to 11000
  144.6949  140.3378  143.7204 LP  0  0  0  0  0  0  0  0  0  0  0  0  # atno 17320 bound_to 7965
  145.7360  139.1750  143.2403 LP  0  0  0  0  0  0  0  0  0  0  0  0  # atno 17321 bound_to 7965
  140.5655  143.2187  151.7691 LP  0  0  0  0  0  0  0  0  0  0  0  0  # atno 17342 bound_to 10162
  139.4916  144.4290  151.9894 LP  0  0  0  0  0  0  0  0  0  0  0  0  # atno 17343 bound_to 10162
  156.9657  130.9819  151.3469 LP  0  0  0  0  0  0  0  0  0  0  0  0  # atno 17370 bound_to 10713
  157.5696  130.8301  149.8373 LP  0  0  0  0  0  0  0  0  0  0  0  0  # atno 17371 bound_to 10713
  140.7372  134.4189  157.5559 LP  0  0  0  0  0  0  0  0  0  0  0  0  # atno 17394 bound_to 11000
  139.8901  134.8813  156.2386 LP  0  0  0  0  0  0  0  0  0  0  0  0  # atno 17395 bound_to 11000

$$$$
