#       Name:                AV-unprocessed.smi:1474
#       Creating user name   scv26
#       Creation time:       Fri Mar 27 06:06:35 2020


#       File generated by GOLD software.
#

@<TRIPOS>MOLECULE
AV-unprocessed.smi:1474
    52    53     1
SMALL
NO_CHARGES


@<TRIPOS>ATOM
      1 ****        -0.7464   7.7005   2.3833 C.3            1 S1                 0.0000
      2 ****        -0.6889   6.2982   2.5769 O.3            1 S1                 0.0000
      3 ****        -1.7308   5.6141   1.9009 C.3            1 S1                 0.0000
      4 ****        -1.5869   4.1089   2.1440 C.3            1 S1                 0.0000
      5 ****        -0.4772   3.6283   1.3914 O.3            1 S1                 0.0000
      6 ****        -0.1789   2.2823   1.4424 C.ar           1 S1                 0.0000
      7 ****         0.9334   1.8121   0.7161 C.ar           1 S1                 0.0000
      8 ****         1.2415   0.4392   0.7597 C.ar           1 S1                 0.0000
      9 ****         0.4243  -0.4216   1.5242 C.ar           1 S1                 0.0000
     10 ****         0.6991  -1.9154   1.6240 C.3            1 S1                 0.0000
     11 ****         1.2634  -2.5037   0.4133 N.am           1 S1                 0.0000
     12 ****         0.5619  -2.8154  -0.6879 C.2            1 S1                 0.0000
     13 ****        -0.6517  -2.6296  -0.7818 O.2            1 S1                 0.0000
     14 ****         1.3626  -3.4082  -1.8630 C.3            1 S1                 0.0000
     15 ****         1.1649  -4.9294  -1.9995 C.3            1 S1                 0.0000
     16 ****        -0.2393  -5.3171  -2.5007 C.3            1 S1                 0.0000
     17 ****        -0.7528  -4.4336  -3.6478 C.2            1 S1                 0.0000
     18 ****        -1.7078  -4.8139  -4.3212 O.2            1 S1                 0.0000
     19 ****        -0.1720  -3.2404  -3.8644 N.am           1 S1                 0.0000
     20 ****         1.0353  -2.7289  -3.2121 C.3            1 S1                 0.0000
     21 ****        -0.6622   0.1471   2.2210 C.ar           1 S1                 0.0000
     22 ****        -0.9636   1.4625   2.1852 N.ar           1 S1                 0.0000
     23 ****         0.0745   8.1784   2.9182 H              1 S1                 0.0000
     24 ****        -1.6816   8.1139   2.7631 H              1 S1                 0.0000
     25 ****        -0.6535   7.9565   1.3271 H              1 S1                 0.0000
     26 ****        -2.6926   5.9548   2.2871 H              1 S1                 0.0000
     27 ****        -1.7120   5.8299   0.8315 H              1 S1                 0.0000
     28 ****        -1.4600   3.9076   3.2091 H              1 S1                 0.0000
     29 ****        -2.4974   3.6069   1.8130 H              1 S1                 0.0000
     30 ****         1.5399   2.4933   0.1375 H              1 S1                 0.0000
     31 ****         2.0926   0.0605   0.2135 H              1 S1                 0.0000
     32 ****         1.4029  -2.0782   2.4402 H              1 S1                 0.0000
     33 ****        -0.2158  -2.4443   1.8970 H              1 S1                 0.0000
     34 ****         2.2566  -2.6852   0.4128 H              1 S1                 0.0000
     35 ****         2.4177  -3.2232  -1.6539 H              1 S1                 0.0000
     36 ****         1.9094  -5.3217  -2.6936 H              1 S1                 0.0000
     37 ****         1.3615  -5.4220  -1.0463 H              1 S1                 0.0000
     38 ****        -0.2438  -6.3603  -2.8181 H              1 S1                 0.0000
     39 ****        -0.9558  -5.2437  -1.6821 H              1 S1                 0.0000
     40 ****        -0.5626  -2.6647  -4.5964 H              1 S1                 0.0000
     41 ****         0.9352  -1.6497  -3.0875 H              1 S1                 0.0000
     42 ****         1.8675  -2.8766  -3.9013 H              1 S1                 0.0000
     43 ****        -1.3115  -0.4702   2.8243 H              1 S1                 0.0000
     44 ****        -0.7613   6.1063   3.5556 LP             1 S1                 0.0000
     45 ****         0.1893   5.9630   2.2356 LP             1 S1                 0.0000
     46 ****         0.3317   4.1220   1.7107 LP             1 S1                 0.0000
     47 ****        -0.6499   3.8560   0.4331 LP             1 S1                 0.0000
     48 ****        -1.1570  -2.2303  -0.0168 LP             1 S1                 0.0000
     49 ****        -1.1319  -2.8779  -1.6230 LP             1 S1                 0.0000
     50 ****        -2.1434  -5.6913  -4.1204 LP             1 S1                 0.0000
     51 ****        -2.0493  -4.2459  -5.0700 LP             1 S1                 0.0000
     52 ****        -1.7456   1.8234   2.6935 LP             1 S1                 0.0000
@<TRIPOS>BOND
    1    1    2 1     
    2    1   23 1     
    3    1   24 1     
    4    1   25 1     
    5    2    3 1     
    6    3    4 1     
    7    3   26 1     
    8    3   27 1     
    9    4    5 1     
   10    4   28 1     
   11    4   29 1     
   12    5    6 1     
   13    6   22 ar    
   14    6    7 ar    
   15    7    8 ar    
   16    7   30 1     
   17    8    9 ar    
   18    8   31 1     
   19    9   10 1     
   20    9   21 ar    
   21   10   11 1     
   22   10   32 1     
   23   10   33 1     
   24   11   12 am    
   25   11   34 1     
   26   12   13 2     
   27   12   14 1     
   28   14   20 1     
   29   14   15 1     
   30   14   35 1     
   31   15   16 1     
   32   15   36 1     
   33   15   37 1     
   34   16   17 1     
   35   16   38 1     
   36   16   39 1     
   37   17   18 2     
   38   17   19 am    
   39   19   20 1     
   40   19   40 1     
   41   20   41 1     
   42   20   42 1     
   43   21   22 ar    
   44   21   43 1     
   45    2   44 1     
   46    2   45 1     
   47    5   46 1     
   48    5   47 1     
   49   13   48 1     
   50   13   49 1     
   51   18   50 1     
   52   18   51 1     
   53   22   52 1     
@<TRIPOS>SUBSTRUCTURE
      1 S1             1
@<TRIPOS>SET
LONE_PAIRS      STATIC     ATOMS    <user>   **** ""
9 44 45 46 47 48 49 50 51 52
DONOR_HYDROGENS      STATIC     ATOMS    <user>   **** ""
2 34 40
ATOM$BLUE        STATIC     ATOMS    COLORGROUP SYSTEM
9 44 45 46 47 48 49 50 51 52
ATOM$RED        STATIC     ATOMS    COLORGROUP SYSTEM
2 34 40
