AV-unprocessed.smi:1309|AV-procd|sdf|5444|dock7
  -GOLD-   22720 5 13D 1   1.00000     0.00000
 Structure written by MMmdl.
 41 42  0  0  0  0  0  0  0  0  1 V2000
  153.8004  142.7380  163.2519 C   0  0  0  0  0  0  0  0  0  0  0  0
  153.2983  142.1062  161.9455 C   0  0  0  0  0  0  0  0  0  0  0  0
  154.3531  141.2267  161.2580 C   0  0  0  0  0  0  0  0  0  0  0  0
  152.7216  143.1246  161.0129 C   0  0  0  0  0  0  0  0  0  0  0  0
  152.5155  142.9048  159.7109 N   0  0  0  0  0  0  0  0  0  0  0  0
  151.9561  144.0070  159.0563 C   0  0  0  0  0  0  0  0  0  0  0  0
  151.6445  143.9294  157.5901 C   0  0  0  0  0  0  0  0  0  0  0  0
  151.0814  142.5499  157.2445 C   0  0  0  0  0  0  0  0  0  0  0  0
  151.7579  141.5406  157.4411 O   0  0  0  0  0  0  0  0  0  0  0  0
  149.8416  142.5192  156.7291 N   0  0  0  0  0  0  0  0  0  0  0  0
  149.1199  141.3094  156.3407 C   0  0  0  0  0  0  0  0  0  0  0  0
  149.7591  140.5630  155.1551 C   0  0  0  0  0  0  0  0  0  0  0  0
  149.5854  140.9702  154.0048 O   0  0  0  0  0  0  0  0  0  0  0  0
  150.4911  139.4616  155.4201 N   0  0  0  0  0  0  0  0  0  0  0  0
  151.1860  138.6390  154.4302 C   0  0  0  0  0  0  0  0  0  0  0  0
  152.0696  137.6845  155.2340 C   0  0  0  0  0  0  0  0  0  0  0  0
  151.3678  137.5719  156.5801 C   0  0  0  0  0  0  0  0  0  0  0  0
  150.6974  138.9334  156.7671 C   0  0  0  0  0  0  0  0  0  0  0  0
  151.7544  145.0817  159.8869 C   0  0  0  0  0  0  0  0  0  0  0  0
  152.2438  144.7401  161.5233 S   0  0  0  0  0  0  0  0  0  0  0  0
  153.0042  143.2904  163.7522 H   0  0  0  0  0  0  0  0  0  0  0  0
  154.6217  143.4312  163.0667 H   0  0  0  0  0  0  0  0  0  0  0  0
  154.1592  141.9759  163.9444 H   0  0  0  0  0  0  0  0  0  0  0  0
  152.4774  141.4426  162.2205 H   0  0  0  0  0  0  0  0  0  0  0  0
  153.9384  140.7305  160.3799 H   0  0  0  0  0  0  0  0  0  0  0  0
  154.7199  140.4529  161.9328 H   0  0  0  0  0  0  0  0  0  0  0  0
  155.2108  141.8168  160.9333 H   0  0  0  0  0  0  0  0  0  0  0  0
  150.9234  144.6971  157.3060 H   0  0  0  0  0  0  0  0  0  0  0  0
  152.5395  144.1132  156.9941 H   0  0  0  0  0  0  0  0  0  0  0  0
  149.3625  143.3975  156.5941 H   0  0  0  0  0  0  0  0  0  0  0  0
  149.0361  140.6437  157.2012 H   0  0  0  0  0  0  0  0  0  0  0  0
  148.1058  141.5991  156.0654 H   0  0  0  0  0  0  0  0  0  0  0  0
  150.4495  138.0792  153.8519 H   0  0  0  0  0  0  0  0  0  0  0  0
  151.7830  139.2351  153.7387 H   0  0  0  0  0  0  0  0  0  0  0  0
  152.2046  136.7197  154.7442 H   0  0  0  0  0  0  0  0  0  0  0  0
  153.0557  138.1293  155.3737 H   0  0  0  0  0  0  0  0  0  0  0  0
  150.6057  136.7932  156.5293 H   0  0  0  0  0  0  0  0  0  0  0  0
  152.0488  137.3205  157.3936 H   0  0  0  0  0  0  0  0  0  0  0  0
  151.3516  139.6104  157.3184 H   0  0  0  0  0  0  0  0  0  0  0  0
  149.7611  138.8413  157.3198 H   0  0  0  0  0  0  0  0  0  0  0  0
  151.3433  146.0487  159.6376 H   0  0  0  0  0  0  0  0  0  0  0  0
  1  2  1  0  0  0  0
  1 21  1  0  0  0  0
  1 22  1  0  0  0  0
  1 23  1  0  0  0  0
  2  3  1  0  0  0  0
  2  4  1  0  0  0  0
  2 24  1  0  0  0  0
  3 25  1  0  0  0  0
  3 26  1  0  0  0  0
  3 27  1  0  0  0  0
  4 20  1  0  0  0  0
  4  5  2  0  0  0  0
  5  6  1  0  0  0  0
  6  7  1  0  0  0  0
  6 19  2  0  0  0  0
  7  8  1  0  0  0  0
  7 28  1  0  0  0  0
  7 29  1  0  0  0  0
  8  9  2  0  0  0  0
  8 10  1  0  0  0  0
 10 11  1  0  0  0  0
 10 30  1  0  0  0  0
 11 12  1  0  0  0  0
 11 31  1  0  0  0  0
 11 32  1  0  0  0  0
 12 13  2  0  0  0  0
 12 14  1  0  0  0  0
 14 18  1  0  0  0  0
 14 15  1  0  0  0  0
 15 16  1  0  0  0  0
 15 33  1  0  0  0  0
 15 34  1  0  0  0  0
 16 17  1  0  0  0  0
 16 35  1  0  0  0  0
 16 36  1  0  0  0  0
 17 18  1  0  0  0  0
 17 37  1  0  0  0  0
 17 38  1  0  0  0  0
 18 39  1  0  0  0  0
 18 40  1  0  0  0  0
 19 20  1  0  0  0  0
 19 41  1  0  0  0  0
M  END
> <s_m_source_file>
AV-unprocessed.smi

> <i_m_source_file_index>
1309

> <i_lp_mmshare_version>
43012

> <i_f3d_flags>
0

> <s_epik_input>
W0NIM11bQ0hdKFtDSDNdKWMxbmMoW2NIXXMxKVtDSDJdQyg9TylbTkhdW0NIMl1DKD1PKU4yW0NIMl1bQ0gyXVtDSDJdW0NIMl0y

> <s_epik_cmdline>
J2VwaWtfcHl0aG9uJywgJy1waCcsICc3LjAnLCAnLXRuJywgJzgnLCAnLW1hJywgJzIwMCcsICctbWV0YWxfYmluZGluZycsICctaW1hZScsICc8aW5maWxlLm1hZT4nLCAnLW9tYWUnLCAnPG91dGZpbGUubWFlPic=

> <r_lp_tautomer_probability>
1

> <r_epik_Ionization_Penalty>
2.87584e-05

> <r_epik_Ionization_Penalty_Charging>
0

> <r_epik_Ionization_Penalty_Neutral>
2.87584e-05

> <r_epik_State_Penalty>
-0

> <r_epik_Charging_Adjusted_Penalty>
0

> <i_epik_Tot_Q>
0

> <i_epik_Tot_abs_Q>
0

> <r_epik_Metal_State_Penalty>
-0

> <b_epik_Metal_Only>
0

> <s_lp_Force_Field>
OPLS_2005

> <r_lp_Energy>
16.8696

> <b_lp_Chiralities_Consistent>
1

> <s_lp_Variant>
AV-unprocessed.smi:1309-1

> <Gold.Version>
5.8.1

> <Gold.Id.Protein>
6NUR|6NUR_protein|mol2

> <Gold.PLP.Fitness>
50.3022

> <Gold.PLP.PLP>
-46.4103

> <Gold.PLP.part.hbond>
-2.9153

> <Gold.PLP.part.metal>
0.0000

> <Gold.PLP.part.buried>
-3.1715

> <Gold.PLP.part.nonpolar>
-40.6991

> <Gold.PLP.part.repulsive>
1.4607

> <Gold.PLP.ligand.clash>
0.0000

> <Gold.PLP.ligand.torsion>
1.1326

> <Gold.PLP.Chemscore.Hbond>
2.0170

> <Gold.PLP.Chemscore.CHOScore>
0.0000

> <Gold.PLP.Chemscore.Metal>
0.0000

> <Gold.Chemscore.Hbonds>
donor molecule, donor type, donor heavy atom, donor atom, acceptor molecule, acceptor atom, score
      L1  H    10    30       P1  8028  1.00
      P1  H  7989  7998       L1    13  0.29
      P1  H  8011  8017       L1    13  0.48

> <Gold.PLP.Chemscore.Internal.Correction>
0.1060

> <Gold.Rescore>
     Score         DG    S(hbond)    S(metal)    S(lipo)     H(rot)  DE(clash)    DE(int)     intcor
     16.30     -21.13       1.88        0.00     117.16       1.70       1.13       3.69       ----

> <Gold.Chemscore.Fitness>
16.3044

> <Gold.Chemscore.DG>
-21.1271

> <Gold.Chemscore.ZeroCoef>
-5.4800

> <Gold.Chemscore.Hbond>
1.8829

> <Gold.Chemscore.Metal>
0.0000

> <Gold.Chemscore.Lipo>
117.1607

> <Gold.Chemscore.Internal_Hbond>
0.0000

> <Gold.Chemscore.DEClash>
1.1336

> <Gold.Chemscore.DEInternal>
3.6890

> <Gold.Chemscore.Rot>
1.6991

> <Gold.Chemscore.Internal.Correction>
   9.000000E+99

> <Gold.Chemscore.Hbonds>
donor molecule, donor type, donor heavy atom, donor atom, acceptor molecule, acceptor atom, score
      L1  H    10    30       P1  8028  0.97
      P1  H  7989  7998       L1    13  0.04
      P1  H  8011  8017       L1    13  0.47

> <Gold.Chemscore.Hbond.Weighted>
-6.2889

> <Gold.Chemscore.Metal.Weighted>
-0.0000

> <Gold.Chemscore.Lipo.Weighted>
-13.7078

> <Gold.Chemscore.Internal_Hbond.Weighted>
0.0000

> <Gold.Chemscore.DEClash.Weighted>
1.1336

> <Gold.Chemscore.DEInternal.Weighted>
3.6890

> <Gold.Chemscore.Rot.Weighted>
4.3497

> <Gold.Chemscore.Internal.Correction.Weighted>
   9.000000E+99

> <Gold.Protein.RotatedTorsions>
[ 6907 6896 6895 6894 ] final   92.34 input  -60.11 | X-H torsion
[ 7974 7965 7964 7962 ] final  -29.15 input  175.53 | X-H torsion
[ 8008 7997 7996 7995 ] final -104.65 input   59.86 | X-H torsion
[ 10167 10162 10161 10158 ] final  -75.23 input  -65.29 | X-H torsion
[ 10718 10713 10712 10709 ] final   40.53 input   66.30 | X-H torsion
[ 10763 10752 10751 10750 ] final -115.69 input  -60.55 | X-H torsion
[ 11005 11000 10999 10996 ] final -101.02 input  -57.11 | X-H torsion

> <Gold.Protein.ActiveResidues>
 VAL166  LYS551  ARG553  GLY616  TRP617  ASP618  TYR619  PRO620  LYS621  CYS622 
 ASP623  PHE694  ASN695  SER759  ASP760  ASP761  ALA762  ILE779  LEU786  VAL792 
 PHE793  MET794  SER795  GLU796  ALA797  LYS798  CYS799  TRP800  GLU811  SER814 

> <Gold.Protein.RotatedAtoms>
  152.5452  134.1517  159.8520 H   0  0  0  0  0  0  0  0  0  0  0  0  # atno 6907 bound_to 6896
  151.1543  133.4880  159.2602 H   0  0  0  0  0  0  0  0  0  0  0  0  # atno 6908 bound_to 6896
  151.1439  135.0204  159.8693 H   0  0  0  0  0  0  0  0  0  0  0  0  # atno 6909 bound_to 6896
  146.1237  140.5375  142.8724 H   0  0  0  0  0  0  0  0  0  0  0  0  # atno 7974 bound_to 7965
  154.8884  140.0417  157.1824 H   0  0  0  0  0  0  0  0  0  0  0  0  # atno 8008 bound_to 7997
  154.8566  140.2937  155.5544 H   0  0  0  0  0  0  0  0  0  0  0  0  # atno 8009 bound_to 7997
  156.2997  140.2455  156.3533 H   0  0  0  0  0  0  0  0  0  0  0  0  # atno 8010 bound_to 7997
  140.4960  143.2370  151.7830 H   0  0  0  0  0  0  0  0  0  0  0  0  # atno 10167 bound_to 10162
  157.3832  130.7765  149.7210 H   0  0  0  0  0  0  0  0  0  0  0  0  # atno 10718 bound_to 10713
  154.8491  135.4372  154.1703 H   0  0  0  0  0  0  0  0  0  0  0  0  # atno 10763 bound_to 10752
  153.2818  135.6954  153.7384 H   0  0  0  0  0  0  0  0  0  0  0  0  # atno 10764 bound_to 10752
  153.6585  135.3439  155.3095 H   0  0  0  0  0  0  0  0  0  0  0  0  # atno 10765 bound_to 10752
  141.1247  133.8445  157.1178 H   0  0  0  0  0  0  0  0  0  0  0  0  # atno 11005 bound_to 11000
  144.7622  140.5447  143.6728 LP  0  0  0  0  0  0  0  0  0  0  0  0  # atno 17320 bound_to 7965
  145.5411  139.1475  143.3446 LP  0  0  0  0  0  0  0  0  0  0  0  0  # atno 17321 bound_to 7965
  139.4861  144.4586  151.9568 LP  0  0  0  0  0  0  0  0  0  0  0  0  # atno 17342 bound_to 10162
  140.3674  144.2898  150.5924 LP  0  0  0  0  0  0  0  0  0  0  0  0  # atno 17343 bound_to 10162
  155.9780  130.4056  150.3672 LP  0  0  0  0  0  0  0  0  0  0  0  0  # atno 17370 bound_to 10713
  157.1779  131.0385  151.2763 LP  0  0  0  0  0  0  0  0  0  0  0  0  # atno 17371 bound_to 10713
  140.0235  134.9934  157.0640 LP  0  0  0  0  0  0  0  0  0  0  0  0  # atno 17394 bound_to 11000
  140.4400  134.1691  155.7173 LP  0  0  0  0  0  0  0  0  0  0  0  0  # atno 17395 bound_to 11000

$$$$
