AV-unprocessed.smi:3318|AV-procd|sdf|12764|dock5
  -GOLD-   2272019103D 1   1.00000     0.00000
 Structure written by MMmdl.
 44 45  0  0  0  0  0  0  0  0  2 V2000
  152.1179  142.0470  158.3598 C   0  0  0  0  0  0  0  0  0  0  0  0
  151.6552  141.2990  157.1024 C   0  0  0  0  0  0  0  0  0  0  0  0
  150.2944  141.7886  156.5696 C   0  0  0  0  0  0  0  0  0  0  0  0
  149.8877  141.1148  155.3354 N   0  0  0  0  0  0  0  0  0  0  0  0
  148.4395  141.2611  155.1724 C   0  0  0  0  0  0  0  0  0  0  0  0
  147.9899  140.6565  153.8313 C   0  0  0  0  0  0  0  0  0  0  0  0
  148.3535  139.1670  153.7474 C   0  0  0  0  0  0  0  0  0  0  0  0
  147.9910  138.6295  152.4173 N   0  3  0  0  0  0  0  0  0  0  0  0
  146.5415  138.5539  152.1407 C   0  0  0  0  0  0  0  0  0  0  0  0
  145.8638  137.5177  153.0479 C   0  0  0  0  0  0  0  0  0  0  0  0
  146.1365  136.0940  152.6001 C   0  0  0  0  0  0  0  0  0  0  0  0
  146.7142  135.1577  153.4839 C   0  0  0  0  0  0  0  0  0  0  0  0
  146.9484  133.8498  153.0160 C   0  0  0  0  0  0  0  0  0  0  0  0
  146.5991  133.5316  151.6896 C   0  0  0  0  0  0  0  0  0  0  0  0
  146.0281  134.5386  150.8863 C   0  0  0  0  0  0  0  0  0  0  0  0
  145.7998  135.7958  151.3250 N   0  0  0  0  0  0  0  0  0  0  0  0
  149.8559  139.0118  154.0420 C   0  0  0  0  0  0  0  0  0  0  0  0
  150.2328  139.6897  155.3714 C   0  0  0  0  0  0  0  0  0  0  0  0
  153.0551  141.6340  158.7334 H   0  0  0  0  0  0  0  0  0  0  0  0
  151.3794  141.9706  159.1580 H   0  0  0  0  0  0  0  0  0  0  0  0
  152.2824  143.1050  158.1542 H   0  0  0  0  0  0  0  0  0  0  0  0
  152.4265  141.3495  156.3350 H   0  0  0  0  0  0  0  0  0  0  0  0
  151.5626  140.2413  157.3500 H   0  0  0  0  0  0  0  0  0  0  0  0
  149.5219  141.6639  157.3302 H   0  0  0  0  0  0  0  0  0  0  0  0
  150.3749  142.8614  156.3879 H   0  0  0  0  0  0  0  0  0  0  0  0
  147.9152  140.7844  156.0024 H   0  0  0  0  0  0  0  0  0  0  0  0
  148.1730  142.3189  155.1911 H   0  0  0  0  0  0  0  0  0  0  0  0
  146.9132  140.7853  153.7148 H   0  0  0  0  0  0  0  0  0  0  0  0
  148.4579  141.2052  153.0122 H   0  0  0  0  0  0  0  0  0  0  0  0
  147.7794  138.6327  154.5060 H   0  0  0  0  0  0  0  0  0  0  0  0
  148.3991  139.2369  151.7211 H   0  0  0  0  0  0  0  0  0  0  0  0
  146.0861  139.5320  152.2956 H   0  0  0  0  0  0  0  0  0  0  0  0
  146.3870  138.2861  151.0945 H   0  0  0  0  0  0  0  0  0  0  0  0
  146.2063  137.6412  154.0762 H   0  0  0  0  0  0  0  0  0  0  0  0
  144.7850  137.6810  153.0625 H   0  0  0  0  0  0  0  0  0  0  0  0
  146.9728  135.4310  154.4965 H   0  0  0  0  0  0  0  0  0  0  0  0
  147.3876  133.1046  153.6628 H   0  0  0  0  0  0  0  0  0  0  0  0
  146.7643  132.5389  151.2970 H   0  0  0  0  0  0  0  0  0  0  0  0
  145.7487  134.3292  149.8643 H   0  0  0  0  0  0  0  0  0  0  0  0
  150.1301  137.9581  154.0925 H   0  0  0  0  0  0  0  0  0  0  0  0
  150.4446  139.4470  153.2328 H   0  0  0  0  0  0  0  0  0  0  0  0
  151.3018  139.5598  155.5326 H   0  0  0  0  0  0  0  0  0  0  0  0
  149.7238  139.2002  156.2034 H   0  0  0  0  0  0  0  0  0  0  0  0
  148.3970  137.7101  152.3168 H   0  0  0  0  0  0  0  0  0  0  0  0
  1  2  1  0  0  0  0
  1 19  1  0  0  0  0
  1 20  1  0  0  0  0
  1 21  1  0  0  0  0
  2  3  1  0  0  0  0
  2 22  1  0  0  0  0
  2 23  1  0  0  0  0
  3  4  1  0  0  0  0
  3 24  1  0  0  0  0
  3 25  1  0  0  0  0
  4 18  1  0  0  0  0
  4  5  1  0  0  0  0
  5  6  1  0  0  0  0
  5 26  1  0  0  0  0
  5 27  1  0  0  0  0
  6  7  1  0  0  0  0
  6 28  1  0  0  0  0
  6 29  1  0  0  0  0
  7  8  1  0  0  0  0
  7 17  1  0  0  0  0
  7 30  1  0  0  0  0
  8  9  1  0  0  0  0
  8 31  1  0  0  0  0
  8 44  1  0  0  0  0
  9 10  1  0  0  0  0
  9 32  1  0  0  0  0
  9 33  1  0  0  0  0
 10 11  1  0  0  0  0
 10 34  1  0  0  0  0
 10 35  1  0  0  0  0
 11 16  1  0  0  0  0
 11 12  2  0  0  0  0
 12 13  1  0  0  0  0
 12 36  1  0  0  0  0
 13 14  2  0  0  0  0
 13 37  1  0  0  0  0
 14 15  1  0  0  0  0
 14 38  1  0  0  0  0
 15 16  2  0  0  0  0
 15 39  1  0  0  0  0
 17 18  1  0  0  0  0
 17 40  1  0  0  0  0
 17 41  1  0  0  0  0
 18 42  1  0  0  0  0
 18 43  1  0  0  0  0
M  CHG  1   8   1
M  END
> <s_m_source_file>
AV-unprocessed.smi

> <i_m_source_file_index>
3318

> <i_lp_mmshare_version>
43012

> <i_f3d_flags>
0

> <s_epik_input>
W0NIM11bQ0gyXVtDSDJdTjFbQ0gyXVtDSDJdW0NIXShbQ0gyXVtDSDJdMSlbTkhdW0NIMl1bQ0gyXWMyW2NIXVtjSF1bY0hdW2NIXW4y

> <s_epik_cmdline>
J2VwaWtfcHl0aG9uJywgJy1waCcsICc3LjAnLCAnLXRuJywgJzgnLCAnLW1hJywgJzIwMCcsICctbWV0YWxfYmluZGluZycsICctaW1hZScsICc8aW5maWxlLm1hZT4nLCAnLW9tYWUnLCAnPG91dGZpbGUubWFlPic=

> <r_epik_Ionization_Penalty>
1.50803

> <r_epik_Ionization_Penalty_Charging>
0.000531593

> <r_epik_Ionization_Penalty_Neutral>
1.5075

> <r_epik_State_Penalty>
1.60727

> <r_epik_Charging_Adjusted_Penalty>
1.6078

> <i_epik_Tot_Q>
1

> <i_epik_Tot_abs_Q>
1

> <r_epik_Metal_State_Penalty>
1.6087

> <b_epik_Metal_Only>
0

> <s_lp_Force_Field>
OPLS_2005

> <r_lp_Energy>
19.6285

> <b_lp_Chiralities_Consistent>
1

> <s_lp_Variant>
AV-unprocessed.smi:3318-3

> <Gold.Version>
5.8.1

> <Gold.Id.Protein>
6NUR|6NUR_protein|mol2

> <Gold.PLP.Fitness>
42.5186

> <Gold.PLP.PLP>
-31.1509

> <Gold.PLP.part.hbond>
-1.8898

> <Gold.PLP.part.metal>
0.0000

> <Gold.PLP.part.buried>
-1.7318

> <Gold.PLP.part.nonpolar>
-28.0007

> <Gold.PLP.part.repulsive>
0.4054

> <Gold.PLP.ligand.clash>
0.0000

> <Gold.PLP.ligand.torsion>
0.3248

> <Gold.PLP.Chemscore.Hbond>
2.9913

> <Gold.PLP.Chemscore.CHOScore>
1.0000

> <Gold.PLP.Chemscore.Metal>
0.0000

> <Gold.Chemscore.Hbonds>
donor molecule, donor type, donor heavy atom, donor atom, acceptor molecule, acceptor atom, score
      L1  H     8    31       P1  7957  0.99
      L1  H     8    44       P1  7948  2.00
      L1  C    15    39       P1  7921  1.00

> <Gold.PLP.Chemscore.Internal.Correction>
0.0435

> <Gold.Rescore>
     Score         DG    S(hbond)    S(metal)    S(lipo)     H(rot)  DE(clash)    DE(int)     intcor
     17.88     -18.20       1.95        0.00      85.63       1.48       0.02       0.30       ----

> <Gold.Chemscore.Fitness>
17.8827

> <Gold.Chemscore.DG>
-18.1990

> <Gold.Chemscore.ZeroCoef>
-5.4800

> <Gold.Chemscore.Hbond>
1.9460

> <Gold.Chemscore.Metal>
0.0000

> <Gold.Chemscore.Lipo>
85.6292

> <Gold.Chemscore.Internal_Hbond>
0.0000

> <Gold.Chemscore.DEClash>
0.0210

> <Gold.Chemscore.DEInternal>
0.2953

> <Gold.Chemscore.Rot>
1.4840

> <Gold.Chemscore.Internal.Correction>
   9.000000E+99

> <Gold.Chemscore.Hbonds>
donor molecule, donor type, donor heavy atom, donor atom, acceptor molecule, acceptor atom, score
      L1  H     8    31       P1  7957  0.86
      L1  H     8    44       P1  7948  0.99

> <Gold.Chemscore.Hbond.Weighted>
-6.4995

> <Gold.Chemscore.Metal.Weighted>
-0.0000

> <Gold.Chemscore.Lipo.Weighted>
-10.0186

> <Gold.Chemscore.Internal_Hbond.Weighted>
0.0000

> <Gold.Chemscore.DEClash.Weighted>
0.0210

> <Gold.Chemscore.DEInternal.Weighted>
0.2953

> <Gold.Chemscore.Rot.Weighted>
3.7991

> <Gold.Chemscore.Internal.Correction.Weighted>
   9.000000E+99

> <Gold.Protein.RotatedTorsions>
[ 6907 6896 6895 6894 ] final  -80.47 input  -60.11 | X-H torsion
[ 7974 7965 7964 7962 ] final   76.71 input  175.53 | X-H torsion
[ 8008 7997 7996 7995 ] final   74.82 input   59.86 | X-H torsion
[ 10167 10162 10161 10158 ] final   75.59 input  -65.29 | X-H torsion
[ 10718 10713 10712 10709 ] final  -59.90 input   66.30 | X-H torsion
[ 10763 10752 10751 10750 ] final   50.07 input  -60.55 | X-H torsion
[ 11005 11000 10999 10996 ] final   77.89 input  -57.11 | X-H torsion

> <Gold.Protein.ActiveResidues>
 VAL166  LYS551  ARG553  GLY616  TRP617  ASP618  TYR619  PRO620  LYS621  CYS622 
 ASP623  PHE694  ASN695  SER759  ASP760  ASP761  ALA762  ILE779  LEU786  VAL792 
 PHE793  MET794  SER795  GLU796  ALA797  LYS798  CYS799  TRP800  GLU811  SER814 

> <Gold.Protein.RotatedAtoms>
  150.6929  134.3965  159.5099 H   0  0  0  0  0  0  0  0  0  0  0  0  # atno 6907 bound_to 6896
  152.1745  134.8803  160.0541 H   0  0  0  0  0  0  0  0  0  0  0  0  # atno 6908 bound_to 6896
  151.9817  133.3725  159.4147 H   0  0  0  0  0  0  0  0  0  0  0  0  # atno 6909 bound_to 6896
  145.6994  139.2578  143.1714 H   0  0  0  0  0  0  0  0  0  0  0  0  # atno 7974 bound_to 7965
  155.8040  140.3475  155.5419 H   0  0  0  0  0  0  0  0  0  0  0  0  # atno 8008 bound_to 7997
  155.8509  140.0956  157.1695 H   0  0  0  0  0  0  0  0  0  0  0  0  # atno 8009 bound_to 7997
  154.4008  140.1376  156.3831 H   0  0  0  0  0  0  0  0  0  0  0  0  # atno 8010 bound_to 7997
  140.0014  144.5683  150.7734 H   0  0  0  0  0  0  0  0  0  0  0  0  # atno 10167 bound_to 10162
  156.1028  130.4184  150.0780 H   0  0  0  0  0  0  0  0  0  0  0  0  # atno 10718 bound_to 10713
  152.9785  135.5891  154.4192 H   0  0  0  0  0  0  0  0  0  0  0  0  # atno 10763 bound_to 10752
  154.3819  135.2767  155.2208 H   0  0  0  0  0  0  0  0  0  0  0  0  # atno 10764 bound_to 10752
  154.4118  135.6079  153.6012 H   0  0  0  0  0  0  0  0  0  0  0  0  # atno 10765 bound_to 10752
  139.9235  134.7719  156.1579 H   0  0  0  0  0  0  0  0  0  0  0  0  # atno 11005 bound_to 11000
  146.0811  140.7762  142.9641 LP  0  0  0  0  0  0  0  0  0  0  0  0  # atno 17320 bound_to 7965
  144.6973  140.3491  143.7185 LP  0  0  0  0  0  0  0  0  0  0  0  0  # atno 17321 bound_to 7965
  140.7417  143.2822  151.3565 LP  0  0  0  0  0  0  0  0  0  0  0  0  # atno 17342 bound_to 10162
  139.6269  144.0796  152.2442 LP  0  0  0  0  0  0  0  0  0  0  0  0  # atno 17343 bound_to 10162
  156.8763  130.9541  151.3604 LP  0  0  0  0  0  0  0  0  0  0  0  0  # atno 17370 bound_to 10713
  157.6201  130.8648  149.9094 LP  0  0  0  0  0  0  0  0  0  0  0  0  # atno 17371 bound_to 10713
  141.0776  133.6768  156.2268 LP  0  0  0  0  0  0  0  0  0  0  0  0  # atno 17394 bound_to 11000
  140.6403  134.5173  157.5569 LP  0  0  0  0  0  0  0  0  0  0  0  0  # atno 17395 bound_to 11000

$$$$
