#       Name:                AV-unprocessed.smi:3234
#       Creating user name   scv26
#       Creation time:       Fri Mar 27 18:21:17 2020


#       File generated by GOLD software.
#

@<TRIPOS>MOLECULE
AV-unprocessed.smi:3234
    40    42     1
SMALL
NO_CHARGES


@<TRIPOS>ATOM
      1 ****        -0.6225   1.8755  -0.2717 O.2            1 S1                 0.0000
      2 ****        -1.1718   1.0662   0.4747 C.2            1 S1                 0.0000
      3 ****        -2.4743   1.0617   0.8092 N.am           1 S1                 0.0000
      4 ****        -3.5109   1.9582   0.4268 C.ar           1 S1                 0.0000
      5 ****        -4.8331   1.5962   0.7584 C.ar           1 S1                 0.0000
      6 ****        -5.8863   2.4632   0.4057 C.ar           1 S1                 0.0000
      7 ****        -5.6981   3.6354  -0.2352 N.ar           1 S1                 0.0000
      8 ****        -4.4322   3.9855  -0.5456 C.ar           1 S1                 0.0000
      9 ****        -3.3083   3.1923  -0.2383 C.ar           1 S1                 0.0000
     10 ****        -0.5205   0.0487   1.0565 N.am           1 S1                 0.0000
     11 ****         0.9076  -0.2179   0.9158 C.3            1 S1                 0.0000
     12 ****         1.4151  -1.3218   1.8436 C.3            1 S1                 0.0000
     13 ****         2.6072  -1.9405   1.0930 C.3            1 S1                 0.0000
     14 ****         2.6114  -1.3529  -0.2673 N.4            1 S1                 1.0000
     15 ****         3.0166  -2.2900  -1.3361 C.3            1 S1                 0.0000
     16 ****         4.5129  -2.4039  -1.5037 C.3            1 S1                 0.0000
     17 ****         3.6956  -1.6153  -2.5039 C.3            1 S1                 0.0000
     18 ****         1.2840  -0.7472  -0.4683 C.3            1 S1                 0.0000
     19 ****        -2.7712   0.2998   1.4009 H              1 S1                 0.0000
     20 ****        -5.0435   0.6700   1.2730 H              1 S1                 0.0000
     21 ****        -6.9076   2.2078   0.6467 H              1 S1                 0.0000
     22 ****        -4.3093   4.9312  -1.0524 H              1 S1                 0.0000
     23 ****        -2.3303   3.5542  -0.5117 H              1 S1                 0.0000
     24 ****        -1.0458  -0.5739   1.6531 H              1 S1                 0.0000
     25 ****         1.4703   0.6961   1.1174 H              1 S1                 0.0000
     26 ****         1.6928  -0.9404   2.8268 H              1 S1                 0.0000
     27 ****         0.6455  -2.0816   1.9892 H              1 S1                 0.0000
     28 ****         3.5530  -1.7147   1.5860 H              1 S1                 0.0000
     29 ****         2.5042  -3.0261   1.0554 H              1 S1                 0.0000
     30 ****         2.3761  -3.1563  -1.4924 H              1 S1                 0.0000
     31 ****         5.1523  -1.8442  -0.8234 H              1 S1                 0.0000
     32 ****         4.9099  -3.3628  -1.8310 H              1 S1                 0.0000
     33 ****         3.5550  -2.0549  -3.4894 H              1 S1                 0.0000
     34 ****         3.7918  -0.5310  -2.4882 H              1 S1                 0.0000
     35 ****         0.5736  -1.5100  -0.7932 H              1 S1                 0.0000
     36 ****         1.3154   0.0358  -1.2268 H              1 S1                 0.0000
     37 ****         3.2758  -0.5921  -0.2524 H              1 S1                 0.0000
     38 ****        -1.1547   2.6122  -0.6888 LP             1 S1                 0.0000
     39 ****         0.3562   1.7965  -0.4613 LP             1 S1                 0.0000
     40 ****        -6.4704   4.2248  -0.4722 LP             1 S1                 0.0000
@<TRIPOS>BOND
    1    1    2 2     
    2    2    3 am    
    3    2   10 am    
    4    3    4 1     
    5    3   19 1     
    6    4    9 ar    
    7    4    5 ar    
    8    5    6 ar    
    9    5   20 1     
   10    6    7 ar    
   11    6   21 1     
   12    7    8 ar    
   13    8    9 ar    
   14    8   22 1     
   15    9   23 1     
   16   10   11 1     
   17   10   24 1     
   18   11   18 1     
   19   11   12 1     
   20   11   25 1     
   21   12   13 1     
   22   12   26 1     
   23   12   27 1     
   24   13   14 1     
   25   13   28 1     
   26   13   29 1     
   27   14   15 1     
   28   14   18 1     
   29   14   37 1     
   30   15   17 1     
   31   15   16 1     
   32   15   30 1     
   33   16   17 1     
   34   16   31 1     
   35   16   32 1     
   36   17   33 1     
   37   17   34 1     
   38   18   35 1     
   39   18   36 1     
   40    1   38 1     
   41    1   39 1     
   42    7   40 1     
@<TRIPOS>SUBSTRUCTURE
      1 S1             1
@<TRIPOS>SET
LONE_PAIRS      STATIC     ATOMS    <user>   **** ""
3 38 39 40
DONOR_HYDROGENS      STATIC     ATOMS    <user>   **** ""
3 19 24 37
ATOM$BLUE        STATIC     ATOMS    COLORGROUP SYSTEM
3 38 39 40
ATOM$RED        STATIC     ATOMS    COLORGROUP SYSTEM
3 19 24 37
