AV-unprocessed.smi:1252|AV-procd|sdf|5267|dock6
  -GOLD-   22720 4383D 1   1.00000     0.00000
 Structure written by MMmdl.
 44 45  0  0  0  0  0  0  0  0  2 V2000
  147.9966  133.4341  152.4510 C   0  0  0  0  0  0  0  0  0  0  0  0
  146.4896  133.2264  152.7042 C   0  0  1  0  0  0  0  0  0  0  0  0
  145.8607  134.3931  153.4809 C   0  0  0  0  0  0  0  0  0  0  0  0
  144.7415  134.2816  153.9823 O   0  0  0  0  0  0  0  0  0  0  0  0
  146.5953  135.5138  153.5696 N   0  0  0  0  0  0  0  0  0  0  0  0
  146.2034  136.7372  154.2684 C   0  0  0  0  0  0  0  0  0  0  0  0
  147.3203  137.8248  154.2963 C   0  0  0  0  0  0  0  0  0  0  0  0
  147.2041  138.7242  153.0399 C   0  0  0  0  0  0  0  0  0  0  0  0
  147.1345  138.7648  155.5140 C   0  0  0  0  0  0  0  0  0  0  0  0
  148.6918  137.2013  154.3553 N   0  3  0  0  0  0  0  0  0  0  0  0
  149.8371  138.1553  154.3884 C   0  0  0  0  0  0  0  0  0  0  0  0
  151.1716  137.4038  154.2531 C   0  0  0  0  0  0  0  0  0  0  0  0
  151.2878  136.4464  155.2958 O   0  0  0  0  0  0  0  0  0  0  0  0
  150.2561  135.4723  155.2300 C   0  0  0  0  0  0  0  0  0  0  0  0
  148.8872  136.1534  155.3974 C   0  0  0  0  0  0  0  0  0  0  0  0
  145.7490  132.9867  151.4719 N   0  0  0  0  0  0  0  0  0  0  0  0
  145.9296  132.0573  150.5308 C   0  0  0  0  0  0  0  0  0  0  0  0
  145.0342  132.0976  149.5542 N   0  0  0  0  0  0  0  0  0  0  0  0
  144.2683  133.1414  149.9903 C   0  0  0  0  0  0  0  0  0  0  0  0
  144.6454  133.7022  151.1391 N   0  0  0  0  0  0  0  0  0  0  0  0
  148.5401  133.5453  153.3899 H   0  0  0  0  0  0  0  0  0  0  0  0
  148.1944  134.3216  151.8485 H   0  0  0  0  0  0  0  0  0  0  0  0
  148.4234  132.5789  151.9264 H   0  0  0  0  0  0  0  0  0  0  0  0
  146.3885  132.3282  153.3162 H   0  0  0  0  0  0  0  0  0  0  0  0
  147.5034  135.5165  153.1281 H   0  0  0  0  0  0  0  0  0  0  0  0
  145.2851  137.1279  153.8290 H   0  0  0  0  0  0  0  0  0  0  0  0
  145.9407  136.4367  155.2820 H   0  0  0  0  0  0  0  0  0  0  0  0
  146.3088  139.3460  153.0700 H   0  0  0  0  0  0  0  0  0  0  0  0
  147.1371  138.1442  152.1195 H   0  0  0  0  0  0  0  0  0  0  0  0
  148.0572  139.3980  152.9521 H   0  0  0  0  0  0  0  0  0  0  0  0
  146.2549  139.4001  155.4057 H   0  0  0  0  0  0  0  0  0  0  0  0
  147.9909  139.4286  155.6388 H   0  0  0  0  0  0  0  0  0  0  0  0
  146.9967  138.2152  156.4449 H   0  0  0  0  0  0  0  0  0  0  0  0
  149.7804  138.8800  153.5786 H   0  0  0  0  0  0  0  0  0  0  0  0
  149.8366  138.7158  155.3232 H   0  0  0  0  0  0  0  0  0  0  0  0
  151.2480  136.9151  153.2803 H   0  0  0  0  0  0  0  0  0  0  0  0
  152.0048  138.1034  154.3238 H   0  0  0  0  0  0  0  0  0  0  0  0
  150.3091  134.9301  154.2846 H   0  0  0  0  0  0  0  0  0  0  0  0
  150.4117  134.7419  156.0243 H   0  0  0  0  0  0  0  0  0  0  0  0
  148.8225  136.5933  156.3929 H   0  0  0  0  0  0  0  0  0  0  0  0
  148.1251  135.3790  155.3369 H   0  0  0  0  0  0  0  0  0  0  0  0
  146.7313  131.3340  150.5624 H   0  0  0  0  0  0  0  0  0  0  0  0
  143.4039  133.4950  149.4478 H   0  0  0  0  0  0  0  0  0  0  0  0
  148.7834  136.7135  153.4756 H   0  0  0  0  0  0  0  0  0  0  0  0
  1  2  1  0  0  0  0
  1 21  1  0  0  0  0
  1 22  1  0  0  0  0
  1 23  1  0  0  0  0
  2  3  1  0  0  0  0
  2 16  1  0  0  0  0
  2 24  1  0  0  0  0
  3  4  2  0  0  0  0
  3  5  1  0  0  0  0
  5  6  1  0  0  0  0
  5 25  1  0  0  0  0
  6  7  1  0  0  0  0
  6 26  1  0  0  0  0
  6 27  1  0  0  0  0
  7  8  1  0  0  0  0
  7  9  1  0  0  0  0
  7 10  1  0  0  0  0
  8 28  1  0  0  0  0
  8 29  1  0  0  0  0
  8 30  1  0  0  0  0
  9 31  1  0  0  0  0
  9 32  1  0  0  0  0
  9 33  1  0  0  0  0
 10 15  1  0  0  0  0
 10 11  1  0  0  0  0
 10 44  1  0  0  0  0
 11 12  1  0  0  0  0
 11 34  1  0  0  0  0
 11 35  1  0  0  0  0
 12 13  1  0  0  0  0
 12 36  1  0  0  0  0
 12 37  1  0  0  0  0
 13 14  1  0  0  0  0
 14 15  1  0  0  0  0
 14 38  1  0  0  0  0
 14 39  1  0  0  0  0
 15 40  1  0  0  0  0
 15 41  1  0  0  0  0
 16 20  1  0  0  0  0
 16 17  1  0  0  0  0
 17 18  2  0  0  0  0
 17 42  1  0  0  0  0
 18 19  1  0  0  0  0
 19 20  2  0  0  0  0
 19 43  1  0  0  0  0
M  CHG  1  10   1
M  END
> <s_m_source_file>
AV-unprocessed.smi

> <i_m_source_file_index>
1252

> <i_lp_mmshare_version>
43012

> <i_f3d_flags>
0

> <s_epik_input>
bjFbY0hdbltjSF1uMVtDQEhdKFtDSDNdKUMoPU8pW05IXVtDSDJdQyhbQ0gzXSkoW0NIM10pTjJbQ0gyXVtDSDJdT1tDSDJdW0NIMl0y

> <s_epik_cmdline>
J2VwaWtfcHl0aG9uJywgJy1waCcsICc3LjAnLCAnLXRuJywgJzgnLCAnLW1hJywgJzIwMCcsICctbWV0YWxfYmluZGluZycsICctaW1hZScsICc8aW5maWxlLm1hZT4nLCAnLW9tYWUnLCAnPG91dGZpbGUubWFlPic=

> <r_lp_tautomer_probability>
1

> <r_epik_Ionization_Penalty>
0.71326

> <r_epik_Ionization_Penalty_Charging>
0.713252

> <r_epik_Ionization_Penalty_Neutral>
8.22342e-06

> <r_epik_State_Penalty>
0.737017

> <r_epik_Charging_Adjusted_Penalty>
1.45027

> <i_epik_Tot_Q>
1

> <i_epik_Tot_abs_Q>
1

> <r_epik_Metal_State_Penalty>
0.73702

> <b_epik_Metal_Only>
0

> <s_lp_Force_Field>
OPLS_2005

> <r_lp_Energy>
31.3962

> <b_lp_Chiralities_Consistent>
1

> <s_lp_Variant>
AV-unprocessed.smi:1252-4

> <Gold.Version>
5.8.1

> <Gold.Id.Protein>
6NUR|6NUR_protein|mol2

> <Gold.PLP.Fitness>
39.6012

> <Gold.PLP.PLP>
-23.2407

> <Gold.PLP.part.hbond>
-3.0000

> <Gold.PLP.part.metal>
0.0000

> <Gold.PLP.part.buried>
-1.6779

> <Gold.PLP.part.nonpolar>
-19.5038

> <Gold.PLP.part.repulsive>
0.4833

> <Gold.PLP.ligand.clash>
0.1490

> <Gold.PLP.ligand.torsion>
0.8460

> <Gold.PLP.Chemscore.Hbond>
3.9913

> <Gold.PLP.Chemscore.CHOScore>
2.0000

> <Gold.PLP.Chemscore.Metal>
0.0000

> <Gold.Chemscore.Hbonds>
donor molecule, donor type, donor heavy atom, donor atom, acceptor molecule, acceptor atom, score
      L1  H     5    25       P1  7948  0.98
      L1  H    10    44       P1  7948  2.00
      P1  H 10752 10763       L1    13  1.00
      L1  C    17    42       P1 10747  1.00
      L1  C    19    43       P1 10186  0.90

> <Gold.PLP.Chemscore.Internal.Correction>
0.2277

> <Gold.Rescore>
     Score         DG    S(hbond)    S(metal)    S(lipo)     H(rot)  DE(clash)    DE(int)     intcor
      8.10     -12.08       2.45        0.00      43.10       2.59       1.03       2.95       ----

> <Gold.Chemscore.Fitness>
8.0995

> <Gold.Chemscore.DG>
-12.0756

> <Gold.Chemscore.ZeroCoef>
-5.4800

> <Gold.Chemscore.Hbond>
2.4473

> <Gold.Chemscore.Metal>
0.0000

> <Gold.Chemscore.Lipo>
43.1021

> <Gold.Chemscore.Internal_Hbond>
0.0000

> <Gold.Chemscore.DEClash>
1.0294

> <Gold.Chemscore.DEInternal>
2.9468

> <Gold.Chemscore.Rot>
2.5864

> <Gold.Chemscore.Internal.Correction>
   9.000000E+99

> <Gold.Chemscore.Hbonds>
donor molecule, donor type, donor heavy atom, donor atom, acceptor molecule, acceptor atom, score
      L1  H     5    25       P1  7948  0.89
      L1  H    10    44       P1  7948  1.00
      P1  H 10752 10763       L1    13  0.18

> <Gold.Chemscore.Hbond.Weighted>
-8.1738

> <Gold.Chemscore.Metal.Weighted>
-0.0000

> <Gold.Chemscore.Lipo.Weighted>
-5.0430

> <Gold.Chemscore.Internal_Hbond.Weighted>
0.0000

> <Gold.Chemscore.DEClash.Weighted>
1.0294

> <Gold.Chemscore.DEInternal.Weighted>
2.9468

> <Gold.Chemscore.Rot.Weighted>
6.6211

> <Gold.Chemscore.Internal.Correction.Weighted>
   9.000000E+99

> <Gold.Protein.RotatedTorsions>
[ 6907 6896 6895 6894 ] final -110.52 input  -60.11 | X-H torsion
[ 7974 7965 7964 7962 ] final  -82.18 input  175.53 | X-H torsion
[ 8008 7997 7996 7995 ] final  -85.15 input   59.86 | X-H torsion
[ 10167 10162 10161 10158 ] final  162.65 input  -65.29 | X-H torsion
[ 10718 10713 10712 10709 ] final   -5.30 input   66.30 | X-H torsion
[ 10763 10752 10751 10750 ] final   73.49 input  -60.55 | X-H torsion
[ 11005 11000 10999 10996 ] final   32.96 input  -57.11 | X-H torsion

> <Gold.Protein.ActiveResidues>
 VAL166  LYS551  ARG553  GLY616  TRP617  ASP618  TYR619  PRO620  LYS621  CYS622 
 ASP623  PHE694  ASN695  SER759  ASP760  ASP761  ALA762  ILE779  LEU786  VAL792 
 PHE793  MET794  SER795  GLU796  ALA797  LYS798  CYS799  TRP800  GLU811  SER814 

> <Gold.Protein.RotatedAtoms>
  150.7630  133.9369  159.3443 H   0  0  0  0  0  0  0  0  0  0  0  0  # atno 6907 bound_to 6896
  151.7274  135.0880  160.0303 H   0  0  0  0  0  0  0  0  0  0  0  0  # atno 6908 bound_to 6896
  152.3612  133.6261  159.6052 H   0  0  0  0  0  0  0  0  0  0  0  0  # atno 6909 bound_to 6896
  145.5367  140.9515  143.1573 H   0  0  0  0  0  0  0  0  0  0  0  0  # atno 7974 bound_to 7965
  154.6376  140.0595  156.9807 H   0  0  0  0  0  0  0  0  0  0  0  0  # atno 8008 bound_to 7997
  155.1567  140.3279  155.4401 H   0  0  0  0  0  0  0  0  0  0  0  0  # atno 8009 bound_to 7997
  156.2515  140.1938  156.6677 H   0  0  0  0  0  0  0  0  0  0  0  0  # atno 8010 bound_to 7997
  139.4863  144.4417  151.8944 H   0  0  0  0  0  0  0  0  0  0  0  0  # atno 10167 bound_to 10162
  156.7486  130.5232  149.5809 H   0  0  0  0  0  0  0  0  0  0  0  0  # atno 10718 bound_to 10713
  153.0525  135.5061  154.7902 H   0  0  0  0  0  0  0  0  0  0  0  0  # atno 10763 bound_to 10752
  154.6753  135.2959  154.9689 H   0  0  0  0  0  0  0  0  0  0  0  0  # atno 10764 bound_to 10752
  154.0493  135.6706  153.4851 H   0  0  0  0  0  0  0  0  0  0  0  0  # atno 10765 bound_to 10752
  140.2680  134.3114  155.7836 H   0  0  0  0  0  0  0  0  0  0  0  0  # atno 11005 bound_to 11000
  144.7598  139.6986  143.7239 LP  0  0  0  0  0  0  0  0  0  0  0  0  # atno 17320 bound_to 7965
  146.2008  139.5301  142.9744 LP  0  0  0  0  0  0  0  0  0  0  0  0  # atno 17321 bound_to 7965
  140.3869  144.2665  150.5903 LP  0  0  0  0  0  0  0  0  0  0  0  0  # atno 17342 bound_to 10162
  140.5182  143.2272  151.8430 LP  0  0  0  0  0  0  0  0  0  0  0  0  # atno 17343 bound_to 10162
  156.1416  130.6249  151.0475 LP  0  0  0  0  0  0  0  0  0  0  0  0  # atno 17370 bound_to 10713
  157.6787  131.0844  150.7427 LP  0  0  0  0  0  0  0  0  0  0  0  0  # atno 17371 bound_to 10713
  141.2181  133.7450  156.9291 LP  0  0  0  0  0  0  0  0  0  0  0  0  # atno 17394 bound_to 11000
  140.1400  134.9300  157.2454 LP  0  0  0  0  0  0  0  0  0  0  0  0  # atno 17395 bound_to 11000

$$$$
