AV-unprocessed.smi:869|AV-procd|sdf|4003|dock4
  -GOLD-   22720 1483D 1   1.00000     0.00000
 Structure written by MMmdl.
 46 48  0  0  0  0  0  0  0  0  1 V2000
  153.6610  138.0964  158.8403 C   0  0  0  0  0  0  0  0  0  0  0  0
  153.3647  138.8603  157.6849 O   0  0  0  0  0  0  0  0  0  0  0  0
  152.1225  139.5400  157.7905 C   0  0  0  0  0  0  0  0  0  0  0  0
  152.2689  140.6492  158.7935 C   0  0  0  0  0  0  0  0  0  0  0  0
  152.8761  140.4919  159.9726 N   0  0  0  0  0  0  0  0  0  0  0  0
  152.7767  141.7468  160.5396 C   0  0  0  0  0  0  0  0  0  0  0  0
  153.2272  142.2290  161.7895 C   0  0  0  0  0  0  0  0  0  0  0  0
  153.0088  143.5732  162.1566 C   0  0  0  0  0  0  0  0  0  0  0  0
  152.3391  144.4525  161.2811 C   0  0  0  0  0  0  0  0  0  0  0  0
  151.8828  143.9923  160.0310 C   0  0  0  0  0  0  0  0  0  0  0  0
  152.1023  142.6493  159.6703 C   0  0  0  0  0  0  0  0  0  0  0  0
  151.7876  141.8940  158.5452 N   0  0  0  0  0  0  0  0  0  0  0  0
  151.0880  142.3763  157.3610 C   0  0  0  0  0  0  0  0  0  0  0  0
  149.5938  141.9952  157.3589 C   0  0  2  0  0  0  0  0  0  0  0  0
  149.0464  142.2705  156.0844 O   0  0  0  0  0  0  0  0  0  0  0  0
  148.7990  142.7852  158.4106 C   0  0  0  0  0  0  0  0  0  0  0  0
  147.4102  142.6085  158.1635 O   0  0  0  0  0  0  0  0  0  0  0  0
  146.5175  143.0090  159.1345 C   0  0  0  0  0  0  0  0  0  0  0  0
  146.9070  144.0867  159.9562 C   0  0  0  0  0  0  0  0  0  0  0  0
  146.0587  144.5615  160.9748 C   0  0  0  0  0  0  0  0  0  0  0  0
  144.8031  143.9590  161.1865 C   0  0  0  0  0  0  0  0  0  0  0  0
  143.8867  144.4658  162.2808 C   0  0  0  0  0  0  0  0  0  0  0  0
  144.4020  142.8835  160.3698 C   0  0  0  0  0  0  0  0  0  0  0  0
  145.2506  142.4100  159.3501 C   0  0  0  0  0  0  0  0  0  0  0  0
  154.6203  137.5948  158.7115 H   0  0  0  0  0  0  0  0  0  0  0  0
  152.9015  137.3326  159.0137 H   0  0  0  0  0  0  0  0  0  0  0  0
  153.7287  138.7307  159.7254 H   0  0  0  0  0  0  0  0  0  0  0  0
  151.8341  139.9616  156.8265 H   0  0  0  0  0  0  0  0  0  0  0  0
  151.3423  138.8511  158.1165 H   0  0  0  0  0  0  0  0  0  0  0  0
  153.7413  141.5629  162.4664 H   0  0  0  0  0  0  0  0  0  0  0  0
  153.3569  143.9312  163.1144 H   0  0  0  0  0  0  0  0  0  0  0  0
  152.1755  145.4803  161.5699 H   0  0  0  0  0  0  0  0  0  0  0  0
  151.3691  144.6627  159.3584 H   0  0  0  0  0  0  0  0  0  0  0  0
  151.1933  143.4613  157.3317 H   0  0  0  0  0  0  0  0  0  0  0  0
  151.5801  142.0031  156.4630 H   0  0  0  0  0  0  0  0  0  0  0  0
  149.4999  140.9270  157.5586 H   0  0  0  0  0  0  0  0  0  0  0  0
  149.3136  143.1397  155.8265 H   0  0  0  0  0  0  0  0  0  0  0  0
  149.0222  142.3909  159.4034 H   0  0  0  0  0  0  0  0  0  0  0  0
  149.0827  143.8391  158.3980 H   0  0  0  0  0  0  0  0  0  0  0  0
  147.8680  144.5557  159.8038 H   0  0  0  0  0  0  0  0  0  0  0  0
  146.3765  145.3888  161.5924 H   0  0  0  0  0  0  0  0  0  0  0  0
  143.1709  145.1788  161.8714 H   0  0  0  0  0  0  0  0  0  0  0  0
  144.4546  144.9623  163.0682 H   0  0  0  0  0  0  0  0  0  0  0  0
  143.3326  143.6425  162.7324 H   0  0  0  0  0  0  0  0  0  0  0  0
  143.4399  142.4169  160.5226 H   0  0  0  0  0  0  0  0  0  0  0  0
  144.9049  141.5844  158.7473 H   0  0  0  0  0  0  0  0  0  0  0  0
  1  2  1  0  0  0  0
  1 25  1  0  0  0  0
  1 26  1  0  0  0  0
  1 27  1  0  0  0  0
  2  3  1  0  0  0  0
  3  4  1  0  0  0  0
  3 28  1  0  0  0  0
  3 29  1  0  0  0  0
  4 12  1  0  0  0  0
  4  5  2  0  0  0  0
  5  6  1  0  0  0  0
  6 11  2  0  0  0  0
  6  7  1  0  0  0  0
  7  8  2  0  0  0  0
  7 30  1  0  0  0  0
  8  9  1  0  0  0  0
  8 31  1  0  0  0  0
  9 10  2  0  0  0  0
  9 32  1  0  0  0  0
 10 11  1  0  0  0  0
 10 33  1  0  0  0  0
 11 12  1  0  0  0  0
 12 13  1  0  0  0  0
 13 14  1  0  0  0  0
 13 34  1  0  0  0  0
 13 35  1  0  0  0  0
 14 15  1  0  0  0  0
 14 16  1  0  0  0  0
 14 36  1  0  0  0  0
 15 37  1  0  0  0  0
 16 17  1  0  0  0  0
 16 38  1  0  0  0  0
 16 39  1  0  0  0  0
 17 18  1  0  0  0  0
 18 24  1  0  0  0  0
 18 19  2  0  0  0  0
 19 20  1  0  0  0  0
 19 40  1  0  0  0  0
 20 21  2  0  0  0  0
 20 41  1  0  0  0  0
 21 22  1  0  0  0  0
 21 23  1  0  0  0  0
 22 42  1  0  0  0  0
 22 43  1  0  0  0  0
 22 44  1  0  0  0  0
 23 24  2  0  0  0  0
 23 45  1  0  0  0  0
 24 46  1  0  0  0  0
M  END
> <s_m_source_file>
AV-unprocessed.smi

> <i_m_source_file_index>
869

> <i_lp_mmshare_version>
43012

> <i_f3d_flags>
0

> <s_epik_input>
W2NIXTFbY0hdW2NIXVtjSF1jKGMxMiluKGMobjIpW0NIMl1PW0NIM10pW0NIMl1bQ0BIXShbT0hdKVtDSDJdT2MzW2NIXVtjSF1jKFtDSDNdKVtjSF1bY0hdMw==

> <s_epik_cmdline>
J2VwaWtfcHl0aG9uJywgJy1waCcsICc3LjAnLCAnLXRuJywgJzgnLCAnLW1hJywgJzIwMCcsICctbWV0YWxfYmluZGluZycsICctaW1hZScsICc8aW5maWxlLm1hZT4nLCAnLW9tYWUnLCAnPG91dGZpbGUubWFlPic=

> <r_lp_tautomer_probability>
1

> <r_epik_Ionization_Penalty>
0.0446698

> <r_epik_Ionization_Penalty_Charging>
0

> <r_epik_Ionization_Penalty_Neutral>
0.0446698

> <r_epik_State_Penalty>
0.0378721

> <r_epik_Charging_Adjusted_Penalty>
0.0378721

> <i_epik_Tot_Q>
0

> <i_epik_Tot_abs_Q>
0

> <r_epik_Metal_State_Penalty>
3.91074e-05

> <b_epik_Metal_Only>
0

> <s_lp_Force_Field>
OPLS_2005

> <r_lp_Energy>
18.3229

> <b_lp_Chiralities_Consistent>
1

> <s_lp_Variant>
AV-unprocessed.smi:869-1

> <Gold.Version>
5.8.1

> <Gold.Id.Protein>
6NUR|6NUR_protein|mol2

> <Gold.PLP.Fitness>
52.7805

> <Gold.PLP.PLP>
-48.7795

> <Gold.PLP.part.hbond>
-1.6602

> <Gold.PLP.part.metal>
0.0000

> <Gold.PLP.part.buried>
-7.8532

> <Gold.PLP.part.nonpolar>
-39.1684

> <Gold.PLP.part.repulsive>
0.1332

> <Gold.PLP.ligand.clash>
0.0000

> <Gold.PLP.ligand.torsion>
1.0560

> <Gold.PLP.Chemscore.Hbond>
2.0000

> <Gold.PLP.Chemscore.CHOScore>
0.0000

> <Gold.PLP.Chemscore.Metal>
0.0000

> <Gold.Chemscore.Hbonds>
donor molecule, donor type, donor heavy atom, donor atom, acceptor molecule, acceptor atom, score
      L1  H    15    37       P1  8028  0.93
      P1  H  7997  8008       L1     2  1.00

> <Gold.PLP.Chemscore.Internal.Correction>
0.1130

> <Gold.Rescore>
     Score         DG    S(hbond)    S(metal)    S(lipo)     H(rot)  DE(clash)    DE(int)     intcor
     17.50     -19.86       1.85        0.00     121.60       2.36       0.01       2.34       ----

> <Gold.Chemscore.Fitness>
17.5048

> <Gold.Chemscore.DG>
-19.8570

> <Gold.Chemscore.ZeroCoef>
-5.4800

> <Gold.Chemscore.Hbond>
1.8527

> <Gold.Chemscore.Metal>
0.0000

> <Gold.Chemscore.Lipo>
121.5979

> <Gold.Chemscore.Internal_Hbond>
0.0000

> <Gold.Chemscore.DEClash>
0.0135

> <Gold.Chemscore.DEInternal>
2.3386

> <Gold.Chemscore.Rot>
2.3585

> <Gold.Chemscore.Internal.Correction>
   9.000000E+99

> <Gold.Chemscore.Hbonds>
donor molecule, donor type, donor heavy atom, donor atom, acceptor molecule, acceptor atom, score
      L1  H    15    37       P1  8028  0.91
      P1  H  7997  8008       L1     2  0.38

> <Gold.Chemscore.Hbond.Weighted>
-6.1879

> <Gold.Chemscore.Metal.Weighted>
-0.0000

> <Gold.Chemscore.Lipo.Weighted>
-14.2270

> <Gold.Chemscore.Internal_Hbond.Weighted>
0.0000

> <Gold.Chemscore.DEClash.Weighted>
0.0135

> <Gold.Chemscore.DEInternal.Weighted>
2.3386

> <Gold.Chemscore.Rot.Weighted>
6.0378

> <Gold.Chemscore.Internal.Correction.Weighted>
   9.000000E+99

> <Gold.Protein.RotatedTorsions>
[ 6907 6896 6895 6894 ] final   -9.88 input  -60.11 | X-H torsion
[ 7974 7965 7964 7962 ] final  145.95 input  175.53 | X-H torsion
[ 8008 7997 7996 7995 ] final  -61.37 input   59.86 | X-H torsion
[ 10167 10162 10161 10158 ] final   42.43 input  -65.29 | X-H torsion
[ 10718 10713 10712 10709 ] final   28.11 input   66.30 | X-H torsion
[ 10763 10752 10751 10750 ] final  -41.90 input  -60.55 | X-H torsion
[ 11005 11000 10999 10996 ] final  -24.64 input  -57.11 | X-H torsion

> <Gold.Protein.ActiveResidues>
 VAL166  LYS551  ARG553  GLY616  TRP617  ASP618  TYR619  PRO620  LYS621  CYS622 
 ASP623  PHE694  ASN695  SER759  ASP760  ASP761  ALA762  ILE779  LEU786  VAL792 
 PHE793  MET794  SER795  GLU796  ALA797  LYS798  CYS799  TRP800  GLU811  SER814 

> <Gold.Protein.RotatedAtoms>
  151.4107  135.0984  159.9584 H   0  0  0  0  0  0  0  0  0  0  0  0  # atno 6907 bound_to 6896
  152.5021  133.8800  159.7352 H   0  0  0  0  0  0  0  0  0  0  0  0  # atno 6908 bound_to 6896
  150.9294  133.6728  159.2842 H   0  0  0  0  0  0  0  0  0  0  0  0  # atno 6909 bound_to 6896
  144.8710  139.5846  143.5887 H   0  0  0  0  0  0  0  0  0  0  0  0  # atno 7974 bound_to 7965
  154.4445  140.1019  156.6420 H   0  0  0  0  0  0  0  0  0  0  0  0  # atno 8008 bound_to 7997
  155.5491  140.3485  155.4445 H   0  0  0  0  0  0  0  0  0  0  0  0  # atno 8009 bound_to 7997
  156.0542  140.1311  157.0004 H   0  0  0  0  0  0  0  0  0  0  0  0  # atno 8010 bound_to 7997
  140.3545  144.2308  150.6143 H   0  0  0  0  0  0  0  0  0  0  0  0  # atno 10167 bound_to 10162
  157.2291  130.7015  149.6305 H   0  0  0  0  0  0  0  0  0  0  0  0  # atno 10718 bound_to 10713
  153.9701  135.6729  153.4747 H   0  0  0  0  0  0  0  0  0  0  0  0  # atno 10763 bound_to 10752
  153.0797  135.4930  154.8474 H   0  0  0  0  0  0  0  0  0  0  0  0  # atno 10764 bound_to 10752
  154.7224  135.3120  154.8987 H   0  0  0  0  0  0  0  0  0  0  0  0  # atno 10765 bound_to 10752
  140.8864  133.7618  156.0366 H   0  0  0  0  0  0  0  0  0  0  0  0  # atno 11005 bound_to 11000
  146.2930  139.7195  142.9147 LP  0  0  0  0  0  0  0  0  0  0  0  0  # atno 17320 bound_to 7965
  145.4130  141.0398  143.3006 LP  0  0  0  0  0  0  0  0  0  0  0  0  # atno 17321 bound_to 7965
  140.5187  143.2271  151.8423 LP  0  0  0  0  0  0  0  0  0  0  0  0  # atno 17342 bound_to 10162
  139.4822  144.4863  151.9243 LP  0  0  0  0  0  0  0  0  0  0  0  0  # atno 17343 bound_to 10162
  155.9676  130.4494  150.5659 LP  0  0  0  0  0  0  0  0  0  0  0  0  # atno 17370 bound_to 10713
  157.3496  131.0731  151.1723 LP  0  0  0  0  0  0  0  0  0  0  0  0  # atno 17371 bound_to 10713
  140.8399  134.3078  157.5317 LP  0  0  0  0  0  0  0  0  0  0  0  0  # atno 17394 bound_to 11000
  139.8725  134.9410  156.3786 LP  0  0  0  0  0  0  0  0  0  0  0  0  # atno 17395 bound_to 11000

$$$$
