AV-unprocessed.smi:155|AV-procd|sdf|1286|dock1
  -GOLD-   2262018563D 1   1.00000     0.00000
 Structure written by MMmdl.
 64 67  0  0  0  0  0  0  0  0  3 V2000
  144.0855  133.2923  148.7759 C   0  0  0  0  0  0  0  0  0  0  0  0
  145.5223  133.6202  148.9208 N   0  3  0  0  0  0  0  0  0  0  0  0
  146.3454  132.9129  147.9146 C   0  0  0  0  0  0  0  0  0  0  0  0
  146.0313  133.4196  150.3012 C   0  0  0  0  0  0  0  0  0  0  0  0
  147.1589  134.4077  150.6674 C   0  0  0  0  0  0  0  0  0  0  0  0
  146.8509  135.1999  151.8878 N   0  3  1  0  0  0  0  0  0  0  0  0
  145.7029  136.1286  151.7065 C   0  0  0  0  0  0  0  0  0  0  0  0
  146.0170  137.5019  152.3259 C   0  0  0  0  0  0  0  0  0  0  0  0
  146.0054  137.5129  153.8647 C   0  0  0  0  0  0  0  0  0  0  0  0
  146.8906  136.5056  154.4462 N   0  0  0  0  0  0  0  0  0  0  0  0
  148.2310  136.7251  154.6096 C   0  0  0  0  0  0  0  0  0  0  0  0
  149.0402  135.6358  154.7121 N   0  0  0  0  0  0  0  0  0  0  0  0
  150.3593  135.7646  154.8692 C   0  0  0  0  0  0  0  0  0  0  0  0
  151.0812  136.8809  154.9418 N   0  0  0  0  0  0  0  0  0  0  0  0
  150.2902  137.9853  154.8416 C   0  0  0  0  0  0  0  0  0  0  0  0
  148.8724  138.0036  154.6770 C   0  0  0  0  0  0  0  0  0  0  0  0
  148.4430  139.3265  154.6102 N   0  0  0  0  0  0  0  0  0  0  0  0
  149.5289  140.0382  154.7324 C   0  0  0  0  0  0  0  0  0  0  0  0
  150.6852  139.3108  154.8768 N   0  0  0  0  0  0  0  0  0  0  0  0
  152.0293  139.8428  155.0281 C   0  0  0  0  0  0  0  0  0  0  0  0
  152.6173  139.5754  156.4302 C   0  0  1  0  0  0  0  0  0  0  0  0
  153.9626  139.1657  156.2744 O   0  0  0  0  0  0  0  0  0  0  0  0
  152.6091  140.8212  157.3392 C   0  0  1  0  0  0  0  0  0  0  0  0
  151.2187  141.3401  157.7099 C   0  0  0  0  0  0  0  0  0  0  0  0
  151.4609  142.1097  158.9967 C   0  0  0  0  0  0  0  0  0  0  0  0
  152.7804  141.5383  159.5203 C   0  0  0  0  0  0  0  0  0  0  0  0
  153.1183  140.4891  158.6227 O   0  0  0  0  0  0  0  0  0  0  0  0
  146.3863  135.1295  154.4058 C   0  0  0  0  0  0  0  0  0  0  0  0
  146.7539  134.3604  153.1159 C   0  0  0  0  0  0  0  0  0  0  0  0
  143.8986  132.2416  149.0016 H   0  0  0  0  0  0  0  0  0  0  0  0
  143.7499  133.4844  147.7562 H   0  0  0  0  0  0  0  0  0  0  0  0
  143.4700  133.8999  149.4387 H   0  0  0  0  0  0  0  0  0  0  0  0
  146.3151  131.8339  148.0720 H   0  0  0  0  0  0  0  0  0  0  0  0
  147.3852  133.2373  147.9655 H   0  0  0  0  0  0  0  0  0  0  0  0
  145.9864  133.1213  146.9060 H   0  0  0  0  0  0  0  0  0  0  0  0
  145.2028  133.4802  151.0082 H   0  0  0  0  0  0  0  0  0  0  0  0
  146.4312  132.4066  150.3748 H   0  0  0  0  0  0  0  0  0  0  0  0
  148.0595  133.8201  150.8519 H   0  0  0  0  0  0  0  0  0  0  0  0
  147.3858  135.0801  149.8390 H   0  0  0  0  0  0  0  0  0  0  0  0
  145.5089  136.2897  150.6457 H   0  0  0  0  0  0  0  0  0  0  0  0
  144.7829  135.7042  152.1115 H   0  0  0  0  0  0  0  0  0  0  0  0
  146.9770  137.8572  151.9508 H   0  0  0  0  0  0  0  0  0  0  0  0
  145.2779  138.2234  151.9766 H   0  0  0  0  0  0  0  0  0  0  0  0
  146.2272  138.5039  154.2564 H   0  0  0  0  0  0  0  0  0  0  0  0
  144.9897  137.3102  154.2066 H   0  0  0  0  0  0  0  0  0  0  0  0
  150.9153  134.8418  154.9484 H   0  0  0  0  0  0  0  0  0  0  0  0
  149.5167  141.1186  154.7206 H   0  0  0  0  0  0  0  0  0  0  0  0
  152.6695  139.4117  154.2575 H   0  0  0  0  0  0  0  0  0  0  0  0
  151.9836  140.9135  154.8291 H   0  0  0  0  0  0  0  0  0  0  0  0
  152.0578  138.7697  156.9073 H   0  0  0  0  0  0  0  0  0  0  0  0
  154.0561  138.2965  156.6327 H   0  0  0  0  0  0  0  0  0  0  0  0
  153.1981  141.6310  156.9032 H   0  0  0  0  0  0  0  0  0  0  0  0
  150.7732  141.9568  156.9288 H   0  0  0  0  0  0  0  0  0  0  0  0
  150.5460  140.5040  157.9065 H   0  0  0  0  0  0  0  0  0  0  0  0
  151.5623  143.1780  158.8016 H   0  0  0  0  0  0  0  0  0  0  0  0
  150.6423  141.9723  159.7036 H   0  0  0  0  0  0  0  0  0  0  0  0
  153.5633  142.2977  159.5024 H   0  0  0  0  0  0  0  0  0  0  0  0
  152.6953  141.1602  160.5389 H   0  0  0  0  0  0  0  0  0  0  0  0
  146.7046  134.5709  155.2871 H   0  0  0  0  0  0  0  0  0  0  0  0
  145.2992  135.1681  154.4847 H   0  0  0  0  0  0  0  0  0  0  0  0
  146.0378  133.5520  152.9618 H   0  0  0  0  0  0  0  0  0  0  0  0
  147.7206  133.8856  153.2796 H   0  0  0  0  0  0  0  0  0  0  0  0
  145.6186  134.6045  148.7147 H   0  0  0  0  0  0  0  0  0  0  0  0
  147.6484  135.8046  152.0238 H   0  0  0  0  0  0  0  0  0  0  0  0
  1  2  1  0  0  0  0
  1 30  1  0  0  0  0
  1 31  1  0  0  0  0
  1 32  1  0  0  0  0
  2  3  1  0  0  0  0
  2  4  1  0  0  0  0
  2 63  1  0  0  0  0
  3 33  1  0  0  0  0
  3 34  1  0  0  0  0
  3 35  1  0  0  0  0
  4  5  1  0  0  0  0
  4 36  1  0  0  0  0
  4 37  1  0  0  0  0
  5  6  1  0  0  0  0
  5 38  1  0  0  0  0
  5 39  1  0  0  0  0
  6 29  1  0  0  0  0
  6  7  1  0  0  0  0
  6 64  1  0  0  0  0
  7  8  1  0  0  0  0
  7 40  1  0  0  0  0
  7 41  1  0  0  0  0
  8  9  1  0  0  0  0
  8 42  1  0  0  0  0
  8 43  1  0  0  0  0
  9 10  1  0  0  0  0
  9 44  1  0  0  0  0
  9 45  1  0  0  0  0
 10 11  1  0  0  0  0
 10 28  1  0  0  0  0
 11 16  1  0  0  0  0
 11 12  2  0  0  0  0
 12 13  1  0  0  0  0
 13 14  2  0  0  0  0
 13 46  1  0  0  0  0
 14 15  1  0  0  0  0
 15 19  1  0  0  0  0
 15 16  2  0  0  0  0
 16 17  1  0  0  0  0
 17 18  2  0  0  0  0
 18 19  1  0  0  0  0
 18 47  1  0  0  0  0
 19 20  1  0  0  0  0
 20 21  1  0  0  0  0
 20 48  1  0  0  0  0
 20 49  1  0  0  0  0
 21 22  1  0  0  0  0
 21 23  1  0  0  0  0
 21 50  1  0  0  0  0
 22 51  1  0  0  0  0
 23 27  1  0  0  0  0
 23 24  1  0  0  0  0
 23 52  1  0  0  0  0
 24 25  1  0  0  0  0
 24 53  1  0  0  0  0
 24 54  1  0  0  0  0
 25 26  1  0  0  0  0
 25 55  1  0  0  0  0
 25 56  1  0  0  0  0
 26 27  1  0  0  0  0
 26 57  1  0  0  0  0
 26 58  1  0  0  0  0
 28 29  1  0  0  0  0
 28 59  1  0  0  0  0
 28 60  1  0  0  0  0
 29 61  1  0  0  0  0
 29 62  1  0  0  0  0
M  CHG  1   2   1
M  CHG  1   6   1
M  END
> <s_m_source_file>
AV-unprocessed.smi

> <i_m_source_file_index>
155

> <i_lp_mmshare_version>
43012

> <i_f3d_flags>
0

> <s_epik_input>
W0NIM11OKFtDSDNdKVtDSDJdW0NIMl1OMVtDSDJdW0NIMl1bQ0gyXU4oW0NIMl1bQ0gyXTEpYyhuW2NIXW4yKWMoYzIzKW5bY0hdbjNbQ0gyXVtDQEhdKFtPSF0pW0NAQEhdNFtDSDJdW0NIMl1bQ0gyXU80

> <s_epik_cmdline>
J2VwaWtfcHl0aG9uJywgJy1waCcsICc3LjAnLCAnLXRuJywgJzgnLCAnLW1hJywgJzIwMCcsICctbWV0YWxfYmluZGluZycsICctaW1hZScsICc8aW5maWxlLm1hZT4nLCAnLW9tYWUnLCAnPG91dGZpbGUubWFlPic=

> <r_lp_tautomer_probability>
1

> <r_epik_Ionization_Penalty>
3.0333

> <r_epik_Ionization_Penalty_Charging>
3.03317

> <r_epik_Ionization_Penalty_Neutral>
0.000131872

> <r_epik_State_Penalty>
1.99939

> <r_epik_Charging_Adjusted_Penalty>
5.03256

> <i_epik_Tot_Q>
2

> <i_epik_Tot_abs_Q>
2

> <r_epik_Metal_State_Penalty>
2.00021

> <b_epik_Metal_Only>
0

> <s_lp_Force_Field>
OPLS_2005

> <r_lp_Energy>
62.6942

> <b_lp_Chiralities_Consistent>
1

> <s_lp_Variant>
AV-unprocessed.smi:155-20

> <Gold.Version>
5.8.1

> <Gold.Id.Protein>
6NUR|6NUR_protein|mol2

> <Gold.PLP.Fitness>
51.2326

> <Gold.PLP.PLP>
-41.7637

> <Gold.PLP.part.hbond>
-3.0000

> <Gold.PLP.part.metal>
0.0000

> <Gold.PLP.part.buried>
-3.7278

> <Gold.PLP.part.nonpolar>
-33.7511

> <Gold.PLP.part.repulsive>
0.4530

> <Gold.PLP.ligand.clash>
0.0000

> <Gold.PLP.ligand.torsion>
1.5238

> <Gold.PLP.Chemscore.Hbond>
4.0000

> <Gold.PLP.Chemscore.CHOScore>
0.0000

> <Gold.PLP.Chemscore.Metal>
0.0000

> <Gold.Chemscore.Hbonds>
donor molecule, donor type, donor heavy atom, donor atom, acceptor molecule, acceptor atom, score
      L1  H     2    63       P1  7921  0.05
      L1  H     6    64       P1  7948  1.14

> <Gold.PLP.Chemscore.Internal.Correction>
0.5164

> <Gold.Rescore>
     Score         DG    S(hbond)    S(metal)    S(lipo)     H(rot)  DE(clash)    DE(int)     intcor
     13.39     -16.46       1.90        0.00      99.69       2.75       0.45       2.61       ----

> <Gold.Chemscore.Fitness>
13.3931

> <Gold.Chemscore.DG>
-16.4557

> <Gold.Chemscore.ZeroCoef>
-5.4800

> <Gold.Chemscore.Hbond>
1.9013

> <Gold.Chemscore.Metal>
0.0000

> <Gold.Chemscore.Lipo>
99.6882

> <Gold.Chemscore.Internal_Hbond>
0.0000

> <Gold.Chemscore.DEClash>
0.4521

> <Gold.Chemscore.DEInternal>
2.6105

> <Gold.Chemscore.Rot>
2.7493

> <Gold.Chemscore.Internal.Correction>
   9.000000E+99

> <Gold.Chemscore.Hbonds>
donor molecule, donor type, donor heavy atom, donor atom, acceptor molecule, acceptor atom, score
      L1  H     2    63       P1  7921  0.05
      L1  H     6    64       P1  7948  0.55

> <Gold.Chemscore.Hbond.Weighted>
-6.3505

> <Gold.Chemscore.Metal.Weighted>
-0.0000

> <Gold.Chemscore.Lipo.Weighted>
-11.6635

> <Gold.Chemscore.Internal_Hbond.Weighted>
0.0000

> <Gold.Chemscore.DEClash.Weighted>
0.4521

> <Gold.Chemscore.DEInternal.Weighted>
2.6105

> <Gold.Chemscore.Rot.Weighted>
7.0383

> <Gold.Chemscore.Internal.Correction.Weighted>
   9.000000E+99

> <Gold.Protein.RotatedTorsions>
[ 6907 6896 6895 6894 ] final  -24.27 input  -60.11 | X-H torsion
[ 7974 7965 7964 7962 ] final  108.89 input  175.53 | X-H torsion
[ 8008 7997 7996 7995 ] final -177.03 input   59.86 | X-H torsion
[ 10167 10162 10161 10158 ] final  103.47 input  -65.29 | X-H torsion
[ 10718 10713 10712 10709 ] final   64.93 input   66.30 | X-H torsion
[ 10763 10752 10751 10750 ] final  -15.17 input  -60.55 | X-H torsion
[ 11005 11000 10999 10996 ] final  -14.20 input  -57.11 | X-H torsion

> <Gold.Protein.ActiveResidues>
 VAL166  LYS551  ARG553  GLY616  TRP617  ASP618  TYR619  PRO620  LYS621  CYS622 
 ASP623  PHE694  ASN695  SER759  ASP760  ASP761  ALA762  ILE779  LEU786  VAL792 
 PHE793  MET794  SER795  GLU796  ALA797  LYS798  CYS799  TRP800  GLU811  SER814 

> <Gold.Protein.RotatedAtoms>
  151.1919  135.0406  159.8835 H   0  0  0  0  0  0  0  0  0  0  0  0  # atno 6907 bound_to 6896
  152.5439  134.0947  159.8302 H   0  0  0  0  0  0  0  0  0  0  0  0  # atno 6908 bound_to 6896
  151.1076  133.5149  159.2639 H   0  0  0  0  0  0  0  0  0  0  0  0  # atno 6909 bound_to 6896
  145.2748  139.2653  143.3947 H   0  0  0  0  0  0  0  0  0  0  0  0  # atno 7974 bound_to 7965
  156.0020  140.1222  157.0538 H   0  0  0  0  0  0  0  0  0  0  0  0  # atno 8008 bound_to 7997
  154.4246  140.1105  156.5779 H   0  0  0  0  0  0  0  0  0  0  0  0  # atno 8009 bound_to 7997
  155.6199  140.3472  155.4651 H   0  0  0  0  0  0  0  0  0  0  0  0  # atno 8010 bound_to 7997
  139.7260  144.7047  151.0797 H   0  0  0  0  0  0  0  0  0  0  0  0  # atno 10167 bound_to 10162
  157.6072  130.9187  149.9910 H   0  0  0  0  0  0  0  0  0  0  0  0  # atno 10718 bound_to 10713
  153.5393  135.7013  153.5644 H   0  0  0  0  0  0  0  0  0  0  0  0  # atno 10763 bound_to 10752
  153.3617  135.3968  155.1723 H   0  0  0  0  0  0  0  0  0  0  0  0  # atno 10764 bound_to 10752
  154.8675  135.3790  154.4896 H   0  0  0  0  0  0  0  0  0  0  0  0  # atno 10765 bound_to 10752
  140.7839  133.8341  155.9317 H   0  0  0  0  0  0  0  0  0  0  0  0  # atno 11005 bound_to 11000
  146.3235  140.3201  142.8632 LP  0  0  0  0  0  0  0  0  0  0  0  0  # atno 17320 bound_to 7965
  144.9303  140.7968  143.5693 LP  0  0  0  0  0  0  0  0  0  0  0  0  # atno 17321 bound_to 7965
  140.7763  143.5105  150.9659 LP  0  0  0  0  0  0  0  0  0  0  0  0  # atno 17342 bound_to 10162
  139.8792  143.7093  152.3158 LP  0  0  0  0  0  0  0  0  0  0  0  0  # atno 17343 bound_to 10162
  156.1163  130.3647  149.9963 LP  0  0  0  0  0  0  0  0  0  0  0  0  # atno 17370 bound_to 10713
  156.8052  130.9305  151.3645 LP  0  0  0  0  0  0  0  0  0  0  0  0  # atno 17371 bound_to 10713
  140.9455  134.1846  157.4766 LP  0  0  0  0  0  0  0  0  0  0  0  0  # atno 17394 bound_to 11000
  139.8739  134.9889  156.5432 LP  0  0  0  0  0  0  0  0  0  0  0  0  # atno 17395 bound_to 11000

$$$$
