AV-unprocessed.smi:1239|AV-procd|sdf|5185|dock4
  -GOLD-   22720 4263D 1   1.00000     0.00000
 Structure written by MMmdl.
 48 49  0  0  0  0  0  0  0  0  2 V2000
  146.3921  142.4105  154.4319 C   0  0  0  0  0  0  0  0  0  0  0  0
  147.4032  141.2480  154.5592 C   0  0  2  0  0  0  0  0  0  0  0  0
  146.6394  140.0040  155.0791 C   0  0  0  0  0  0  0  0  0  0  0  0
  145.8889  139.3455  154.0122 N   0  0  0  0  0  0  0  0  0  0  0  0
  145.9847  138.0507  153.6804 C   0  0  0  0  0  0  0  0  0  0  0  0
  146.7240  137.2542  154.2577 O   0  0  0  0  0  0  0  0  0  0  0  0
  145.1860  137.7564  152.6395 N   0  0  0  0  0  0  0  0  0  0  0  0
  145.0029  136.5096  151.9791 C   0  0  0  0  0  0  0  0  0  0  0  0
  146.0574  135.5746  152.0411 C   0  0  0  0  0  0  0  0  0  0  0  0
  145.9300  134.3262  151.3979 C   0  0  0  0  0  0  0  0  0  0  0  0
  144.7449  134.0179  150.6859 C   0  0  0  0  0  0  0  0  0  0  0  0
  144.5402  132.7913  150.0178 N   0  0  0  0  0  0  0  0  0  0  0  0
  143.5267  132.6951  148.9731 C   0  0  0  0  0  0  0  0  0  0  0  0
  145.3250  131.6218  150.3917 C   0  0  0  0  0  0  0  0  0  0  0  0
  143.7638  134.9519  150.6453 N   0  3  0  0  0  0  0  0  0  0  0  0
  143.8438  136.1588  151.2462 C   0  0  0  0  0  0  0  0  0  0  0  0
  148.6058  141.5952  155.3482 N   0  0  0  0  0  0  0  0  0  0  0  0
  148.3551  141.5776  156.7927 C   0  0  0  0  0  0  0  0  0  0  0  0
  149.6106  141.9145  157.6158 C   0  0  0  0  0  0  0  0  0  0  0  0
  150.6554  141.0081  157.2879 O   0  0  0  0  0  0  0  0  0  0  0  0
  150.9804  141.0408  155.9045 C   0  0  0  0  0  0  0  0  0  0  0  0
  149.7331  140.7000  155.0710 C   0  0  0  0  0  0  0  0  0  0  0  0
  145.4749  142.0847  153.9407 H   0  0  0  0  0  0  0  0  0  0  0  0
  146.7823  143.2305  153.8300 H   0  0  0  0  0  0  0  0  0  0  0  0
  146.1169  142.8103  155.4084 H   0  0  0  0  0  0  0  0  0  0  0  0
  147.7271  141.0067  153.5455 H   0  0  0  0  0  0  0  0  0  0  0  0
  147.3531  139.3139  155.5324 H   0  0  0  0  0  0  0  0  0  0  0  0
  145.9538  140.2625  155.8854 H   0  0  0  0  0  0  0  0  0  0  0  0
  145.2602  139.9301  153.4807 H   0  0  0  0  0  0  0  0  0  0  0  0
  144.6773  138.5335  152.2439 H   0  0  0  0  0  0  0  0  0  0  0  0
  146.9625  135.8077  152.5830 H   0  0  0  0  0  0  0  0  0  0  0  0
  146.7473  133.6237  151.4631 H   0  0  0  0  0  0  0  0  0  0  0  0
  143.7582  133.3733  148.1510 H   0  0  0  0  0  0  0  0  0  0  0  0
  142.5430  132.9512  149.3681 H   0  0  0  0  0  0  0  0  0  0  0  0
  143.4699  131.6855  148.5658 H   0  0  0  0  0  0  0  0  0  0  0  0
  145.1413  131.3537  151.4326 H   0  0  0  0  0  0  0  0  0  0  0  0
  146.3899  131.8176  150.2635 H   0  0  0  0  0  0  0  0  0  0  0  0
  145.0699  130.7596  149.7753 H   0  0  0  0  0  0  0  0  0  0  0  0
  142.9787  136.7879  151.1035 H   0  0  0  0  0  0  0  0  0  0  0  0
  147.5885  142.3039  157.0573 H   0  0  0  0  0  0  0  0  0  0  0  0
  147.9791  140.5978  157.0911 H   0  0  0  0  0  0  0  0  0  0  0  0
  149.9336  142.9393  157.4258 H   0  0  0  0  0  0  0  0  0  0  0  0
  149.3962  141.8388  158.6818 H   0  0  0  0  0  0  0  0  0  0  0  0
  151.3677  142.0252  155.6367 H   0  0  0  0  0  0  0  0  0  0  0  0
  151.7748  140.3204  155.7090 H   0  0  0  0  0  0  0  0  0  0  0  0
  149.4409  139.6666  155.2647 H   0  0  0  0  0  0  0  0  0  0  0  0
  150.0168  140.7559  154.0210 H   0  0  0  0  0  0  0  0  0  0  0  0
  142.9127  134.7322  150.1278 H   0  0  0  0  0  0  0  0  0  0  0  0
  1  2  1  0  0  0  0
  1 23  1  0  0  0  0
  1 24  1  0  0  0  0
  1 25  1  0  0  0  0
  2  3  1  0  0  0  0
  2 17  1  0  0  0  0
  2 26  1  0  0  0  0
  3  4  1  0  0  0  0
  3 27  1  0  0  0  0
  3 28  1  0  0  0  0
  4  5  1  0  0  0  0
  4 29  1  0  0  0  0
  5  6  2  0  0  0  0
  5  7  1  0  0  0  0
  7  8  1  0  0  0  0
  7 30  1  0  0  0  0
  8 16  1  0  0  0  0
  8  9  2  0  0  0  0
  9 10  1  0  0  0  0
  9 31  1  0  0  0  0
 10 11  2  0  0  0  0
 10 32  1  0  0  0  0
 11 12  1  0  0  0  0
 11 15  1  0  0  0  0
 12 13  1  0  0  0  0
 12 14  1  0  0  0  0
 13 33  1  0  0  0  0
 13 34  1  0  0  0  0
 13 35  1  0  0  0  0
 14 36  1  0  0  0  0
 14 37  1  0  0  0  0
 14 38  1  0  0  0  0
 15 16  2  0  0  0  0
 15 48  1  0  0  0  0
 16 39  1  0  0  0  0
 17 22  1  0  0  0  0
 17 18  1  0  0  0  0
 18 19  1  0  0  0  0
 18 40  1  0  0  0  0
 18 41  1  0  0  0  0
 19 20  1  0  0  0  0
 19 42  1  0  0  0  0
 19 43  1  0  0  0  0
 20 21  1  0  0  0  0
 21 22  1  0  0  0  0
 21 44  1  0  0  0  0
 21 45  1  0  0  0  0
 22 46  1  0  0  0  0
 22 47  1  0  0  0  0
M  CHG  1  15   1
M  END
> <s_m_source_file>
AV-unprocessed.smi

> <i_m_source_file_index>
1239

> <i_lp_mmshare_version>
43012

> <i_f3d_flags>
0

> <s_epik_input>
W0NIMl0xW0NIMl1PW0NIMl1bQ0gyXU4xW0NASF0oW0NIM10pW0NIMl1bTkhdQyg9TylbTkhdYzJbY0hdW2NIXWMoTihbQ0gzXSlbQ0gzXSluW2NIXTI=

> <s_epik_cmdline>
J2VwaWtfcHl0aG9uJywgJy1waCcsICc3LjAnLCAnLXRuJywgJzgnLCAnLW1hJywgJzIwMCcsICctbWV0YWxfYmluZGluZycsICctaW1hZScsICc8aW5maWxlLm1hZT4nLCAnLW9tYWUnLCAnPG91dGZpbGUubWFlPic=

> <r_lp_tautomer_probability>
0.999994

> <r_epik_Ionization_Penalty>
0.528791

> <r_epik_Ionization_Penalty_Charging>
0.26278

> <r_epik_Ionization_Penalty_Neutral>
0.26601

> <r_epik_State_Penalty>
0.520375

> <r_epik_Charging_Adjusted_Penalty>
0.783156

> <i_epik_Tot_Q>
1

> <i_epik_Tot_abs_Q>
1

> <r_epik_Metal_State_Penalty>
0.806531

> <b_epik_Metal_Only>
0

> <s_lp_Force_Field>
OPLS_2005

> <r_lp_Energy>
44.5879

> <b_lp_Chiralities_Consistent>
1

> <s_lp_Variant>
AV-unprocessed.smi:1239-1

> <Gold.Version>
5.8.1

> <Gold.Id.Protein>
6NUR|6NUR_protein|mol2

> <Gold.PLP.Fitness>
43.3221

> <Gold.PLP.PLP>
-34.3486

> <Gold.PLP.part.hbond>
-3.6986

> <Gold.PLP.part.metal>
0.0000

> <Gold.PLP.part.buried>
0.8069

> <Gold.PLP.part.nonpolar>
-31.3120

> <Gold.PLP.part.repulsive>
0.4340

> <Gold.PLP.ligand.clash>
0.0000

> <Gold.PLP.ligand.torsion>
0.8399

> <Gold.PLP.Chemscore.Hbond>
3.5195

> <Gold.PLP.Chemscore.CHOScore>
0.0000

> <Gold.PLP.Chemscore.Metal>
0.0000

> <Gold.Chemscore.Hbonds>
donor molecule, donor type, donor heavy atom, donor atom, acceptor molecule, acceptor atom, score
      L1  H     4    29       P1 10175  1.00
      L1  H     7    30       P1 10175  0.65
      L1  H    15    48       P1 10186  2.00

> <Gold.PLP.Chemscore.Internal.Correction>
0.0948

> <Gold.Rescore>
     Score         DG    S(hbond)    S(metal)    S(lipo)     H(rot)  DE(clash)    DE(int)     intcor
     16.78     -20.49       2.53        0.00      88.03       1.46       1.69       2.02       ----

> <Gold.Chemscore.Fitness>
16.7838

> <Gold.Chemscore.DG>
-20.4939

> <Gold.Chemscore.ZeroCoef>
-5.4800

> <Gold.Chemscore.Hbond>
2.5309

> <Gold.Chemscore.Metal>
0.0000

> <Gold.Chemscore.Lipo>
88.0283

> <Gold.Chemscore.Internal_Hbond>
0.0000

> <Gold.Chemscore.DEClash>
1.6932

> <Gold.Chemscore.DEInternal>
2.0169

> <Gold.Chemscore.Rot>
1.4604

> <Gold.Chemscore.Internal.Correction>
   9.000000E+99

> <Gold.Chemscore.Hbonds>
donor molecule, donor type, donor heavy atom, donor atom, acceptor molecule, acceptor atom, score
      L1  H     4    29       P1 10175  0.98
      L1  H     7    30       P1 10175  0.62
      L1  H    15    48       P1 10186  0.53

> <Gold.Chemscore.Hbond.Weighted>
-8.4531

> <Gold.Chemscore.Metal.Weighted>
-0.0000

> <Gold.Chemscore.Lipo.Weighted>
-10.2993

> <Gold.Chemscore.Internal_Hbond.Weighted>
0.0000

> <Gold.Chemscore.DEClash.Weighted>
1.6932

> <Gold.Chemscore.DEInternal.Weighted>
2.0169

> <Gold.Chemscore.Rot.Weighted>
3.7385

> <Gold.Chemscore.Internal.Correction.Weighted>
   9.000000E+99

> <Gold.Protein.RotatedTorsions>
[ 6907 6896 6895 6894 ] final  154.74 input  -60.11 | X-H torsion
[ 7974 7965 7964 7962 ] final  -81.18 input  175.53 | X-H torsion
[ 8008 7997 7996 7995 ] final  -74.11 input   59.86 | X-H torsion
[ 10167 10162 10161 10158 ] final   13.39 input  -65.29 | X-H torsion
[ 10718 10713 10712 10709 ] final   77.84 input   66.30 | X-H torsion
[ 10763 10752 10751 10750 ] final -166.82 input  -60.55 | X-H torsion
[ 11005 11000 10999 10996 ] final  -66.02 input  -57.11 | X-H torsion

> <Gold.Protein.ActiveResidues>
 VAL166  LYS551  ARG553  GLY616  TRP617  ASP618  TYR619  PRO620  LYS621  CYS622 
 ASP623  PHE694  ASN695  SER759  ASP760  ASP761  ALA762  ILE779  LEU786  VAL792 
 PHE793  MET794  SER795  GLU796  ALA797  LYS798  CYS799  TRP800  GLU811  SER814 

> <Gold.Protein.RotatedAtoms>
  152.0541  133.4032  159.4389 H   0  0  0  0  0  0  0  0  0  0  0  0  # atno 6907 bound_to 6896
  150.6869  134.3274  159.4822 H   0  0  0  0  0  0  0  0  0  0  0  0  # atno 6908 bound_to 6896
  152.1088  134.9289  160.0618 H   0  0  0  0  0  0  0  0  0  0  0  0  # atno 6909 bound_to 6896
  145.5500  140.9498  143.1504 H   0  0  0  0  0  0  0  0  0  0  0  0  # atno 7974 bound_to 7965
  154.5303  140.0767  156.8333 H   0  0  0  0  0  0  0  0  0  0  0  0  # atno 8008 bound_to 7997
  155.3388  140.3406  155.4221 H   0  0  0  0  0  0  0  0  0  0  0  0  # atno 8009 bound_to 7997
  156.1775  140.1640  156.8323 H   0  0  0  0  0  0  0  0  0  0  0  0  # atno 8010 bound_to 7997
  140.6006  143.8613  150.6961 H   0  0  0  0  0  0  0  0  0  0  0  0  # atno 10167 bound_to 10162
  157.6724  130.9840  150.1700 H   0  0  0  0  0  0  0  0  0  0  0  0  # atno 10718 bound_to 10713
  154.6794  135.2952  154.9634 H   0  0  0  0  0  0  0  0  0  0  0  0  # atno 10763 bound_to 10752
  154.0634  135.6628  153.4818 H   0  0  0  0  0  0  0  0  0  0  0  0  # atno 10764 bound_to 10752
  153.0537  135.5157  154.7830 H   0  0  0  0  0  0  0  0  0  0  0  0  # atno 10765 bound_to 10752
  141.1471  133.6692  156.6076 H   0  0  0  0  0  0  0  0  0  0  0  0  # atno 11005 bound_to 11000
  144.7534  139.7136  143.7264 LP  0  0  0  0  0  0  0  0  0  0  0  0  # atno 17320 bound_to 7965
  146.1923  139.5170  142.9797 LP  0  0  0  0  0  0  0  0  0  0  0  0  # atno 17321 bound_to 7965
  140.2158  143.3848  152.1682 LP  0  0  0  0  0  0  0  0  0  0  0  0  # atno 17342 bound_to 10162
  139.5288  144.7135  151.5131 LP  0  0  0  0  0  0  0  0  0  0  0  0  # atno 17343 bound_to 10162
  156.2456  130.3695  149.8288 LP  0  0  0  0  0  0  0  0  0  0  0  0  # atno 17370 bound_to 10713
  156.6076  130.8573  151.3447 LP  0  0  0  0  0  0  0  0  0  0  0  0  # atno 17371 bound_to 10713
  140.3640  134.7663  157.4553 LP  0  0  0  0  0  0  0  0  0  0  0  0  # atno 17394 bound_to 11000
  140.0763  134.5793  155.8588 LP  0  0  0  0  0  0  0  0  0  0  0  0  # atno 17395 bound_to 11000

$$$$
