AV-unprocessed.smi:21|AV-procd|sdf|152|dock10
  -GOLD-   2262015373D 1   1.00000     0.00000
 Structure written by MMmdl.
 62 65  0  0  0  0  0  0  0  0  2 V2000
  144.0348  132.5419  149.4973 C   0  0  0  0  0  0  0  0  0  0  0  0
  144.9635  133.2405  150.3105 O   0  0  0  0  0  0  0  0  0  0  0  0
  145.3941  132.4987  151.4418 C   0  0  2  0  0  0  0  0  0  0  0  0
  146.5732  133.1872  152.1145 C   0  0  0  0  0  0  0  0  0  0  0  0
  147.2395  132.0491  152.8937 C   0  0  2  0  0  0  0  0  0  0  0  0
  148.7254  132.2984  153.2202 C   0  0  0  0  0  0  0  0  0  0  0  0
  148.9184  132.8759  154.5527 N   0  0  0  0  0  0  0  0  0  0  0  0
  149.2052  131.9647  155.6538 C   0  0  0  0  0  0  0  0  0  0  0  0
  148.5599  134.1679  154.8089 C   0  0  0  0  0  0  0  0  0  0  0  0
  147.3488  134.5981  154.3637 N   0  0  0  0  0  0  0  0  0  0  0  0
  146.9405  135.8507  154.5810 C   0  0  0  0  0  0  0  0  0  0  0  0
  147.5762  136.8342  155.2160 N   0  0  0  0  0  0  0  0  0  0  0  0
  148.7922  136.4204  155.6703 C   0  0  0  0  0  0  0  0  0  0  0  0
  149.3592  135.1208  155.5153 C   0  0  0  0  0  0  0  0  0  0  0  0
  150.6087  135.0915  156.1287 N   0  0  0  0  0  0  0  0  0  0  0  0
  150.7715  136.2943  156.6058 C   0  0  0  0  0  0  0  0  0  0  0  0
  149.7303  137.1599  156.3679 N   0  0  0  0  0  0  0  0  0  0  0  0
  149.6430  138.5510  156.7776 C   0  0  0  0  0  0  0  0  0  0  0  0
  150.7242  139.4545  156.1328 C   0  0  1  0  0  0  0  0  0  0  0  0
  150.6808  139.3274  154.5917 C   0  0  0  0  0  0  0  0  0  0  0  0
  149.5025  139.9109  154.0762 O   0  0  0  0  0  0  0  0  0  0  0  0
  150.6527  140.9239  156.6356 C   0  0  1  0  0  0  0  0  0  0  0  0
  149.2795  141.5922  156.5526 C   0  0  0  0  0  0  0  0  0  0  0  0
  149.1123  142.2770  157.9105 C   0  0  0  0  0  0  0  0  0  0  0  0
  150.4305  142.3675  158.4273 O   0  0  0  0  0  0  0  0  0  0  0  0
  151.0831  141.1560  158.0882 C   0  0  0  0  0  0  0  0  0  0  0  0
  147.0650  130.8509  152.0387 N   0  3  1  0  0  0  0  0  0  0  0  0
  146.9028  129.5881  152.7918 C   0  0  0  0  0  0  0  0  0  0  0  0
  145.9655  131.1213  151.0814 C   0  0  0  0  0  0  0  0  0  0  0  0
  144.5874  132.3934  152.1699 H   0  0  0  0  0  0  0  0  0  0  0  0
  146.6772  131.8964  153.8171 H   0  0  0  0  0  0  0  0  0  0  0  0
  143.7401  133.1715  148.6576 H   0  0  0  0  0  0  0  0  0  0  0  0
  143.1343  132.2877  150.0577 H   0  0  0  0  0  0  0  0  0  0  0  0
  144.4654  131.6259  149.0918 H   0  0  0  0  0  0  0  0  0  0  0  0
  147.2546  133.5746  151.3553 H   0  0  0  0  0  0  0  0  0  0  0  0
  146.2704  134.0197  152.7506 H   0  0  0  0  0  0  0  0  0  0  0  0
  149.2606  131.3487  153.1973 H   0  0  0  0  0  0  0  0  0  0  0  0
  149.1912  132.8989  152.4388 H   0  0  0  0  0  0  0  0  0  0  0  0
  148.2949  131.7256  156.2043 H   0  0  0  0  0  0  0  0  0  0  0  0
  149.9307  132.4017  156.3407 H   0  0  0  0  0  0  0  0  0  0  0  0
  149.6260  131.0287  155.2855 H   0  0  0  0  0  0  0  0  0  0  0  0
  145.9655  136.1006  154.1889 H   0  0  0  0  0  0  0  0  0  0  0  0
  151.6639  136.5857  157.1407 H   0  0  0  0  0  0  0  0  0  0  0  0
  148.6448  138.9086  156.5232 H   0  0  0  0  0  0  0  0  0  0  0  0
  149.7169  138.5952  157.8651 H   0  0  0  0  0  0  0  0  0  0  0  0
  151.6951  139.0764  156.4571 H   0  0  0  0  0  0  0  0  0  0  0  0
  151.5406  139.8147  154.1315 H   0  0  0  0  0  0  0  0  0  0  0  0
  150.6980  138.2870  154.2713 H   0  0  0  0  0  0  0  0  0  0  0  0
  149.5317  139.8653  153.1327 H   0  0  0  0  0  0  0  0  0  0  0  0
  151.3034  141.5385  156.0128 H   0  0  0  0  0  0  0  0  0  0  0  0
  149.2750  142.3303  155.7495 H   0  0  0  0  0  0  0  0  0  0  0  0
  148.4603  140.9020  156.3547 H   0  0  0  0  0  0  0  0  0  0  0  0
  148.6441  143.2584  157.8323 H   0  0  0  0  0  0  0  0  0  0  0  0
  148.5071  141.6619  158.5783 H   0  0  0  0  0  0  0  0  0  0  0  0
  150.7330  140.3696  158.7567 H   0  0  0  0  0  0  0  0  0  0  0  0
  152.1644  141.2401  158.1970 H   0  0  0  0  0  0  0  0  0  0  0  0
  145.9958  129.6052  153.3976 H   0  0  0  0  0  0  0  0  0  0  0  0
  147.7534  129.4215  153.4531 H   0  0  0  0  0  0  0  0  0  0  0  0
  146.8412  128.7419  152.1068 H   0  0  0  0  0  0  0  0  0  0  0  0
  145.1922  130.3516  151.0905 H   0  0  0  0  0  0  0  0  0  0  0  0
  146.3978  131.1398  150.0802 H   0  0  0  0  0  0  0  0  0  0  0  0
  147.9048  130.7643  151.4839 H   0  0  0  0  0  0  0  0  0  0  0  0
  1  2  1  0  0  0  0
  1 32  1  0  0  0  0
  1 33  1  0  0  0  0
  1 34  1  0  0  0  0
  2  3  1  0  0  0  0
  3 30  1  0  0  0  0
  3 29  1  0  0  0  0
  3  4  1  0  0  0  0
  4  5  1  0  0  0  0
  4 35  1  0  0  0  0
  4 36  1  0  0  0  0
  5 31  1  0  0  0  0
  5  6  1  0  0  0  0
  5 27  1  0  0  0  0
  6  7  1  0  0  0  0
  6 37  1  0  0  0  0
  6 38  1  0  0  0  0
  7  8  1  0  0  0  0
  7  9  1  0  0  0  0
  8 39  1  0  0  0  0
  8 40  1  0  0  0  0
  8 41  1  0  0  0  0
  9 14  1  0  0  0  0
  9 10  2  0  0  0  0
 10 11  1  0  0  0  0
 11 12  2  0  0  0  0
 11 42  1  0  0  0  0
 12 13  1  0  0  0  0
 13 17  1  0  0  0  0
 13 14  2  0  0  0  0
 14 15  1  0  0  0  0
 15 16  2  0  0  0  0
 16 17  1  0  0  0  0
 16 43  1  0  0  0  0
 17 18  1  0  0  0  0
 18 19  1  0  0  0  0
 18 44  1  0  0  0  0
 18 45  1  0  0  0  0
 19 20  1  0  0  0  0
 19 22  1  0  0  0  0
 19 46  1  0  0  0  0
 20 21  1  0  0  0  0
 20 47  1  0  0  0  0
 20 48  1  0  0  0  0
 21 49  1  0  0  0  0
 22 26  1  0  0  0  0
 22 23  1  0  0  0  0
 22 50  1  0  0  0  0
 23 24  1  0  0  0  0
 23 51  1  0  0  0  0
 23 52  1  0  0  0  0
 24 25  1  0  0  0  0
 24 53  1  0  0  0  0
 24 54  1  0  0  0  0
 25 26  1  0  0  0  0
 26 55  1  0  0  0  0
 26 56  1  0  0  0  0
 27 28  1  0  0  0  0
 27 29  1  0  0  0  0
 27 62  1  0  0  0  0
 28 57  1  0  0  0  0
 28 58  1  0  0  0  0
 28 59  1  0  0  0  0
 29 60  1  0  0  0  0
 29 61  1  0  0  0  0
M  CHG  1  27   1
M  END
> <s_m_source_file>
AV-unprocessed.smi

> <i_m_source_file_index>
21

> <i_lp_mmshare_version>
43012

> <i_f3d_flags>
0

> <s_epik_input>
W0NIM11PW0NASF0xW0NIMl1bQ0BIXShOKFtDSDNdKVtDSDJdMSlbQ0gyXU4oW0NIM10pYyhuW2NIXW4yKWMoYzIzKW5bY0hdbjNbQ0gyXVtDQEhdKFtDSDJdW09IXSlbQ0BASF00W0NIMl1bQ0gyXU9bQ0gyXTQ=

> <s_epik_cmdline>
J2VwaWtfcHl0aG9uJywgJy1waCcsICc3LjAnLCAnLXRuJywgJzgnLCAnLW1hJywgJzIwMCcsICctbWV0YWxfYmluZGluZycsICctaW1hZScsICc8aW5maWxlLm1hZT4nLCAnLW9tYWUnLCAnPG91dGZpbGUubWFlPic=

> <r_lp_tautomer_probability>
1

> <r_epik_Ionization_Penalty>
0.0157465

> <r_epik_Ionization_Penalty_Charging>
0.015354

> <r_epik_Ionization_Penalty_Neutral>
0.000392529

> <r_epik_State_Penalty>
0.0120612

> <r_epik_Charging_Adjusted_Penalty>
0.0274152

> <i_epik_Tot_Q>
1

> <i_epik_Tot_abs_Q>
1

> <r_epik_Metal_State_Penalty>
0.0121253

> <b_epik_Metal_Only>
0

> <s_lp_Force_Field>
OPLS_2005

> <r_lp_Energy>
58.5761

> <b_lp_Chiralities_Consistent>
1

> <s_lp_Variant>
AV-unprocessed.smi:21-32

> <Gold.Version>
5.8.1

> <Gold.Id.Protein>
6NUR|6NUR_protein|mol2

> <Gold.PLP.Fitness>
45.7442

> <Gold.PLP.PLP>
-42.9598

> <Gold.PLP.part.hbond>
-3.1655

> <Gold.PLP.part.metal>
0.0000

> <Gold.PLP.part.buried>
-3.6363

> <Gold.PLP.part.nonpolar>
-35.3374

> <Gold.PLP.part.repulsive>
0.4025

> <Gold.PLP.ligand.clash>
0.0000

> <Gold.PLP.ligand.torsion>
1.8728

> <Gold.PLP.Chemscore.Hbond>
2.0000

> <Gold.PLP.Chemscore.CHOScore>
0.0000

> <Gold.PLP.Chemscore.Metal>
0.0000

> <Gold.Chemscore.Hbonds>
donor molecule, donor type, donor heavy atom, donor atom, acceptor molecule, acceptor atom, score
      L1  H    21    49       P1  7957  1.00
      L1  H    27    62       P1 10747  1.00

> <Gold.PLP.Chemscore.Internal.Correction>
0.5301

> <Gold.Rescore>
     Score         DG    S(hbond)    S(metal)    S(lipo)     H(rot)  DE(clash)    DE(int)     intcor
     12.77     -16.55       1.99        0.00     105.04       3.08       0.39       3.40       ----

> <Gold.Chemscore.Fitness>
12.7663

> <Gold.Chemscore.DG>
-16.5486

> <Gold.Chemscore.ZeroCoef>
-5.4800

> <Gold.Chemscore.Hbond>
1.9921

> <Gold.Chemscore.Metal>
0.0000

> <Gold.Chemscore.Lipo>
105.0354

> <Gold.Chemscore.Internal_Hbond>
0.0000

> <Gold.Chemscore.DEClash>
0.3861

> <Gold.Chemscore.DEInternal>
3.3962

> <Gold.Chemscore.Rot>
3.0758

> <Gold.Chemscore.Internal.Correction>
   9.000000E+99

> <Gold.Chemscore.Hbonds>
donor molecule, donor type, donor heavy atom, donor atom, acceptor molecule, acceptor atom, score
      L1  H    21    49       P1  7957  0.97
      L1  H    27    62       P1 10747  0.99

> <Gold.Chemscore.Hbond.Weighted>
-6.6536

> <Gold.Chemscore.Metal.Weighted>
-0.0000

> <Gold.Chemscore.Lipo.Weighted>
-12.2891

> <Gold.Chemscore.Internal_Hbond.Weighted>
0.0000

> <Gold.Chemscore.DEClash.Weighted>
0.3861

> <Gold.Chemscore.DEInternal.Weighted>
3.3962

> <Gold.Chemscore.Rot.Weighted>
7.8741

> <Gold.Chemscore.Internal.Correction.Weighted>
   9.000000E+99

> <Gold.Protein.RotatedTorsions>
[ 6907 6896 6895 6894 ] final  -95.25 input  -60.11 | X-H torsion
[ 7974 7965 7964 7962 ] final  152.76 input  175.53 | X-H torsion
[ 8008 7997 7996 7995 ] final -161.72 input   59.86 | X-H torsion
[ 10167 10162 10161 10158 ] final  -14.26 input  -65.29 | X-H torsion
[ 10718 10713 10712 10709 ] final  -83.02 input   66.30 | X-H torsion
[ 10763 10752 10751 10750 ] final  -57.86 input  -60.55 | X-H torsion
[ 11005 11000 10999 10996 ] final  107.63 input  -57.11 | X-H torsion

> <Gold.Protein.ActiveResidues>
 VAL166  LYS551  ARG553  GLY616  TRP617  ASP618  TYR619  PRO620  LYS621  CYS622 
 ASP623  PHE694  ASN695  SER759  ASP760  ASP761  ALA762  ILE779  LEU786  VAL792 
 PHE793  MET794  SER795  GLU796  ALA797  LYS798  CYS799  TRP800  GLU811  SER814 

> <Gold.Protein.RotatedAtoms>
  150.6959  134.1687  159.4203 H   0  0  0  0  0  0  0  0  0  0  0  0  # atno 6907 bound_to 6896
  151.9665  135.0095  160.0560 H   0  0  0  0  0  0  0  0  0  0  0  0  # atno 6908 bound_to 6896
  152.1880  133.4718  159.5029 H   0  0  0  0  0  0  0  0  0  0  0  0  # atno 6909 bound_to 6896
  144.8200  139.6711  143.6104 H   0  0  0  0  0  0  0  0  0  0  0  0  # atno 7974 bound_to 7965
  155.7963  140.0885  157.1981 H   0  0  0  0  0  0  0  0  0  0  0  0  # atno 8008 bound_to 7997
  154.3983  140.1480  156.3280 H   0  0  0  0  0  0  0  0  0  0  0  0  # atno 8009 bound_to 7997
  155.8508  140.3434  155.5694 H   0  0  0  0  0  0  0  0  0  0  0  0  # atno 8010 bound_to 7997
  140.7198  143.5340  150.9487 H   0  0  0  0  0  0  0  0  0  0  0  0  # atno 10167 bound_to 10162
  156.0024  130.4652  150.4193 H   0  0  0  0  0  0  0  0  0  0  0  0  # atno 10718 bound_to 10713
  154.2291  135.6364  153.5169 H   0  0  0  0  0  0  0  0  0  0  0  0  # atno 10763 bound_to 10752
  152.9952  135.5515  154.6032 H   0  0  0  0  0  0  0  0  0  0  0  0  # atno 10764 bound_to 10752
  154.5510  135.2901  155.0982 H   0  0  0  0  0  0  0  0  0  0  0  0  # atno 10765 bound_to 10752
  139.8831  134.9406  156.5848 H   0  0  0  0  0  0  0  0  0  0  0  0  # atno 11005 bound_to 11000
  146.2505  139.6190  142.9430 LP  0  0  0  0  0  0  0  0  0  0  0  0  # atno 17320 bound_to 7965
  145.5126  141.0435  143.2479 LP  0  0  0  0  0  0  0  0  0  0  0  0  # atno 17321 bound_to 7965
  139.9061  143.6777  152.3123 LP  0  0  0  0  0  0  0  0  0  0  0  0  # atno 17342 bound_to 10162
  139.7144  144.7614  151.1059 LP  0  0  0  0  0  0  0  0  0  0  0  0  # atno 17343 bound_to 10162
  157.2251  131.0491  151.2524 LP  0  0  0  0  0  0  0  0  0  0  0  0  # atno 17370 bound_to 10713
  157.3764  130.7208  149.6600 LP  0  0  0  0  0  0  0  0  0  0  0  0  # atno 17371 bound_to 10713
  140.8000  133.8513  155.8718 LP  0  0  0  0  0  0  0  0  0  0  0  0  # atno 17394 bound_to 11000
  140.9601  134.1666  157.4660 LP  0  0  0  0  0  0  0  0  0  0  0  0  # atno 17395 bound_to 11000

$$$$
