AV-unprocessed.smi:1702|AV-procd|sdf|6846|dock3
  -GOLD-   22720 8 23D 1   1.00000     0.00000
 Structure written by MMmdl.
 44 46  0  0  0  0  0  0  0  0  2 V2000
  144.2120  144.8382  156.8894 C   0  0  0  0  0  0  0  0  0  0  0  0
  144.9065  143.7548  156.0528 C   0  0  2  0  0  0  0  0  0  0  0  0
  146.1236  143.1643  156.7837 C   0  0  0  0  0  0  0  0  0  0  0  0
  146.8313  142.1035  155.9240 C   0  0  0  0  0  0  0  0  0  0  0  0
  147.2396  142.6615  154.6090 N   0  3  1  0  0  0  0  0  0  0  0  0
  148.0426  141.6960  153.8157 C   0  0  0  0  0  0  0  0  0  0  0  0
  149.2050  141.0714  154.6214 C   0  0  1  0  0  0  0  0  0  0  0  0
  149.9618  140.2351  153.7693 O   0  0  0  0  0  0  0  0  0  0  0  0
  150.1690  142.1196  155.2111 C   0  0  0  0  0  0  0  0  0  0  0  0
  151.0099  141.5750  156.2617 N   0  0  0  0  0  0  0  0  0  0  0  0
  151.6083  140.3683  156.2733 C   0  0  0  0  0  0  0  0  0  0  0  0
  152.3348  140.0592  157.3434 N   0  0  0  0  0  0  0  0  0  0  0  0
  152.1993  141.2009  158.1140 C   0  0  0  0  0  0  0  0  0  0  0  0
  152.7294  141.5181  159.3848 C   0  0  0  0  0  0  0  0  0  0  0  0
  152.4464  142.7615  159.9876 C   0  0  0  0  0  0  0  0  0  0  0  0
  152.9606  143.0485  161.2069 F   0  0  0  0  0  0  0  0  0  0  0  0
  151.6303  143.7053  159.3289 C   0  0  0  0  0  0  0  0  0  0  0  0
  151.3605  144.8953  159.9155 F   0  0  0  0  0  0  0  0  0  0  0  0
  151.0921  143.4122  158.0613 C   0  0  0  0  0  0  0  0  0  0  0  0
  151.3769  142.1703  157.4643 C   0  0  0  0  0  0  0  0  0  0  0  0
  146.0725  143.2062  153.8649 C   0  0  0  0  0  0  0  0  0  0  0  0
  145.3510  144.2909  154.6818 C   0  0  0  0  0  0  0  0  0  0  0  0
  144.8837  145.6720  157.0960 H   0  0  0  0  0  0  0  0  0  0  0  0
  143.8734  144.4386  157.8459 H   0  0  0  0  0  0  0  0  0  0  0  0
  143.3388  145.2350  156.3708 H   0  0  0  0  0  0  0  0  0  0  0  0
  144.1866  142.9518  155.8871 H   0  0  0  0  0  0  0  0  0  0  0  0
  146.8281  143.9592  157.0336 H   0  0  0  0  0  0  0  0  0  0  0  0
  145.8118  142.7202  157.7298 H   0  0  0  0  0  0  0  0  0  0  0  0
  147.7092  141.7406  156.4598 H   0  0  0  0  0  0  0  0  0  0  0  0
  146.1763  141.2445  155.7690 H   0  0  0  0  0  0  0  0  0  0  0  0
  147.4033  140.8880  153.4565 H   0  0  0  0  0  0  0  0  0  0  0  0
  148.4100  142.2066  152.9250 H   0  0  0  0  0  0  0  0  0  0  0  0
  148.8245  140.4609  155.4394 H   0  0  0  0  0  0  0  0  0  0  0  0
  149.6284  140.3089  152.8882 H   0  0  0  0  0  0  0  0  0  0  0  0
  150.8193  142.5169  154.4300 H   0  0  0  0  0  0  0  0  0  0  0  0
  149.6139  142.9683  155.6128 H   0  0  0  0  0  0  0  0  0  0  0  0
  151.4998  139.6755  155.4515 H   0  0  0  0  0  0  0  0  0  0  0  0
  153.3549  140.8032  159.8986 H   0  0  0  0  0  0  0  0  0  0  0  0
  150.4673  144.1339  157.5566 H   0  0  0  0  0  0  0  0  0  0  0  0
  146.3904  143.6354  152.9158 H   0  0  0  0  0  0  0  0  0  0  0  0
  145.3807  142.3965  153.6267 H   0  0  0  0  0  0  0  0  0  0  0  0
  144.4861  144.6535  154.1251 H   0  0  0  0  0  0  0  0  0  0  0  0
  146.0137  145.1475  154.8147 H   0  0  0  0  0  0  0  0  0  0  0  0
  147.8503  143.4391  154.8149 H   0  0  0  0  0  0  0  0  0  0  0  0
  1  2  1  0  0  0  0
  1 23  1  0  0  0  0
  1 24  1  0  0  0  0
  1 25  1  0  0  0  0
  2 22  1  0  0  0  0
  2  3  1  0  0  0  0
  2 26  1  0  0  0  0
  3  4  1  0  0  0  0
  3 27  1  0  0  0  0
  3 28  1  0  0  0  0
  4  5  1  0  0  0  0
  4 29  1  0  0  0  0
  4 30  1  0  0  0  0
  5  6  1  0  0  0  0
  5 21  1  0  0  0  0
  5 44  1  0  0  0  0
  6  7  1  0  0  0  0
  6 31  1  0  0  0  0
  6 32  1  0  0  0  0
  7  8  1  0  0  0  0
  7  9  1  0  0  0  0
  7 33  1  0  0  0  0
  8 34  1  0  0  0  0
  9 10  1  0  0  0  0
  9 35  1  0  0  0  0
  9 36  1  0  0  0  0
 10 20  1  0  0  0  0
 10 11  1  0  0  0  0
 11 12  2  0  0  0  0
 11 37  1  0  0  0  0
 12 13  1  0  0  0  0
 13 20  2  0  0  0  0
 13 14  1  0  0  0  0
 14 15  2  0  0  0  0
 14 38  1  0  0  0  0
 15 16  1  0  0  0  0
 15 17  1  0  0  0  0
 17 18  1  0  0  0  0
 17 19  2  0  0  0  0
 19 20  1  0  0  0  0
 19 39  1  0  0  0  0
 21 22  1  0  0  0  0
 21 40  1  0  0  0  0
 21 41  1  0  0  0  0
 22 42  1  0  0  0  0
 22 43  1  0  0  0  0
M  CHG  1   5   1
M  END
> <s_m_source_file>
AV-unprocessed.smi

> <i_m_source_file_index>
1702

> <i_lp_mmshare_version>
43012

> <i_f3d_flags>
0

> <s_epik_input>
W0NIM11bQ0hdMVtDSDJdW0NIMl1OKFtDSDJdW0NIMl0xKVtDSDJdW0NASF0oW09IXSlbQ0gyXW4oW2NIXW4yKWMoYzIzKVtjSF1jKEYpYyhGKVtjSF0z

> <s_epik_cmdline>
J2VwaWtfcHl0aG9uJywgJy1waCcsICc3LjAnLCAnLXRuJywgJzgnLCAnLW1hJywgJzIwMCcsICctbWV0YWxfYmluZGluZycsICctaW1hZScsICc8aW5maWxlLm1hZT4nLCAnLW9tYWUnLCAnPG91dGZpbGUubWFlPic=

> <r_epik_Ionization_Penalty>
0.0135195

> <r_epik_Ionization_Penalty_Charging>
0.00181365

> <r_epik_Ionization_Penalty_Neutral>
0.0117059

> <r_epik_State_Penalty>
0.00902283

> <r_epik_Charging_Adjusted_Penalty>
0.0108365

> <i_epik_Tot_Q>
1

> <i_epik_Tot_abs_Q>
1

> <r_epik_Metal_State_Penalty>
9.09181e-06

> <b_epik_Metal_Only>
0

> <s_lp_Force_Field>
OPLS_2005

> <r_lp_Energy>
23.1307

> <b_lp_Chiralities_Consistent>
1

> <s_lp_Variant>
AV-unprocessed.smi:1702-2

> <Gold.Version>
5.8.1

> <Gold.Id.Protein>
6NUR|6NUR_protein|mol2

> <Gold.PLP.Fitness>
61.6030

> <Gold.PLP.PLP>
-48.1776

> <Gold.PLP.part.hbond>
-3.9837

> <Gold.PLP.part.metal>
0.0000

> <Gold.PLP.part.buried>
-5.6769

> <Gold.PLP.part.nonpolar>
-37.9885

> <Gold.PLP.part.repulsive>
0.1078

> <Gold.PLP.ligand.clash>
0.0053

> <Gold.PLP.ligand.torsion>
0.4356

> <Gold.PLP.Chemscore.Hbond>
4.7433

> <Gold.PLP.Chemscore.CHOScore>
0.0000

> <Gold.PLP.Chemscore.Metal>
0.0000

> <Gold.Chemscore.Hbonds>
donor molecule, donor type, donor heavy atom, donor atom, acceptor molecule, acceptor atom, score
      L1  H     5    44       P1  8028  2.00
      L1  H     8    34       P1  7957  1.00
      P1  H  7989  7998       L1     8  0.65
      P1  H  7997  8009       L1    12  0.67

> <Gold.PLP.Chemscore.Internal.Correction>
0.0720

> <Gold.Rescore>
     Score         DG    S(hbond)    S(metal)    S(lipo)     H(rot)  DE(clash)    DE(int)     intcor
     15.95     -19.28       2.16        0.00     105.68       2.26       1.92       1.41       ----

> <Gold.Chemscore.Fitness>
15.9486

> <Gold.Chemscore.DG>
-19.2826

> <Gold.Chemscore.ZeroCoef>
-5.4800

> <Gold.Chemscore.Hbond>
2.1643

> <Gold.Chemscore.Metal>
0.0000

> <Gold.Chemscore.Lipo>
105.6771

> <Gold.Chemscore.Internal_Hbond>
0.0000

> <Gold.Chemscore.DEClash>
1.9198

> <Gold.Chemscore.DEInternal>
1.4143

> <Gold.Chemscore.Rot>
2.2619

> <Gold.Chemscore.Internal.Correction>
   9.000000E+99

> <Gold.Chemscore.Hbonds>
donor molecule, donor type, donor heavy atom, donor atom, acceptor molecule, acceptor atom, score
      L1  H     5    44       P1  8028  0.60
      L1  H     8    34       P1  7957  0.99
      P1  H  7989  7998       L1     8  0.11
      P1  H  7997  8009       L1    12  0.17

> <Gold.Chemscore.Hbond.Weighted>
-7.2288

> <Gold.Chemscore.Metal.Weighted>
-0.0000

> <Gold.Chemscore.Lipo.Weighted>
-12.3642

> <Gold.Chemscore.Internal_Hbond.Weighted>
0.0000

> <Gold.Chemscore.DEClash.Weighted>
1.9198

> <Gold.Chemscore.DEInternal.Weighted>
1.4143

> <Gold.Chemscore.Rot.Weighted>
5.7904

> <Gold.Chemscore.Internal.Correction.Weighted>
   9.000000E+99

> <Gold.Protein.RotatedTorsions>
[ 6907 6896 6895 6894 ] final  -54.86 input  -60.11 | X-H torsion
[ 7974 7965 7964 7962 ] final  102.31 input  175.53 | X-H torsion
[ 8008 7997 7996 7995 ] final  171.03 input   59.86 | X-H torsion
[ 10167 10162 10161 10158 ] final    5.42 input  -65.29 | X-H torsion
[ 10718 10713 10712 10709 ] final  -92.02 input   66.30 | X-H torsion
[ 10763 10752 10751 10750 ] final  115.45 input  -60.55 | X-H torsion
[ 11005 11000 10999 10996 ] final  -95.45 input  -57.11 | X-H torsion

> <Gold.Protein.ActiveResidues>
 VAL166  LYS551  ARG553  GLY616  TRP617  ASP618  TYR619  PRO620  LYS621  CYS622 
 ASP623  PHE694  ASN695  SER759  ASP760  ASP761  ALA762  ILE779  LEU786  VAL792 
 PHE793  MET794  SER795  GLU796  ALA797  LYS798  CYS799  TRP800  GLU811  SER814 

> <Gold.Protein.RotatedAtoms>
  150.8301  134.7551  159.6846 H   0  0  0  0  0  0  0  0  0  0  0  0  # atno 6907 bound_to 6896
  152.4407  134.5593  159.9899 H   0  0  0  0  0  0  0  0  0  0  0  0  # atno 6908 bound_to 6896
  151.5756  133.3346  159.3034 H   0  0  0  0  0  0  0  0  0  0  0  0  # atno 6909 bound_to 6896
  145.3608  139.2418  143.3508 H   0  0  0  0  0  0  0  0  0  0  0  0  # atno 7974 bound_to 7965
  156.1309  140.1522  156.9066 H   0  0  0  0  0  0  0  0  0  0  0  0  # atno 8008 bound_to 7997
  154.4909  140.0852  156.7631 H   0  0  0  0  0  0  0  0  0  0  0  0  # atno 8009 bound_to 7997
  155.4257  140.3425  155.4277 H   0  0  0  0  0  0  0  0  0  0  0  0  # atno 8010 bound_to 7997
  140.6483  143.7608  150.7533 H   0  0  0  0  0  0  0  0  0  0  0  0  # atno 10167 bound_to 10162
  155.9998  130.4970  150.5562 H   0  0  0  0  0  0  0  0  0  0  0  0  # atno 10718 bound_to 10713
  153.5224  135.3595  155.2638 H   0  0  0  0  0  0  0  0  0  0  0  0  # atno 10763 bound_to 10752
  154.8734  135.4049  154.3244 H   0  0  0  0  0  0  0  0  0  0  0  0  # atno 10764 bound_to 10752
  153.3917  135.7072  153.6557 H   0  0  0  0  0  0  0  0  0  0  0  0  # atno 10765 bound_to 10752
  141.1441  133.8027  157.0436 H   0  0  0  0  0  0  0  0  0  0  0  0  # atno 11005 bound_to 11000
  146.2928  140.4241  142.8733 LP  0  0  0  0  0  0  0  0  0  0  0  0  # atno 17320 bound_to 7965
  144.8648  140.7190  143.6084 LP  0  0  0  0  0  0  0  0  0  0  0  0  # atno 17321 bound_to 7965
  140.1254  143.4574  152.2287 LP  0  0  0  0  0  0  0  0  0  0  0  0  # atno 17342 bound_to 10162
  139.5695  144.7455  151.3929 LP  0  0  0  0  0  0  0  0  0  0  0  0  # atno 17343 bound_to 10162
  157.3478  131.0728  151.1737 LP  0  0  0  0  0  0  0  0  0  0  0  0  # atno 17370 bound_to 10713
  157.2564  130.6638  149.5954 LP  0  0  0  0  0  0  0  0  0  0  0  0  # atno 17371 bound_to 10713
  140.0677  134.9720  157.1413 LP  0  0  0  0  0  0  0  0  0  0  0  0  # atno 17394 bound_to 11000
  140.3756  134.2342  155.7174 LP  0  0  0  0  0  0  0  0  0  0  0  0  # atno 17395 bound_to 11000

$$$$
