AV-unprocessed.smi:3031|AV-procd|sdf|11551|dock2
  -GOLD-   2272016513D 1   1.00000     0.00000
 Structure written by MMmdl.
 48 49  0  0  0  0  0  0  0  0  3 V2000
  151.1856  142.7891  159.2419 C   0  0  0  0  0  0  0  0  0  0  0  0
  150.8595  141.7887  158.1704 C   0  0  0  0  0  0  0  0  0  0  0  0
  151.1442  140.3943  158.1661 C   0  0  0  0  0  0  0  0  0  0  0  0
  150.7301  139.7897  157.0649 N   0  0  0  0  0  0  0  0  0  0  0  0
  150.1579  140.7704  156.3317 N   0  0  0  0  0  0  0  0  0  0  0  0
  149.6081  140.4815  155.0150 C   0  0  0  0  0  0  0  0  0  0  0  0
  149.6011  138.9779  154.6662 C   0  0  2  0  0  0  0  0  0  0  0  0
  151.0311  138.4452  154.4869 C   0  0  0  0  0  0  0  0  0  0  0  0
  148.7995  138.7426  153.4443 N   0  3  0  0  0  0  0  0  0  0  0  0
  147.3538  139.0158  153.5838 C   0  0  0  0  0  0  0  0  0  0  0  0
  146.5870  138.6246  152.3072 C   0  0  1  0  0  0  0  0  0  0  0  0
  147.5354  138.3081  151.3085 O   0  0  0  0  0  0  0  0  0  0  0  0
  145.6824  137.3891  152.5052 C   0  0  0  0  0  0  0  0  0  0  0  0
  144.3534  137.7212  153.0824 N   0  3  0  0  0  0  0  0  0  0  0  0
  143.2824  136.7641  152.7068 C   0  0  0  0  0  0  0  0  0  0  0  0
  141.9374  137.1917  153.3188 C   0  0  0  0  0  0  0  0  0  0  0  0
  142.0659  137.2956  154.7309 O   0  0  0  0  0  0  0  0  0  0  0  0
  143.0239  138.2765  155.1065 C   0  0  0  0  0  0  0  0  0  0  0  0
  144.4055  137.8849  154.5553 C   0  0  0  0  0  0  0  0  0  0  0  0
  150.2362  141.9897  156.9713 C   0  0  0  0  0  0  0  0  0  0  0  0
  152.2264  142.7147  159.5571 H   0  0  0  0  0  0  0  0  0  0  0  0
  150.5694  142.6429  160.1290 H   0  0  0  0  0  0  0  0  0  0  0  0
  151.0261  143.8135  158.9042 H   0  0  0  0  0  0  0  0  0  0  0  0
  151.6405  139.8079  158.9256 H   0  0  0  0  0  0  0  0  0  0  0  0
  148.5940  140.8820  154.9701 H   0  0  0  0  0  0  0  0  0  0  0  0
  150.1945  141.0351  154.2805 H   0  0  0  0  0  0  0  0  0  0  0  0
  149.1430  138.4393  155.4973 H   0  0  0  0  0  0  0  0  0  0  0  0
  151.6252  138.6139  155.3856 H   0  0  0  0  0  0  0  0  0  0  0  0
  151.5388  138.9397  153.6581 H   0  0  0  0  0  0  0  0  0  0  0  0
  151.0394  137.3731  154.2901 H   0  0  0  0  0  0  0  0  0  0  0  0
  149.1522  139.3619  152.7285 H   0  0  0  0  0  0  0  0  0  0  0  0
  146.9505  138.4908  154.4507 H   0  0  0  0  0  0  0  0  0  0  0  0
  147.2312  140.0829  153.7727 H   0  0  0  0  0  0  0  0  0  0  0  0
  146.0023  139.4703  151.9461 H   0  0  0  0  0  0  0  0  0  0  0  0
  148.1934  137.7391  151.6800 H   0  0  0  0  0  0  0  0  0  0  0  0
  145.5344  136.8661  151.5588 H   0  0  0  0  0  0  0  0  0  0  0  0
  146.1974  136.6864  153.1627 H   0  0  0  0  0  0  0  0  0  0  0  0
  143.1784  136.7081  151.6240 H   0  0  0  0  0  0  0  0  0  0  0  0
  143.5462  135.7642  153.0550 H   0  0  0  0  0  0  0  0  0  0  0  0
  141.6032  138.1424  152.9000 H   0  0  0  0  0  0  0  0  0  0  0  0
  141.1684  136.4544  153.0879 H   0  0  0  0  0  0  0  0  0  0  0  0
  142.7212  139.2588  154.7400 H   0  0  0  0  0  0  0  0  0  0  0  0
  143.0569  138.3388  156.1945 H   0  0  0  0  0  0  0  0  0  0  0  0
  144.7405  136.9541  155.0162 H   0  0  0  0  0  0  0  0  0  0  0  0
  145.1338  138.6532  154.8180 H   0  0  0  0  0  0  0  0  0  0  0  0
  149.8462  142.8930  156.5248 H   0  0  0  0  0  0  0  0  0  0  0  0
  148.9352  137.7896  153.1374 H   0  0  0  0  0  0  0  0  0  0  0  0
  144.0888  138.6224  152.7112 H   0  0  0  0  0  0  0  0  0  0  0  0
  1  2  1  0  0  0  0
  1 21  1  0  0  0  0
  1 22  1  0  0  0  0
  1 23  1  0  0  0  0
  2 20  2  0  0  0  0
  2  3  1  0  0  0  0
  3  4  2  0  0  0  0
  3 24  1  0  0  0  0
  4  5  1  0  0  0  0
  5  6  1  0  0  0  0
  5 20  1  0  0  0  0
  6  7  1  0  0  0  0
  6 25  1  0  0  0  0
  6 26  1  0  0  0  0
  7  8  1  0  0  0  0
  7  9  1  0  0  0  0
  7 27  1  0  0  0  0
  8 28  1  0  0  0  0
  8 29  1  0  0  0  0
  8 30  1  0  0  0  0
  9 10  1  0  0  0  0
  9 31  1  0  0  0  0
  9 47  1  0  0  0  0
 10 11  1  0  0  0  0
 10 32  1  0  0  0  0
 10 33  1  0  0  0  0
 11 12  1  0  0  0  0
 11 13  1  0  0  0  0
 11 34  1  0  0  0  0
 12 35  1  0  0  0  0
 13 14  1  0  0  0  0
 13 36  1  0  0  0  0
 13 37  1  0  0  0  0
 14 19  1  0  0  0  0
 14 15  1  0  0  0  0
 14 48  1  0  0  0  0
 15 16  1  0  0  0  0
 15 38  1  0  0  0  0
 15 39  1  0  0  0  0
 16 17  1  0  0  0  0
 16 40  1  0  0  0  0
 16 41  1  0  0  0  0
 17 18  1  0  0  0  0
 18 19  1  0  0  0  0
 18 42  1  0  0  0  0
 18 43  1  0  0  0  0
 19 44  1  0  0  0  0
 19 45  1  0  0  0  0
 20 46  1  0  0  0  0
M  CHG  1   9   1
M  CHG  1  14   1
M  END
> <s_m_source_file>
AV-unprocessed.smi

> <i_m_source_file_index>
3031

> <i_lp_mmshare_version>
43012

> <i_f3d_flags>
0

> <s_epik_input>
W0NIM11jMVtjSF1ubihbY0hdMSlbQ0gyXVtDQEhdKFtDSDNdKVtOSF1bQ0gyXVtDQEhdKFtPSF0pW0NIMl1OMltDSDJdW0NIMl1PW0NIMl1bQ0gyXTI=

> <s_epik_cmdline>
J2VwaWtfcHl0aG9uJywgJy1waCcsICc3LjAnLCAnLXRuJywgJzgnLCAnLW1hJywgJzIwMCcsICctbWV0YWxfYmluZGluZycsICctaW1hZScsICc8aW5maWxlLm1hZT4nLCAnLW9tYWUnLCAnPG91dGZpbGUubWFlPic=

> <r_lp_tautomer_probability>
1

> <r_epik_Ionization_Penalty>
1.76542

> <r_epik_Ionization_Penalty_Charging>
1.76348

> <r_epik_Ionization_Penalty_Neutral>
0.00194017

> <r_epik_State_Penalty>
1.49348

> <r_epik_Charging_Adjusted_Penalty>
3.25696

> <i_epik_Tot_Q>
2

> <i_epik_Tot_abs_Q>
2

> <r_epik_Metal_State_Penalty>
1.49349

> <b_epik_Metal_Only>
0

> <s_lp_Force_Field>
OPLS_2005

> <r_lp_Energy>
28.4562

> <b_lp_Chiralities_Consistent>
1

> <s_lp_Variant>
AV-unprocessed.smi:3031-11

> <Gold.Version>
5.8.1

> <Gold.Id.Protein>
6NUR|6NUR_protein|mol2

> <Gold.PLP.Fitness>
57.2947

> <Gold.PLP.PLP>
-37.6281

> <Gold.PLP.part.hbond>
-5.7427

> <Gold.PLP.part.metal>
0.0000

> <Gold.PLP.part.buried>
-1.2653

> <Gold.PLP.part.nonpolar>
-29.6771

> <Gold.PLP.part.repulsive>
0.1382

> <Gold.PLP.ligand.clash>
0.0000

> <Gold.PLP.ligand.torsion>
1.3412

> <Gold.PLP.Chemscore.Hbond>
6.4000

> <Gold.PLP.Chemscore.CHOScore>
1.0000

> <Gold.PLP.Chemscore.Metal>
0.0000

> <Gold.Chemscore.Hbonds>
donor molecule, donor type, donor heavy atom, donor atom, acceptor molecule, acceptor atom, score
      L1  H     9    31       P1  7957  1.00
      L1  H     9    47       P1  7948  2.00
      L1  H    12    35       P1  7948  1.00
      L1  H    14    48       P1 10175  2.00
      P1  H  7954  7966       L1    12  0.20
      L1  C    20    46       P1  8028  1.00

> <Gold.PLP.Chemscore.Internal.Correction>
0.1490

> <Gold.Rescore>
     Score         DG    S(hbond)    S(metal)    S(lipo)     H(rot)  DE(clash)    DE(int)     intcor
     18.48     -21.33       3.96        0.00      82.58       2.74       1.34       1.51       ----

> <Gold.Chemscore.Fitness>
18.4845

> <Gold.Chemscore.DG>
-21.3293

> <Gold.Chemscore.ZeroCoef>
-5.4800

> <Gold.Chemscore.Hbond>
3.9554

> <Gold.Chemscore.Metal>
0.0000

> <Gold.Chemscore.Lipo>
82.5766

> <Gold.Chemscore.Internal_Hbond>
0.0000

> <Gold.Chemscore.DEClash>
1.3356

> <Gold.Chemscore.DEInternal>
1.5093

> <Gold.Chemscore.Rot>
2.7434

> <Gold.Chemscore.Internal.Correction>
   9.000000E+99

> <Gold.Chemscore.Hbonds>
donor molecule, donor type, donor heavy atom, donor atom, acceptor molecule, acceptor atom, score
      L1  H     9    31       P1  7957  1.00
      L1  H     9    47       P1  7948  0.96
      L1  H    12    35       P1  7948  0.96
      L1  H    14    48       P1 10175  1.00

> <Gold.Chemscore.Hbond.Weighted>
-13.2110

> <Gold.Chemscore.Metal.Weighted>
-0.0000

> <Gold.Chemscore.Lipo.Weighted>
-9.6615

> <Gold.Chemscore.Internal_Hbond.Weighted>
0.0000

> <Gold.Chemscore.DEClash.Weighted>
1.3356

> <Gold.Chemscore.DEInternal.Weighted>
1.5093

> <Gold.Chemscore.Rot.Weighted>
7.0231

> <Gold.Chemscore.Internal.Correction.Weighted>
   9.000000E+99

> <Gold.Protein.RotatedTorsions>
[ 6907 6896 6895 6894 ] final   10.01 input  -60.11 | X-H torsion
[ 7974 7965 7964 7962 ] final  -93.95 input  175.53 | X-H torsion
[ 8008 7997 7996 7995 ] final   84.54 input   59.86 | X-H torsion
[ 10167 10162 10161 10158 ] final  -25.73 input  -65.29 | X-H torsion
[ 10718 10713 10712 10709 ] final  122.71 input   66.30 | X-H torsion
[ 10763 10752 10751 10750 ] final  -88.09 input  -60.55 | X-H torsion
[ 11005 11000 10999 10996 ] final -136.62 input  -57.11 | X-H torsion

> <Gold.Protein.ActiveResidues>
 VAL166  LYS551  ARG553  GLY616  TRP617  ASP618  TYR619  PRO620  LYS621  CYS622 
 ASP623  PHE694  ASN695  SER759  ASP760  ASP761  ALA762  ILE779  LEU786  VAL792 
 PHE793  MET794  SER795  GLU796  ALA797  LYS798  CYS799  TRP800  GLU811  SER814 

> <Gold.Protein.RotatedAtoms>
  151.7314  135.0874  160.0300 H   0  0  0  0  0  0  0  0  0  0  0  0  # atno 6907 bound_to 6896
  152.3538  133.6208  159.5973 H   0  0  0  0  0  0  0  0  0  0  0  0  # atno 6908 bound_to 6896
  150.7558  133.9448  159.3509 H   0  0  0  0  0  0  0  0  0  0  0  0  # atno 6909 bound_to 6896
  145.3797  140.9516  143.2400 H   0  0  0  0  0  0  0  0  0  0  0  0  # atno 7974 bound_to 7965
  155.9384  140.3410  155.6307 H   0  0  0  0  0  0  0  0  0  0  0  0  # atno 8008 bound_to 7997
  155.7070  140.0767  157.2405 H   0  0  0  0  0  0  0  0  0  0  0  0  # atno 8009 bound_to 7997
  154.4098  140.1629  156.2241 H   0  0  0  0  0  0  0  0  0  0  0  0  # atno 8010 bound_to 7997
  140.7285  143.4239  151.0907 H   0  0  0  0  0  0  0  0  0  0  0  0  # atno 10167 bound_to 10162
  157.5721  131.1082  150.8347 H   0  0  0  0  0  0  0  0  0  0  0  0  # atno 10718 bound_to 10713
  154.6408  135.5389  153.7787 H   0  0  0  0  0  0  0  0  0  0  0  0  # atno 10763 bound_to 10752
  153.0333  135.6458  154.1163 H   0  0  0  0  0  0  0  0  0  0  0  0  # atno 10764 bound_to 10752
  154.1087  135.2928  155.3215 H   0  0  0  0  0  0  0  0  0  0  0  0  # atno 10765 bound_to 10752
  140.8788  134.1958  157.4604 H   0  0  0  0  0  0  0  0  0  0  0  0  # atno 11005 bound_to 11000
  144.8516  139.5313  143.6853 LP  0  0  0  0  0  0  0  0  0  0  0  0  # atno 17320 bound_to 7965
  146.2847  139.6973  142.9204 LP  0  0  0  0  0  0  0  0  0  0  0  0  # atno 17321 bound_to 7965
  139.7888  143.8248  152.3149 LP  0  0  0  0  0  0  0  0  0  0  0  0  # atno 17342 bound_to 10162
  139.8225  144.7289  150.9554 LP  0  0  0  0  0  0  0  0  0  0  0  0  # atno 17343 bound_to 10162
  156.8816  130.5181  149.5290 LP  0  0  0  0  0  0  0  0  0  0  0  0  # atno 17370 bound_to 10713
  156.0766  130.5787  150.9486 LP  0  0  0  0  0  0  0  0  0  0  0  0  # atno 17371 bound_to 10713
  139.8718  134.9808  156.5089 LP  0  0  0  0  0  0  0  0  0  0  0  0  # atno 17394 bound_to 11000
  140.8486  133.8149  155.9146 LP  0  0  0  0  0  0  0  0  0  0  0  0  # atno 17395 bound_to 11000

$$$$
