AV-unprocessed.smi:634|AV-procd|sdf|3134|dock6
  -GOLD-   22720 0 63D 1   1.00000     0.00000
 Structure written by MMmdl.
 33 34  0  0  0  0  0  0  0  0  1 V2000
  153.4034  142.1465  161.1804 C   0  0  0  0  0  0  0  0  0  0  0  0
  152.6630  142.6576  159.9922 C   0  0  0  0  0  0  0  0  0  0  0  0
  151.7104  142.1073  159.1813 C   0  0  0  0  0  0  0  0  0  0  0  0
  151.4465  143.1449  158.2479 C   0  0  0  0  0  0  0  0  0  0  0  0
  150.4912  142.9694  157.2140 N   0  0  0  0  0  0  0  0  0  0  0  0
  149.8395  141.8414  156.8833 C   0  0  0  0  0  0  0  0  0  0  0  0
  149.9662  140.7595  157.4568 O   0  0  0  0  0  0  0  0  0  0  0  0
  149.0223  142.0453  155.8363 N   0  0  0  0  0  0  0  0  0  0  0  0
  148.1420  141.0773  155.1663 C   0  0  2  0  0  0  0  0  0  0  0  0
  148.9600  139.8796  154.6373 C   0  0  0  0  0  0  0  0  0  0  0  0
  147.4687  141.8148  153.9835 C   0  0  0  0  0  0  0  0  0  0  0  0
  146.3577  142.7307  154.5103 C   0  0  0  0  0  0  0  0  0  0  0  0
  145.6609  141.8699  155.9654 S   0  0  0  0  0  0  0  0  0  0  0  0
  145.7125  142.7745  157.1239 O   0  0  0  0  0  0  0  0  0  0  0  0
  144.4106  141.1950  155.5857 O   0  0  0  0  0  0  0  0  0  0  0  0
  146.9967  140.6203  156.1018 C   0  0  0  0  0  0  0  0  0  0  0  0
  152.1723  144.2302  158.4690 N   0  0  0  0  0  0  0  0  0  0  0  0
  152.9560  143.9232  159.5875 O   0  0  0  0  0  0  0  0  0  0  0  0
  152.9176  141.2614  161.5913 H   0  0  0  0  0  0  0  0  0  0  0  0
  153.4470  142.9019  161.9650 H   0  0  0  0  0  0  0  0  0  0  0  0
  154.4251  141.8780  160.9118 H   0  0  0  0  0  0  0  0  0  0  0  0
  151.2751  141.1213  159.2485 H   0  0  0  0  0  0  0  0  0  0  0  0
  150.2881  143.7896  156.6625 H   0  0  0  0  0  0  0  0  0  0  0  0
  149.0045  142.9795  155.4541 H   0  0  0  0  0  0  0  0  0  0  0  0
  148.3380  139.2055  154.0475 H   0  0  0  0  0  0  0  0  0  0  0  0
  149.3886  139.2874  155.4457 H   0  0  0  0  0  0  0  0  0  0  0  0
  149.7791  140.2108  153.9981 H   0  0  0  0  0  0  0  0  0  0  0  0
  148.1879  142.3687  153.3786 H   0  0  0  0  0  0  0  0  0  0  0  0
  147.0105  141.0804  153.3197 H   0  0  0  0  0  0  0  0  0  0  0  0
  146.7647  143.6849  154.8451 H   0  0  0  0  0  0  0  0  0  0  0  0
  145.5768  142.9229  153.7746 H   0  0  0  0  0  0  0  0  0  0  0  0
  146.5815  139.6711  155.7617 H   0  0  0  0  0  0  0  0  0  0  0  0
  147.2838  140.4954  157.1455 H   0  0  0  0  0  0  0  0  0  0  0  0
  1  2  1  0  0  0  0
  1 19  1  0  0  0  0
  1 20  1  0  0  0  0
  1 21  1  0  0  0  0
  2 18  1  0  0  0  0
  2  3  2  0  0  0  0
  3  4  1  0  0  0  0
  3 22  1  0  0  0  0
  4  5  1  0  0  0  0
  4 17  2  0  0  0  0
  5  6  1  0  0  0  0
  5 23  1  0  0  0  0
  6  7  2  0  0  0  0
  6  8  1  0  0  0  0
  8  9  1  0  0  0  0
  8 24  1  0  0  0  0
  9 16  1  0  0  0  0
  9 10  1  0  0  0  0
  9 11  1  0  0  0  0
 10 25  1  0  0  0  0
 10 26  1  0  0  0  0
 10 27  1  0  0  0  0
 11 12  1  0  0  0  0
 11 28  1  0  0  0  0
 11 29  1  0  0  0  0
 12 13  1  0  0  0  0
 12 30  1  0  0  0  0
 12 31  1  0  0  0  0
 13 14  2  0  0  0  0
 13 15  2  0  0  0  0
 13 16  1  0  0  0  0
 16 32  1  0  0  0  0
 16 33  1  0  0  0  0
 17 18  1  0  0  0  0
M  END
> <s_m_source_file>
AV-unprocessed.smi

> <i_m_source_file_index>
634

> <i_lp_mmshare_version>
43012

> <i_f3d_flags>
0

> <s_epik_input>
W0NIM11jMVtjSF1jKG5vMSlbTkhdQyg9TylbTkhdW0NAQF0yKFtDSDNdKVtDSDJdW0NIMl1TKD1PKSg9TylbQ0gyXTI=

> <s_epik_cmdline>
J2VwaWtfcHl0aG9uJywgJy1waCcsICc3LjAnLCAnLXRuJywgJzgnLCAnLW1hJywgJzIwMCcsICctbWV0YWxfYmluZGluZycsICctaW1hZScsICc8aW5maWxlLm1hZT4nLCAnLW9tYWUnLCAnPG91dGZpbGUubWFlPic=

> <r_lp_tautomer_probability>
1

> <r_epik_Ionization_Penalty>
3.87281e-05

> <r_epik_Ionization_Penalty_Charging>
0

> <r_epik_Ionization_Penalty_Neutral>
3.87281e-05

> <r_epik_State_Penalty>
-0

> <r_epik_Charging_Adjusted_Penalty>
0

> <i_epik_Tot_Q>
0

> <i_epik_Tot_abs_Q>
0

> <r_epik_Metal_State_Penalty>
0.0249287

> <b_epik_Metal_Only>
0

> <s_lp_Force_Field>
OPLS_2005

> <r_lp_Energy>
3.31823

> <b_lp_Chiralities_Consistent>
1

> <s_lp_Variant>
AV-unprocessed.smi:634-2

> <Gold.Version>
5.8.1

> <Gold.Id.Protein>
6NUR|6NUR_protein|mol2

> <Gold.PLP.Fitness>
36.6222

> <Gold.PLP.PLP>
-30.8526

> <Gold.PLP.part.hbond>
-2.0000

> <Gold.PLP.part.metal>
0.0000

> <Gold.PLP.part.buried>
-6.6386

> <Gold.PLP.part.nonpolar>
-23.3833

> <Gold.PLP.part.repulsive>
0.4407

> <Gold.PLP.ligand.clash>
0.0000

> <Gold.PLP.ligand.torsion>
0.0381

> <Gold.PLP.Chemscore.Hbond>
1.9440

> <Gold.PLP.Chemscore.CHOScore>
0.0000

> <Gold.PLP.Chemscore.Metal>
0.0000

> <Gold.Chemscore.Hbonds>
donor molecule, donor type, donor heavy atom, donor atom, acceptor molecule, acceptor atom, score
      L1  H     5    23       P1  8028  0.90
      L1  H     8    24       P1  8028  1.00

> <Gold.PLP.Chemscore.Internal.Correction>
0.0139

> <Gold.Rescore>
     Score         DG    S(hbond)    S(metal)    S(lipo)     H(rot)  DE(clash)    DE(int)     intcor
     14.44     -15.91       1.93        0.00      55.97       1.00       0.04       1.42       ----

> <Gold.Chemscore.Fitness>
14.4401

> <Gold.Chemscore.DG>
-15.9057

> <Gold.Chemscore.ZeroCoef>
-5.4800

> <Gold.Chemscore.Hbond>
1.9273

> <Gold.Chemscore.Metal>
0.0000

> <Gold.Chemscore.Lipo>
55.9700

> <Gold.Chemscore.Internal_Hbond>
0.0000

> <Gold.Chemscore.DEClash>
0.0424

> <Gold.Chemscore.DEInternal>
1.4233

> <Gold.Chemscore.Rot>
1.0000

> <Gold.Chemscore.Internal.Correction>
   9.000000E+99

> <Gold.Chemscore.Hbonds>
donor molecule, donor type, donor heavy atom, donor atom, acceptor molecule, acceptor atom, score
      L1  H     5    23       P1  8028  0.87
      L1  H     8    24       P1  8028  0.96

> <Gold.Chemscore.Hbond.Weighted>
-6.4372

> <Gold.Chemscore.Metal.Weighted>
-0.0000

> <Gold.Chemscore.Lipo.Weighted>
-6.5485

> <Gold.Chemscore.Internal_Hbond.Weighted>
0.0000

> <Gold.Chemscore.DEClash.Weighted>
0.0424

> <Gold.Chemscore.DEInternal.Weighted>
1.4233

> <Gold.Chemscore.Rot.Weighted>
2.5600

> <Gold.Chemscore.Internal.Correction.Weighted>
   9.000000E+99

> <Gold.Protein.RotatedTorsions>
[ 6907 6896 6895 6894 ] final  162.44 input  -60.11 | X-H torsion
[ 7974 7965 7964 7962 ] final  -49.14 input  175.53 | X-H torsion
[ 8008 7997 7996 7995 ] final -172.22 input   59.86 | X-H torsion
[ 10167 10162 10161 10158 ] final   95.07 input  -65.29 | X-H torsion
[ 10718 10713 10712 10709 ] final  -44.22 input   66.30 | X-H torsion
[ 10763 10752 10751 10750 ] final   52.42 input  -60.55 | X-H torsion
[ 11005 11000 10999 10996 ] final  -12.91 input  -57.11 | X-H torsion

> <Gold.Protein.ActiveResidues>
 VAL166  LYS551  ARG553  GLY616  TRP617  ASP618  TYR619  PRO620  LYS621  CYS622 
 ASP623  PHE694  ASN695  SER759  ASP760  ASP761  ALA762  ILE779  LEU786  VAL792 
 PHE793  MET794  SER795  GLU796  ALA797  LYS798  CYS799  TRP800  GLU811  SER814 

> <Gold.Protein.RotatedAtoms>
  151.9404  133.3636  159.3962 H   0  0  0  0  0  0  0  0  0  0  0  0  # atno 6907 bound_to 6896
  150.6999  134.4445  159.5317 H   0  0  0  0  0  0  0  0  0  0  0  0  # atno 6908 bound_to 6896
  152.2101  134.8509  160.0549 H   0  0  0  0  0  0  0  0  0  0  0  0  # atno 6909 bound_to 6896
  145.9437  140.7638  142.9539 H   0  0  0  0  0  0  0  0  0  0  0  0  # atno 7974 bound_to 7965
  155.9417  140.1110  157.1050 H   0  0  0  0  0  0  0  0  0  0  0  0  # atno 8008 bound_to 7997
  154.4090  140.1218  156.5002 H   0  0  0  0  0  0  0  0  0  0  0  0  # atno 8009 bound_to 7997
  155.6954  140.3472  155.4913 H   0  0  0  0  0  0  0  0  0  0  0  0  # atno 8010 bound_to 7997
  139.8023  144.6808  150.9748 H   0  0  0  0  0  0  0  0  0  0  0  0  # atno 10167 bound_to 10162
  156.2408  130.4180  149.8762 H   0  0  0  0  0  0  0  0  0  0  0  0  # atno 10718 bound_to 10713
  152.9789  135.5813  154.4575 H   0  0  0  0  0  0  0  0  0  0  0  0  # atno 10763 bound_to 10752
  154.4156  135.2770  155.2011 H   0  0  0  0  0  0  0  0  0  0  0  0  # atno 10764 bound_to 10752
  154.3782  135.6152  153.5830 H   0  0  0  0  0  0  0  0  0  0  0  0  # atno 10765 bound_to 10752
  140.7707  133.8441  155.9204 H   0  0  0  0  0  0  0  0  0  0  0  0  # atno 11005 bound_to 11000
  144.6783  140.2322  143.7354 LP  0  0  0  0  0  0  0  0  0  0  0  0  # atno 17320 bound_to 7965
  145.8265  139.2067  143.1907 LP  0  0  0  0  0  0  0  0  0  0  0  0  # atno 17321 bound_to 7965
  140.7820  143.4269  151.0755 LP  0  0  0  0  0  0  0  0  0  0  0  0  # atno 17342 bound_to 10162
  139.7940  143.8178  152.3155 LP  0  0  0  0  0  0  0  0  0  0  0  0  # atno 17343 bound_to 10162
  156.6345  130.8679  151.3502 LP  0  0  0  0  0  0  0  0  0  0  0  0  # atno 17370 bound_to 10713
  157.7174  130.9515  150.1308 LP  0  0  0  0  0  0  0  0  0  0  0  0  # atno 17371 bound_to 10713
  140.9577  134.1697  157.4679 LP  0  0  0  0  0  0  0  0  0  0  0  0  # atno 17394 bound_to 11000
  139.8756  134.9933  156.5637 LP  0  0  0  0  0  0  0  0  0  0  0  0  # atno 17395 bound_to 11000

$$$$
