AV-unprocessed.smi:1978|AV-procd|sdf|7992|dock3
  -GOLD-   2272010173D 1   1.00000     0.00000
 Structure written by MMmdl.
 45 46  0  0  0  0  0  0  0  0  2 V2000
  151.2439  140.1322  156.2420 C   0  0  0  0  0  0  0  0  0  0  0  0
  150.6380  138.7880  156.0252 C   0  0  0  0  0  0  0  0  0  0  0  0
  150.4125  138.0392  154.9043 C   0  0  0  0  0  0  0  0  0  0  0  0
  149.8029  136.8653  155.4217 C   0  0  0  0  0  0  0  0  0  0  0  0
  149.4015  135.8122  154.5602 N   0  0  0  0  0  0  0  0  0  0  0  0
  149.6306  134.4970  154.7156 C   0  0  0  0  0  0  0  0  0  0  0  0
  150.2471  133.9904  155.6532 O   0  0  0  0  0  0  0  0  0  0  0  0
  149.0887  133.7850  153.7156 N   0  0  0  0  0  0  0  0  0  0  0  0
  149.1603  132.3314  153.5769 C   0  0  0  0  0  0  0  0  0  0  0  0
  147.7672  131.6387  153.6314 C   0  0  2  0  0  0  0  0  0  0  0  0
  147.9349  130.1403  153.9898 C   0  0  0  0  0  0  0  0  0  0  0  0
  146.9822  131.8051  152.3570 N   0  3  1  0  0  0  0  0  0  0  0  0
  145.7457  130.9664  152.2923 C   0  0  0  0  0  0  0  0  0  0  0  0
  145.1159  130.9813  150.8899 C   0  0  0  0  0  0  0  0  0  0  0  0
  144.8090  132.4069  150.4287 C   0  0  0  0  0  0  0  0  0  0  0  0
  146.0794  133.2584  150.5217 C   0  0  0  0  0  0  0  0  0  0  0  0
  146.7080  133.2192  151.9310 C   0  0  1  0  0  0  0  0  0  0  0  0
  145.8751  134.0205  152.9571 C   0  0  0  0  0  0  0  0  0  0  0  0
  149.6700  136.8941  156.7388 N   0  0  0  0  0  0  0  0  0  0  0  0
  150.2054  138.1260  157.1324 O   0  0  0  0  0  0  0  0  0  0  0  0
  151.3142  140.6831  155.3040 H   0  0  0  0  0  0  0  0  0  0  0  0
  152.2475  140.0399  156.6570 H   0  0  0  0  0  0  0  0  0  0  0  0
  150.6430  140.7216  156.9349 H   0  0  0  0  0  0  0  0  0  0  0  0
  150.6460  138.2945  153.8814 H   0  0  0  0  0  0  0  0  0  0  0  0
  148.8776  136.0908  153.7440 H   0  0  0  0  0  0  0  0  0  0  0  0
  148.5977  134.2866  152.9896 H   0  0  0  0  0  0  0  0  0  0  0  0
  149.6422  132.1751  152.6134 H   0  0  0  0  0  0  0  0  0  0  0  0
  149.8251  131.8959  154.3248 H   0  0  0  0  0  0  0  0  0  0  0  0
  147.1968  132.1080  154.4344 H   0  0  0  0  0  0  0  0  0  0  0  0
  148.5386  129.9961  154.8845 H   0  0  0  0  0  0  0  0  0  0  0  0
  148.4175  129.5930  153.1793 H   0  0  0  0  0  0  0  0  0  0  0  0
  146.9916  129.6478  154.2168 H   0  0  0  0  0  0  0  0  0  0  0  0
  145.9562  129.9249  152.5191 H   0  0  0  0  0  0  0  0  0  0  0  0
  145.0257  131.3015  153.0391 H   0  0  0  0  0  0  0  0  0  0  0  0
  145.7963  130.5070  150.1814 H   0  0  0  0  0  0  0  0  0  0  0  0
  144.2023  130.3857  150.8857 H   0  0  0  0  0  0  0  0  0  0  0  0
  144.4368  132.3979  149.4038 H   0  0  0  0  0  0  0  0  0  0  0  0
  144.0166  132.8370  151.0419 H   0  0  0  0  0  0  0  0  0  0  0  0
  146.8059  132.8911  149.7954 H   0  0  0  0  0  0  0  0  0  0  0  0
  145.8600  134.2869  150.2327 H   0  0  0  0  0  0  0  0  0  0  0  0
  147.6603  133.7331  151.8100 H   0  0  0  0  0  0  0  0  0  0  0  0
  145.7397  135.0485  152.6196 H   0  0  0  0  0  0  0  0  0  0  0  0
  146.3593  134.0697  153.9315 H   0  0  0  0  0  0  0  0  0  0  0  0
  144.8818  133.5993  153.1075 H   0  0  0  0  0  0  0  0  0  0  0  0
  147.5874  131.4372  151.6368 H   0  0  0  0  0  0  0  0  0  0  0  0
  1  2  1  0  0  0  0
  1 21  1  0  0  0  0
  1 22  1  0  0  0  0
  1 23  1  0  0  0  0
  2 20  1  0  0  0  0
  2  3  2  0  0  0  0
  3  4  1  0  0  0  0
  3 24  1  0  0  0  0
  4  5  1  0  0  0  0
  4 19  2  0  0  0  0
  5  6  1  0  0  0  0
  5 25  1  0  0  0  0
  6  7  2  0  0  0  0
  6  8  1  0  0  0  0
  8  9  1  0  0  0  0
  8 26  1  0  0  0  0
  9 10  1  0  0  0  0
  9 27  1  0  0  0  0
  9 28  1  0  0  0  0
 10 11  1  0  0  0  0
 10 12  1  0  0  0  0
 10 29  1  0  0  0  0
 11 30  1  0  0  0  0
 11 31  1  0  0  0  0
 11 32  1  0  0  0  0
 12 17  1  0  0  0  0
 12 13  1  0  0  0  0
 12 45  1  0  0  0  0
 13 14  1  0  0  0  0
 13 33  1  0  0  0  0
 13 34  1  0  0  0  0
 14 15  1  0  0  0  0
 14 35  1  0  0  0  0
 14 36  1  0  0  0  0
 15 16  1  0  0  0  0
 15 37  1  0  0  0  0
 15 38  1  0  0  0  0
 16 17  1  0  0  0  0
 16 39  1  0  0  0  0
 16 40  1  0  0  0  0
 17 18  1  0  0  0  0
 17 41  1  0  0  0  0
 18 42  1  0  0  0  0
 18 43  1  0  0  0  0
 18 44  1  0  0  0  0
 19 20  1  0  0  0  0
M  CHG  1  12   1
M  END
> <s_m_source_file>
AV-unprocessed.smi

> <i_m_source_file_index>
1978

> <i_lp_mmshare_version>
43012

> <i_f3d_flags>
0

> <s_epik_input>
W0NIM11jMVtjSF1jKG5vMSlbTkhdQyg9TylbTkhdW0NIMl1bQ0BIXShbQ0gzXSlOMltDSDJdW0NIMl1bQ0gyXVtDSDJdW0NASF0yW0NIM10=

> <s_epik_cmdline>
J2VwaWtfcHl0aG9uJywgJy1waCcsICc3LjAnLCAnLXRuJywgJzgnLCAnLW1hJywgJzIwMCcsICctbWV0YWxfYmluZGluZycsICctaW1hZScsICc8aW5maWxlLm1hZT4nLCAnLW9tYWUnLCAnPG91dGZpbGUubWFlPic=

> <r_epik_Ionization_Penalty>
0.00265971

> <r_epik_Ionization_Penalty_Charging>
0.00262393

> <r_epik_Ionization_Penalty_Neutral>
3.57846e-05

> <r_epik_State_Penalty>
0.00182566

> <r_epik_Charging_Adjusted_Penalty>
0.00444959

> <i_epik_Tot_Q>
1

> <i_epik_Tot_abs_Q>
1

> <r_epik_Metal_State_Penalty>
0.0216344

> <b_epik_Metal_Only>
0

> <s_lp_Force_Field>
OPLS_2005

> <r_lp_Energy>
24.7796

> <b_lp_Chiralities_Consistent>
1

> <s_lp_Variant>
AV-unprocessed.smi:1978-1

> <Gold.Version>
5.8.1

> <Gold.Id.Protein>
6NUR|6NUR_protein|mol2

> <Gold.PLP.Fitness>
38.2058

> <Gold.PLP.PLP>
-33.0633

> <Gold.PLP.part.hbond>
-3.9322

> <Gold.PLP.part.metal>
0.0000

> <Gold.PLP.part.buried>
-1.6957

> <Gold.PLP.part.nonpolar>
-26.4266

> <Gold.PLP.part.repulsive>
0.1181

> <Gold.PLP.ligand.clash>
0.0000

> <Gold.PLP.ligand.torsion>
0.6319

> <Gold.PLP.Chemscore.Hbond>
2.0954

> <Gold.PLP.Chemscore.CHOScore>
0.0000

> <Gold.PLP.Chemscore.Metal>
0.0000

> <Gold.Chemscore.Hbonds>
donor molecule, donor type, donor heavy atom, donor atom, acceptor molecule, acceptor atom, score
      L1  H     5    25       P1  7948  0.85
      L1  H     8    26       P1  7948  0.26
      L1  H    12    45       P1 10747  1.00

> <Gold.PLP.Chemscore.Internal.Correction>
0.1201

> <Gold.Rescore>
     Score         DG    S(hbond)    S(metal)    S(lipo)     H(rot)  DE(clash)    DE(int)     intcor
     15.81     -16.87       1.84        0.00      78.70       1.55       0.23       0.82       ----

> <Gold.Chemscore.Fitness>
15.8060

> <Gold.Chemscore.DG>
-16.8659

> <Gold.Chemscore.ZeroCoef>
-5.4800

> <Gold.Chemscore.Hbond>
1.8380

> <Gold.Chemscore.Metal>
0.0000

> <Gold.Chemscore.Lipo>
78.7013

> <Gold.Chemscore.Internal_Hbond>
0.0000

> <Gold.Chemscore.DEClash>
0.2350

> <Gold.Chemscore.DEInternal>
0.8249

> <Gold.Chemscore.Rot>
1.5474

> <Gold.Chemscore.Internal.Correction>
   9.000000E+99

> <Gold.Chemscore.Hbonds>
donor molecule, donor type, donor heavy atom, donor atom, acceptor molecule, acceptor atom, score
      L1  H     5    25       P1  7948  0.83
      L1  H     8    26       P1  7948  0.03
      L1  H    12    45       P1 10747  0.93

> <Gold.Chemscore.Hbond.Weighted>
-6.1391

> <Gold.Chemscore.Metal.Weighted>
-0.0000

> <Gold.Chemscore.Lipo.Weighted>
-9.2080

> <Gold.Chemscore.Internal_Hbond.Weighted>
0.0000

> <Gold.Chemscore.DEClash.Weighted>
0.2350

> <Gold.Chemscore.DEInternal.Weighted>
0.8249

> <Gold.Chemscore.Rot.Weighted>
3.9612

> <Gold.Chemscore.Internal.Correction.Weighted>
   9.000000E+99

> <Gold.Protein.RotatedTorsions>
[ 6907 6896 6895 6894 ] final  -25.89 input  -60.11 | X-H torsion
[ 7974 7965 7964 7962 ] final  168.27 input  175.53 | X-H torsion
[ 8008 7997 7996 7995 ] final  -77.07 input   59.86 | X-H torsion
[ 10167 10162 10161 10158 ] final -131.68 input  -65.29 | X-H torsion
[ 10718 10713 10712 10709 ] final   28.78 input   66.30 | X-H torsion
[ 10763 10752 10751 10750 ] final -171.80 input  -60.55 | X-H torsion
[ 11005 11000 10999 10996 ] final  -81.40 input  -57.11 | X-H torsion

> <Gold.Protein.ActiveResidues>
 VAL166  LYS551  ARG553  GLY616  TRP617  ASP618  TYR619  PRO620  LYS621  CYS622 
 ASP623  PHE694  ASN695  SER759  ASP760  ASP761  ALA762  ILE779  LEU786  VAL792 
 PHE793  MET794  SER795  GLU796  ALA797  LYS798  CYS799  TRP800  GLU811  SER814 

> <Gold.Protein.RotatedAtoms>
  151.1687  135.0307  159.8741 H   0  0  0  0  0  0  0  0  0  0  0  0  # atno 6907 bound_to 6896
  152.5449  134.1196  159.8403 H   0  0  0  0  0  0  0  0  0  0  0  0  # atno 6908 bound_to 6896
  151.1299  133.4998  159.2632 H   0  0  0  0  0  0  0  0  0  0  0  0  # atno 6909 bound_to 6896
  144.7394  139.8883  143.6401 H   0  0  0  0  0  0  0  0  0  0  0  0  # atno 7974 bound_to 7965
  154.5562  140.0716  156.8747 H   0  0  0  0  0  0  0  0  0  0  0  0  # atno 8008 bound_to 7997
  155.2897  140.3377  155.4235 H   0  0  0  0  0  0  0  0  0  0  0  0  # atno 8009 bound_to 7997
  156.2004  140.1719  156.7897 H   0  0  0  0  0  0  0  0  0  0  0  0  # atno 8010 bound_to 7997
  139.9164  143.6434  152.2564 H   0  0  0  0  0  0  0  0  0  0  0  0  # atno 10167 bound_to 10162
  157.2380  130.7055  149.6345 H   0  0  0  0  0  0  0  0  0  0  0  0  # atno 10718 bound_to 10713
  154.6265  135.2881  155.0266 H   0  0  0  0  0  0  0  0  0  0  0  0  # atno 10763 bound_to 10752
  154.1443  135.6513  153.4953 H   0  0  0  0  0  0  0  0  0  0  0  0  # atno 10764 bound_to 10752
  153.0259  135.5340  154.7075 H   0  0  0  0  0  0  0  0  0  0  0  0  # atno 10765 bound_to 10752
  141.1666  133.7195  156.8417 H   0  0  0  0  0  0  0  0  0  0  0  0  # atno 11005 bound_to 11000
  146.1160  139.4171  143.0258 LP  0  0  0  0  0  0  0  0  0  0  0  0  # atno 17320 bound_to 7965
  145.7374  141.0020  143.1319 LP  0  0  0  0  0  0  0  0  0  0  0  0  # atno 17321 bound_to 7965
  139.6899  144.7648  151.1457 LP  0  0  0  0  0  0  0  0  0  0  0  0  # atno 17342 bound_to 10162
  140.7673  143.5604  150.9105 LP  0  0  0  0  0  0  0  0  0  0  0  0  # atno 17343 bound_to 10162
  155.9671  130.4467  150.5552 LP  0  0  0  0  0  0  0  0  0  0  0  0  # atno 17370 bound_to 10713
  157.3409  131.0716  151.1789 LP  0  0  0  0  0  0  0  0  0  0  0  0  # atno 17371 bound_to 10713
  140.1978  134.8919  157.3135 LP  0  0  0  0  0  0  0  0  0  0  0  0  # atno 17394 bound_to 11000
  140.2220  134.4012  155.7561 LP  0  0  0  0  0  0  0  0  0  0  0  0  # atno 17395 bound_to 11000

$$$$
