AV-unprocessed.smi:1355|AV-procd|sdf|5539|dock4
  -GOLD-   22720 5133D 1   1.00000     0.00000
 Structure written by MMmdl.
 33 34  0  0  0  0  0  0  0  0  2 V2000
  150.6117  137.0128  154.6970 C   0  0  0  0  0  0  0  0  0  0  0  0
  151.9424  137.4969  154.7294 O   0  0  0  0  0  0  0  0  0  0  0  0
  152.0129  138.8757  155.0545 C   0  0  0  0  0  0  0  0  0  0  0  0
  151.2877  139.1380  156.3823 C   0  0  0  0  0  0  0  0  0  0  0  0
  150.8961  140.5478  156.5341 N   0  0  0  0  0  0  0  0  0  0  0  0
  149.9842  141.2875  155.8390 C   0  0  0  0  0  0  0  0  0  0  0  0
  149.1121  140.8163  154.7171 C   0  0  1  0  0  0  0  0  0  0  0  0
  147.8723  141.7089  154.5785 C   0  0  0  0  0  0  0  0  0  0  0  0
  149.7961  140.7968  153.4813 O   0  0  0  0  0  0  0  0  0  0  0  0
  149.9911  142.5413  156.3753 N   0  3  0  0  0  0  0  0  0  0  0  0
  150.9265  142.6103  157.4076 C   0  0  0  0  0  0  0  0  0  0  0  0
  151.2947  143.6679  158.2333 C   0  0  0  0  0  0  0  0  0  0  0  0
  152.2930  143.4028  159.1938 C   0  0  0  0  0  0  0  0  0  0  0  0
  152.8842  142.1277  159.3050 C   0  0  0  0  0  0  0  0  0  0  0  0
  152.5023  141.0635  158.4617 C   0  0  0  0  0  0  0  0  0  0  0  0
  151.5131  141.3330  157.5158 C   0  0  0  0  0  0  0  0  0  0  0  0
  150.6147  135.9522  154.4462 H   0  0  0  0  0  0  0  0  0  0  0  0
  150.0209  137.5351  153.9435 H   0  0  0  0  0  0  0  0  0  0  0  0
  150.1258  137.1285  155.6666 H   0  0  0  0  0  0  0  0  0  0  0  0
  153.0559  139.1854  155.1354 H   0  0  0  0  0  0  0  0  0  0  0  0
  151.5573  139.4697  154.2610 H   0  0  0  0  0  0  0  0  0  0  0  0
  150.3826  138.5329  156.4399 H   0  0  0  0  0  0  0  0  0  0  0  0
  151.9050  138.8419  157.2305 H   0  0  0  0  0  0  0  0  0  0  0  0
  148.7942  139.7944  154.9252 H   0  0  0  0  0  0  0  0  0  0  0  0
  147.2894  141.7152  155.4999 H   0  0  0  0  0  0  0  0  0  0  0  0
  147.2202  141.3549  153.7794 H   0  0  0  0  0  0  0  0  0  0  0  0
  148.1475  142.7395  154.3517 H   0  0  0  0  0  0  0  0  0  0  0  0
  149.3923  140.1483  152.9246 H   0  0  0  0  0  0  0  0  0  0  0  0
  150.8444  144.6460  158.1479 H   0  0  0  0  0  0  0  0  0  0  0  0
  152.6126  144.1936  159.8569 H   0  0  0  0  0  0  0  0  0  0  0  0
  153.6477  141.9618  160.0512 H   0  0  0  0  0  0  0  0  0  0  0  0
  152.9675  140.0931  158.5517 H   0  0  0  0  0  0  0  0  0  0  0  0
  149.3968  143.2933  156.0503 H   0  0  0  0  0  0  0  0  0  0  0  0
  1  2  1  0  0  0  0
  1 17  1  0  0  0  0
  1 18  1  0  0  0  0
  1 19  1  0  0  0  0
  2  3  1  0  0  0  0
  3  4  1  0  0  0  0
  3 20  1  0  0  0  0
  3 21  1  0  0  0  0
  4  5  1  0  0  0  0
  4 22  1  0  0  0  0
  4 23  1  0  0  0  0
  5 16  1  0  0  0  0
  5  6  1  0  0  0  0
  6  7  1  0  0  0  0
  6 10  2  0  0  0  0
  7  8  1  0  0  0  0
  7  9  1  0  0  0  0
  7 24  1  0  0  0  0
  8 25  1  0  0  0  0
  8 26  1  0  0  0  0
  8 27  1  0  0  0  0
  9 28  1  0  0  0  0
 10 11  1  0  0  0  0
 10 33  1  0  0  0  0
 11 16  2  0  0  0  0
 11 12  1  0  0  0  0
 12 13  2  0  0  0  0
 12 29  1  0  0  0  0
 13 14  1  0  0  0  0
 13 30  1  0  0  0  0
 14 15  2  0  0  0  0
 14 31  1  0  0  0  0
 15 16  1  0  0  0  0
 15 32  1  0  0  0  0
M  CHG  1  10   1
M  END
> <s_m_source_file>
AV-unprocessed.smi

> <i_m_source_file_index>
1355

> <i_lp_mmshare_version>
43012

> <i_f3d_flags>
0

> <s_epik_input>
W0NIM11PW0NIMl1bQ0gyXW4oYyhuMSlbQ0BIXShbQ0gzXSlbT0hdKWMoYzEyKVtjSF1bY0hdW2NIXVtjSF0y

> <s_epik_cmdline>
J2VwaWtfcHl0aG9uJywgJy1waCcsICc3LjAnLCAnLXRuJywgJzgnLCAnLW1hJywgJzIwMCcsICctbWV0YWxfYmluZGluZycsICctaW1hZScsICc8aW5maWxlLm1hZT4nLCAnLW9tYWUnLCAnPG91dGZpbGUubWFlPic=

> <r_epik_Ionization_Penalty>
1.43426

> <r_epik_Ionization_Penalty_Charging>
1.43423

> <r_epik_Ionization_Penalty_Neutral>
2.92192e-05

> <r_epik_State_Penalty>
1.51908

> <r_epik_Charging_Adjusted_Penalty>
2.95331

> <i_epik_Tot_Q>
1

> <i_epik_Tot_abs_Q>
1

> <r_epik_Metal_State_Penalty>
5.5644

> <b_epik_Metal_Only>
0

> <s_lp_Force_Field>
OPLS_2005

> <r_lp_Energy>
11.2179

> <b_lp_Chiralities_Consistent>
1

> <s_lp_Variant>
AV-unprocessed.smi:1355-4

> <Gold.Version>
5.8.1

> <Gold.Id.Protein>
6NUR|6NUR_protein|mol2

> <Gold.PLP.Fitness>
50.2646

> <Gold.PLP.PLP>
-38.3212

> <Gold.PLP.part.hbond>
-4.3576

> <Gold.PLP.part.metal>
0.0000

> <Gold.PLP.part.buried>
-4.6019

> <Gold.PLP.part.nonpolar>
-30.5554

> <Gold.PLP.part.repulsive>
0.1908

> <Gold.PLP.ligand.clash>
0.0000

> <Gold.PLP.ligand.torsion>
0.7684

> <Gold.PLP.Chemscore.Hbond>
4.4882

> <Gold.PLP.Chemscore.CHOScore>
0.0000

> <Gold.PLP.Chemscore.Metal>
0.0000

> <Gold.Chemscore.Hbonds>
donor molecule, donor type, donor heavy atom, donor atom, acceptor molecule, acceptor atom, score
      L1  H     9    28       P1  7957  0.50
      L1  H    10    33       P1  8028  2.00
      P1  H  7989  7998       L1     9  0.34
      P1  H  8011  8017       L1     9  1.00
      P1  H 10752 10764       L1     2  0.59

> <Gold.PLP.Chemscore.Internal.Correction>
0.0156

> <Gold.Rescore>
     Score         DG    S(hbond)    S(metal)    S(lipo)     H(rot)  DE(clash)    DE(int)     intcor
     19.88     -20.64       2.96        0.00      91.02       2.10       0.01       0.76       ----

> <Gold.Chemscore.Fitness>
19.8778

> <Gold.Chemscore.DG>
-20.6412

> <Gold.Chemscore.ZeroCoef>
-5.4800

> <Gold.Chemscore.Hbond>
2.9619

> <Gold.Chemscore.Metal>
0.0000

> <Gold.Chemscore.Lipo>
91.0152

> <Gold.Chemscore.Internal_Hbond>
0.0000

> <Gold.Chemscore.DEClash>
0.0058

> <Gold.Chemscore.DEInternal>
0.7576

> <Gold.Chemscore.Rot>
2.1017

> <Gold.Chemscore.Internal.Correction>
   9.000000E+99

> <Gold.Chemscore.Hbonds>
donor molecule, donor type, donor heavy atom, donor atom, acceptor molecule, acceptor atom, score
      L1  H     9    28       P1  7957  0.50
      L1  H    10    33       P1  8028  0.97
      P1  H  7989  7998       L1     9  0.31
      P1  H  8011  8017       L1     9  0.37
      P1  H 10752 10764       L1     2  0.12

> <Gold.Chemscore.Hbond.Weighted>
-9.8927

> <Gold.Chemscore.Metal.Weighted>
-0.0000

> <Gold.Chemscore.Lipo.Weighted>
-10.6488

> <Gold.Chemscore.Internal_Hbond.Weighted>
0.0000

> <Gold.Chemscore.DEClash.Weighted>
0.0058

> <Gold.Chemscore.DEInternal.Weighted>
0.7576

> <Gold.Chemscore.Rot.Weighted>
5.3803

> <Gold.Chemscore.Internal.Correction.Weighted>
   9.000000E+99

> <Gold.Protein.RotatedTorsions>
[ 6907 6896 6895 6894 ] final -159.13 input  -60.11 | X-H torsion
[ 7974 7965 7964 7962 ] final  -23.88 input  175.53 | X-H torsion
[ 8008 7997 7996 7995 ] final  -27.84 input   59.86 | X-H torsion
[ 10167 10162 10161 10158 ] final -145.66 input  -65.29 | X-H torsion
[ 10718 10713 10712 10709 ] final   33.69 input   66.30 | X-H torsion
[ 10763 10752 10751 10750 ] final  -74.05 input  -60.55 | X-H torsion
[ 11005 11000 10999 10996 ] final   13.67 input  -57.11 | X-H torsion

> <Gold.Protein.ActiveResidues>
 VAL166  LYS551  ARG553  GLY616  TRP617  ASP618  TYR619  PRO620  LYS621  CYS622 
 ASP623  PHE694  ASN695  SER759  ASP760  ASP761  ALA762  ILE779  LEU786  VAL792 
 PHE793  MET794  SER795  GLU796  ALA797  LYS798  CYS799  TRP800  GLU811  SER814 

> <Gold.Protein.RotatedAtoms>
  151.3288  133.4009  159.2660 H   0  0  0  0  0  0  0  0  0  0  0  0  # atno 6907 bound_to 6896
  150.9973  134.9294  159.7944 H   0  0  0  0  0  0  0  0  0  0  0  0  # atno 6908 bound_to 6896
  152.5265  134.3253  159.9215 H   0  0  0  0  0  0  0  0  0  0  0  0  # atno 6909 bound_to 6896
  146.1589  140.4675  142.8579 H   0  0  0  0  0  0  0  0  0  0  0  0  # atno 7974 bound_to 7965
  154.4359  140.1861  156.0994 H   0  0  0  0  0  0  0  0  0  0  0  0  # atno 8008 bound_to 7997
  156.0303  140.3331  155.7107 H   0  0  0  0  0  0  0  0  0  0  0  0  # atno 8009 bound_to 7997
  155.5848  140.0625  157.2764 H   0  0  0  0  0  0  0  0  0  0  0  0  # atno 8010 bound_to 7997
  139.7785  143.8135  152.2635 H   0  0  0  0  0  0  0  0  0  0  0  0  # atno 10167 bound_to 10162
  157.3010  130.7351  149.6667 H   0  0  0  0  0  0  0  0  0  0  0  0  # atno 10718 bound_to 10713
  154.4679  135.5877  153.6301 H   0  0  0  0  0  0  0  0  0  0  0  0  # atno 10763 bound_to 10752
  152.9831  135.6059  154.3404 H   0  0  0  0  0  0  0  0  0  0  0  0  # atno 10764 bound_to 10752
  154.3283  135.2843  155.2464 H   0  0  0  0  0  0  0  0  0  0  0  0  # atno 10765 bound_to 10752
  140.4782  134.0962  155.7745 H   0  0  0  0  0  0  0  0  0  0  0  0  # atno 11005 bound_to 11000
  144.8000  140.6196  143.6484 LP  0  0  0  0  0  0  0  0  0  0  0  0  # atno 17320 bound_to 7965
  145.4638  139.1510  143.3852 LP  0  0  0  0  0  0  0  0  0  0  0  0  # atno 17321 bound_to 7965
  139.8190  144.7303  150.9597 LP  0  0  0  0  0  0  0  0  0  0  0  0  # atno 17342 bound_to 10162
  140.7817  143.4177  151.0891 LP  0  0  0  0  0  0  0  0  0  0  0  0  # atno 17343 bound_to 10162
  155.9671  130.4280  150.4768 LP  0  0  0  0  0  0  0  0  0  0  0  0  # atno 17370 bound_to 10713
  157.2749  131.0595  151.2236 LP  0  0  0  0  0  0  0  0  0  0  0  0  # atno 17371 bound_to 10713
  141.1544  133.8909  157.2015 LP  0  0  0  0  0  0  0  0  0  0  0  0  # atno 17394 bound_to 11000
  139.9843  135.0087  156.9825 LP  0  0  0  0  0  0  0  0  0  0  0  0  # atno 17395 bound_to 11000

$$$$
