AV-unprocessed.smi:1475|AV-procd|sdf|5976|dock8
  -GOLD-   22720 6 63D 1   1.00000     0.00000
 Structure written by MMmdl.
 50 51  0  0  0  0  0  0  0  0  2 V2000
  151.0777  142.3173  156.4940 C   0  0  0  0  0  0  0  0  0  0  0  0
  150.5132  141.1738  155.7042 C   0  0  0  0  0  0  0  0  0  0  0  0
  149.2035  141.0381  155.1653 C   0  0  0  0  0  0  0  0  0  0  0  0
  149.2176  139.8209  154.5452 C   0  0  0  0  0  0  0  0  0  0  0  0
  148.1390  139.1120  153.7942 C   0  0  0  0  0  0  0  0  0  0  0  0
  150.4837  139.2926  154.7268 N   0  0  0  0  0  0  0  0  0  0  0  0
  151.0268  138.0279  154.2576 C   0  0  0  0  0  0  0  0  0  0  0  0
  150.3247  136.8472  154.9294 C   0  0  0  0  0  0  0  0  0  0  0  0
  149.6710  137.0217  155.9576 O   0  0  0  0  0  0  0  0  0  0  0  0
  150.4628  135.6508  154.3364 N   0  0  0  0  0  0  0  0  0  0  0  0
  149.8380  134.4138  154.7895 C   0  0  0  0  0  0  0  0  0  0  0  0
  148.3202  134.5827  155.0027 C   0  0  0  0  0  0  0  0  0  0  0  0
  147.5747  134.7371  153.7275 N   0  3  1  0  0  0  0  0  0  0  0  0
  147.1484  133.4264  153.1717 C   0  0  0  0  0  0  0  0  0  0  0  0
  146.5037  133.5842  151.7809 C   0  0  1  0  0  0  0  0  0  0  0  0
  146.0710  132.2283  151.2051 C   0  0  0  0  0  0  0  0  0  0  0  0
  145.3228  134.5664  151.8505 C   0  0  0  0  0  0  0  0  0  0  0  0
  145.7688  135.9090  152.4522 C   0  0  1  0  0  0  0  0  0  0  0  0
  144.5977  136.8971  152.5487 C   0  0  0  0  0  0  0  0  0  0  0  0
  146.4311  135.6837  153.8252 C   0  0  0  0  0  0  0  0  0  0  0  0
  151.2755  140.1258  155.4376 N   0  0  0  0  0  0  0  0  0  0  0  0
  150.3240  143.0858  156.6665 H   0  0  0  0  0  0  0  0  0  0  0  0
  151.9118  142.7832  155.9691 H   0  0  0  0  0  0  0  0  0  0  0  0
  151.4385  141.9830  157.4672 H   0  0  0  0  0  0  0  0  0  0  0  0
  148.3770  141.7308  155.2251 H   0  0  0  0  0  0  0  0  0  0  0  0
  147.2352  139.7196  153.7466 H   0  0  0  0  0  0  0  0  0  0  0  0
  147.8836  138.1693  154.2781 H   0  0  0  0  0  0  0  0  0  0  0  0
  148.4512  138.8971  152.7723 H   0  0  0  0  0  0  0  0  0  0  0  0
  150.9187  137.9670  153.1734 H   0  0  0  0  0  0  0  0  0  0  0  0
  152.0961  137.9947  154.4694 H   0  0  0  0  0  0  0  0  0  0  0  0
  151.0125  135.6047  153.4899 H   0  0  0  0  0  0  0  0  0  0  0  0
  150.0587  133.6288  154.0659 H   0  0  0  0  0  0  0  0  0  0  0  0
  150.3140  134.1180  155.7248 H   0  0  0  0  0  0  0  0  0  0  0  0
  147.9557  133.6981  155.5270 H   0  0  0  0  0  0  0  0  0  0  0  0
  148.1043  135.4336  155.6504 H   0  0  0  0  0  0  0  0  0  0  0  0
  148.0143  132.7678  153.0905 H   0  0  0  0  0  0  0  0  0  0  0  0
  146.4514  132.9486  153.8625 H   0  0  0  0  0  0  0  0  0  0  0  0
  147.2531  134.0025  151.1069 H   0  0  0  0  0  0  0  0  0  0  0  0
  145.3127  131.7549  151.8296 H   0  0  0  0  0  0  0  0  0  0  0  0
  146.9166  131.5438  151.1321 H   0  0  0  0  0  0  0  0  0  0  0  0
  145.6534  132.3420  150.2042 H   0  0  0  0  0  0  0  0  0  0  0  0
  144.9110  134.7243  150.8528 H   0  0  0  0  0  0  0  0  0  0  0  0
  144.5203  134.1388  152.4537 H   0  0  0  0  0  0  0  0  0  0  0  0
  146.5136  136.3481  151.7866 H   0  0  0  0  0  0  0  0  0  0  0  0
  143.8106  136.5184  153.2015 H   0  0  0  0  0  0  0  0  0  0  0  0
  144.1571  137.0801  151.5683 H   0  0  0  0  0  0  0  0  0  0  0  0
  144.9258  137.8581  152.9459 H   0  0  0  0  0  0  0  0  0  0  0  0
  145.7014  135.2992  154.5398 H   0  0  0  0  0  0  0  0  0  0  0  0
  146.7695  136.6448  154.2098 H   0  0  0  0  0  0  0  0  0  0  0  0
  148.2254  135.1274  153.0607 H   0  0  0  0  0  0  0  0  0  0  0  0
  1  2  1  0  0  0  0
  1 22  1  0  0  0  0
  1 23  1  0  0  0  0
  1 24  1  0  0  0  0
  2 21  2  0  0  0  0
  2  3  1  0  0  0  0
  3  4  2  0  0  0  0
  3 25  1  0  0  0  0
  4  5  1  0  0  0  0
  4  6  1  0  0  0  0
  5 26  1  0  0  0  0
  5 27  1  0  0  0  0
  5 28  1  0  0  0  0
  6  7  1  0  0  0  0
  6 21  1  0  0  0  0
  7  8  1  0  0  0  0
  7 29  1  0  0  0  0
  7 30  1  0  0  0  0
  8  9  2  0  0  0  0
  8 10  1  0  0  0  0
 10 11  1  0  0  0  0
 10 31  1  0  0  0  0
 11 12  1  0  0  0  0
 11 32  1  0  0  0  0
 11 33  1  0  0  0  0
 12 13  1  0  0  0  0
 12 34  1  0  0  0  0
 12 35  1  0  0  0  0
 13 20  1  0  0  0  0
 13 14  1  0  0  0  0
 13 50  1  0  0  0  0
 14 15  1  0  0  0  0
 14 36  1  0  0  0  0
 14 37  1  0  0  0  0
 15 16  1  0  0  0  0
 15 17  1  0  0  0  0
 15 38  1  0  0  0  0
 16 39  1  0  0  0  0
 16 40  1  0  0  0  0
 16 41  1  0  0  0  0
 17 18  1  0  0  0  0
 17 42  1  0  0  0  0
 17 43  1  0  0  0  0
 18 19  1  0  0  0  0
 18 20  1  0  0  0  0
 18 44  1  0  0  0  0
 19 45  1  0  0  0  0
 19 46  1  0  0  0  0
 19 47  1  0  0  0  0
 20 48  1  0  0  0  0
 20 49  1  0  0  0  0
M  CHG  1  13   1
M  END
> <s_m_source_file>
AV-unprocessed.smi

> <i_m_source_file_index>
1475

> <i_lp_mmshare_version>
43012

> <i_f3d_flags>
0

> <s_epik_input>
W0NIM11jMVtjSF1jKFtDSDNdKW4objEpW0NIMl1DKD1PKVtOSF1bQ0gyXVtDSDJdTjJbQ0gyXVtDQEBIXShbQ0gzXSlbQ0gyXVtDQEBIXShbQ0gzXSlbQ0gyXTI=

> <s_epik_cmdline>
J2VwaWtfcHl0aG9uJywgJy1waCcsICc3LjAnLCAnLXRuJywgJzgnLCAnLW1hJywgJzIwMCcsICctbWV0YWxfYmluZGluZycsICctaW1hZScsICc8aW5maWxlLm1hZT4nLCAnLW9tYWUnLCAnPG91dGZpbGUubWFlPic=

> <r_lp_tautomer_probability>
1

> <r_epik_Ionization_Penalty>
0.00206431

> <r_epik_Ionization_Penalty_Charging>
0.00187095

> <r_epik_Ionization_Penalty_Neutral>
0.000193364

> <r_epik_State_Penalty>
-0

> <r_epik_Charging_Adjusted_Penalty>
0.00187095

> <i_epik_Tot_Q>
1

> <i_epik_Tot_abs_Q>
1

> <r_epik_Metal_State_Penalty>
-0

> <b_epik_Metal_Only>
0

> <s_lp_Force_Field>
OPLS_2005

> <r_lp_Energy>
13.7816

> <b_lp_Chiralities_Consistent>
1

> <s_lp_Variant>
AV-unprocessed.smi:1475-1

> <Gold.Version>
5.8.1

> <Gold.Id.Protein>
6NUR|6NUR_protein|mol2

> <Gold.PLP.Fitness>
43.6208

> <Gold.PLP.PLP>
-36.2033

> <Gold.PLP.part.hbond>
-4.0000

> <Gold.PLP.part.metal>
0.0000

> <Gold.PLP.part.buried>
-1.9078

> <Gold.PLP.part.nonpolar>
-30.2843

> <Gold.PLP.part.repulsive>
0.1615

> <Gold.PLP.ligand.clash>
0.0000

> <Gold.PLP.ligand.torsion>
0.7596

> <Gold.PLP.Chemscore.Hbond>
2.9660

> <Gold.PLP.Chemscore.CHOScore>
0.0000

> <Gold.PLP.Chemscore.Metal>
0.0000

> <Gold.Chemscore.Hbonds>
donor molecule, donor type, donor heavy atom, donor atom, acceptor molecule, acceptor atom, score
      L1  H    10    31       P1  7949  0.83
      L1  H    13    50       P1  7948  2.00
      P1  H  7989  7998       L1    21  0.02

> <Gold.PLP.Chemscore.Internal.Correction>
0.0388

> <Gold.Rescore>
     Score         DG    S(hbond)    S(metal)    S(lipo)     H(rot)  DE(clash)    DE(int)     intcor
     12.85     -14.88       1.19        0.00      82.42       1.64       0.02       2.01       ----

> <Gold.Chemscore.Fitness>
12.8544

> <Gold.Chemscore.DG>
-14.8846

> <Gold.Chemscore.ZeroCoef>
-5.4800

> <Gold.Chemscore.Hbond>
1.1856

> <Gold.Chemscore.Metal>
0.0000

> <Gold.Chemscore.Lipo>
82.4165

> <Gold.Chemscore.Internal_Hbond>
0.0000

> <Gold.Chemscore.DEClash>
0.0204

> <Gold.Chemscore.DEInternal>
2.0099

> <Gold.Chemscore.Rot>
1.6399

> <Gold.Chemscore.Internal.Correction>
   9.000000E+99

> <Gold.Chemscore.Hbonds>
donor molecule, donor type, donor heavy atom, donor atom, acceptor molecule, acceptor atom, score
      L1  H    10    31       P1  7949  0.13
      L1  H    13    50       P1  7948  0.96

> <Gold.Chemscore.Hbond.Weighted>
-3.9600

> <Gold.Chemscore.Metal.Weighted>
-0.0000

> <Gold.Chemscore.Lipo.Weighted>
-9.6427

> <Gold.Chemscore.Internal_Hbond.Weighted>
0.0000

> <Gold.Chemscore.DEClash.Weighted>
0.0204

> <Gold.Chemscore.DEInternal.Weighted>
2.0099

> <Gold.Chemscore.Rot.Weighted>
4.1982

> <Gold.Chemscore.Internal.Correction.Weighted>
   9.000000E+99

> <Gold.Protein.RotatedTorsions>
[ 6907 6896 6895 6894 ] final  -90.18 input  -60.11 | X-H torsion
[ 7974 7965 7964 7962 ] final   65.89 input  175.53 | X-H torsion
[ 8008 7997 7996 7995 ] final -160.24 input   59.86 | X-H torsion
[ 10167 10162 10161 10158 ] final  179.26 input  -65.29 | X-H torsion
[ 10718 10713 10712 10709 ] final  -71.58 input   66.30 | X-H torsion
[ 10763 10752 10751 10750 ] final -116.19 input  -60.55 | X-H torsion
[ 11005 11000 10999 10996 ] final  -72.31 input  -57.11 | X-H torsion

> <Gold.Protein.ActiveResidues>
 VAL166  LYS551  ARG553  GLY616  TRP617  ASP618  TYR619  PRO620  LYS621  CYS622 
 ASP623  PHE694  ASN695  SER759  ASP760  ASP761  ALA762  ILE779  LEU786  VAL792 
 PHE793  MET794  SER795  GLU796  ALA797  LYS798  CYS799  TRP800  GLU811  SER814 

> <Gold.Protein.RotatedAtoms>
  150.6879  134.2472  159.4496 H   0  0  0  0  0  0  0  0  0  0  0  0  # atno 6907 bound_to 6896
  152.0412  134.9707  160.0583 H   0  0  0  0  0  0  0  0  0  0  0  0  # atno 6908 bound_to 6896
  152.1208  133.4318  159.4712 H   0  0  0  0  0  0  0  0  0  0  0  0  # atno 6909 bound_to 6896
  145.8331  139.3150  143.0976 H   0  0  0  0  0  0  0  0  0  0  0  0  # atno 7974 bound_to 7965
  155.7745  140.0856  157.2091 H   0  0  0  0  0  0  0  0  0  0  0  0  # atno 8008 bound_to 7997
  154.3994  140.1519  156.3038 H   0  0  0  0  0  0  0  0  0  0  0  0  # atno 8009 bound_to 7997
  155.8714  140.3425  155.5826 H   0  0  0  0  0  0  0  0  0  0  0  0  # atno 8010 bound_to 7997
  139.5329  144.2582  152.0729 H   0  0  0  0  0  0  0  0  0  0  0  0  # atno 10167 bound_to 10162
  156.0356  130.4354  150.2466 H   0  0  0  0  0  0  0  0  0  0  0  0  # atno 10718 bound_to 10713
  154.8510  135.4354  154.1782 H   0  0  0  0  0  0  0  0  0  0  0  0  # atno 10763 bound_to 10752
  153.2879  135.6959  153.7328 H   0  0  0  0  0  0  0  0  0  0  0  0  # atno 10764 bound_to 10752
  153.6506  135.3452  155.3073 H   0  0  0  0  0  0  0  0  0  0  0  0  # atno 10765 bound_to 10752
  141.1606  133.6843  156.7039 H   0  0  0  0  0  0  0  0  0  0  0  0  # atno 11005 bound_to 11000
  145.9549  140.8880  143.0240 LP  0  0  0  0  0  0  0  0  0  0  0  0  # atno 17320 bound_to 7965
  144.6738  140.1731  143.7412 LP  0  0  0  0  0  0  0  0  0  0  0  0  # atno 17321 bound_to 7965
  140.2048  144.4622  150.6414 LP  0  0  0  0  0  0  0  0  0  0  0  0  # atno 17342 bound_to 10162
  140.6518  143.2227  151.6060 LP  0  0  0  0  0  0  0  0  0  0  0  0  # atno 17343 bound_to 10162
  157.0565  131.0077  151.3236 LP  0  0  0  0  0  0  0  0  0  0  0  0  # atno 17370 bound_to 10713
  157.5102  130.7934  149.7697 LP  0  0  0  0  0  0  0  0  0  0  0  0  # atno 17371 bound_to 10713
  140.2938  134.8219  157.4039 LP  0  0  0  0  0  0  0  0  0  0  0  0  # atno 17394 bound_to 11000
  140.1323  134.5079  155.8096 LP  0  0  0  0  0  0  0  0  0  0  0  0  # atno 17395 bound_to 11000

$$$$
