AV-unprocessed.smi:2388|AV-procd|sdf|9471|dock3
  -GOLD-   2272013103D 1   1.00000     0.00000
 Structure written by MMmdl.
 43 44  0  0  0  0  0  0  0  0  1 V2000
  147.7163  132.9183  152.7508 C   0  0  0  0  0  0  0  0  0  0  0  0
  148.7119  132.9376  153.8914 C   0  0  0  0  0  0  0  0  0  0  0  0
  149.4390  131.7822  154.2389 C   0  0  0  0  0  0  0  0  0  0  0  0
  150.3529  131.8697  155.3042 C   0  0  0  0  0  0  0  0  0  0  0  0
  150.5008  133.0998  155.9737 C   0  0  0  0  0  0  0  0  0  0  0  0
  149.7300  134.2111  155.5643 C   0  0  0  0  0  0  0  0  0  0  0  0
  149.9511  135.4025  156.3049 N   0  0  0  0  0  0  0  0  0  0  0  0
  151.0858  135.8146  156.8977 C   0  0  0  0  0  0  0  0  0  0  0  0
  152.1562  135.2062  156.8866 O   0  0  0  0  0  0  0  0  0  0  0  0
  150.9092  136.9942  157.5094 N   0  0  0  0  0  0  0  0  0  0  0  0
  151.9372  137.7294  158.2373 C   0  0  0  0  0  0  0  0  0  0  0  0
  152.0142  139.1823  157.7336 C   0  0  0  0  0  0  0  0  0  0  0  0
  152.8118  140.1204  158.6569 C   0  0  0  0  0  0  0  0  0  0  0  0
  153.9615  139.8101  158.9737 O   0  0  0  0  0  0  0  0  0  0  0  0
  152.2250  141.2592  159.1007 N   0  0  0  0  0  0  0  0  0  0  0  0
  152.8669  142.2796  159.9413 C   0  0  0  0  0  0  0  0  0  0  0  0
  153.1343  143.5291  159.0824 C   0  0  0  0  0  0  0  0  0  0  0  0
  151.8315  144.0433  158.4398 C   0  0  0  0  0  0  0  0  0  0  0  0
  151.0613  142.9146  157.7282 C   0  0  0  0  0  0  0  0  0  0  0  0
  150.8957  141.6927  158.6508 C   0  0  0  0  0  0  0  0  0  0  0  0
  148.8525  134.1169  154.5342 N   0  0  0  0  0  0  0  0  0  0  0  0
  147.5698  131.9069  152.3707 H   0  0  0  0  0  0  0  0  0  0  0  0
  148.0703  133.5435  151.9307 H   0  0  0  0  0  0  0  0  0  0  0  0
  146.7499  133.3000  153.0817 H   0  0  0  0  0  0  0  0  0  0  0  0
  149.3032  130.8534  153.7048 H   0  0  0  0  0  0  0  0  0  0  0  0
  150.9316  131.0084  155.6037 H   0  0  0  0  0  0  0  0  0  0  0  0
  151.1988  133.1833  156.7942 H   0  0  0  0  0  0  0  0  0  0  0  0
  149.1543  136.0161  156.3870 H   0  0  0  0  0  0  0  0  0  0  0  0
  149.9954  137.4205  157.4622 H   0  0  0  0  0  0  0  0  0  0  0  0
  151.7357  137.7228  159.3103 H   0  0  0  0  0  0  0  0  0  0  0  0
  152.8896  137.2191  158.0873 H   0  0  0  0  0  0  0  0  0  0  0  0
  152.4721  139.1992  156.7437 H   0  0  0  0  0  0  0  0  0  0  0  0
  150.9992  139.5689  157.6302 H   0  0  0  0  0  0  0  0  0  0  0  0
  152.2006  142.5332  160.7669 H   0  0  0  0  0  0  0  0  0  0  0  0
  153.7897  141.9446  160.4121 H   0  0  0  0  0  0  0  0  0  0  0  0
  153.5848  144.3142  159.6901 H   0  0  0  0  0  0  0  0  0  0  0  0
  153.8568  143.2867  158.3018 H   0  0  0  0  0  0  0  0  0  0  0  0
  151.1968  144.4711  159.2169 H   0  0  0  0  0  0  0  0  0  0  0  0
  152.0485  144.8510  157.7403 H   0  0  0  0  0  0  0  0  0  0  0  0
  150.0852  143.2755  157.4029 H   0  0  0  0  0  0  0  0  0  0  0  0
  151.5984  142.6180  156.8262 H   0  0  0  0  0  0  0  0  0  0  0  0
  150.3456  140.9071  158.1314 H   0  0  0  0  0  0  0  0  0  0  0  0
  150.2875  141.9563  159.5172 H   0  0  0  0  0  0  0  0  0  0  0  0
  1  2  1  0  0  0  0
  1 22  1  0  0  0  0
  1 23  1  0  0  0  0
  1 24  1  0  0  0  0
  2 21  1  0  0  0  0
  2  3  2  0  0  0  0
  3  4  1  0  0  0  0
  3 25  1  0  0  0  0
  4  5  2  0  0  0  0
  4 26  1  0  0  0  0
  5  6  1  0  0  0  0
  5 27  1  0  0  0  0
  6  7  1  0  0  0  0
  6 21  2  0  0  0  0
  7  8  1  0  0  0  0
  7 28  1  0  0  0  0
  8  9  2  0  0  0  0
  8 10  1  0  0  0  0
 10 11  1  0  0  0  0
 10 29  1  0  0  0  0
 11 12  1  0  0  0  0
 11 30  1  0  0  0  0
 11 31  1  0  0  0  0
 12 13  1  0  0  0  0
 12 32  1  0  0  0  0
 12 33  1  0  0  0  0
 13 14  2  0  0  0  0
 13 15  1  0  0  0  0
 15 20  1  0  0  0  0
 15 16  1  0  0  0  0
 16 17  1  0  0  0  0
 16 34  1  0  0  0  0
 16 35  1  0  0  0  0
 17 18  1  0  0  0  0
 17 36  1  0  0  0  0
 17 37  1  0  0  0  0
 18 19  1  0  0  0  0
 18 38  1  0  0  0  0
 18 39  1  0  0  0  0
 19 20  1  0  0  0  0
 19 40  1  0  0  0  0
 19 41  1  0  0  0  0
 20 42  1  0  0  0  0
 20 43  1  0  0  0  0
M  END
> <s_m_source_file>
AV-unprocessed.smi

> <i_m_source_file_index>
2388

> <i_lp_mmshare_version>
43012

> <i_f3d_flags>
0

> <s_epik_input>
W0NIM11jMVtjSF1bY0hdW2NIXWMobjEpW05IXUMoPU8pW05IXVtDSDJdW0NIMl1DKD1PKU4yW0NIMl1bQ0gyXVtDSDJdW0NIMl1bQ0gyXTI=

> <s_epik_cmdline>
J2VwaWtfcHl0aG9uJywgJy1waCcsICc3LjAnLCAnLXRuJywgJzgnLCAnLW1hJywgJzIwMCcsICctbWV0YWxfYmluZGluZycsICctaW1hZScsICc8aW5maWxlLm1hZT4nLCAnLW9tYWUnLCAnPG91dGZpbGUubWFlPic=

> <r_lp_tautomer_probability>
1

> <r_epik_Ionization_Penalty>
7.16628e-05

> <r_epik_Ionization_Penalty_Charging>
0

> <r_epik_Ionization_Penalty_Neutral>
7.16628e-05

> <r_epik_State_Penalty>
-0

> <r_epik_Charging_Adjusted_Penalty>
0

> <i_epik_Tot_Q>
0

> <i_epik_Tot_abs_Q>
0

> <r_epik_Metal_State_Penalty>
-0

> <b_epik_Metal_Only>
0

> <s_lp_Force_Field>
OPLS_2005

> <r_lp_Energy>
26.3076

> <b_lp_Chiralities_Consistent>
1

> <s_lp_Variant>
AV-unprocessed.smi:2388-1

> <Gold.Version>
5.8.1

> <Gold.Id.Protein>
6NUR|6NUR_protein|mol2

> <Gold.PLP.Fitness>
45.1262

> <Gold.PLP.PLP>
-40.3995

> <Gold.PLP.part.hbond>
-2.0000

> <Gold.PLP.part.metal>
0.0000

> <Gold.PLP.part.buried>
-4.6954

> <Gold.PLP.part.nonpolar>
-33.3464

> <Gold.PLP.part.repulsive>
0.3039

> <Gold.PLP.ligand.clash>
0.0000

> <Gold.PLP.ligand.torsion>
0.3288

> <Gold.PLP.Chemscore.Hbond>
1.7840

> <Gold.PLP.Chemscore.CHOScore>
0.0000

> <Gold.PLP.Chemscore.Metal>
0.0000

> <Gold.Chemscore.Hbonds>
donor molecule, donor type, donor heavy atom, donor atom, acceptor molecule, acceptor atom, score
      P1  H  7997  8008       L1    14  0.62
      P1  H 10752 10763       L1     9  0.99

> <Gold.PLP.Chemscore.Internal.Correction>
0.0322

> <Gold.Rescore>
     Score         DG    S(hbond)    S(metal)    S(lipo)     H(rot)  DE(clash)    DE(int)     intcor
     16.18     -17.87       1.80        0.00      87.71       1.51       0.04       1.65       ----

> <Gold.Chemscore.Fitness>
16.1818

> <Gold.Chemscore.DG>
-17.8749

> <Gold.Chemscore.ZeroCoef>
-5.4800

> <Gold.Chemscore.Hbond>
1.7983

> <Gold.Chemscore.Metal>
0.0000

> <Gold.Chemscore.Lipo>
87.7083

> <Gold.Chemscore.Internal_Hbond>
0.0000

> <Gold.Chemscore.DEClash>
0.0435

> <Gold.Chemscore.DEInternal>
1.6496

> <Gold.Chemscore.Rot>
1.5131

> <Gold.Chemscore.Internal.Correction>
   9.000000E+99

> <Gold.Chemscore.Hbonds>
donor molecule, donor type, donor heavy atom, donor atom, acceptor molecule, acceptor atom, score
      P1  H  7997  8008       L1    14  0.49
      P1  H 10752 10763       L1     9  0.89

> <Gold.Chemscore.Hbond.Weighted>
-6.0065

> <Gold.Chemscore.Metal.Weighted>
-0.0000

> <Gold.Chemscore.Lipo.Weighted>
-10.2619

> <Gold.Chemscore.Internal_Hbond.Weighted>
0.0000

> <Gold.Chemscore.DEClash.Weighted>
0.0435

> <Gold.Chemscore.DEInternal.Weighted>
1.6496

> <Gold.Chemscore.Rot.Weighted>
3.8735

> <Gold.Chemscore.Internal.Correction.Weighted>
   9.000000E+99

> <Gold.Protein.RotatedTorsions>
[ 6907 6896 6895 6894 ] final  -10.48 input  -60.11 | X-H torsion
[ 7974 7965 7964 7962 ] final   41.89 input  175.53 | X-H torsion
[ 8008 7997 7996 7995 ] final -131.88 input   59.86 | X-H torsion
[ 10167 10162 10161 10158 ] final   55.06 input  -65.29 | X-H torsion
[ 10718 10713 10712 10709 ] final -168.15 input   66.30 | X-H torsion
[ 10763 10752 10751 10750 ] final  106.97 input  -60.55 | X-H torsion
[ 11005 11000 10999 10996 ] final  106.98 input  -57.11 | X-H torsion

> <Gold.Protein.ActiveResidues>
 VAL166  LYS551  ARG553  GLY616  TRP617  ASP618  TYR619  PRO620  LYS621  CYS622 
 ASP623  PHE694  ASN695  SER759  ASP760  ASP761  ALA762  ILE779  LEU786  VAL792 
 PHE793  MET794  SER795  GLU796  ALA797  LYS798  CYS799  TRP800  GLU811  SER814 

> <Gold.Protein.RotatedAtoms>
  151.4012  135.0971  159.9556 H   0  0  0  0  0  0  0  0  0  0  0  0  # atno 6907 bound_to 6896
  152.5049  133.8886  159.7393 H   0  0  0  0  0  0  0  0  0  0  0  0  # atno 6908 bound_to 6896
  150.9361  133.6654  159.2829 H   0  0  0  0  0  0  0  0  0  0  0  0  # atno 6909 bound_to 6896
  146.0786  139.5363  142.9552 H   0  0  0  0  0  0  0  0  0  0  0  0  # atno 7974 bound_to 7965
  155.3197  140.0461  157.3038 H   0  0  0  0  0  0  0  0  0  0  0  0  # atno 8008 bound_to 7997
  154.5387  140.2280  155.8644 H   0  0  0  0  0  0  0  0  0  0  0  0  # atno 8009 bound_to 7997
  156.1860  140.3062  155.9245 H   0  0  0  0  0  0  0  0  0  0  0  0  # atno 8010 bound_to 7997
  140.2235  144.3763  150.6441 H   0  0  0  0  0  0  0  0  0  0  0  0  # atno 10167 bound_to 10162
  156.6927  130.9166  151.3071 H   0  0  0  0  0  0  0  0  0  0  0  0  # atno 10718 bound_to 10713
  153.4002  135.3860  155.1982 H   0  0  0  0  0  0  0  0  0  0  0  0  # atno 10763 bound_to 10752
  154.8728  135.3769  154.4628 H   0  0  0  0  0  0  0  0  0  0  0  0  # atno 10764 bound_to 10752
  153.5124  135.7087  153.5836 H   0  0  0  0  0  0  0  0  0  0  0  0  # atno 10765 bound_to 10752
  139.8821  134.9386  156.5750 H   0  0  0  0  0  0  0  0  0  0  0  0  # atno 11005 bound_to 11000
  145.6260  141.0313  143.1889 LP  0  0  0  0  0  0  0  0  0  0  0  0  # atno 17320 bound_to 7965
  144.7278  139.7821  143.7358 LP  0  0  0  0  0  0  0  0  0  0  0  0  # atno 17321 bound_to 7965
  140.6237  143.2179  151.6640 LP  0  0  0  0  0  0  0  0  0  0  0  0  # atno 17342 bound_to 10162
  139.5135  144.3440  152.0714 LP  0  0  0  0  0  0  0  0  0  0  0  0  # atno 17343 bound_to 10162
  157.7003  130.9325  150.0764 LP  0  0  0  0  0  0  0  0  0  0  0  0  # atno 17370 bound_to 10713
  156.1786  130.3649  149.9067 LP  0  0  0  0  0  0  0  0  0  0  0  0  # atno 17371 bound_to 10713
  140.8070  133.8459  155.8776 LP  0  0  0  0  0  0  0  0  0  0  0  0  # atno 17394 bound_to 11000
  140.9541  134.1741  157.4705 LP  0  0  0  0  0  0  0  0  0  0  0  0  # atno 17395 bound_to 11000

$$$$
