#       Name:                AV-unprocessed.smi:594
#       Creating user name   scv26
#       Creation time:       Thu Mar 26 23:52:37 2020


#       File generated by GOLD software.
#

@<TRIPOS>MOLECULE
AV-unprocessed.smi:594
    46    47     1
SMALL
NO_CHARGES


@<TRIPOS>ATOM
      1 ****        -1.5190  -1.4921   1.5757 C.3            1 S1                 0.0000
      2 ****        -1.8479  -1.9956   0.1582 C.3            1 S1                 0.0000
      3 ****        -3.3291  -2.4159   0.0662 C.3            1 S1                 0.0000
      4 ****        -3.6923  -2.9376  -1.3322 C.3            1 S1                 0.0000
      5 ****        -3.3666  -1.8943  -2.4091 C.3            1 S1                 0.0000
      6 ****        -1.8894  -1.4806  -2.3425 C.3            1 S1                 0.0000
      7 ****        -1.5059  -0.9586  -0.9437 C.3            1 S1                 0.0000
      8 ****        -0.0785  -0.6418  -0.9349 N.am           1 S1                 0.0000
      9 ****         0.4722   0.5038  -0.5040 C.2            1 S1                 0.0000
     10 ****        -0.1838   1.4582  -0.0845 O.2            1 S1                 0.0000
     11 ****         2.0036   0.5783  -0.5670 C.3            1 S1                 0.0000
     12 ****         2.5797   1.4059   0.5062 N.am           1 S1                 0.0000
     13 ****         2.9482   2.7247   0.1737 C.2            1 S1                 0.0000
     14 ****         3.4790   3.5696   1.0793 C.2            1 S1                 0.0000
     15 ****         3.8482   4.9215   0.7215 N.pl3          1 S1                 1.0000
     16 ****         4.3100   5.6547   1.5901 O.2            1 S1                 0.0000
     17 ****         3.6910   5.2951  -0.4371 O.2            1 S1                -1.0000
     18 ****         3.6657   3.0788   2.4311 C.2            1 S1                 0.0000
     19 ****         3.3126   1.8196   2.7563 C.2            1 S1                 0.0000
     20 ****         2.7333   0.9023   1.7694 C.2            1 S1                 0.0000
     21 ****         2.4062  -0.2485   2.0608 O.2            1 S1                 0.0000
     22 ****        -2.0478  -0.5648   1.7981 H              1 S1                 0.0000
     23 ****        -0.4524  -1.3051   1.7005 H              1 S1                 0.0000
     24 ****        -1.8053  -2.2266   2.3288 H              1 S1                 0.0000
     25 ****        -1.2435  -2.8870  -0.0178 H              1 S1                 0.0000
     26 ****        -3.5443  -3.1871   0.8068 H              1 S1                 0.0000
     27 ****        -3.9676  -1.5664   0.3131 H              1 S1                 0.0000
     28 ****        -3.1435  -3.8583  -1.5348 H              1 S1                 0.0000
     29 ****        -4.7515  -3.1935  -1.3706 H              1 S1                 0.0000
     30 ****        -3.5977  -2.2941  -3.3968 H              1 S1                 0.0000
     31 ****        -3.9998  -1.0166  -2.2736 H              1 S1                 0.0000
     32 ****        -1.2646  -2.3364  -2.6026 H              1 S1                 0.0000
     33 ****        -1.6914  -0.7147  -3.0935 H              1 S1                 0.0000
     34 ****        -2.0907  -0.0555  -0.7580 H              1 S1                 0.0000
     35 ****         0.5440  -1.3648  -1.2656 H              1 S1                 0.0000
     36 ****         2.4241  -0.4285  -0.5258 H              1 S1                 0.0000
     37 ****         2.2840   0.9644  -1.5479 H              1 S1                 0.0000
     38 ****         2.7623   2.9965  -0.8554 H              1 S1                 0.0000
     39 ****         4.0893   3.7172   3.1924 H              1 S1                 0.0000
     40 ****         3.4594   1.4749   3.7694 H              1 S1                 0.0000
     41 ****        -1.1818   1.4034  -0.0524 LP             1 S1                 0.0000
     42 ****         0.2816   2.2878   0.2239 LP             1 S1                 0.0000
     43 ****         4.4244   5.3138   2.5232 LP             1 S1                 0.0000
     44 ****         4.5720   6.5931   1.3649 LP             1 S1                 0.0000
     45 ****         2.0138  -0.8485   1.3636 LP             1 S1                 0.0000
     46 ****         2.5330  -0.5831   2.9946 LP             1 S1                 0.0000
@<TRIPOS>BOND
    1    1    2 1     
    2    1   22 1     
    3    1   23 1     
    4    1   24 1     
    5    2    7 1     
    6    2    3 1     
    7    2   25 1     
    8    3    4 1     
    9    3   26 1     
   10    3   27 1     
   11    4    5 1     
   12    4   28 1     
   13    4   29 1     
   14    5    6 1     
   15    5   30 1     
   16    5   31 1     
   17    6    7 1     
   18    6   32 1     
   19    6   33 1     
   20    7    8 1     
   21    7   34 1     
   22    8    9 am    
   23    8   35 1     
   24    9   10 2     
   25    9   11 1     
   26   11   12 1     
   27   11   36 1     
   28   11   37 1     
   29   12   20 am    
   30   12   13 1     
   31   13   14 2     
   32   13   38 1     
   33   14   15 1     
   34   14   18 1     
   35   15   16 2     
   36   15   17 1     
   37   18   19 2     
   38   18   39 1     
   39   19   20 1     
   40   19   40 1     
   41   20   21 2     
   42   10   41 1     
   43   10   42 1     
   44   16   43 1     
   45   16   44 1     
   46   21   45 1     
   47   21   46 1     
@<TRIPOS>SUBSTRUCTURE
      1 S1             1
@<TRIPOS>SET
LONE_PAIRS      STATIC     ATOMS    <user>   **** ""
7 41 42 43 44 17 45 46
DONOR_HYDROGENS      STATIC     ATOMS    <user>   **** ""
1 35
ATOM$BLUE        STATIC     ATOMS    COLORGROUP SYSTEM
7 41 42 43 44 17 45 46
ATOM$RED        STATIC     ATOMS    COLORGROUP SYSTEM
1 35
