AV-unprocessed.smi:308|AV-procd|sdf|2288|dock1
  -GOLD-   2262022183D 1   1.00000     0.00000
 Structure written by MMmdl.
 50 51  0  0  0  0  0  0  0  0  2 V2000
  144.7246  132.5615  151.5847 C   0  0  0  0  0  0  0  0  0  0  0  0
  145.6557  133.7007  151.1336 C   0  0  2  0  0  0  0  0  0  0  0  0
  147.1452  133.3229  151.2225 C   0  0  0  0  0  0  0  0  0  0  0  0
  147.6547  133.2971  152.6750 C   0  0  0  0  0  0  0  0  0  0  0  0
  147.4023  134.5906  153.3612 N   0  3  2  0  0  0  0  0  0  0  0  0
  147.9966  134.6258  154.7214 C   0  0  0  0  0  0  0  0  0  0  0  0
  149.5040  134.9456  154.6987 C   0  0  0  0  0  0  0  0  0  0  0  0
  149.7462  136.3763  154.5504 N   0  0  0  0  0  0  0  0  0  0  0  0
  150.0794  137.2037  155.5513 C   0  0  0  0  0  0  0  0  0  0  0  0
  150.2274  136.8298  156.7147 O   0  0  0  0  0  0  0  0  0  0  0  0
  150.2098  138.4684  155.1156 N   0  0  0  0  0  0  0  0  0  0  0  0
  150.5363  139.6321  155.8633 C   0  0  0  0  0  0  0  0  0  0  0  0
  150.1303  140.9424  155.5210 C   0  0  0  0  0  0  0  0  0  0  0  0
  150.5097  142.0146  156.3516 C   0  0  0  0  0  0  0  0  0  0  0  0
  151.2803  141.7564  157.5124 C   0  0  0  0  0  0  0  0  0  0  0  0
  151.6894  142.8003  158.3737 N   0  0  0  0  0  0  0  0  0  0  0  0
  152.4255  142.4883  159.5946 C   0  0  0  0  0  0  0  0  0  0  0  0
  151.4554  144.1906  158.0029 C   0  0  0  0  0  0  0  0  0  0  0  0
  151.6504  140.4951  157.8435 N   0  0  0  0  0  0  0  0  0  0  0  0
  151.2851  139.4709  157.0452 C   0  0  0  0  0  0  0  0  0  0  0  0
  145.9576  134.9445  153.3458 C   0  0  0  0  0  0  0  0  0  0  0  0
  145.4147  135.0096  151.9070 C   0  0  0  0  0  0  0  0  0  0  0  0
  144.8766  132.2931  152.6298 H   0  0  0  0  0  0  0  0  0  0  0  0
  144.8894  131.6642  150.9877 H   0  0  0  0  0  0  0  0  0  0  0  0
  143.6780  132.8433  151.4663 H   0  0  0  0  0  0  0  0  0  0  0  0
  145.4249  133.8898  150.0844 H   0  0  0  0  0  0  0  0  0  0  0  0
  147.3190  132.3568  150.7473 H   0  0  0  0  0  0  0  0  0  0  0  0
  147.7313  134.0474  150.6554 H   0  0  0  0  0  0  0  0  0  0  0  0
  147.1831  132.4872  153.2334 H   0  0  0  0  0  0  0  0  0  0  0  0
  148.7255  133.0896  152.6677 H   0  0  0  0  0  0  0  0  0  0  0  0
  147.4494  135.3407  155.3379 H   0  0  0  0  0  0  0  0  0  0  0  0
  147.8689  133.6515  155.1955 H   0  0  0  0  0  0  0  0  0  0  0  0
  149.9660  134.6193  155.6309 H   0  0  0  0  0  0  0  0  0  0  0  0
  150.0164  134.4146  153.8962 H   0  0  0  0  0  0  0  0  0  0  0  0
  149.6384  136.7661  153.6252 H   0  0  0  0  0  0  0  0  0  0  0  0
  149.9832  138.6300  154.1452 H   0  0  0  0  0  0  0  0  0  0  0  0
  149.5273  141.1476  154.6505 H   0  0  0  0  0  0  0  0  0  0  0  0
  150.1973  143.0123  156.0832 H   0  0  0  0  0  0  0  0  0  0  0  0
  153.3752  142.0078  159.3564 H   0  0  0  0  0  0  0  0  0  0  0  0
  151.8470  141.8175  160.2309 H   0  0  0  0  0  0  0  0  0  0  0  0
  152.6404  143.3882  160.1709 H   0  0  0  0  0  0  0  0  0  0  0  0
  150.3862  144.3993  157.9586 H   0  0  0  0  0  0  0  0  0  0  0  0
  151.8958  144.4088  157.0296 H   0  0  0  0  0  0  0  0  0  0  0  0
  151.8988  144.8746  158.7266 H   0  0  0  0  0  0  0  0  0  0  0  0
  151.6090  138.4895  157.3598 H   0  0  0  0  0  0  0  0  0  0  0  0
  145.3950  134.2174  153.9329 H   0  0  0  0  0  0  0  0  0  0  0  0
  145.7993  135.9120  153.8200 H   0  0  0  0  0  0  0  0  0  0  0  0
  145.9045  135.8305  151.3813 H   0  0  0  0  0  0  0  0  0  0  0  0
  144.3513  135.2515  151.9189 H   0  0  0  0  0  0  0  0  0  0  0  0
  147.8839  135.2934  152.8187 H   0  0  0  0  0  0  0  0  0  0  0  0
  1  2  1  0  0  0  0
  1 23  1  0  0  0  0
  1 24  1  0  0  0  0
  1 25  1  0  0  0  0
  2 22  1  0  0  0  0
  2  3  1  0  0  0  0
  2 26  1  0  0  0  0
  3  4  1  0  0  0  0
  3 27  1  0  0  0  0
  3 28  1  0  0  0  0
  4  5  1  0  0  0  0
  4 29  1  0  0  0  0
  4 30  1  0  0  0  0
  5  6  1  0  0  0  0
  5 21  1  0  0  0  0
  5 50  1  0  0  0  0
  6  7  1  0  0  0  0
  6 31  1  0  0  0  0
  6 32  1  0  0  0  0
  7  8  1  0  0  0  0
  7 33  1  0  0  0  0
  7 34  1  0  0  0  0
  8  9  1  0  0  0  0
  8 35  1  0  0  0  0
  9 10  2  0  0  0  0
  9 11  1  0  0  0  0
 11 12  1  0  0  0  0
 11 36  1  0  0  0  0
 12 20  1  0  0  0  0
 12 13  2  0  0  0  0
 13 14  1  0  0  0  0
 13 37  1  0  0  0  0
 14 15  2  0  0  0  0
 14 38  1  0  0  0  0
 15 16  1  0  0  0  0
 15 19  1  0  0  0  0
 16 17  1  0  0  0  0
 16 18  1  0  0  0  0
 17 39  1  0  0  0  0
 17 40  1  0  0  0  0
 17 41  1  0  0  0  0
 18 42  1  0  0  0  0
 18 43  1  0  0  0  0
 18 44  1  0  0  0  0
 19 20  2  0  0  0  0
 20 45  1  0  0  0  0
 21 22  1  0  0  0  0
 21 46  1  0  0  0  0
 21 47  1  0  0  0  0
 22 48  1  0  0  0  0
 22 49  1  0  0  0  0
M  CHG  1   5   1
M  END
> <s_m_source_file>
AV-unprocessed.smi

> <i_m_source_file_index>
308

> <i_lp_mmshare_version>
43012

> <i_f3d_flags>
0

> <s_epik_input>
W0NIM11bQ0hdMVtDSDJdW0NIMl1OKFtDSDJdW0NIMl0xKVtDSDJdW0NIMl1bTkhdQyg9TylbTkhdYzJbY0hdW2NIXWMoTihbQ0gzXSlbQ0gzXSluW2NIXTI=

> <s_epik_cmdline>
J2VwaWtfcHl0aG9uJywgJy1waCcsICc3LjAnLCAnLXRuJywgJzgnLCAnLW1hJywgJzIwMCcsICctbWV0YWxfYmluZGluZycsICctaW1hZScsICc8aW5maWxlLm1hZT4nLCAnLW9tYWUnLCAnPG91dGZpbGUubWFlPic=

> <r_lp_tautomer_probability>
1

> <r_epik_Ionization_Penalty>
0.536661

> <r_epik_Ionization_Penalty_Charging>
0.00139388

> <r_epik_Ionization_Penalty_Neutral>
0.535267

> <r_epik_State_Penalty>
0.543381

> <r_epik_Charging_Adjusted_Penalty>
0.544775

> <i_epik_Tot_Q>
1

> <i_epik_Tot_abs_Q>
1

> <r_epik_Metal_State_Penalty>
0.284523

> <b_epik_Metal_Only>
0

> <s_lp_Force_Field>
OPLS_2005

> <r_lp_Energy>
22.9976

> <b_lp_Chiralities_Consistent>
1

> <s_lp_Variant>
AV-unprocessed.smi:308-4

> <Gold.Version>
5.8.1

> <Gold.Id.Protein>
6NUR|6NUR_protein|mol2

> <Gold.PLP.Fitness>
44.4781

> <Gold.PLP.PLP>
-37.2410

> <Gold.PLP.part.hbond>
-2.0000

> <Gold.PLP.part.metal>
0.0000

> <Gold.PLP.part.buried>
-4.0411

> <Gold.PLP.part.nonpolar>
-31.3148

> <Gold.PLP.part.repulsive>
0.0820

> <Gold.PLP.ligand.clash>
0.0000

> <Gold.PLP.ligand.torsion>
0.6627

> <Gold.PLP.Chemscore.Hbond>
2.8320

> <Gold.PLP.Chemscore.CHOScore>
0.0000

> <Gold.PLP.Chemscore.Metal>
0.0000

> <Gold.Chemscore.Hbonds>
donor molecule, donor type, donor heavy atom, donor atom, acceptor molecule, acceptor atom, score
      L1  H     5    50       P1  7948  2.00
      L1  H     8    35       P1  7948  0.78

> <Gold.PLP.Chemscore.Internal.Correction>
0.0665

> <Gold.Rescore>
     Score         DG    S(hbond)    S(metal)    S(lipo)     H(rot)  DE(clash)    DE(int)     intcor
     16.07     -17.93       1.71        0.00      88.83       1.42       0.01       1.85       ----

> <Gold.Chemscore.Fitness>
16.0733

> <Gold.Chemscore.DG>
-17.9293

> <Gold.Chemscore.ZeroCoef>
-5.4800

> <Gold.Chemscore.Hbond>
1.7071

> <Gold.Chemscore.Metal>
0.0000

> <Gold.Chemscore.Lipo>
88.8318

> <Gold.Chemscore.Internal_Hbond>
0.0000

> <Gold.Chemscore.DEClash>
0.0082

> <Gold.Chemscore.DEInternal>
1.8477

> <Gold.Chemscore.Rot>
1.4241

> <Gold.Chemscore.Internal.Correction>
   9.000000E+99

> <Gold.Chemscore.Hbonds>
donor molecule, donor type, donor heavy atom, donor atom, acceptor molecule, acceptor atom, score
      L1  H     5    50       P1  7948  1.00
      L1  H     8    35       P1  7948  0.54

> <Gold.Chemscore.Hbond.Weighted>
-5.7016

> <Gold.Chemscore.Metal.Weighted>
-0.0000

> <Gold.Chemscore.Lipo.Weighted>
-10.3933

> <Gold.Chemscore.Internal_Hbond.Weighted>
0.0000

> <Gold.Chemscore.DEClash.Weighted>
0.0082

> <Gold.Chemscore.DEInternal.Weighted>
1.8477

> <Gold.Chemscore.Rot.Weighted>
3.6456

> <Gold.Chemscore.Internal.Correction.Weighted>
   9.000000E+99

> <Gold.Protein.RotatedTorsions>
[ 6907 6896 6895 6894 ] final  109.89 input  -60.11 | X-H torsion
[ 7974 7965 7964 7962 ] final   72.51 input  175.53 | X-H torsion
[ 8008 7997 7996 7995 ] final -141.09 input   59.86 | X-H torsion
[ 10167 10162 10161 10158 ] final -133.87 input  -65.29 | X-H torsion
[ 10718 10713 10712 10709 ] final   74.23 input   66.30 | X-H torsion
[ 10763 10752 10751 10750 ] final   16.59 input  -60.55 | X-H torsion
[ 11005 11000 10999 10996 ] final   76.88 input  -57.11 | X-H torsion

> <Gold.Protein.ActiveResidues>
 VAL166  LYS551  ARG553  GLY616  TRP617  ASP618  TYR619  PRO620  LYS621  CYS622 
 ASP623  PHE694  ASN695  SER759  ASP760  ASP761  ALA762  ILE779  LEU786  VAL792 
 PHE793  MET794  SER795  GLU796  ALA797  LYS798  CYS799  TRP800  GLU811  SER814 

> <Gold.Protein.RotatedAtoms>
  152.5046  133.8878  159.7378 H   0  0  0  0  0  0  0  0  0  0  0  0  # atno 6907 bound_to 6896
  150.9325  133.6742  159.2814 H   0  0  0  0  0  0  0  0  0  0  0  0  # atno 6908 bound_to 6896
  151.4081  135.0986  159.9629 H   0  0  0  0  0  0  0  0  0  0  0  0  # atno 6909 bound_to 6896
  145.7525  139.2766  143.1423 H   0  0  0  0  0  0  0  0  0  0  0  0  # atno 7974 bound_to 7965
  155.4721  140.0554  157.2978 H   0  0  0  0  0  0  0  0  0  0  0  0  # atno 8008 bound_to 7997
  154.4694  140.2033  155.9987 H   0  0  0  0  0  0  0  0  0  0  0  0  # atno 8009 bound_to 7997
  156.1030  140.3216  155.7972 H   0  0  0  0  0  0  0  0  0  0  0  0  # atno 8010 bound_to 7997
  139.8939  143.6689  152.2607 H   0  0  0  0  0  0  0  0  0  0  0  0  # atno 10167 bound_to 10162
  157.6583  130.9667  150.1181 H   0  0  0  0  0  0  0  0  0  0  0  0  # atno 10718 bound_to 10713
  153.1416  135.6761  153.9018 H   0  0  0  0  0  0  0  0  0  0  0  0  # atno 10763 bound_to 10752
  153.8472  135.3098  155.3431 H   0  0  0  0  0  0  0  0  0  0  0  0  # atno 10764 bound_to 10752
  154.7792  135.4897  153.9893 H   0  0  0  0  0  0  0  0  0  0  0  0  # atno 10765 bound_to 10752
  139.9279  134.7637  156.1451 H   0  0  0  0  0  0  0  0  0  0  0  0  # atno 11005 bound_to 11000
  146.0343  140.8228  142.9860 LP  0  0  0  0  0  0  0  0  0  0  0  0  # atno 17320 bound_to 7965
  144.6847  140.2815  143.7291 LP  0  0  0  0  0  0  0  0  0  0  0  0  # atno 17321 bound_to 7965
  139.7085  144.7624  151.1152 LP  0  0  0  0  0  0  0  0  0  0  0  0  # atno 17342 bound_to 10162
  140.7721  143.5362  150.9365 LP  0  0  0  0  0  0  0  0  0  0  0  0  # atno 17343 bound_to 10162
  156.2059  130.3663  149.8729 LP  0  0  0  0  0  0  0  0  0  0  0  0  # atno 17370 bound_to 10713
  156.6621  130.8786  151.3549 LP  0  0  0  0  0  0  0  0  0  0  0  0  # atno 17371 bound_to 10713
  141.0848  133.6739  156.2413 LP  0  0  0  0  0  0  0  0  0  0  0  0  # atno 17394 bound_to 11000
  140.6285  134.5288  157.5556 LP  0  0  0  0  0  0  0  0  0  0  0  0  # atno 17395 bound_to 11000

$$$$
