AV-unprocessed.smi:92|AV-procd|sdf|846|dock2
  -GOLD-   2262017283D 1   1.00000     0.00000
 Structure written by MMmdl.
 61 64  0  0  0  0  0  0  0  0  2 V2000
  153.3688  124.9847  156.9608 C   0  0  0  0  0  0  0  0  0  0  0  0
  153.8553  126.4334  156.8142 C   0  0  0  0  0  0  0  0  0  0  0  0
  153.9810  126.8510  155.3920 N   0  3  1  0  0  0  0  0  0  0  0  0
  152.7268  126.6866  154.6142 C   0  0  0  0  0  0  0  0  0  0  0  0
  151.6946  127.7692  154.9665 C   0  0  0  0  0  0  0  0  0  0  0  0
  152.2765  129.1809  154.7470 C   0  0  1  0  0  0  0  0  0  0  0  0
  151.2955  130.2276  155.0689 N   0  0  0  0  0  0  0  0  0  0  0  0
  151.2851  130.8512  156.3902 C   0  0  0  0  0  0  0  0  0  0  0  0
  150.1702  130.3639  154.3135 C   0  0  0  0  0  0  0  0  0  0  0  0
  149.6156  129.2627  153.7392 N   0  0  0  0  0  0  0  0  0  0  0  0
  148.5069  129.3645  153.0017 C   0  0  0  0  0  0  0  0  0  0  0  0
  147.7988  130.4551  152.7094 N   0  0  0  0  0  0  0  0  0  0  0  0
  148.3476  131.5697  153.2707 C   0  0  0  0  0  0  0  0  0  0  0  0
  149.5209  131.6128  154.0793 C   0  0  0  0  0  0  0  0  0  0  0  0
  149.7787  132.9258  154.4571 N   0  0  0  0  0  0  0  0  0  0  0  0
  148.8126  133.6143  153.9149 C   0  0  0  0  0  0  0  0  0  0  0  0
  147.9056  132.8810  153.1843 N   0  0  0  0  0  0  0  0  0  0  0  0
  146.7586  133.3974  152.4890 C   0  0  0  0  0  0  0  0  0  0  0  0
  145.4616  132.5891  152.3765 C   0  0  0  0  0  0  0  0  0  0  0  0
  145.2461  133.1274  150.9419 C   0  0  0  0  0  0  0  0  0  0  0  0
  144.8282  132.0928  149.8799 C   0  0  0  0  0  0  0  0  0  0  0  0
  145.0039  132.5600  148.5573 O   0  0  0  0  0  0  0  0  0  0  0  0
  144.2341  134.2835  150.7929 C   0  0  0  0  0  0  0  0  0  0  0  0
  144.1284  134.7742  149.4715 O   0  0  0  0  0  0  0  0  0  0  0  0
  146.7410  133.5265  150.9621 C   0  0  0  0  0  0  0  0  0  0  0  0
  153.6049  129.3505  155.5264 C   0  0  2  0  0  0  0  0  0  0  0  0
  154.2724  130.7064  155.2363 C   0  0  0  0  0  0  0  0  0  0  0  0
  154.5785  128.1981  155.1838 C   0  0  0  0  0  0  0  0  0  0  0  0
  153.1943  124.7453  158.0100 H   0  0  0  0  0  0  0  0  0  0  0  0
  154.0961  124.2665  156.5844 H   0  0  0  0  0  0  0  0  0  0  0  0
  152.4309  124.8279  156.4274 H   0  0  0  0  0  0  0  0  0  0  0  0
  153.1252  127.0760  157.3076 H   0  0  0  0  0  0  0  0  0  0  0  0
  154.7937  126.5761  157.3495 H   0  0  0  0  0  0  0  0  0  0  0  0
  152.9680  126.7468  153.5519 H   0  0  0  0  0  0  0  0  0  0  0  0
  152.3091  125.6919  154.7733 H   0  0  0  0  0  0  0  0  0  0  0  0
  150.8050  127.6316  154.3513 H   0  0  0  0  0  0  0  0  0  0  0  0
  151.3698  127.6420  155.9993 H   0  0  0  0  0  0  0  0  0  0  0  0
  152.5412  129.2675  153.6923 H   0  0  0  0  0  0  0  0  0  0  0  0
  150.2812  130.8579  156.8167 H   0  0  0  0  0  0  0  0  0  0  0  0
  151.6391  131.8799  156.3232 H   0  0  0  0  0  0  0  0  0  0  0  0
  151.9313  130.3243  157.0910 H   0  0  0  0  0  0  0  0  0  0  0  0
  148.1329  128.4403  152.5868 H   0  0  0  0  0  0  0  0  0  0  0  0
  148.7382  134.6855  154.0342 H   0  0  0  0  0  0  0  0  0  0  0  0
  146.5448  134.3675  152.9399 H   0  0  0  0  0  0  0  0  0  0  0  0
  145.6311  131.5127  152.4191 H   0  0  0  0  0  0  0  0  0  0  0  0
  144.6928  132.8815  153.0922 H   0  0  0  0  0  0  0  0  0  0  0  0
  145.4069  131.1744  149.9853 H   0  0  0  0  0  0  0  0  0  0  0  0
  143.7792  131.8186  149.9974 H   0  0  0  0  0  0  0  0  0  0  0  0
  145.4100  133.4126  148.5902 H   0  0  0  0  0  0  0  0  0  0  0  0
  143.2383  133.9677  151.1064 H   0  0  0  0  0  0  0  0  0  0  0  0
  144.5105  135.1222  151.4328 H   0  0  0  0  0  0  0  0  0  0  0  0
  144.9934  134.8059  149.0921 H   0  0  0  0  0  0  0  0  0  0  0  0
  146.9478  134.5340  150.5998 H   0  0  0  0  0  0  0  0  0  0  0  0
  147.3936  132.8043  150.4709 H   0  0  0  0  0  0  0  0  0  0  0  0
  153.4014  129.3140  156.5961 H   0  0  0  0  0  0  0  0  0  0  0  0
  154.4809  130.8270  154.1728 H   0  0  0  0  0  0  0  0  0  0  0  0
  155.2168  130.8017  155.7730 H   0  0  0  0  0  0  0  0  0  0  0  0
  153.6406  131.5390  155.5464 H   0  0  0  0  0  0  0  0  0  0  0  0
  155.5020  128.2970  155.7529 H   0  0  0  0  0  0  0  0  0  0  0  0
  154.8698  128.2734  154.1351 H   0  0  0  0  0  0  0  0  0  0  0  0
  154.6319  126.1930  154.9876 H   0  0  0  0  0  0  0  0  0  0  0  0
  1  2  1  0  0  0  0
  1 29  1  0  0  0  0
  1 30  1  0  0  0  0
  1 31  1  0  0  0  0
  2  3  1  0  0  0  0
  2 32  1  0  0  0  0
  2 33  1  0  0  0  0
  3 28  1  0  0  0  0
  3  4  1  0  0  0  0
  3 61  1  0  0  0  0
  4  5  1  0  0  0  0
  4 34  1  0  0  0  0
  4 35  1  0  0  0  0
  5  6  1  0  0  0  0
  5 36  1  0  0  0  0
  5 37  1  0  0  0  0
  6  7  1  0  0  0  0
  6 26  1  0  0  0  0
  6 38  1  0  0  0  0
  7  8  1  0  0  0  0
  7  9  1  0  0  0  0
  8 39  1  0  0  0  0
  8 40  1  0  0  0  0
  8 41  1  0  0  0  0
  9 14  1  0  0  0  0
  9 10  2  0  0  0  0
 10 11  1  0  0  0  0
 11 12  2  0  0  0  0
 11 42  1  0  0  0  0
 12 13  1  0  0  0  0
 13 17  1  0  0  0  0
 13 14  2  0  0  0  0
 14 15  1  0  0  0  0
 15 16  2  0  0  0  0
 16 17  1  0  0  0  0
 16 43  1  0  0  0  0
 17 18  1  0  0  0  0
 18 25  1  0  0  0  0
 18 19  1  0  0  0  0
 18 44  1  0  0  0  0
 19 20  1  0  0  0  0
 19 45  1  0  0  0  0
 19 46  1  0  0  0  0
 20 21  1  0  0  0  0
 20 23  1  0  0  0  0
 20 25  1  0  0  0  0
 21 22  1  0  0  0  0
 21 47  1  0  0  0  0
 21 48  1  0  0  0  0
 22 49  1  0  0  0  0
 23 24  1  0  0  0  0
 23 50  1  0  0  0  0
 23 51  1  0  0  0  0
 24 52  1  0  0  0  0
 25 53  1  0  0  0  0
 25 54  1  0  0  0  0
 26 27  1  0  0  0  0
 26 28  1  0  0  0  0
 26 55  1  0  0  0  0
 27 56  1  0  0  0  0
 27 57  1  0  0  0  0
 27 58  1  0  0  0  0
 28 59  1  0  0  0  0
 28 60  1  0  0  0  0
M  CHG  1   3   1
M  END
> <s_m_source_file>
AV-unprocessed.smi

> <i_m_source_file_index>
92

> <i_lp_mmshare_version>
43012

> <i_f3d_flags>
0

> <s_epik_input>
W0NIM11bQ0gyXU4xW0NIMl1bQ0gyXVtDQEhdKFtDQEBIXShbQ0gzXSlbQ0gyXTEpTihbQ0gzXSljKG5bY0hdbjIpYyhjMjMpbltjSF1uM1tDSF0oW0NIMl00KVtDSDJdQzQoW0NIMl1bT0hdKVtDSDJdW09IXQ==

> <s_epik_cmdline>
J2VwaWtfcHl0aG9uJywgJy1waCcsICc3LjAnLCAnLXRuJywgJzgnLCAnLW1hJywgJzIwMCcsICctbWV0YWxfYmluZGluZycsICctaW1hZScsICc8aW5maWxlLm1hZT4nLCAnLW9tYWUnLCAnPG91dGZpbGUubWFlPic=

> <r_lp_tautomer_probability>
1

> <r_epik_Ionization_Penalty>
0.00235514

> <r_epik_Ionization_Penalty_Charging>
0.00137877

> <r_epik_Ionization_Penalty_Neutral>
0.000976366

> <r_epik_State_Penalty>
-0

> <r_epik_Charging_Adjusted_Penalty>
0.00137877

> <i_epik_Tot_Q>
1

> <i_epik_Tot_abs_Q>
1

> <r_epik_Metal_State_Penalty>
-0

> <b_epik_Metal_Only>
0

> <s_lp_Force_Field>
OPLS_2005

> <r_lp_Energy>
55.2069

> <b_lp_Chiralities_Consistent>
1

> <s_lp_Variant>
AV-unprocessed.smi:92-6

> <Gold.Version>
5.8.1

> <Gold.Id.Protein>
6NUR|6NUR_protein|mol2

> <Gold.PLP.Fitness>
50.7883

> <Gold.PLP.PLP>
-44.7806

> <Gold.PLP.part.hbond>
-3.7401

> <Gold.PLP.part.metal>
0.0000

> <Gold.PLP.part.buried>
-6.1657

> <Gold.PLP.part.nonpolar>
-36.1680

> <Gold.PLP.part.repulsive>
1.7969

> <Gold.PLP.ligand.clash>
0.0000

> <Gold.PLP.ligand.torsion>
1.7904

> <Gold.PLP.Chemscore.Hbond>
2.0000

> <Gold.PLP.Chemscore.CHOScore>
0.8533

> <Gold.PLP.Chemscore.Metal>
0.0000

> <Gold.Chemscore.Hbonds>
donor molecule, donor type, donor heavy atom, donor atom, acceptor molecule, acceptor atom, score
      L1  H    22    49       P1  7921  0.91
      L1  H    24    52       P1  7921  1.00
      L1  C    16    43       P1  7948  0.54

> <Gold.PLP.Chemscore.Internal.Correction>
1.0284

> <Gold.Rescore>
     Score         DG    S(hbond)    S(metal)    S(lipo)     H(rot)  DE(clash)    DE(int)     intcor
      7.12     -11.05       1.47        0.00      76.28       3.22       0.82       3.11       ----

> <Gold.Chemscore.Fitness>
7.1165

> <Gold.Chemscore.DG>
-11.0511

> <Gold.Chemscore.ZeroCoef>
-5.4800

> <Gold.Chemscore.Hbond>
1.4655

> <Gold.Chemscore.Metal>
0.0000

> <Gold.Chemscore.Lipo>
76.2790

> <Gold.Chemscore.Internal_Hbond>
0.0000

> <Gold.Chemscore.DEClash>
0.8206

> <Gold.Chemscore.DEInternal>
3.1140

> <Gold.Chemscore.Rot>
3.2219

> <Gold.Chemscore.Internal.Correction>
   9.000000E+99

> <Gold.Chemscore.Hbonds>
donor molecule, donor type, donor heavy atom, donor atom, acceptor molecule, acceptor atom, score
      L1  H    22    49       P1  7921  0.23
      L1  H    24    52       P1  7921  0.95

> <Gold.Chemscore.Hbond.Weighted>
-4.8946

> <Gold.Chemscore.Metal.Weighted>
-0.0000

> <Gold.Chemscore.Lipo.Weighted>
-8.9246

> <Gold.Chemscore.Internal_Hbond.Weighted>
0.0000

> <Gold.Chemscore.DEClash.Weighted>
0.8206

> <Gold.Chemscore.DEInternal.Weighted>
3.1140

> <Gold.Chemscore.Rot.Weighted>
8.2482

> <Gold.Chemscore.Internal.Correction.Weighted>
   9.000000E+99

> <Gold.Protein.RotatedTorsions>
[ 6907 6896 6895 6894 ] final  -72.51 input  -60.11 | X-H torsion
[ 7974 7965 7964 7962 ] final   35.12 input  175.53 | X-H torsion
[ 8008 7997 7996 7995 ] final  -71.89 input   59.86 | X-H torsion
[ 10167 10162 10161 10158 ] final -109.46 input  -65.29 | X-H torsion
[ 10718 10713 10712 10709 ] final -157.62 input   66.30 | X-H torsion
[ 10763 10752 10751 10750 ] final   40.98 input  -60.55 | X-H torsion
[ 11005 11000 10999 10996 ] final   30.48 input  -57.11 | X-H torsion

> <Gold.Protein.ActiveResidues>
 VAL166  LYS551  ARG553  GLY616  TRP617  ASP618  TYR619  PRO620  LYS621  CYS622 
 ASP623  PHE694  ASN695  SER759  ASP760  ASP761  ALA762  ILE779  LEU786  VAL792 
 PHE793  MET794  SER795  GLU796  ALA797  LYS798  CYS799  TRP800  GLU811  SER814 

> <Gold.Protein.RotatedAtoms>
  150.7167  134.5152  159.5626 H   0  0  0  0  0  0  0  0  0  0  0  0  # atno 6907 bound_to 6896
  152.2719  134.7920  160.0421 H   0  0  0  0  0  0  0  0  0  0  0  0  # atno 6908 bound_to 6896
  151.8597  133.3419  159.3736 H   0  0  0  0  0  0  0  0  0  0  0  0  # atno 6909 bound_to 6896
  146.1305  139.6182  142.9230 H   0  0  0  0  0  0  0  0  0  0  0  0  # atno 7974 bound_to 7965
  154.5123  140.0807  156.8014 H   0  0  0  0  0  0  0  0  0  0  0  0  # atno 8008 bound_to 7997
  155.3758  140.3425  155.4226 H   0  0  0  0  0  0  0  0  0  0  0  0  # atno 8009 bound_to 7997
  156.1587  140.1581  156.8636 H   0  0  0  0  0  0  0  0  0  0  0  0  # atno 8010 bound_to 7997
  140.1551  143.4167  152.1467 H   0  0  0  0  0  0  0  0  0  0  0  0  # atno 10167 bound_to 10162
  156.5428  130.8570  151.2754 H   0  0  0  0  0  0  0  0  0  0  0  0  # atno 10718 bound_to 10713
  152.9921  135.6175  154.2714 H   0  0  0  0  0  0  0  0  0  0  0  0  # atno 10763 bound_to 10752
  154.2447  135.2787  155.2842 H   0  0  0  0  0  0  0  0  0  0  0  0  # atno 10764 bound_to 10752
  154.5340  135.5780  153.6840 H   0  0  0  0  0  0  0  0  0  0  0  0  # atno 10765 bound_to 10752
  140.2940  134.2832  155.7769 H   0  0  0  0  0  0  0  0  0  0  0  0  # atno 11005 bound_to 11000
  145.5271  141.0429  143.2403 LP  0  0  0  0  0  0  0  0  0  0  0  0  # atno 17320 bound_to 7965
  144.7686  139.6788  143.7204 LP  0  0  0  0  0  0  0  0  0  0  0  0  # atno 17321 bound_to 7965
  139.5407  144.7254  151.4742 LP  0  0  0  0  0  0  0  0  0  0  0  0  # atno 17342 bound_to 10162
  140.6678  143.8360  150.6963 LP  0  0  0  0  0  0  0  0  0  0  0  0  # atno 17343 bound_to 10162
  157.7402  130.9846  150.2363 LP  0  0  0  0  0  0  0  0  0  0  0  0  # atno 17370 bound_to 10713
  156.2956  130.3751  149.7799 LP  0  0  0  0  0  0  0  0  0  0  0  0  # atno 17371 bound_to 10713
  141.2141  133.7603  156.9667 LP  0  0  0  0  0  0  0  0  0  0  0  0  # atno 17394 bound_to 11000
  140.1170  134.9441  157.2148 LP  0  0  0  0  0  0  0  0  0  0  0  0  # atno 17395 bound_to 11000

$$$$
