AV-unprocessed.smi:3085|AV-procd|sdf|11761|dock3
  -GOLD-   2272017143D 1   1.00000     0.00000
 Structure written by MMmdl.
 27 28  0  0  0  0  0  0  0  0  3 V2000
  152.8241  142.4948  159.5474 C   0  0  0  0  0  0  0  0  0  0  0  0
  152.6209  140.9766  159.5210 C   0  0  0  0  0  0  0  0  0  0  0  0
  152.3631  140.4614  158.1219 C   0  0  0  0  0  0  0  0  0  0  0  0
  151.2991  140.7365  157.3739 N   0  0  0  0  0  0  0  0  0  0  0  0
  151.4585  140.0372  156.2416 C   0  0  0  0  0  0  0  0  0  0  0  0
  150.5007  140.0790  155.0693 C   0  0  1  0  0  0  0  0  0  0  0  0
  150.1793  138.6589  154.5645 C   0  0  0  0  0  0  0  0  0  0  0  0
  149.2370  138.7210  153.4307 N   0  3  0  0  0  0  0  0  0  0  0  0
  148.0192  139.4794  153.7764 C   0  0  0  0  0  0  0  0  0  0  0  0
  148.3997  140.8716  154.3075 C   0  0  0  0  0  0  0  0  0  0  0  0
  149.2821  140.7346  155.4155 O   0  0  0  0  0  0  0  0  0  0  0  0
  152.6063  139.3424  156.2691 N   0  0  0  0  0  0  0  0  0  0  0  0
  153.1459  139.6052  157.4416 N   0  5  0  0  0  0  0  0  0  0  0  0
  153.0020  142.8459  160.5637 H   0  0  0  0  0  0  0  0  0  0  0  0
  151.9464  143.0151  159.1630 H   0  0  0  0  0  0  0  0  0  0  0  0
  153.6804  142.7853  158.9380 H   0  0  0  0  0  0  0  0  0  0  0  0
  153.5000  140.4753  159.9270 H   0  0  0  0  0  0  0  0  0  0  0  0
  151.7796  140.7019  160.1580 H   0  0  0  0  0  0  0  0  0  0  0  0
  150.9877  140.6477  154.2747 H   0  0  0  0  0  0  0  0  0  0  0  0
  151.0889  138.1495  154.2449 H   0  0  0  0  0  0  0  0  0  0  0  0
  149.7396  138.0615  155.3646 H   0  0  0  0  0  0  0  0  0  0  0  0
  149.6966  139.1820  152.6584 H   0  0  0  0  0  0  0  0  0  0  0  0
  147.3836  139.5649  152.8950 H   0  0  0  0  0  0  0  0  0  0  0  0
  147.4547  138.9293  154.5304 H   0  0  0  0  0  0  0  0  0  0  0  0
  148.8685  141.4732  153.5271 H   0  0  0  0  0  0  0  0  0  0  0  0
  147.5071  141.4079  154.6302 H   0  0  0  0  0  0  0  0  0  0  0  0
  148.9841  137.7836  153.1523 H   0  0  0  0  0  0  0  0  0  0  0  0
  1  2  1  0  0  0  0
  1 14  1  0  0  0  0
  1 15  1  0  0  0  0
  1 16  1  0  0  0  0
  2  3  1  0  0  0  0
  2 17  1  0  0  0  0
  2 18  1  0  0  0  0
  3 13  1  0  0  0  0
  3  4  2  0  0  0  0
  4  5  1  0  0  0  0
  5  6  1  0  0  0  0
  5 12  2  0  0  0  0
  6 11  1  0  0  0  0
  6  7  1  0  0  0  0
  6 19  1  0  0  0  0
  7  8  1  0  0  0  0
  7 20  1  0  0  0  0
  7 21  1  0  0  0  0
  8  9  1  0  0  0  0
  8 22  1  0  0  0  0
  8 27  1  0  0  0  0
  9 10  1  0  0  0  0
  9 23  1  0  0  0  0
  9 24  1  0  0  0  0
 10 11  1  0  0  0  0
 10 25  1  0  0  0  0
 10 26  1  0  0  0  0
 12 13  1  0  0  0  0
M  CHG  1   8   1
M  CHG  1  13  -1
M  END
> <s_m_source_file>
AV-unprocessed.smi

> <i_m_source_file_index>
3085

> <i_lp_mmshare_version>
43012

> <i_f3d_flags>
0

> <s_epik_input>
W0NIM11bQ0gyXWMxbmMobltuSF0xKVtDQEBIXTJbQ0gyXVtOSF1bQ0gyXVtDSDJdTzI=

> <s_epik_cmdline>
J2VwaWtfcHl0aG9uJywgJy1waCcsICc3LjAnLCAnLXRuJywgJzgnLCAnLW1hJywgJzIwMCcsICctbWV0YWxfYmluZGluZycsICctaW1hZScsICc8aW5maWxlLm1hZT4nLCAnLW9tYWUnLCAnPG91dGZpbGUubWFlPic=

> <r_lp_tautomer_probability>
0.948284

> <r_epik_Ionization_Penalty>
5.24708

> <r_epik_Ionization_Penalty_Charging>
5.24708

> <r_epik_Ionization_Penalty_Neutral>
2.10756e-13

> <r_epik_State_Penalty>
3.12001

> <r_epik_Charging_Adjusted_Penalty>
8.36709

> <i_epik_Tot_Q>
0

> <i_epik_Tot_abs_Q>
2

> <r_epik_Metal_State_Penalty>
0.69864

> <b_epik_Metal_Only>
1

> <s_lp_Force_Field>
OPLS_2005

> <r_lp_Energy>
4.67027

> <b_lp_Chiralities_Consistent>
1

> <s_lp_Variant>
AV-unprocessed.smi:3085-12

> <Gold.Version>
5.8.1

> <Gold.Id.Protein>
6NUR|6NUR_protein|mol2

> <Gold.PLP.Fitness>
38.8454

> <Gold.PLP.PLP>
-24.3221

> <Gold.PLP.part.hbond>
-3.9878

> <Gold.PLP.part.metal>
0.0000

> <Gold.PLP.part.buried>
-1.3543

> <Gold.PLP.part.nonpolar>
-19.1347

> <Gold.PLP.part.repulsive>
0.1680

> <Gold.PLP.ligand.clash>
0.0000

> <Gold.PLP.ligand.torsion>
0.2461

> <Gold.PLP.Chemscore.Hbond>
5.0000

> <Gold.PLP.Chemscore.CHOScore>
0.0000

> <Gold.PLP.Chemscore.Metal>
0.0000

> <Gold.Chemscore.Hbonds>
donor molecule, donor type, donor heavy atom, donor atom, acceptor molecule, acceptor atom, score
      L1  H     8    22       P1  7957  1.00
      L1  H     8    27       P1  7948  2.00
      P1  H  7997  8008       L1    13  2.00

> <Gold.PLP.Chemscore.Internal.Correction>
0.0155

> <Gold.Rescore>
     Score         DG    S(hbond)    S(metal)    S(lipo)     H(rot)  DE(clash)    DE(int)     intcor
     16.28     -16.64       2.76        0.00      44.79       1.28       0.00       0.36       ----

> <Gold.Chemscore.Fitness>
16.2807

> <Gold.Chemscore.DG>
-16.6441

> <Gold.Chemscore.ZeroCoef>
-5.4800

> <Gold.Chemscore.Hbond>
2.7572

> <Gold.Chemscore.Metal>
0.0000

> <Gold.Chemscore.Lipo>
44.7913

> <Gold.Chemscore.Internal_Hbond>
0.0000

> <Gold.Chemscore.DEClash>
0.0021

> <Gold.Chemscore.DEInternal>
0.3614

> <Gold.Chemscore.Rot>
1.2833

> <Gold.Chemscore.Internal.Correction>
   9.000000E+99

> <Gold.Chemscore.Hbonds>
donor molecule, donor type, donor heavy atom, donor atom, acceptor molecule, acceptor atom, score
      L1  H     8    22       P1  7957  0.91
      L1  H     8    27       P1  7948  0.93
      P1  H  7997  8008       L1    13  0.24

> <Gold.Chemscore.Hbond.Weighted>
-9.2089

> <Gold.Chemscore.Metal.Weighted>
-0.0000

> <Gold.Chemscore.Lipo.Weighted>
-5.2406

> <Gold.Chemscore.Internal_Hbond.Weighted>
0.0000

> <Gold.Chemscore.DEClash.Weighted>
0.0021

> <Gold.Chemscore.DEInternal.Weighted>
0.3614

> <Gold.Chemscore.Rot.Weighted>
3.2853

> <Gold.Chemscore.Internal.Correction.Weighted>
   9.000000E+99

> <Gold.Protein.RotatedTorsions>
[ 6907 6896 6895 6894 ] final -123.75 input  -60.11 | X-H torsion
[ 7974 7965 7964 7962 ] final   12.47 input  175.53 | X-H torsion
[ 8008 7997 7996 7995 ] final  -84.76 input   59.86 | X-H torsion
[ 10167 10162 10161 10158 ] final  -90.23 input  -65.29 | X-H torsion
[ 10718 10713 10712 10709 ] final  -58.22 input   66.30 | X-H torsion
[ 10763 10752 10751 10750 ] final -110.07 input  -60.55 | X-H torsion
[ 11005 11000 10999 10996 ] final  103.13 input  -57.11 | X-H torsion

> <Gold.Protein.ActiveResidues>
 VAL166  LYS551  ARG553  GLY616  TRP617  ASP618  TYR619  PRO620  LYS621  CYS622 
 ASP623  PHE694  ASN695  SER759  ASP760  ASP761  ALA762  ILE779  LEU786  VAL792 
 PHE793  MET794  SER795  GLU796  ALA797  LYS798  CYS799  TRP800  GLU811  SER814 

> <Gold.Protein.RotatedAtoms>
  150.8701  133.7518  159.2963 H   0  0  0  0  0  0  0  0  0  0  0  0  # atno 6907 bound_to 6896
  151.5133  135.1064  159.9869 H   0  0  0  0  0  0  0  0  0  0  0  0  # atno 6908 bound_to 6896
  152.4689  133.7940  159.6973 H   0  0  0  0  0  0  0  0  0  0  0  0  # atno 6909 bound_to 6896
  146.2350  139.9332  142.8493 H   0  0  0  0  0  0  0  0  0  0  0  0  # atno 7974 bound_to 7965
  154.6334  140.0600  156.9759 H   0  0  0  0  0  0  0  0  0  0  0  0  # atno 8008 bound_to 7997
  155.1630  140.3284  155.4389 H   0  0  0  0  0  0  0  0  0  0  0  0  # atno 8009 bound_to 7997
  156.2494  140.1927  156.6736 H   0  0  0  0  0  0  0  0  0  0  0  0  # atno 8010 bound_to 7997
  140.3569  143.2862  151.9660 H   0  0  0  0  0  0  0  0  0  0  0  0  # atno 10167 bound_to 10162
  156.1151  130.4171  150.0548 H   0  0  0  0  0  0  0  0  0  0  0  0  # atno 10718 bound_to 10713
  154.8228  135.4578  154.0829 H   0  0  0  0  0  0  0  0  0  0  0  0  # atno 10763 bound_to 10752
  153.2168  135.6889  153.8054 H   0  0  0  0  0  0  0  0  0  0  0  0  # atno 10764 bound_to 10752
  153.7485  135.3301  155.3293 H   0  0  0  0  0  0  0  0  0  0  0  0  # atno 10765 bound_to 10752
  139.8782  134.9251  156.5163 H   0  0  0  0  0  0  0  0  0  0  0  0  # atno 11005 bound_to 11000
  145.2024  140.9860  143.4148 LP  0  0  0  0  0  0  0  0  0  0  0  0  # atno 17320 bound_to 7965
  144.9762  139.3829  143.6284 LP  0  0  0  0  0  0  0  0  0  0  0  0  # atno 17321 bound_to 7965
  139.4819  144.6027  151.7577 LP  0  0  0  0  0  0  0  0  0  0  0  0  # atno 17342 bound_to 10162
  140.5165  144.0945  150.6010 LP  0  0  0  0  0  0  0  0  0  0  0  0  # atno 17343 bound_to 10162
  156.8501  130.9456  151.3626 LP  0  0  0  0  0  0  0  0  0  0  0  0  # atno 17370 bound_to 10713
  157.6334  130.8747  149.9315 LP  0  0  0  0  0  0  0  0  0  0  0  0  # atno 17371 bound_to 10713
  140.8483  133.8151  155.9143 LP  0  0  0  0  0  0  0  0  0  0  0  0  # atno 17394 bound_to 11000
  140.9169  134.2190  157.4951 LP  0  0  0  0  0  0  0  0  0  0  0  0  # atno 17395 bound_to 11000

$$$$
