AV-unprocessed.smi:1943|AV-procd|sdf|7852|dock1
  -GOLD-   22720 9593D 1   1.00000     0.00000
 Structure written by MMmdl.
 47 48  0  0  0  0  0  0  0  0  3 V2000
  143.1185  132.7689  151.2826 C   0  0  0  0  0  0  0  0  0  0  0  0
  143.6822  133.4501  152.4854 N   0  3  0  0  0  0  0  0  0  0  0  0
  142.9614  134.7311  152.7088 C   0  0  0  0  0  0  0  0  0  0  0  0
  145.1942  133.5060  152.5814 C   0  0  0  0  0  0  0  0  0  0  0  0
  145.7996  132.0800  152.4254 C   0  0  0  0  0  0  0  0  0  0  0  0
  145.8014  134.3865  151.4415 C   0  0  0  0  0  0  0  0  0  0  0  0
  145.5600  134.1517  153.9676 C   0  0  0  0  0  0  0  0  0  0  0  0
  146.9936  134.4013  154.0943 N   0  5  0  0  0  0  0  0  0  0  0  0
  147.8865  133.4796  154.5506 C   0  0  0  0  0  0  0  0  0  0  0  0
  147.8204  132.2453  154.5540 O   0  0  0  0  0  0  0  0  0  0  0  0
  149.1516  134.1189  155.0485 C   0  0  0  0  0  0  0  0  0  0  0  0
  149.3008  135.4374  154.7829 N   0  0  0  0  0  0  0  0  0  0  0  0
  150.4073  136.0562  155.2112 C   0  0  0  0  0  0  0  0  0  0  0  0
  150.5321  137.4242  154.9344 N   0  0  0  0  0  0  0  0  0  0  0  0
  151.8396  138.0808  154.8517 C   0  0  0  0  0  0  0  0  0  0  0  0
  151.7440  139.5504  155.2947 C   0  0  0  0  0  0  0  0  0  0  0  0
  150.7498  140.2212  154.5300 O   0  0  0  0  0  0  0  0  0  0  0  0
  149.4644  139.6449  154.7256 C   0  0  0  0  0  0  0  0  0  0  0  0
  149.4729  138.1790  154.2603 C   0  0  0  0  0  0  0  0  0  0  0  0
  151.4026  135.4644  155.8837 N   0  0  0  0  0  0  0  0  0  0  0  0
  151.2849  134.1461  156.1462 C   0  0  0  0  0  0  0  0  0  0  0  0
  150.1615  133.4008  155.7415 C   0  0  0  0  0  0  0  0  0  0  0  0
  150.0905  131.7018  156.0671 Cl  0  0  0  0  0  0  0  0  0  0  0  0
  143.2392  133.3801  150.3873 H   0  0  0  0  0  0  0  0  0  0  0  0
  142.0505  132.5938  151.4162 H   0  0  0  0  0  0  0  0  0  0  0  0
  143.5707  131.7960  151.0922 H   0  0  0  0  0  0  0  0  0  0  0  0
  143.2743  135.4885  151.9891 H   0  0  0  0  0  0  0  0  0  0  0  0
  143.1126  135.1157  153.7173 H   0  0  0  0  0  0  0  0  0  0  0  0
  141.8853  134.5933  152.5977 H   0  0  0  0  0  0  0  0  0  0  0  0
  146.8897  132.1009  152.3686 H   0  0  0  0  0  0  0  0  0  0  0  0
  145.4563  131.6116  151.5027 H   0  0  0  0  0  0  0  0  0  0  0  0
  145.5414  131.4057  153.2443 H   0  0  0  0  0  0  0  0  0  0  0  0
  146.8887  134.4687  151.5023 H   0  0  0  0  0  0  0  0  0  0  0  0
  145.4043  135.4040  151.4348 H   0  0  0  0  0  0  0  0  0  0  0  0
  145.6135  133.9584  150.4566 H   0  0  0  0  0  0  0  0  0  0  0  0
  144.9837  135.0709  154.0826 H   0  0  0  0  0  0  0  0  0  0  0  0
  145.2151  133.4976  154.7685 H   0  0  0  0  0  0  0  0  0  0  0  0
  152.5886  137.5878  155.4708 H   0  0  0  0  0  0  0  0  0  0  0  0
  152.1941  138.0222  153.8221 H   0  0  0  0  0  0  0  0  0  0  0  0
  151.5115  139.6210  156.3586 H   0  0  0  0  0  0  0  0  0  0  0  0
  152.7020  140.0487  155.1456 H   0  0  0  0  0  0  0  0  0  0  0  0
  149.1759  139.7178  155.7756 H   0  0  0  0  0  0  0  0  0  0  0  0
  148.7307  140.2145  154.1551 H   0  0  0  0  0  0  0  0  0  0  0  0
  149.6408  138.1284  153.1840 H   0  0  0  0  0  0  0  0  0  0  0  0
  148.4856  137.7572  154.4462 H   0  0  0  0  0  0  0  0  0  0  0  0
  152.1022  133.6801  156.6767 H   0  0  0  0  0  0  0  0  0  0  0  0
  143.4121  132.8704  153.2677 H   0  0  0  0  0  0  0  0  0  0  0  0
  1  2  1  0  0  0  0
  1 24  1  0  0  0  0
  1 25  1  0  0  0  0
  1 26  1  0  0  0  0
  2  3  1  0  0  0  0
  2  4  1  0  0  0  0
  2 47  1  0  0  0  0
  3 27  1  0  0  0  0
  3 28  1  0  0  0  0
  3 29  1  0  0  0  0
  4  5  1  0  0  0  0
  4  6  1  0  0  0  0
  4  7  1  0  0  0  0
  5 30  1  0  0  0  0
  5 31  1  0  0  0  0
  5 32  1  0  0  0  0
  6 33  1  0  0  0  0
  6 34  1  0  0  0  0
  6 35  1  0  0  0  0
  7  8  1  0  0  0  0
  7 36  1  0  0  0  0
  7 37  1  0  0  0  0
  8  9  1  0  0  0  0
  9 10  2  0  0  0  0
  9 11  1  0  0  0  0
 11 22  1  0  0  0  0
 11 12  2  0  0  0  0
 12 13  1  0  0  0  0
 13 14  1  0  0  0  0
 13 20  2  0  0  0  0
 14 19  1  0  0  0  0
 14 15  1  0  0  0  0
 15 16  1  0  0  0  0
 15 38  1  0  0  0  0
 15 39  1  0  0  0  0
 16 17  1  0  0  0  0
 16 40  1  0  0  0  0
 16 41  1  0  0  0  0
 17 18  1  0  0  0  0
 18 19  1  0  0  0  0
 18 42  1  0  0  0  0
 18 43  1  0  0  0  0
 19 44  1  0  0  0  0
 19 45  1  0  0  0  0
 20 21  1  0  0  0  0
 21 22  2  0  0  0  0
 21 46  1  0  0  0  0
 22 23  1  0  0  0  0
M  CHG  1   2   1
M  CHG  1   8  -1
M  END
> <s_m_source_file>
AV-unprocessed.smi

> <i_m_source_file_index>
1943

> <i_lp_mmshare_version>
43012

> <i_f3d_flags>
0

> <s_epik_input>
W0NIM11OKFtDSDNdKUMoW0NIM10pKFtDSDNdKVtDSDJdW05IXUMoPU8pYzFuYyhuW2NIXWMxQ2wpTjJbQ0gyXVtDSDJdT1tDSDJdW0NIMl0y

> <s_epik_cmdline>
J2VwaWtfcHl0aG9uJywgJy1waCcsICc3LjAnLCAnLXRuJywgJzgnLCAnLW1hJywgJzIwMCcsICctbWV0YWxfYmluZGluZycsICctaW1hZScsICc8aW5maWxlLm1hZT4nLCAnLW9tYWUnLCAnPG91dGZpbGUubWFlPic=

> <r_lp_tautomer_probability>
1

> <r_epik_Ionization_Penalty>
4.9942

> <r_epik_Ionization_Penalty_Charging>
4.9942

> <r_epik_Ionization_Penalty_Neutral>
6.27513e-06

> <r_epik_State_Penalty>
4.99795

> <r_epik_Charging_Adjusted_Penalty>
9.99215

> <i_epik_Tot_Q>
0

> <i_epik_Tot_abs_Q>
2

> <r_epik_Metal_State_Penalty>
1.11486

> <b_epik_Metal_Only>
1

> <s_lp_Force_Field>
OPLS_2005

> <r_lp_Energy>
33.8194

> <b_lp_Chiralities_Consistent>
1

> <s_lp_Variant>
AV-unprocessed.smi:1943-2

> <Gold.Version>
5.8.1

> <Gold.Id.Protein>
6NUR|6NUR_protein|mol2

> <Gold.PLP.Fitness>
44.0683

> <Gold.PLP.PLP>
-32.8580

> <Gold.PLP.part.hbond>
-2.9230

> <Gold.PLP.part.metal>
0.0000

> <Gold.PLP.part.buried>
-4.6215

> <Gold.PLP.part.nonpolar>
-27.5673

> <Gold.PLP.part.repulsive>
0.9747

> <Gold.PLP.ligand.clash>
0.0000

> <Gold.PLP.ligand.torsion>
0.5693

> <Gold.PLP.Chemscore.Hbond>
3.9825

> <Gold.PLP.Chemscore.CHOScore>
0.0000

> <Gold.PLP.Chemscore.Metal>
0.0000

> <Gold.Chemscore.Hbonds>
donor molecule, donor type, donor heavy atom, donor atom, acceptor molecule, acceptor atom, score
      L1  H     2    47       P1 10957  2.00
      P1  H  7989  7998       L1    17  0.93
      P1  H 10752 10764       L1    20  1.00

> <Gold.PLP.Chemscore.Internal.Correction>
0.4014

> <Gold.Rescore>
     Score         DG    S(hbond)    S(metal)    S(lipo)     H(rot)  DE(clash)    DE(int)     intcor
     15.50     -17.53       2.14        0.00      72.54       1.41       0.03       2.00       ----

> <Gold.Chemscore.Fitness>
15.4978

> <Gold.Chemscore.DG>
-17.5283

> <Gold.Chemscore.ZeroCoef>
-5.4800

> <Gold.Chemscore.Hbond>
2.1440

> <Gold.Chemscore.Metal>
0.0000

> <Gold.Chemscore.Lipo>
72.5358

> <Gold.Chemscore.Internal_Hbond>
0.0000

> <Gold.Chemscore.DEClash>
0.0275

> <Gold.Chemscore.DEInternal>
2.0031

> <Gold.Chemscore.Rot>
1.4060

> <Gold.Chemscore.Internal.Correction>
   9.000000E+99

> <Gold.Chemscore.Hbonds>
donor molecule, donor type, donor heavy atom, donor atom, acceptor molecule, acceptor atom, score
      L1  H     2    47       P1 10957  0.58
      P1  H  7989  7998       L1    17  0.23
      P1  H 10752 10764       L1    20  0.23

> <Gold.Chemscore.Hbond.Weighted>
-7.1611

> <Gold.Chemscore.Metal.Weighted>
-0.0000

> <Gold.Chemscore.Lipo.Weighted>
-8.4867

> <Gold.Chemscore.Internal_Hbond.Weighted>
0.0000

> <Gold.Chemscore.DEClash.Weighted>
0.0275

> <Gold.Chemscore.DEInternal.Weighted>
2.0031

> <Gold.Chemscore.Rot.Weighted>
3.5994

> <Gold.Chemscore.Internal.Correction.Weighted>
   9.000000E+99

> <Gold.Protein.RotatedTorsions>
[ 6907 6896 6895 6894 ] final   14.24 input  -60.11 | X-H torsion
[ 7974 7965 7964 7962 ] final   30.44 input  175.53 | X-H torsion
[ 8008 7997 7996 7995 ] final  115.44 input   59.86 | X-H torsion
[ 10167 10162 10161 10158 ] final   -1.63 input  -65.29 | X-H torsion
[ 10718 10713 10712 10709 ] final   -1.63 input   66.30 | X-H torsion
[ 10763 10752 10751 10750 ] final  -43.09 input  -60.55 | X-H torsion
[ 11005 11000 10999 10996 ] final  119.14 input  -57.11 | X-H torsion

> <Gold.Protein.ActiveResidues>
 VAL166  LYS551  ARG553  GLY616  TRP617  ASP618  TYR619  PRO620  LYS621  CYS622 
 ASP623  PHE694  ASN695  SER759  ASP760  ASP761  ALA762  ILE779  LEU786  VAL792 
 PHE793  MET794  SER795  GLU796  ALA797  LYS798  CYS799  TRP800  GLU811  SER814 

> <Gold.Protein.RotatedAtoms>
  151.7990  135.0714  160.0397 H   0  0  0  0  0  0  0  0  0  0  0  0  # atno 6907 bound_to 6896
  152.3102  133.5741  159.5684 H   0  0  0  0  0  0  0  0  0  0  0  0  # atno 6908 bound_to 6896
  150.7316  134.0079  159.3702 H   0  0  0  0  0  0  0  0  0  0  0  0  # atno 6909 bound_to 6896
  146.1611  139.6788  142.9032 H   0  0  0  0  0  0  0  0  0  0  0  0  # atno 7974 bound_to 7965
  156.2381  140.2938  156.0369 H   0  0  0  0  0  0  0  0  0  0  0  0  # atno 8008 bound_to 7997
  155.2031  140.0410  157.2938 H   0  0  0  0  0  0  0  0  0  0  0  0  # atno 8009 bound_to 7997
  154.6117  140.2453  155.7668 H   0  0  0  0  0  0  0  0  0  0  0  0  # atno 8010 bound_to 7997
  140.6818  143.6752  150.8151 H   0  0  0  0  0  0  0  0  0  0  0  0  # atno 10167 bound_to 10162
  156.8028  130.5398  149.5719 H   0  0  0  0  0  0  0  0  0  0  0  0  # atno 10718 bound_to 10713
  153.9899  135.6706  153.4753 H   0  0  0  0  0  0  0  0  0  0  0  0  # atno 10763 bound_to 10752
  153.0710  135.4974  154.8300 H   0  0  0  0  0  0  0  0  0  0  0  0  # atno 10764 bound_to 10752
  154.7115  135.3098  154.9151 H   0  0  0  0  0  0  0  0  0  0  0  0  # atno 10765 bound_to 10752
  139.9135  134.9626  156.7610 H   0  0  0  0  0  0  0  0  0  0  0  0  # atno 11005 bound_to 11000
  145.4584  141.0432  143.2765 LP  0  0  0  0  0  0  0  0  0  0  0  0  # atno 17320 bound_to 7965
  144.8029  139.6106  143.7064 LP  0  0  0  0  0  0  0  0  0  0  0  0  # atno 17321 bound_to 7965
  140.0453  143.5304  152.2699 LP  0  0  0  0  0  0  0  0  0  0  0  0  # atno 17342 bound_to 10162
  139.6146  144.7616  151.2874 LP  0  0  0  0  0  0  0  0  0  0  0  0  # atno 17343 bound_to 10162
  156.1091  130.6027  151.0018 LP  0  0  0  0  0  0  0  0  0  0  0  0  # atno 17370 bound_to 10713
  157.6545  131.0891  150.7978 LP  0  0  0  0  0  0  0  0  0  0  0  0  # atno 17371 bound_to 10713
  140.6697  133.9570  155.7850 LP  0  0  0  0  0  0  0  0  0  0  0  0  # atno 17394 bound_to 11000
  141.0586  134.0380  157.3689 LP  0  0  0  0  0  0  0  0  0  0  0  0  # atno 17395 bound_to 11000

$$$$
