AV-unprocessed.smi:788|AV-procd|sdf|3738|dock3
  -GOLD-   22720 1173D 1   1.00000     0.00000
 Structure written by MMmdl.
 34 35  0  0  0  0  0  0  0  0  2 V2000
  154.2506  141.4185  160.6656 C   0  0  0  0  0  0  0  0  0  0  0  0
  152.7128  141.5311  160.5990 C   0  0  1  0  0  0  0  0  0  0  0  0
  152.1346  142.2451  161.8369 C   0  0  0  0  0  0  0  0  0  0  0  0
  152.4002  143.7581  161.8122 C   0  0  0  0  0  0  0  0  0  0  0  0
  151.8614  144.3925  160.5220 C   0  0  0  0  0  0  0  0  0  0  0  0
  152.4410  143.7187  159.2626 C   0  0  2  0  0  0  0  0  0  0  0  0
  151.8839  144.3857  157.9912 C   0  0  0  0  0  0  0  0  0  0  0  0
  152.1811  142.1899  159.2965 C   0  0  1  0  0  0  0  0  0  0  0  0
  152.7485  141.5512  158.1098 N   0  0  0  0  0  0  0  0  0  0  0  0
  152.1935  140.5630  157.3814 C   0  0  0  0  0  0  0  0  0  0  0  0
  151.1013  140.1110  157.7228 O   0  0  0  0  0  0  0  0  0  0  0  0
  152.8805  140.1145  156.2977 N   0  5  0  0  0  0  0  0  0  0  0  0
  152.2695  139.5740  155.2270 C   0  0  0  0  0  0  0  0  0  0  0  0
  152.7680  138.5131  154.5721 N   0  0  0  0  0  0  0  0  0  0  0  0
  151.9868  138.1217  153.4933 N   0  0  0  0  0  0  0  0  0  0  0  0
  150.9069  138.8931  153.3700 C   0  0  0  0  0  0  0  0  0  0  0  0
  150.7499  140.1719  154.5553 S   0  0  0  0  0  0  0  0  0  0  0  0
  154.7363  142.3916  160.6040 H   0  0  0  0  0  0  0  0  0  0  0  0
  154.6427  140.8031  159.8555 H   0  0  0  0  0  0  0  0  0  0  0  0
  154.5654  140.9532  161.5998 H   0  0  0  0  0  0  0  0  0  0  0  0
  152.3353  140.5079  160.6251 H   0  0  0  0  0  0  0  0  0  0  0  0
  151.0576  142.0761  161.8745 H   0  0  0  0  0  0  0  0  0  0  0  0
  152.5393  141.8085  162.7505 H   0  0  0  0  0  0  0  0  0  0  0  0
  151.9328  144.2282  162.6779 H   0  0  0  0  0  0  0  0  0  0  0  0
  153.4694  143.9521  161.8999 H   0  0  0  0  0  0  0  0  0  0  0  0
  150.7731  144.3166  160.5103 H   0  0  0  0  0  0  0  0  0  0  0  0
  152.0953  145.4574  160.5169 H   0  0  0  0  0  0  0  0  0  0  0  0
  153.5189  143.8849  159.2629 H   0  0  0  0  0  0  0  0  0  0  0  0
  150.8088  144.2284  157.9010 H   0  0  0  0  0  0  0  0  0  0  0  0
  152.3543  143.9926  157.0896 H   0  0  0  0  0  0  0  0  0  0  0  0
  152.0626  145.4611  158.0032 H   0  0  0  0  0  0  0  0  0  0  0  0
  151.0985  142.0497  159.2685 H   0  0  0  0  0  0  0  0  0  0  0  0
  153.6492  141.8917  157.8075 H   0  0  0  0  0  0  0  0  0  0  0  0
  150.1983  138.7083  152.5765 H   0  0  0  0  0  0  0  0  0  0  0  0
  1  2  1  0  0  0  0
  1 18  1  0  0  0  0
  1 19  1  0  0  0  0
  1 20  1  0  0  0  0
  2  8  1  0  0  0  0
  2  3  1  0  0  0  0
  2 21  1  0  0  0  0
  3  4  1  0  0  0  0
  3 22  1  0  0  0  0
  3 23  1  0  0  0  0
  4  5  1  0  0  0  0
  4 24  1  0  0  0  0
  4 25  1  0  0  0  0
  5  6  1  0  0  0  0
  5 26  1  0  0  0  0
  5 27  1  0  0  0  0
  6  7  1  0  0  0  0
  6  8  1  0  0  0  0
  6 28  1  0  0  0  0
  7 29  1  0  0  0  0
  7 30  1  0  0  0  0
  7 31  1  0  0  0  0
  8  9  1  0  0  0  0
  8 32  1  0  0  0  0
  9 10  1  0  0  0  0
  9 33  1  0  0  0  0
 10 11  2  0  0  0  0
 10 12  1  0  0  0  0
 12 13  1  0  0  0  0
 13 17  1  0  0  0  0
 13 14  2  0  0  0  0
 14 15  1  0  0  0  0
 15 16  2  0  0  0  0
 16 17  1  0  0  0  0
 16 34  1  0  0  0  0
M  CHG  1  12  -1
M  END
> <s_m_source_file>
AV-unprocessed.smi

> <i_m_source_file_index>
788

> <i_lp_mmshare_version>
43012

> <i_f3d_flags>
0

> <s_epik_input>
W0NIM11bQ0BASF0xW0NIMl1bQ0gyXVtDSDJdW0NAQEhdKFtDSDNdKVtDQEhdMVtOSF1DKD1PKVtOSF1jMm5uW2NIXXMy

> <s_epik_cmdline>
J2VwaWtfcHl0aG9uJywgJy1waCcsICc3LjAnLCAnLXRuJywgJzgnLCAnLW1hJywgJzIwMCcsICctbWV0YWxfYmluZGluZycsICctaW1hZScsICc8aW5maWxlLm1hZT4nLCAnLW9tYWUnLCAnPG91dGZpbGUubWFlPic=

> <r_lp_tautomer_probability>
1

> <r_epik_Ionization_Penalty>
4.58638

> <r_epik_Ionization_Penalty_Charging>
4.53816

> <r_epik_Ionization_Penalty_Neutral>
0.048215

> <r_epik_State_Penalty>
4.53788

> <r_epik_Charging_Adjusted_Penalty>
9.07605

> <i_epik_Tot_Q>
-1

> <i_epik_Tot_abs_Q>
1

> <r_epik_Metal_State_Penalty>
0.838628

> <b_epik_Metal_Only>
1

> <s_lp_Force_Field>
OPLS_2005

> <r_lp_Energy>
12.9055

> <b_lp_Chiralities_Consistent>
1

> <s_lp_Variant>
AV-unprocessed.smi:788-8

> <Gold.Version>
5.8.1

> <Gold.Id.Protein>
6NUR|6NUR_protein|mol2

> <Gold.PLP.Fitness>
48.3551

> <Gold.PLP.PLP>
-38.4819

> <Gold.PLP.part.hbond>
-2.9622

> <Gold.PLP.part.metal>
0.0000

> <Gold.PLP.part.buried>
-0.3530

> <Gold.PLP.part.nonpolar>
-35.3081

> <Gold.PLP.part.repulsive>
0.2599

> <Gold.PLP.ligand.clash>
0.0000

> <Gold.PLP.ligand.torsion>
0.7736

> <Gold.PLP.Chemscore.Hbond>
2.7488

> <Gold.PLP.Chemscore.CHOScore>
1.0521

> <Gold.PLP.Chemscore.Metal>
0.0000

> <Gold.Chemscore.Hbonds>
donor molecule, donor type, donor heavy atom, donor atom, acceptor molecule, acceptor atom, score
      P1  H  7997  8010       L1    12  1.59
      L1  C    16    34       P1  7948  0.27
      L1  C    16    34       P1  7957  0.86

> <Gold.PLP.Chemscore.Internal.Correction>
0.0176

> <Gold.Rescore>
     Score         DG    S(hbond)    S(metal)    S(lipo)     H(rot)  DE(clash)    DE(int)     intcor
     15.26     -17.16       0.69        0.00     101.93       1.00       0.55       1.35       ----

> <Gold.Chemscore.Fitness>
15.2634

> <Gold.Chemscore.DG>
-17.1617

> <Gold.Chemscore.ZeroCoef>
-5.4800

> <Gold.Chemscore.Hbond>
0.6933

> <Gold.Chemscore.Metal>
0.0000

> <Gold.Chemscore.Lipo>
101.9322

> <Gold.Chemscore.Internal_Hbond>
0.0000

> <Gold.Chemscore.DEClash>
0.5497

> <Gold.Chemscore.DEInternal>
1.3486

> <Gold.Chemscore.Rot>
1.0000

> <Gold.Chemscore.Internal.Correction>
   9.000000E+99

> <Gold.Chemscore.Hbonds>
donor molecule, donor type, donor heavy atom, donor atom, acceptor molecule, acceptor atom, score
      P1  H  7997  8010       L1    12  0.72

> <Gold.Chemscore.Hbond.Weighted>
-2.3156

> <Gold.Chemscore.Metal.Weighted>
-0.0000

> <Gold.Chemscore.Lipo.Weighted>
-11.9261

> <Gold.Chemscore.Internal_Hbond.Weighted>
0.0000

> <Gold.Chemscore.DEClash.Weighted>
0.5497

> <Gold.Chemscore.DEInternal.Weighted>
1.3486

> <Gold.Chemscore.Rot.Weighted>
2.5600

> <Gold.Chemscore.Internal.Correction.Weighted>
   9.000000E+99

> <Gold.Protein.RotatedTorsions>
[ 6907 6896 6895 6894 ] final  -32.16 input  -60.11 | X-H torsion
[ 7974 7965 7964 7962 ] final  -79.96 input  175.53 | X-H torsion
[ 8008 7997 7996 7995 ] final   76.93 input   59.86 | X-H torsion
[ 10167 10162 10161 10158 ] final -113.86 input  -65.29 | X-H torsion
[ 10718 10713 10712 10709 ] final -125.75 input   66.30 | X-H torsion
[ 10763 10752 10751 10750 ] final   23.90 input  -60.55 | X-H torsion
[ 11005 11000 10999 10996 ] final  148.57 input  -57.11 | X-H torsion

> <Gold.Protein.ActiveResidues>
 VAL166  LYS551  ARG553  GLY616  TRP617  ASP618  TYR619  PRO620  LYS621  CYS622 
 ASP623  PHE694  ASN695  SER759  ASP760  ASP761  ALA762  ILE779  LEU786  VAL792 
 PHE793  MET794  SER795  GLU796  ALA797  LYS798  CYS799  TRP800  GLU811  SER814 

> <Gold.Protein.RotatedAtoms>
  151.0825  134.9866  159.8362 H   0  0  0  0  0  0  0  0  0  0  0  0  # atno 6907 bound_to 6896
  152.5421  134.2165  159.8780 H   0  0  0  0  0  0  0  0  0  0  0  0  # atno 6908 bound_to 6896
  151.2196  133.4466  159.2634 H   0  0  0  0  0  0  0  0  0  0  0  0  # atno 6909 bound_to 6896
  145.5663  140.9474  143.1420 H   0  0  0  0  0  0  0  0  0  0  0  0  # atno 7974 bound_to 7965
  155.8343  140.3465  155.5592 H   0  0  0  0  0  0  0  0  0  0  0  0  # atno 8008 bound_to 7997
  155.8208  140.0912  157.1869 H   0  0  0  0  0  0  0  0  0  0  0  0  # atno 8009 bound_to 7997
  154.4004  140.1430  156.3485 H   0  0  0  0  0  0  0  0  0  0  0  0  # atno 8010 bound_to 7997
  140.1073  143.4559  152.1775 H   0  0  0  0  0  0  0  0  0  0  0  0  # atno 10167 bound_to 10162
  156.1703  130.6663  151.0170 H   0  0  0  0  0  0  0  0  0  0  0  0  # atno 10718 bound_to 10713
  153.0803  135.6617  154.0059 H   0  0  0  0  0  0  0  0  0  0  0  0  # atno 10763 bound_to 10752
  153.9682  135.2967  155.3430 H   0  0  0  0  0  0  0  0  0  0  0  0  # atno 10764 bound_to 10752
  154.7201  135.5168  153.8870 H   0  0  0  0  0  0  0  0  0  0  0  0  # atno 10765 bound_to 10752
  140.0971  134.9006  157.1739 H   0  0  0  0  0  0  0  0  0  0  0  0  # atno 11005 bound_to 11000
  144.7459  139.7322  143.7292 LP  0  0  0  0  0  0  0  0  0  0  0  0  # atno 17320 bound_to 7965
  146.1816  139.5011  142.9863 LP  0  0  0  0  0  0  0  0  0  0  0  0  # atno 17321 bound_to 7965
  139.5638  144.7423  151.4079 LP  0  0  0  0  0  0  0  0  0  0  0  0  # atno 17342 bound_to 10162
  140.6945  143.7782  150.7305 LP  0  0  0  0  0  0  0  0  0  0  0  0  # atno 17343 bound_to 10162
  157.6798  131.0841  150.7400 LP  0  0  0  0  0  0  0  0  0  0  0  0  # atno 17370 bound_to 10713
  156.7460  130.4754  149.5467 LP  0  0  0  0  0  0  0  0  0  0  0  0  # atno 17371 bound_to 10713
  140.3271  134.2851  155.7235 LP  0  0  0  0  0  0  0  0  0  0  0  0  # atno 17394 bound_to 11000
  141.2095  133.7747  156.9992 LP  0  0  0  0  0  0  0  0  0  0  0  0  # atno 17395 bound_to 11000

$$$$
