AV-unprocessed.smi:76|AV-procd|sdf|767|dock2
  -GOLD-   2262017113D 1   1.00000     0.00000
 Structure written by MMmdl.
 55 58  0  0  0  0  0  0  0  0  1 V2000
  152.6911  140.1021  160.1728 C   0  0  0  0  0  0  0  0  0  0  0  0
  153.0123  140.9333  158.9145 C   0  0  2  0  0  0  0  0  0  0  0  0
  153.0023  142.4514  159.1926 C   0  0  0  0  0  0  0  0  0  0  0  0
  151.5753  143.0157  159.3684 C   0  0  1  0  0  0  0  0  0  0  0  0
  151.5770  144.5369  159.6205 C   0  0  0  0  0  0  0  0  0  0  0  0
  152.1897  145.1838  158.6286 F   0  0  0  0  0  0  0  0  0  0  0  0
  150.3249  144.9837  159.7172 F   0  0  0  0  0  0  0  0  0  0  0  0
  152.2052  144.8078  160.7646 F   0  0  0  0  0  0  0  0  0  0  0  0
  150.7249  142.6314  158.1414 C   0  0  0  0  0  0  0  0  0  0  0  0
  150.7436  141.1147  157.8965 C   0  0  0  0  0  0  0  0  0  0  0  0
  152.1182  140.6193  157.7936 N   0  0  0  0  0  0  0  0  0  0  0  0
  152.3061  139.4094  157.2047 C   0  0  0  0  0  0  0  0  0  0  0  0
  153.5347  138.8269  157.2415 N   0  0  0  0  0  0  0  0  0  0  0  0
  153.7389  137.6417  156.6603 C   0  0  0  0  0  0  0  0  0  0  0  0
  152.8686  136.8767  156.0001 N   0  0  0  0  0  0  0  0  0  0  0  0
  151.6334  137.4525  155.9593 C   0  0  0  0  0  0  0  0  0  0  0  0
  151.2676  138.7028  156.5338 C   0  0  0  0  0  0  0  0  0  0  0  0
  149.9171  138.9449  156.3118 N   0  0  0  0  0  0  0  0  0  0  0  0
  149.5111  137.9022  155.6409 C   0  0  0  0  0  0  0  0  0  0  0  0
  150.4807  136.9632  155.3681 N   0  0  0  0  0  0  0  0  0  0  0  0
  150.3048  135.7078  154.6513 C   0  0  0  0  0  0  0  0  0  0  0  0
  150.1118  134.4489  155.5556 C   0  0  0  0  0  0  0  0  0  0  0  0
  151.2958  134.2898  156.5461 C   0  0  0  0  0  0  0  0  0  0  0  0
  151.1673  133.1391  157.3566 O   0  0  0  0  0  0  0  0  0  0  0  0
  148.7877  134.5648  156.3515 C   0  0  0  0  0  0  0  0  0  0  0  0
  147.5400  134.4007  155.4633 C   0  0  0  0  0  0  0  0  0  0  0  0
  147.5936  133.1615  154.7677 O   0  0  0  0  0  0  0  0  0  0  0  0
  148.7177  133.0579  153.9029 C   0  0  0  0  0  0  0  0  0  0  0  0
  150.0159  133.1440  154.7248 C   0  0  0  0  0  0  0  0  0  0  0  0
  153.3757  140.3472  160.9849 H   0  0  0  0  0  0  0  0  0  0  0  0
  152.7925  139.0344  159.9763 H   0  0  0  0  0  0  0  0  0  0  0  0
  151.6776  140.2744  160.5344 H   0  0  0  0  0  0  0  0  0  0  0  0
  154.0333  140.6839  158.6299 H   0  0  0  0  0  0  0  0  0  0  0  0
  153.6087  142.6706  160.0718 H   0  0  0  0  0  0  0  0  0  0  0  0
  153.4869  142.9616  158.3591 H   0  0  0  0  0  0  0  0  0  0  0  0
  151.1289  142.5451  160.2451 H   0  0  0  0  0  0  0  0  0  0  0  0
  149.6956  142.9649  158.2745 H   0  0  0  0  0  0  0  0  0  0  0  0
  151.1027  143.1434  157.2557 H   0  0  0  0  0  0  0  0  0  0  0  0
  150.2254  140.5967  158.7043 H   0  0  0  0  0  0  0  0  0  0  0  0
  150.1985  140.8975  156.9766 H   0  0  0  0  0  0  0  0  0  0  0  0
  154.7430  137.2509  156.7352 H   0  0  0  0  0  0  0  0  0  0  0  0
  148.4848  137.7900  155.3232 H   0  0  0  0  0  0  0  0  0  0  0  0
  149.4494  135.8206  153.9843 H   0  0  0  0  0  0  0  0  0  0  0  0
  151.1630  135.5912  153.9914 H   0  0  0  0  0  0  0  0  0  0  0  0
  152.2386  134.2074  156.0043 H   0  0  0  0  0  0  0  0  0  0  0  0
  151.3909  135.1638  157.1908 H   0  0  0  0  0  0  0  0  0  0  0  0
  151.6605  132.4369  156.9590 H   0  0  0  0  0  0  0  0  0  0  0  0
  148.7579  133.7947  157.1239 H   0  0  0  0  0  0  0  0  0  0  0  0
  148.7384  135.5189  156.8775 H   0  0  0  0  0  0  0  0  0  0  0  0
  146.6430  134.4119  156.0824 H   0  0  0  0  0  0  0  0  0  0  0  0
  147.4370  135.2250  154.7573 H   0  0  0  0  0  0  0  0  0  0  0  0
  148.6694  132.0986  153.3873 H   0  0  0  0  0  0  0  0  0  0  0  0
  148.6759  133.8276  153.1320 H   0  0  0  0  0  0  0  0  0  0  0  0
  150.8826  133.0220  154.0766 H   0  0  0  0  0  0  0  0  0  0  0  0
  150.0372  132.2856  155.3978 H   0  0  0  0  0  0  0  0  0  0  0  0
  1  2  1  0  0  0  0
  1 30  1  0  0  0  0
  1 31  1  0  0  0  0
  1 32  1  0  0  0  0
  2 11  1  0  0  0  0
  2  3  1  0  0  0  0
  2 33  1  0  0  0  0
  3  4  1  0  0  0  0
  3 34  1  0  0  0  0
  3 35  1  0  0  0  0
  4  5  1  0  0  0  0
  4  9  1  0  0  0  0
  4 36  1  0  0  0  0
  5  6  1  0  0  0  0
  5  7  1  0  0  0  0
  5  8  1  0  0  0  0
  9 10  1  0  0  0  0
  9 37  1  0  0  0  0
  9 38  1  0  0  0  0
 10 11  1  0  0  0  0
 10 39  1  0  0  0  0
 10 40  1  0  0  0  0
 11 12  1  0  0  0  0
 12 17  1  0  0  0  0
 12 13  2  0  0  0  0
 13 14  1  0  0  0  0
 14 15  2  0  0  0  0
 14 41  1  0  0  0  0
 15 16  1  0  0  0  0
 16 20  1  0  0  0  0
 16 17  2  0  0  0  0
 17 18  1  0  0  0  0
 18 19  2  0  0  0  0
 19 20  1  0  0  0  0
 19 42  1  0  0  0  0
 20 21  1  0  0  0  0
 21 22  1  0  0  0  0
 21 43  1  0  0  0  0
 21 44  1  0  0  0  0
 22 29  1  0  0  0  0
 22 23  1  0  0  0  0
 22 25  1  0  0  0  0
 23 24  1  0  0  0  0
 23 45  1  0  0  0  0
 23 46  1  0  0  0  0
 24 47  1  0  0  0  0
 25 26  1  0  0  0  0
 25 48  1  0  0  0  0
 25 49  1  0  0  0  0
 26 27  1  0  0  0  0
 26 50  1  0  0  0  0
 26 51  1  0  0  0  0
 27 28  1  0  0  0  0
 28 29  1  0  0  0  0
 28 52  1  0  0  0  0
 28 53  1  0  0  0  0
 29 54  1  0  0  0  0
 29 55  1  0  0  0  0
M  END
> <s_m_source_file>
AV-unprocessed.smi

> <i_m_source_file_index>
76

> <i_lp_mmshare_version>
43012

> <i_f3d_flags>
0

> <s_epik_input>
W0NIM11bQ0BASF0xW0NIMl1bQ0BASF0oQyhGKShGKUYpW0NIMl1bQ0gyXU4xYyhuW2NIXW4yKWMoYzIzKW5bY0hdbjNbQ0gyXUM0KFtDSDJdW09IXSlbQ0gyXVtDSDJdT1tDSDJdW0NIMl00

> <s_epik_cmdline>
J2VwaWtfcHl0aG9uJywgJy1waCcsICc3LjAnLCAnLXRuJywgJzgnLCAnLW1hJywgJzIwMCcsICctbWV0YWxfYmluZGluZycsICctaW1hZScsICc8aW5maWxlLm1hZT4nLCAnLW9tYWUnLCAnPG91dGZpbGUubWFlPic=

> <r_lp_tautomer_probability>
1

> <r_epik_Ionization_Penalty>
0.00244097

> <r_epik_Ionization_Penalty_Charging>
0

> <r_epik_Ionization_Penalty_Neutral>
0.00244097

> <r_epik_State_Penalty>
0.00151846

> <r_epik_Charging_Adjusted_Penalty>
0.00151846

> <i_epik_Tot_Q>
0

> <i_epik_Tot_abs_Q>
0

> <r_epik_Metal_State_Penalty>
-0

> <b_epik_Metal_Only>
0

> <s_lp_Force_Field>
OPLS_2005

> <r_lp_Energy>
36.8654

> <b_lp_Chiralities_Consistent>
1

> <s_lp_Variant>
AV-unprocessed.smi:76-1

> <Gold.Version>
5.8.1

> <Gold.Id.Protein>
6NUR|6NUR_protein|mol2

> <Gold.PLP.Fitness>
49.9448

> <Gold.PLP.PLP>
-43.1704

> <Gold.PLP.part.hbond>
-2.9830

> <Gold.PLP.part.metal>
0.0000

> <Gold.PLP.part.buried>
-5.7153

> <Gold.PLP.part.nonpolar>
-34.9815

> <Gold.PLP.part.repulsive>
0.0299

> <Gold.PLP.ligand.clash>
0.0000

> <Gold.PLP.ligand.torsion>
0.7941

> <Gold.PLP.Chemscore.Hbond>
2.6000

> <Gold.PLP.Chemscore.CHOScore>
0.0000

> <Gold.PLP.Chemscore.Metal>
0.0000

> <Gold.Chemscore.Hbonds>
donor molecule, donor type, donor heavy atom, donor atom, acceptor molecule, acceptor atom, score
      P1  H  6896  6909       L1    24  0.85
      P1  H  7997  8009       L1    13  1.00
      P1  H 10752 10765       L1    15  0.74

> <Gold.PLP.Chemscore.Internal.Correction>
0.5626

> <Gold.Rescore>
     Score         DG    S(hbond)    S(metal)    S(lipo)     H(rot)  DE(clash)    DE(int)     intcor
     15.68     -17.86       2.45        0.00      89.82       2.47       0.02       2.17       ----

> <Gold.Chemscore.Fitness>
15.6776

> <Gold.Chemscore.DG>
-17.8633

> <Gold.Chemscore.ZeroCoef>
-5.4800

> <Gold.Chemscore.Hbond>
2.4517

> <Gold.Chemscore.Metal>
0.0000

> <Gold.Chemscore.Lipo>
89.8183

> <Gold.Chemscore.Internal_Hbond>
0.0000

> <Gold.Chemscore.DEClash>
0.0155

> <Gold.Chemscore.DEInternal>
2.1703

> <Gold.Chemscore.Rot>
2.4665

> <Gold.Chemscore.Internal.Correction>
   9.000000E+99

> <Gold.Chemscore.Hbonds>
donor molecule, donor type, donor heavy atom, donor atom, acceptor molecule, acceptor atom, score
      P1  H  6896  6909       L1    24  0.77
      P1  H  7997  8009       L1    13  0.23
      P1  H 10752 10765       L1    15  0.70

> <Gold.Chemscore.Hbond.Weighted>
-8.1887

> <Gold.Chemscore.Metal.Weighted>
-0.0000

> <Gold.Chemscore.Lipo.Weighted>
-10.5087

> <Gold.Chemscore.Internal_Hbond.Weighted>
0.0000

> <Gold.Chemscore.DEClash.Weighted>
0.0155

> <Gold.Chemscore.DEInternal.Weighted>
2.1703

> <Gold.Chemscore.Rot.Weighted>
6.3142

> <Gold.Chemscore.Internal.Correction.Weighted>
   9.000000E+99

> <Gold.Protein.RotatedTorsions>
[ 6907 6896 6895 6894 ] final  -35.90 input  -60.11 | X-H torsion
[ 7974 7965 7964 7962 ] final  -89.83 input  175.53 | X-H torsion
[ 8008 7997 7996 7995 ] final  175.38 input   59.86 | X-H torsion
[ 10167 10162 10161 10158 ] final -106.25 input  -65.29 | X-H torsion
[ 10718 10713 10712 10709 ] final   38.08 input   66.30 | X-H torsion
[ 10763 10752 10751 10750 ] final -152.08 input  -60.55 | X-H torsion
[ 11005 11000 10999 10996 ] final  157.88 input  -57.11 | X-H torsion

> <Gold.Protein.ActiveResidues>
 VAL166  LYS551  ARG553  GLY616  TRP617  ASP618  TYR619  PRO620  LYS621  CYS622 
 ASP623  PHE694  ASN695  SER759  ASP760  ASP761  ALA762  ILE779  LEU786  VAL792 
 PHE793  MET794  SER795  GLU796  ALA797  LYS798  CYS799  TRP800  GLU811  SER814 

> <Gold.Protein.RotatedAtoms>
  151.0340  134.9560  159.8125 H   0  0  0  0  0  0  0  0  0  0  0  0  # atno 6907 bound_to 6896
  152.5351  134.2743  159.8993 H   0  0  0  0  0  0  0  0  0  0  0  0  # atno 6908 bound_to 6896
  151.2754  133.4193  159.2657 H   0  0  0  0  0  0  0  0  0  0  0  0  # atno 6909 bound_to 6896
  145.4345  140.9557  143.2109 H   0  0  0  0  0  0  0  0  0  0  0  0  # atno 7974 bound_to 7965
  156.0876  140.1410  156.9633 H   0  0  0  0  0  0  0  0  0  0  0  0  # atno 8008 bound_to 7997
  154.4622  140.0939  156.6972 H   0  0  0  0  0  0  0  0  0  0  0  0  # atno 8009 bound_to 7997
  155.4973  140.3450  155.4367 H   0  0  0  0  0  0  0  0  0  0  0  0  # atno 8010 bound_to 7997
  140.1898  143.3901  152.1215 H   0  0  0  0  0  0  0  0  0  0  0  0  # atno 10167 bound_to 10162
  157.3546  130.7617  149.7003 H   0  0  0  0  0  0  0  0  0  0  0  0  # atno 10718 bound_to 10713
  154.8017  135.3244  154.7534 H   0  0  0  0  0  0  0  0  0  0  0  0  # atno 10763 bound_to 10752
  153.8201  135.6888  153.4833 H   0  0  0  0  0  0  0  0  0  0  0  0  # atno 10764 bound_to 10752
  153.1737  135.4613  154.9880 H   0  0  0  0  0  0  0  0  0  0  0  0  # atno 10765 bound_to 10752
  140.1811  134.8475  157.2804 H   0  0  0  0  0  0  0  0  0  0  0  0  # atno 11005 bound_to 11000
  144.8161  139.5874  143.7008 LP  0  0  0  0  0  0  0  0  0  0  0  0  # atno 17320 bound_to 7965
  146.2589  139.6365  142.9375 LP  0  0  0  0  0  0  0  0  0  0  0  0  # atno 17321 bound_to 7965
  139.5261  144.7103  151.5226 LP  0  0  0  0  0  0  0  0  0  0  0  0  # atno 17342 bound_to 10162
  140.6463  143.8787  150.6741 LP  0  0  0  0  0  0  0  0  0  0  0  0  # atno 17343 bound_to 10162
  155.9727  130.4131  150.4064 LP  0  0  0  0  0  0  0  0  0  0  0  0  # atno 17370 bound_to 10713
  157.2132  131.0465  151.2587 LP  0  0  0  0  0  0  0  0  0  0  0  0  # atno 17371 bound_to 10713
  140.2266  134.3959  155.7541 LP  0  0  0  0  0  0  0  0  0  0  0  0  # atno 17394 bound_to 11000
  141.2223  133.7193  156.8574 LP  0  0  0  0  0  0  0  0  0  0  0  0  # atno 17395 bound_to 11000

$$$$
