#       Name:                AV-unprocessed.smi:3188
#       Creating user name   scv26
#       Creation time:       Fri Mar 27 18:02:30 2020


#       File generated by GOLD software.
#

@<TRIPOS>MOLECULE
AV-unprocessed.smi:3188
    42    43     1
SMALL
NO_CHARGES


@<TRIPOS>ATOM
      1 ****         0.7395   2.7614  -0.8481 C.3            1 S1                 0.0000
      2 ****        -0.6849   2.2343  -0.9069 C.2            1 S1                 0.0000
      3 ****        -1.4859   2.5295  -1.9499 C.2            1 S1                 0.0000
      4 ****        -2.9381   2.1035  -2.0757 C.3            1 S1                 0.0000
      5 ****        -3.3789   1.1269  -0.9731 C.3            1 S1                 0.0000
      6 ****        -2.7307   1.4743   0.3783 C.3            1 S1                 0.0000
      7 ****        -3.3371   0.6626   1.5362 C.3            1 S1                 0.0000
      8 ****        -1.1796   1.4056   0.2867 C.3            1 S1                 0.0000
      9 ****        -0.6399  -0.0489   0.2582 C.3            1 S1                 0.0000
     10 ****         0.8291  -0.1228   0.3830 N.4            1 S1                 1.0000
     11 ****         1.3685  -1.4956   0.3417 C.3            1 S1                 0.0000
     12 ****         2.8981  -1.4904   0.4730 C.3            1 S1                 0.0000
     13 ****         3.4448  -2.8329   0.4378 N.pl3          1 S1                 0.0000
     14 ****         3.9292  -3.5928   1.4824 C.2            1 S1                 0.0000
     15 ****         4.3093  -4.7570   0.8776 C.2            1 S1                 0.0000
     16 ****         4.0445  -4.6583  -0.4873 N.2            1 S1                 0.0000
     17 ****         3.5280  -3.4970  -0.7397 N.2            1 S1                 0.0000
     18 ****         0.9378   3.2232   0.1194 H              1 S1                 0.0000
     19 ****         0.9081   3.5182  -1.6152 H              1 S1                 0.0000
     20 ****         1.4671   1.9687  -1.0133 H              1 S1                 0.0000
     21 ****        -1.1075   3.1383  -2.7584 H              1 S1                 0.0000
     22 ****        -3.5471   3.0069  -2.0289 H              1 S1                 0.0000
     23 ****        -3.1055   1.6618  -3.0583 H              1 S1                 0.0000
     24 ****        -4.4663   1.1441  -0.8911 H              1 S1                 0.0000
     25 ****        -3.1151   0.1081  -1.2580 H              1 S1                 0.0000
     26 ****        -2.9836   2.5152   0.5883 H              1 S1                 0.0000
     27 ****        -3.2729  -0.4114   1.3618 H              1 S1                 0.0000
     28 ****        -4.3933   0.9025   1.6623 H              1 S1                 0.0000
     29 ****        -2.8370   0.8857   2.4790 H              1 S1                 0.0000
     30 ****        -0.7962   1.8844   1.1891 H              1 S1                 0.0000
     31 ****        -1.0527  -0.6283   1.0829 H              1 S1                 0.0000
     32 ****        -0.9428  -0.5462  -0.6638 H              1 S1                 0.0000
     33 ****         1.2391   0.4055  -0.3741 H              1 S1                 0.0000
     34 ****         0.9273  -2.0806   1.1500 H              1 S1                 0.0000
     35 ****         1.0725  -1.9668  -0.5969 H              1 S1                 0.0000
     36 ****         3.3512  -0.9091  -0.3318 H              1 S1                 0.0000
     37 ****         3.1969  -1.0201   1.4109 H              1 S1                 0.0000
     38 ****         3.9603  -3.2581   2.5089 H              1 S1                 0.0000
     39 ****         4.7464  -5.6476   1.3050 H              1 S1                 0.0000
     40 ****         1.0986   0.3038   1.2580 H              1 S1                 0.0000
     41 ****         4.2247  -5.3713  -1.1649 LP             1 S1                 0.0000
     42 ****         3.2441  -3.1553  -1.6356 LP             1 S1                 0.0000
@<TRIPOS>BOND
    1    1    2 1     
    2    1   18 1     
    3    1   19 1     
    4    1   20 1     
    5    2    8 1     
    6    2    3 2     
    7    3    4 1     
    8    3   21 1     
    9    4    5 1     
   10    4   22 1     
   11    4   23 1     
   12    5    6 1     
   13    5   24 1     
   14    5   25 1     
   15    6    7 1     
   16    6    8 1     
   17    6   26 1     
   18    7   27 1     
   19    7   28 1     
   20    7   29 1     
   21    8    9 1     
   22    8   30 1     
   23    9   10 1     
   24    9   31 1     
   25    9   32 1     
   26   10   11 1     
   27   10   33 1     
   28   10   40 1     
   29   11   12 1     
   30   11   34 1     
   31   11   35 1     
   32   12   13 1     
   33   12   36 1     
   34   12   37 1     
   35   13   17 1     
   36   13   14 1     
   37   14   15 2     
   38   14   38 1     
   39   15   16 1     
   40   15   39 1     
   41   16   17 2     
   42   16   41 1     
   43   17   42 1     
@<TRIPOS>SUBSTRUCTURE
      1 S1             1
@<TRIPOS>SET
LONE_PAIRS      STATIC     ATOMS    <user>   **** ""
2 41 42
DONOR_HYDROGENS      STATIC     ATOMS    <user>   **** ""
2 33 40
ATOM$BLUE        STATIC     ATOMS    COLORGROUP SYSTEM
2 41 42
ATOM$RED        STATIC     ATOMS    COLORGROUP SYSTEM
2 33 40
