AV-unprocessed.smi:2504|AV-procd|sdf|9850|dock5
  -GOLD-   2272013483D 1   1.00000     0.00000
 Structure written by MMmdl.
 47 49  0  0  0  0  0  0  0  0  2 V2000
  149.8763  142.5741  159.4365 O   0  0  0  0  0  0  0  0  0  0  0  0
  150.7184  141.8386  158.9201 C   0  0  0  0  0  0  0  0  0  0  0  0
  152.2230  142.1647  159.0252 C   0  0  0  0  0  0  0  0  0  0  0  0
  152.7698  141.9856  160.4518 C   0  0  0  0  0  0  0  0  0  0  0  0
  152.6768  143.3565  161.1404 C   0  0  0  0  0  0  0  0  0  0  0  0
  152.3621  144.3817  160.0424 C   0  0  0  0  0  0  0  0  0  0  0  0
  152.5195  143.6386  158.7126 C   0  0  0  0  0  0  0  0  0  0  0  0
  150.3442  140.7321  158.1519 N   0  0  0  0  0  0  0  0  0  0  0  0
  151.2524  139.6118  157.9571 C   0  0  0  0  0  0  0  0  0  0  0  0
  149.9876  138.7584  157.8111 C   0  0  0  0  0  0  0  0  0  0  0  0
  150.0796  137.1740  158.7565 S   0  0  0  0  0  0  0  0  0  0  0  0
  149.3735  136.1364  157.9895 O   0  0  0  0  0  0  0  0  0  0  0  0
  151.4586  136.9371  159.2096 O   0  0  0  0  0  0  0  0  0  0  0  0
  149.1337  137.5297  160.1561 N   0  0  0  0  0  0  0  0  0  0  0  0
  147.9424  136.7235  160.4340 C   0  0  0  0  0  0  0  0  0  0  0  0
  147.5997  136.7288  161.9339 C   0  0  0  0  0  0  0  0  0  0  0  0
  146.3207  135.9804  162.2613 C   0  0  0  0  0  0  0  0  0  0  0  0
  146.3354  134.5787  162.4349 C   0  0  0  0  0  0  0  0  0  0  0  0
  145.1300  133.9043  162.7199 C   0  0  0  0  0  0  0  0  0  0  0  0
  143.9363  134.6470  162.8240 C   0  0  0  0  0  0  0  0  0  0  0  0
  143.9609  135.9871  162.6534 N   0  3  0  0  0  0  0  0  0  0  0  0
  145.0947  136.6701  162.3822 C   0  0  0  0  0  0  0  0  0  0  0  0
  149.2195  139.8838  158.5175 C   0  0  0  0  0  0  0  0  0  0  0  0
  152.7727  141.5122  158.3457 H   0  0  0  0  0  0  0  0  0  0  0  0
  152.2449  141.2131  161.0159 H   0  0  0  0  0  0  0  0  0  0  0  0
  153.8148  141.6778  160.3986 H   0  0  0  0  0  0  0  0  0  0  0  0
  151.8911  143.3600  161.8968 H   0  0  0  0  0  0  0  0  0  0  0  0
  153.6138  143.5941  161.6451 H   0  0  0  0  0  0  0  0  0  0  0  0
  151.3328  144.7261  160.1504 H   0  0  0  0  0  0  0  0  0  0  0  0
  153.0058  145.2599  160.0985 H   0  0  0  0  0  0  0  0  0  0  0  0
  153.5473  143.7315  158.3591 H   0  0  0  0  0  0  0  0  0  0  0  0
  151.8746  144.0558  157.9381 H   0  0  0  0  0  0  0  0  0  0  0  0
  151.8594  139.6845  157.0543 H   0  0  0  0  0  0  0  0  0  0  0  0
  151.8429  139.3714  158.8440 H   0  0  0  0  0  0  0  0  0  0  0  0
  149.6979  138.5969  156.7714 H   0  0  0  0  0  0  0  0  0  0  0  0
  149.7219  137.6159  160.9853 H   0  0  0  0  0  0  0  0  0  0  0  0
  147.1000  137.0843  159.8421 H   0  0  0  0  0  0  0  0  0  0  0  0
  148.1385  135.7022  160.1067 H   0  0  0  0  0  0  0  0  0  0  0  0
  148.4185  136.2753  162.4936 H   0  0  0  0  0  0  0  0  0  0  0  0
  147.5204  137.7552  162.2953 H   0  0  0  0  0  0  0  0  0  0  0  0
  147.2583  134.0244  162.3445 H   0  0  0  0  0  0  0  0  0  0  0  0
  145.1212  132.8324  162.8530 H   0  0  0  0  0  0  0  0  0  0  0  0
  142.9700  134.2131  163.0359 H   0  0  0  0  0  0  0  0  0  0  0  0
  144.9851  137.7376  162.2590 H   0  0  0  0  0  0  0  0  0  0  0  0
  149.1099  139.7498  159.5941 H   0  0  0  0  0  0  0  0  0  0  0  0
  148.2824  140.1603  158.0339 H   0  0  0  0  0  0  0  0  0  0  0  0
  143.0854  136.5050  162.7313 H   0  0  0  0  0  0  0  0  0  0  0  0
  1  2  2  0  0  0  0
  2  3  1  0  0  0  0
  2  8  1  0  0  0  0
  3  7  1  0  0  0  0
  3  4  1  0  0  0  0
  3 24  1  0  0  0  0
  4  5  1  0  0  0  0
  4 25  1  0  0  0  0
  4 26  1  0  0  0  0
  5  6  1  0  0  0  0
  5 27  1  0  0  0  0
  5 28  1  0  0  0  0
  6  7  1  0  0  0  0
  6 29  1  0  0  0  0
  6 30  1  0  0  0  0
  7 31  1  0  0  0  0
  7 32  1  0  0  0  0
  8 23  1  0  0  0  0
  8  9  1  0  0  0  0
  9 10  1  0  0  0  0
  9 33  1  0  0  0  0
  9 34  1  0  0  0  0
 10 11  1  0  0  0  0
 10 23  1  0  0  0  0
 10 35  1  0  0  0  0
 11 12  2  0  0  0  0
 11 13  2  0  0  0  0
 11 14  1  0  0  0  0
 14 15  1  0  0  0  0
 14 36  1  0  0  0  0
 15 16  1  0  0  0  0
 15 37  1  0  0  0  0
 15 38  1  0  0  0  0
 16 17  1  0  0  0  0
 16 39  1  0  0  0  0
 16 40  1  0  0  0  0
 17 22  1  0  0  0  0
 17 18  2  0  0  0  0
 18 19  1  0  0  0  0
 18 41  1  0  0  0  0
 19 20  2  0  0  0  0
 19 42  1  0  0  0  0
 20 21  1  0  0  0  0
 20 43  1  0  0  0  0
 21 22  2  0  0  0  0
 21 47  1  0  0  0  0
 22 44  1  0  0  0  0
 23 45  1  0  0  0  0
 23 46  1  0  0  0  0
M  CHG  1  21   1
M  END
> <s_m_source_file>
AV-unprocessed.smi

> <i_m_source_file_index>
2504

> <i_lp_mmshare_version>
43012

> <i_f3d_flags>
0

> <s_epik_input>
W0NIMl0xW0NIMl1bQ0gyXVtDSDJdW0NIXTFDKD1PKU4yW0NIMl1bQ0hdKFtDSDJdMilTKD1PKSg9TylbTkhdW0NIMl1bQ0gyXWMzW2NIXVtjSF1bY0hdbltjSF0z

> <s_epik_cmdline>
J2VwaWtfcHl0aG9uJywgJy1waCcsICc3LjAnLCAnLXRuJywgJzgnLCAnLW1hJywgJzIwMCcsICctbWV0YWxfYmluZGluZycsICctaW1hZScsICc8aW5maWxlLm1hZT4nLCAnLW9tYWUnLCAnPG91dGZpbGUubWFlPic=

> <r_epik_Ionization_Penalty>
2.38216

> <r_epik_Ionization_Penalty_Charging>
2.38209

> <r_epik_Ionization_Penalty_Neutral>
6.7549e-05

> <r_epik_State_Penalty>
2.53866

> <r_epik_Charging_Adjusted_Penalty>
4.92075

> <i_epik_Tot_Q>
1

> <i_epik_Tot_abs_Q>
1

> <r_epik_Metal_State_Penalty>
2.64273

> <b_epik_Metal_Only>
0

> <s_lp_Force_Field>
OPLS_2005

> <r_lp_Energy>
40.9078

> <b_lp_Chiralities_Consistent>
1

> <s_lp_Variant>
AV-unprocessed.smi:2504-2

> <Gold.Version>
5.8.1

> <Gold.Id.Protein>
6NUR|6NUR_protein|mol2

> <Gold.PLP.Fitness>
50.6444

> <Gold.PLP.PLP>
-48.0350

> <Gold.PLP.part.hbond>
-4.0000

> <Gold.PLP.part.metal>
0.0000

> <Gold.PLP.part.buried>
-4.0248

> <Gold.PLP.part.nonpolar>
-41.5528

> <Gold.PLP.part.repulsive>
0.0826

> <Gold.PLP.ligand.clash>
0.0000

> <Gold.PLP.ligand.torsion>
1.5281

> <Gold.PLP.Chemscore.Hbond>
1.3356

> <Gold.PLP.Chemscore.CHOScore>
0.0000

> <Gold.PLP.Chemscore.Metal>
0.0000

> <Gold.Chemscore.Hbonds>
donor molecule, donor type, donor heavy atom, donor atom, acceptor molecule, acceptor atom, score
      P1  H  6896  6907       L1    13  0.36

> <Gold.PLP.Chemscore.Internal.Correction>
1.6588

> <Gold.Rescore>
     Score         DG    S(hbond)    S(metal)    S(lipo)     H(rot)  DE(clash)    DE(int)     intcor
     15.13     -17.00       0.65        0.00     123.22       1.97       0.23       1.65       ----

> <Gold.Chemscore.Fitness>
15.1306

> <Gold.Chemscore.DG>
-17.0010

> <Gold.Chemscore.ZeroCoef>
-5.4800

> <Gold.Chemscore.Hbond>
0.6468

> <Gold.Chemscore.Metal>
0.0000

> <Gold.Chemscore.Lipo>
123.2168

> <Gold.Chemscore.Internal_Hbond>
0.0000

> <Gold.Chemscore.DEClash>
0.2253

> <Gold.Chemscore.DEInternal>
1.6452

> <Gold.Chemscore.Rot>
1.9749

> <Gold.Chemscore.Internal.Correction>
   9.000000E+99

> <Gold.Chemscore.Hbonds>
donor molecule, donor type, donor heavy atom, donor atom, acceptor molecule, acceptor atom, score
      P1  H  6896  6907       L1    13  0.37

> <Gold.Chemscore.Hbond.Weighted>
-2.1603

> <Gold.Chemscore.Metal.Weighted>
-0.0000

> <Gold.Chemscore.Lipo.Weighted>
-14.4164

> <Gold.Chemscore.Internal_Hbond.Weighted>
0.0000

> <Gold.Chemscore.DEClash.Weighted>
0.2253

> <Gold.Chemscore.DEInternal.Weighted>
1.6452

> <Gold.Chemscore.Rot.Weighted>
5.0556

> <Gold.Chemscore.Internal.Correction.Weighted>
   9.000000E+99

> <Gold.Protein.RotatedTorsions>
[ 6907 6896 6895 6894 ] final   30.59 input  -60.11 | X-H torsion
[ 7974 7965 7964 7962 ] final -131.86 input  175.53 | X-H torsion
[ 8008 7997 7996 7995 ] final  176.04 input   59.86 | X-H torsion
[ 10167 10162 10161 10158 ] final  153.09 input  -65.29 | X-H torsion
[ 10718 10713 10712 10709 ] final   43.24 input   66.30 | X-H torsion
[ 10763 10752 10751 10750 ] final  163.25 input  -60.55 | X-H torsion
[ 11005 11000 10999 10996 ] final   32.17 input  -57.11 | X-H torsion

> <Gold.Protein.ActiveResidues>
 VAL166  LYS551  ARG553  GLY616  TRP617  ASP618  TYR619  PRO620  LYS621  CYS622 
 ASP623  PHE694  ASN695  SER759  ASP760  ASP761  ALA762  ILE779  LEU786  VAL792 
 PHE793  MET794  SER795  GLU796  ALA797  LYS798  CYS799  TRP800  GLU811  SER814 

> <Gold.Protein.RotatedAtoms>
  152.0482  134.9670  160.0574 H   0  0  0  0  0  0  0  0  0  0  0  0  # atno 6907 bound_to 6896
  152.1081  133.4281  159.4626 H   0  0  0  0  0  0  0  0  0  0  0  0  # atno 6908 bound_to 6896
  150.6842  134.2599  159.4588 H   0  0  0  0  0  0  0  0  0  0  0  0  # atno 6909 bound_to 6896
  144.9339  140.7161  143.4889 H   0  0  0  0  0  0  0  0  0  0  0  0  # atno 7974 bound_to 7965
  156.0807  140.1393  156.9716 H   0  0  0  0  0  0  0  0  0  0  0  0  # atno 8008 bound_to 7997
  154.4583  140.0953  156.6871 H   0  0  0  0  0  0  0  0  0  0  0  0  # atno 8009 bound_to 7997
  155.5080  140.3453  155.4385 H   0  0  0  0  0  0  0  0  0  0  0  0  # atno 8010 bound_to 7997
  139.4829  144.5303  151.7734 H   0  0  0  0  0  0  0  0  0  0  0  0  # atno 10167 bound_to 10162
  157.4137  130.7929  149.7453 H   0  0  0  0  0  0  0  0  0  0  0  0  # atno 10718 bound_to 10713
  154.2908  135.2761  155.2656 H   0  0  0  0  0  0  0  0  0  0  0  0  # atno 10763 bound_to 10752
  154.5135  135.5776  153.6627 H   0  0  0  0  0  0  0  0  0  0  0  0  # atno 10764 bound_to 10752
  152.9914  135.6187  154.3072 H   0  0  0  0  0  0  0  0  0  0  0  0  # atno 10765 bound_to 10752
  140.2763  134.3024  155.7813 H   0  0  0  0  0  0  0  0  0  0  0  0  # atno 11005 bound_to 11000
  145.3098  139.1822  143.4645 LP  0  0  0  0  0  0  0  0  0  0  0  0  # atno 17320 bound_to 7965
  146.3258  140.3101  142.8626 LP  0  0  0  0  0  0  0  0  0  0  0  0  # atno 17321 bound_to 7965
  140.4828  144.1425  150.5935 LP  0  0  0  0  0  0  0  0  0  0  0  0  # atno 17342 bound_to 10162
  140.4259  143.2590  151.9657 LP  0  0  0  0  0  0  0  0  0  0  0  0  # atno 17343 bound_to 10162
  155.9858  130.3979  150.3241 LP  0  0  0  0  0  0  0  0  0  0  0  0  # atno 17370 bound_to 10713
  157.1382  131.0289  151.2939 LP  0  0  0  0  0  0  0  0  0  0  0  0  # atno 17371 bound_to 10713
  141.2170  133.7497  156.9412 LP  0  0  0  0  0  0  0  0  0  0  0  0  # atno 17394 bound_to 11000
  140.1326  134.9346  157.2357 LP  0  0  0  0  0  0  0  0  0  0  0  0  # atno 17395 bound_to 11000

$$$$
