#       Name:                AV-unprocessed.smi:3320
#       Creating user name   scv26
#       Creation time:       Fri Mar 27 19:10:55 2020


#       File generated by GOLD software.
#

@<TRIPOS>MOLECULE
AV-unprocessed.smi:3320
    40    41     1
SMALL
NO_CHARGES


@<TRIPOS>ATOM
      1 ****        -4.7761   1.1944  -0.8896 C.3            1 S1                 0.0000
      2 ****        -4.7673   0.7068   0.5664 C.3            1 S1                 0.0000
      3 ****        -4.6705   1.8526   1.5839 C.3            1 S1                 0.0000
      4 ****        -3.7285  -0.3445   0.8016 C.2            1 S1                 0.0000
      5 ****        -2.4150  -0.1297   0.6794 N.2            1 S1                 0.0000
      6 ****        -1.6521  -1.2694   0.9503 C.2            1 S1                 0.0000
      7 ****        -0.1584  -1.2077   0.8500 C.3            1 S1                 0.0000
      8 ****         0.3262  -1.2719  -0.6078 C.3            1 S1                 0.0000
      9 ****         1.7813  -1.2280  -0.6949 N.am           1 S1                 0.0000
     10 ****         2.5229  -0.1122  -0.6287 C.2            1 S1                 0.0000
     11 ****         2.0390   1.0109  -0.4813 O.2            1 S1                 0.0000
     12 ****         4.0407  -0.3044  -0.7457 C.3            1 S1                 0.0000
     13 ****         4.8663   0.4340   0.3232 C.3            1 S1                 0.0000
     14 ****         5.8277   0.8768  -0.7837 C.3            1 S1                 0.0000
     15 ****         4.7173   0.5907  -1.7991 C.3            1 S1                 0.0000
     16 ****        -2.4124  -2.3616   1.2858 C.2            1 S1                 0.0000
     17 ****        -4.1158  -1.9966   1.2708 S.3            1 S1                 0.0000
     18 ****        -4.9287   0.3647  -1.5805 H              1 S1                 0.0000
     19 ****        -3.8342   1.6774  -1.1517 H              1 S1                 0.0000
     20 ****        -5.5764   1.9155  -1.0573 H              1 S1                 0.0000
     21 ****        -5.7322   0.2270   0.7353 H              1 S1                 0.0000
     22 ****        -4.7481   1.4778   2.6050 H              1 S1                 0.0000
     23 ****        -5.4715   2.5774   1.4365 H              1 S1                 0.0000
     24 ****        -3.7222   2.3834   1.4946 H              1 S1                 0.0000
     25 ****         0.2025  -0.2915   1.3191 H              1 S1                 0.0000
     26 ****         0.2862  -2.0271   1.4161 H              1 S1                 0.0000
     27 ****        -0.0123  -2.1997  -1.0696 H              1 S1                 0.0000
     28 ****        -0.1073  -0.4586  -1.1926 H              1 S1                 0.0000
     29 ****         2.2589  -2.1091  -0.8179 H              1 S1                 0.0000
     30 ****         4.3418  -1.3494  -0.8436 H              1 S1                 0.0000
     31 ****         4.3499   1.2736   0.7922 H              1 S1                 0.0000
     32 ****         5.3207  -0.2181   1.0696 H              1 S1                 0.0000
     33 ****         6.1357   1.9214  -0.7284 H              1 S1                 0.0000
     34 ****         6.6819   0.2068  -0.8934 H              1 S1                 0.0000
     35 ****         5.0566   0.0591  -2.6887 H              1 S1                 0.0000
     36 ****         4.1476   1.4837  -2.0632 H              1 S1                 0.0000
     37 ****        -2.0753  -3.3560   1.5381 H              1 S1                 0.0000
     38 ****        -2.0201   0.7522   0.4217 LP             1 S1                 0.0000
     39 ****         1.0482   1.1224  -0.4048 LP             1 S1                 0.0000
     40 ****         2.6370   1.8113  -0.4382 LP             1 S1                 0.0000
@<TRIPOS>BOND
    1    1    2 1     
    2    1   18 1     
    3    1   19 1     
    4    1   20 1     
    5    2    3 1     
    6    2    4 1     
    7    2   21 1     
    8    3   22 1     
    9    3   23 1     
   10    3   24 1     
   11    4   17 1     
   12    4    5 2     
   13    5    6 1     
   14    6    7 1     
   15    6   16 2     
   16    7    8 1     
   17    7   25 1     
   18    7   26 1     
   19    8    9 1     
   20    8   27 1     
   21    8   28 1     
   22    9   10 am    
   23    9   29 1     
   24   10   11 2     
   25   10   12 1     
   26   12   15 1     
   27   12   13 1     
   28   12   30 1     
   29   13   14 1     
   30   13   31 1     
   31   13   32 1     
   32   14   15 1     
   33   14   33 1     
   34   14   34 1     
   35   15   35 1     
   36   15   36 1     
   37   16   17 1     
   38   16   37 1     
   39    5   38 1     
   40   11   39 1     
   41   11   40 1     
@<TRIPOS>SUBSTRUCTURE
      1 S1             1
@<TRIPOS>SET
LONE_PAIRS      STATIC     ATOMS    <user>   **** ""
3 38 39 40
DONOR_HYDROGENS      STATIC     ATOMS    <user>   **** ""
1 29
ATOM$BLUE        STATIC     ATOMS    COLORGROUP SYSTEM
3 38 39 40
ATOM$RED        STATIC     ATOMS    COLORGROUP SYSTEM
1 29
