AV-unprocessed.smi:793|AV-procd|sdf|3752|dock7
  -GOLD-   22720 1183D 1   1.00000     0.00000
 Structure written by MMmdl.
 39 40  0  0  0  0  0  0  0  0  1 V2000
  155.2152  141.2431  160.8496 C   0  0  0  0  0  0  0  0  0  0  0  0
  154.0616  140.4187  160.2650 C   0  0  0  0  0  0  0  0  0  0  0  0
  153.1163  141.2571  159.3840 C   0  0  2  0  0  0  0  0  0  0  0  0
  152.4198  142.1673  160.2345 O   0  0  0  0  0  0  0  0  0  0  0  0
  152.5182  143.5496  159.9015 C   0  0  0  0  0  0  0  0  0  0  0  0
  151.6939  144.4507  160.8271 C   0  0  0  0  0  0  0  0  0  0  0  0
  151.3358  145.6840  159.9862 C   0  0  0  0  0  0  0  0  0  0  0  0
  151.6035  145.3045  158.5216 C   0  0  0  0  0  0  0  0  0  0  0  0
  151.9045  143.8045  158.5269 C   0  0  0  0  0  0  0  0  0  0  0  0
  152.1120  140.3657  158.6349 C   0  0  0  0  0  0  0  0  0  0  0  0
  151.3509  139.6412  159.2754 O   0  0  0  0  0  0  0  0  0  0  0  0
  152.1339  140.4749  157.2920 N   0  0  0  0  0  0  0  0  0  0  0  0
  151.3620  139.8027  156.3308 C   0  0  0  0  0  0  0  0  0  0  0  0
  150.0089  139.8471  156.2276 C   0  0  0  0  0  0  0  0  0  0  0  0
  149.2843  139.1571  155.2662 N   0  0  0  0  0  0  0  0  0  0  0  0
  149.9639  138.3656  154.3547 C   0  0  0  0  0  0  0  0  0  0  0  0
  151.3047  138.2312  154.3497 C   0  0  0  0  0  0  0  0  0  0  0  0
  152.1094  138.9557  155.3592 C   0  0  0  0  0  0  0  0  0  0  0  0
  153.3361  138.8553  155.3836 O   0  0  0  0  0  0  0  0  0  0  0  0
  155.8657  140.6185  161.4619 H   0  0  0  0  0  0  0  0  0  0  0  0
  154.8437  142.0520  161.4792 H   0  0  0  0  0  0  0  0  0  0  0  0
  155.8240  141.6844  160.0601 H   0  0  0  0  0  0  0  0  0  0  0  0
  154.4825  139.5999  159.6795 H   0  0  0  0  0  0  0  0  0  0  0  0
  153.5020  139.9566  161.0794 H   0  0  0  0  0  0  0  0  0  0  0  0
  153.7224  141.8066  158.6617 H   0  0  0  0  0  0  0  0  0  0  0  0
  153.5548  143.8885  159.8800 H   0  0  0  0  0  0  0  0  0  0  0  0
  150.7775  143.9350  161.1183 H   0  0  0  0  0  0  0  0  0  0  0  0
  152.2286  144.7130  161.7405 H   0  0  0  0  0  0  0  0  0  0  0  0
  150.2938  145.9656  160.1405 H   0  0  0  0  0  0  0  0  0  0  0  0
  151.9500  146.5392  160.2709 H   0  0  0  0  0  0  0  0  0  0  0  0
  150.7657  145.5509  157.8687 H   0  0  0  0  0  0  0  0  0  0  0  0
  152.4743  145.8508  158.1568 H   0  0  0  0  0  0  0  0  0  0  0  0
  152.5613  143.5030  157.7106 H   0  0  0  0  0  0  0  0  0  0  0  0
  150.9725  143.2456  158.4286 H   0  0  0  0  0  0  0  0  0  0  0  0
  152.7806  141.1507  156.9110 H   0  0  0  0  0  0  0  0  0  0  0  0
  149.3708  140.4120  156.8880 H   0  0  0  0  0  0  0  0  0  0  0  0
  149.3256  137.8618  153.6438 H   0  0  0  0  0  0  0  0  0  0  0  0
  151.8065  137.6063  153.6256 H   0  0  0  0  0  0  0  0  0  0  0  0
  148.2766  139.2252  155.2373 H   0  0  0  0  0  0  0  0  0  0  0  0
  1  2  1  0  0  0  0
  1 20  1  0  0  0  0
  1 21  1  0  0  0  0
  1 22  1  0  0  0  0
  2  3  1  0  0  0  0
  2 23  1  0  0  0  0
  2 24  1  0  0  0  0
  3  4  1  0  0  0  0
  3 10  1  0  0  0  0
  3 25  1  0  0  0  0
  4  5  1  0  0  0  0
  5  9  1  0  0  0  0
  5  6  1  0  0  0  0
  5 26  1  0  0  0  0
  6  7  1  0  0  0  0
  6 27  1  0  0  0  0
  6 28  1  0  0  0  0
  7  8  1  0  0  0  0
  7 29  1  0  0  0  0
  7 30  1  0  0  0  0
  8  9  1  0  0  0  0
  8 31  1  0  0  0  0
  8 32  1  0  0  0  0
  9 33  1  0  0  0  0
  9 34  1  0  0  0  0
 10 11  2  0  0  0  0
 10 12  1  0  0  0  0
 12 35  1  0  0  0  0
 12 13  1  0  0  0  0
 13 18  1  0  0  0  0
 13 14  2  0  0  0  0
 14 36  1  0  0  0  0
 14 15  1  0  0  0  0
 15 39  1  0  0  0  0
 15 16  1  0  0  0  0
 16 37  1  0  0  0  0
 16 17  2  0  0  0  0
 17 18  1  0  0  0  0
 17 38  1  0  0  0  0
 18 19  2  0  0  0  0
M  END
> <s_m_source_file>
AV-unprocessed.smi

> <i_m_source_file_index>
793

> <i_lp_mmshare_version>
43012

> <i_f3d_flags>
0

> <s_epik_input>
W0NIMl0xW0NIMl1bQ0gyXVtDSDJdW0NIXTFPW0NAQEhdKFtDSDJdW0NIM10pQyg9TylbTkhdYzJbY0hdbltjSF1bY0hdYzJbT0hd

> <s_epik_cmdline>
J2VwaWtfcHl0aG9uJywgJy1waCcsICc3LjAnLCAnLXRuJywgJzgnLCAnLW1hJywgJzIwMCcsICctbWV0YWxfYmluZGluZycsICctaW1hZScsICc8aW5maWxlLm1hZT4nLCAnLW9tYWUnLCAnPG91dGZpbGUubWFlPic=

> <r_lp_tautomer_probability>
1

> <r_epik_Ionization_Penalty>
0.000234492

> <r_epik_Ionization_Penalty_Charging>
0.000234447

> <r_epik_Ionization_Penalty_Neutral>
4.48517e-08

> <r_epik_State_Penalty>
-0

> <r_epik_Charging_Adjusted_Penalty>
0.000234447

> <i_epik_Tot_Q>
0

> <i_epik_Tot_abs_Q>
0

> <r_epik_Metal_State_Penalty>
0.110344

> <b_epik_Metal_Only>
0

> <s_lp_Force_Field>
OPLS_2005

> <r_lp_Energy>
24.985

> <b_lp_Chiralities_Consistent>
1

> <s_lp_Variant>
AV-unprocessed.smi:793-1

> <Gold.Version>
5.8.1

> <Gold.Id.Protein>
6NUR|6NUR_protein|mol2

> <Gold.PLP.Fitness>
48.7512

> <Gold.PLP.PLP>
-44.4629

> <Gold.PLP.part.hbond>
-1.1684

> <Gold.PLP.part.metal>
0.0000

> <Gold.PLP.part.buried>
-5.3694

> <Gold.PLP.part.nonpolar>
-37.8127

> <Gold.PLP.part.repulsive>
0.1903

> <Gold.PLP.ligand.clash>
0.0000

> <Gold.PLP.ligand.torsion>
1.3558

> <Gold.PLP.Chemscore.Hbond>
0.9600

> <Gold.PLP.Chemscore.CHOScore>
1.3513

> <Gold.PLP.Chemscore.Metal>
0.0000

> <Gold.Chemscore.Hbonds>
donor molecule, donor type, donor heavy atom, donor atom, acceptor molecule, acceptor atom, score
      P1  H  7997  8009       L1    19  0.99
      L1  C    16    37       P1  7948  1.00

> <Gold.PLP.Chemscore.Internal.Correction>
0.0659

> <Gold.Rescore>
     Score         DG    S(hbond)    S(metal)    S(lipo)     H(rot)  DE(clash)    DE(int)     intcor
     16.75     -17.86       1.00        0.00     112.51       1.61       0.03       1.08       ----

> <Gold.Chemscore.Fitness>
16.7506

> <Gold.Chemscore.DG>
-17.8610

> <Gold.Chemscore.ZeroCoef>
-5.4800

> <Gold.Chemscore.Hbond>
0.9968

> <Gold.Chemscore.Metal>
0.0000

> <Gold.Chemscore.Lipo>
112.5075

> <Gold.Chemscore.Internal_Hbond>
0.0000

> <Gold.Chemscore.DEClash>
0.0335

> <Gold.Chemscore.DEInternal>
1.0769

> <Gold.Chemscore.Rot>
1.6061

> <Gold.Chemscore.Internal.Correction>
   9.000000E+99

> <Gold.Chemscore.Hbonds>
donor molecule, donor type, donor heavy atom, donor atom, acceptor molecule, acceptor atom, score
      P1  H  7997  8009       L1    19  0.93

> <Gold.Chemscore.Hbond.Weighted>
-3.3292

> <Gold.Chemscore.Metal.Weighted>
-0.0000

> <Gold.Chemscore.Lipo.Weighted>
-13.1634

> <Gold.Chemscore.Internal_Hbond.Weighted>
0.0000

> <Gold.Chemscore.DEClash.Weighted>
0.0335

> <Gold.Chemscore.DEInternal.Weighted>
1.0769

> <Gold.Chemscore.Rot.Weighted>
4.1116

> <Gold.Chemscore.Internal.Correction.Weighted>
   9.000000E+99

> <Gold.Protein.RotatedTorsions>
[ 6907 6896 6895 6894 ] final   96.35 input  -60.11 | X-H torsion
[ 7974 7965 7964 7962 ] final    0.89 input  175.53 | X-H torsion
[ 8008 7997 7996 7995 ] final -152.97 input   59.86 | X-H torsion
[ 10167 10162 10161 10158 ] final   -1.57 input  -65.29 | X-H torsion
[ 10718 10713 10712 10709 ] final  168.82 input   66.30 | X-H torsion
[ 10763 10752 10751 10750 ] final  124.35 input  -60.55 | X-H torsion
[ 11005 11000 10999 10996 ] final   61.23 input  -57.11 | X-H torsion

> <Gold.Protein.ActiveResidues>
 VAL166  LYS551  ARG553  GLY616  TRP617  ASP618  TYR619  PRO620  LYS621  CYS622 
 ASP623  PHE694  ASN695  SER759  ASP760  ASP761  ALA762  ILE779  LEU786  VAL792 
 PHE793  MET794  SER795  GLU796  ALA797  LYS798  CYS799  TRP800  GLU811  SER814 

> <Gold.Protein.RotatedAtoms>
  152.5436  134.0899  159.8272 H   0  0  0  0  0  0  0  0  0  0  0  0  # atno 6907 bound_to 6896
  151.0990  133.5250  159.2618 H   0  0  0  0  0  0  0  0  0  0  0  0  # atno 6908 bound_to 6896
  151.2012  135.0452  159.8927 H   0  0  0  0  0  0  0  0  0  0  0  0  # atno 6909 bound_to 6896
  146.2437  140.1070  142.8345 H   0  0  0  0  0  0  0  0  0  0  0  0  # atno 7974 bound_to 7965
  155.6634  140.0725  157.2546 H   0  0  0  0  0  0  0  0  0  0  0  0  # atno 8008 bound_to 7997
  154.4138  140.1712  156.1852 H   0  0  0  0  0  0  0  0  0  0  0  0  # atno 8009 bound_to 7997
  155.9678  140.3364  155.6551 H   0  0  0  0  0  0  0  0  0  0  0  0  # atno 8010 bound_to 7997
  140.6816  143.6759  150.8146 H   0  0  0  0  0  0  0  0  0  0  0  0  # atno 10167 bound_to 10162
  157.0316  131.0261  151.2743 H   0  0  0  0  0  0  0  0  0  0  0  0  # atno 10718 bound_to 10713
  153.6600  135.3348  155.3124 H   0  0  0  0  0  0  0  0  0  0  0  0  # atno 10763 bound_to 10752
  154.8517  135.4361  154.1814 H   0  0  0  0  0  0  0  0  0  0  0  0  # atno 10764 bound_to 10752
  153.2778  135.7006  153.7491 H   0  0  0  0  0  0  0  0  0  0  0  0  # atno 10765 bound_to 10752
  140.0176  134.6202  155.9687 H   0  0  0  0  0  0  0  0  0  0  0  0  # atno 11005 bound_to 11000
  145.0520  140.9024  143.4990 LP  0  0  0  0  0  0  0  0  0  0  0  0  # atno 17320 bound_to 7965
  145.1169  139.2719  143.5608 LP  0  0  0  0  0  0  0  0  0  0  0  0  # atno 17321 bound_to 7965
  140.0460  143.5298  152.2696 LP  0  0  0  0  0  0  0  0  0  0  0  0  # atno 17342 bound_to 10162
  139.6142  144.7616  151.2883 LP  0  0  0  0  0  0  0  0  0  0  0  0  # atno 17343 bound_to 10162
  157.5173  130.7976  149.7770 LP  0  0  0  0  0  0  0  0  0  0  0  0  # atno 17370 bound_to 10713
  156.0068  130.3852  150.2404 LP  0  0  0  0  0  0  0  0  0  0  0  0  # atno 17371 bound_to 10713
  141.1753  133.6540  156.4804 LP  0  0  0  0  0  0  0  0  0  0  0  0  # atno 17394 bound_to 11000
  140.4444  134.6986  157.5008 LP  0  0  0  0  0  0  0  0  0  0  0  0  # atno 17395 bound_to 11000

$$$$
