AV-unprocessed.smi:276|AV-procd|sdf|2072|dock2
  -GOLD-   2262021333D 1   1.00000     0.00000
 Structure written by MMmdl.
 57 61  0  0  0  0  0  0  0  0  1 V2000
  145.9198  132.5194  151.3675 C   0  0  0  0  0  0  0  0  0  0  0  0
  147.2492  132.2780  151.7941 O   0  0  0  0  0  0  0  0  0  0  0  0
  147.9307  133.4686  152.1552 C   0  0  2  0  0  0  0  0  0  0  0  0
  149.4018  133.2629  152.5332 C   0  0  0  0  0  0  0  0  0  0  0  0
  149.1868  134.3197  153.6245 C   0  0  2  0  0  0  0  0  0  0  0  0
  149.9366  134.0357  154.8505 N   0  0  0  0  0  0  0  0  0  0  0  0
  151.3171  133.6034  154.6712 C   0  0  0  0  0  0  0  0  0  0  0  0
  149.8604  134.9645  155.8308 C   0  0  0  0  0  0  0  0  0  0  0  0
  148.7110  135.0025  156.5504 N   0  0  0  0  0  0  0  0  0  0  0  0
  148.5615  135.9000  157.5288 C   0  0  0  0  0  0  0  0  0  0  0  0
  149.4232  136.8286  157.9482 N   0  0  0  0  0  0  0  0  0  0  0  0
  150.5883  136.7789  157.2414 C   0  0  0  0  0  0  0  0  0  0  0  0
  150.8942  135.8811  156.1797 C   0  0  0  0  0  0  0  0  0  0  0  0
  152.1851  136.1184  155.7208 N   0  0  0  0  0  0  0  0  0  0  0  0
  152.6098  137.1100  156.4548 C   0  0  0  0  0  0  0  0  0  0  0  0
  151.7144  137.5679  157.3936 N   0  0  0  0  0  0  0  0  0  0  0  0
  151.9278  138.6496  158.3387 C   0  0  0  0  0  0  0  0  0  0  0  0
  151.2565  139.9611  157.8882 C   0  0  2  0  0  0  0  0  0  0  0  0
  151.8402  140.4339  156.6889 O   0  0  0  0  0  0  0  0  0  0  0  0
  151.2863  141.0521  158.9778 C   0  0  2  0  0  0  0  0  0  0  0  0
  150.6515  142.3978  158.6163 C   0  0  0  0  0  0  0  0  0  0  0  0
  151.3397  143.3189  159.5983 C   0  0  0  0  0  0  0  0  0  0  0  0
  152.7546  142.7449  159.6247 C   0  0  0  0  0  0  0  0  0  0  0  0
  152.6126  141.3426  159.4121 O   0  0  0  0  0  0  0  0  0  0  0  0
  147.6885  133.9121  153.6113 C   0  0  0  0  0  0  0  0  0  0  0  0
  146.5739  134.9137  153.9418 C   0  0  0  0  0  0  0  0  0  0  0  0
  146.2659  134.1171  155.2139 C   0  0  0  0  0  0  0  0  0  0  0  0
  147.0673  132.9440  154.6393 C   0  0  0  0  0  0  0  0  0  0  0  0
  145.4419  131.5752  151.1066 H   0  0  0  0  0  0  0  0  0  0  0  0
  145.8948  133.1621  150.4868 H   0  0  0  0  0  0  0  0  0  0  0  0
  145.3323  132.9872  152.1584 H   0  0  0  0  0  0  0  0  0  0  0  0
  147.7825  134.2887  151.4489 H   0  0  0  0  0  0  0  0  0  0  0  0
  149.6017  132.2639  152.9260 H   0  0  0  0  0  0  0  0  0  0  0  0
  150.1153  133.5445  151.7587 H   0  0  0  0  0  0  0  0  0  0  0  0
  149.3454  135.3214  153.2232 H   0  0  0  0  0  0  0  0  0  0  0  0
  151.9036  134.3806  154.1800 H   0  0  0  0  0  0  0  0  0  0  0  0
  151.3615  132.7043  154.0570 H   0  0  0  0  0  0  0  0  0  0  0  0
  151.7884  133.3701  155.6271 H   0  0  0  0  0  0  0  0  0  0  0  0
  147.6152  135.8710  158.0488 H   0  0  0  0  0  0  0  0  0  0  0  0
  153.5959  137.5348  156.3340 H   0  0  0  0  0  0  0  0  0  0  0  0
  151.5326  138.3373  159.3060 H   0  0  0  0  0  0  0  0  0  0  0  0
  153.0008  138.7916  158.4730 H   0  0  0  0  0  0  0  0  0  0  0  0
  150.2109  139.7512  157.6594 H   0  0  0  0  0  0  0  0  0  0  0  0
  151.2183  140.3187  155.9868 H   0  0  0  0  0  0  0  0  0  0  0  0
  150.7664  140.6675  159.8569 H   0  0  0  0  0  0  0  0  0  0  0  0
  150.8994  142.7011  157.5987 H   0  0  0  0  0  0  0  0  0  0  0  0
  149.5659  142.3972  158.7171 H   0  0  0  0  0  0  0  0  0  0  0  0
  151.3096  144.3669  159.2990 H   0  0  0  0  0  0  0  0  0  0  0  0
  150.8783  143.2298  160.5828 H   0  0  0  0  0  0  0  0  0  0  0  0
  153.3468  143.1589  158.8076 H   0  0  0  0  0  0  0  0  0  0  0  0
  153.2739  142.9559  160.5597 H   0  0  0  0  0  0  0  0  0  0  0  0
  146.9121  135.9341  154.1195 H   0  0  0  0  0  0  0  0  0  0  0  0
  145.7555  134.8827  153.2212 H   0  0  0  0  0  0  0  0  0  0  0  0
  146.7186  134.5496  156.1061 H   0  0  0  0  0  0  0  0  0  0  0  0
  145.2071  133.9069  155.3669 H   0  0  0  0  0  0  0  0  0  0  0  0
  146.4177  132.1933  154.1885 H   0  0  0  0  0  0  0  0  0  0  0  0
  147.7650  132.4852  155.3392 H   0  0  0  0  0  0  0  0  0  0  0  0
  1  2  1  0  0  0  0
  1 29  1  0  0  0  0
  1 30  1  0  0  0  0
  1 31  1  0  0  0  0
  2  3  1  0  0  0  0
  3 25  1  0  0  0  0
  3  4  1  0  0  0  0
  3 32  1  0  0  0  0
  4  5  1  0  0  0  0
  4 33  1  0  0  0  0
  4 34  1  0  0  0  0
  5  6  1  0  0  0  0
  5 25  1  0  0  0  0
  5 35  1  0  0  0  0
  6  7  1  0  0  0  0
  6  8  1  0  0  0  0
  7 36  1  0  0  0  0
  7 37  1  0  0  0  0
  7 38  1  0  0  0  0
  8 13  1  0  0  0  0
  8  9  2  0  0  0  0
  9 10  1  0  0  0  0
 10 11  2  0  0  0  0
 10 39  1  0  0  0  0
 11 12  1  0  0  0  0
 12 16  1  0  0  0  0
 12 13  2  0  0  0  0
 13 14  1  0  0  0  0
 14 15  2  0  0  0  0
 15 16  1  0  0  0  0
 15 40  1  0  0  0  0
 16 17  1  0  0  0  0
 17 18  1  0  0  0  0
 17 41  1  0  0  0  0
 17 42  1  0  0  0  0
 18 19  1  0  0  0  0
 18 20  1  0  0  0  0
 18 43  1  0  0  0  0
 19 44  1  0  0  0  0
 20 24  1  0  0  0  0
 20 21  1  0  0  0  0
 20 45  1  0  0  0  0
 21 22  1  0  0  0  0
 21 46  1  0  0  0  0
 21 47  1  0  0  0  0
 22 23  1  0  0  0  0
 22 48  1  0  0  0  0
 22 49  1  0  0  0  0
 23 24  1  0  0  0  0
 23 50  1  0  0  0  0
 23 51  1  0  0  0  0
 25 28  1  0  0  0  0
 25 26  1  0  0  0  0
 26 27  1  0  0  0  0
 26 52  1  0  0  0  0
 26 53  1  0  0  0  0
 27 28  1  0  0  0  0
 27 54  1  0  0  0  0
 27 55  1  0  0  0  0
 28 56  1  0  0  0  0
 28 57  1  0  0  0  0
M  END
> <s_m_source_file>
AV-unprocessed.smi

> <i_m_source_file_index>
276

> <i_lp_mmshare_version>
43012

> <i_f3d_flags>
0

> <s_epik_input>
W0NIMl0xW0NIMl1bQ0gyXUMxMltDQEhdKE9bQ0gzXSlbQ0gyXVtDQEhdMk4oW0NIM10pYyhuW2NIXW4zKWMoYzM0KW5bY0hdbjRbQ0gyXVtDQEhdKFtPSF0pW0NAQEhdNVtDSDJdW0NIMl1bQ0gyXU81

> <s_epik_cmdline>
J2VwaWtfcHl0aG9uJywgJy1waCcsICc3LjAnLCAnLXRuJywgJzgnLCAnLW1hJywgJzIwMCcsICctbWV0YWxfYmluZGluZycsICctaW1hZScsICc8aW5maWxlLm1hZT4nLCAnLW9tYWUnLCAnPG91dGZpbGUubWFlPic=

> <r_lp_tautomer_probability>
1

> <r_epik_Ionization_Penalty>
0.00204117

> <r_epik_Ionization_Penalty_Charging>
0

> <r_epik_Ionization_Penalty_Neutral>
0.00204117

> <r_epik_State_Penalty>
0.00127401

> <r_epik_Charging_Adjusted_Penalty>
0.00127401

> <i_epik_Tot_Q>
0

> <i_epik_Tot_abs_Q>
0

> <r_epik_Metal_State_Penalty>
-0

> <b_epik_Metal_Only>
0

> <s_lp_Force_Field>
OPLS_2005

> <r_lp_Energy>
58.4332

> <b_lp_Chiralities_Consistent>
1

> <s_lp_Variant>
AV-unprocessed.smi:276-3

> <Gold.Version>
5.8.1

> <Gold.Id.Protein>
6NUR|6NUR_protein|mol2

> <Gold.PLP.Fitness>
39.8820

> <Gold.PLP.PLP>
-36.0190

> <Gold.PLP.part.hbond>
-2.0000

> <Gold.PLP.part.metal>
0.0000

> <Gold.PLP.part.buried>
-6.4795

> <Gold.PLP.part.nonpolar>
-27.7087

> <Gold.PLP.part.repulsive>
0.1449

> <Gold.PLP.ligand.clash>
0.0000

> <Gold.PLP.ligand.torsion>
1.4938

> <Gold.PLP.Chemscore.Hbond>
2.0000

> <Gold.PLP.Chemscore.CHOScore>
0.0000

> <Gold.PLP.Chemscore.Metal>
0.0000

> <Gold.Chemscore.Hbonds>
donor molecule, donor type, donor heavy atom, donor atom, acceptor molecule, acceptor atom, score
      P1  H 10752 10764       L1    14  0.47

> <Gold.PLP.Chemscore.Internal.Correction>
0.8506

> <Gold.Rescore>
     Score         DG    S(hbond)    S(metal)    S(lipo)     H(rot)  DE(clash)    DE(int)     intcor
     10.90     -14.93       1.71        0.00      91.31       2.72       0.38       3.65       ----

> <Gold.Chemscore.Fitness>
10.8986

> <Gold.Chemscore.DG>
-14.9326

> <Gold.Chemscore.ZeroCoef>
-5.4800

> <Gold.Chemscore.Hbond>
1.7141

> <Gold.Chemscore.Metal>
0.0000

> <Gold.Chemscore.Lipo>
91.3129

> <Gold.Chemscore.Internal_Hbond>
0.0000

> <Gold.Chemscore.DEClash>
0.3839

> <Gold.Chemscore.DEInternal>
3.6500

> <Gold.Chemscore.Rot>
2.7172

> <Gold.Chemscore.Internal.Correction>
   9.000000E+99

> <Gold.Chemscore.Hbonds>
donor molecule, donor type, donor heavy atom, donor atom, acceptor molecule, acceptor atom, score
      P1  H 10752 10764       L1    14  0.45

> <Gold.Chemscore.Hbond.Weighted>
-5.7250

> <Gold.Chemscore.Metal.Weighted>
-0.0000

> <Gold.Chemscore.Lipo.Weighted>
-10.6836

> <Gold.Chemscore.Internal_Hbond.Weighted>
0.0000

> <Gold.Chemscore.DEClash.Weighted>
0.3839

> <Gold.Chemscore.DEInternal.Weighted>
3.6500

> <Gold.Chemscore.Rot.Weighted>
6.9560

> <Gold.Chemscore.Internal.Correction.Weighted>
   9.000000E+99

> <Gold.Protein.RotatedTorsions>
[ 6907 6896 6895 6894 ] final   61.31 input  -60.11 | X-H torsion
[ 7974 7965 7964 7962 ] final   93.02 input  175.53 | X-H torsion
[ 8008 7997 7996 7995 ] final  170.37 input   59.86 | X-H torsion
[ 10167 10162 10161 10158 ] final -133.94 input  -65.29 | X-H torsion
[ 10718 10713 10712 10709 ] final   40.89 input   66.30 | X-H torsion
[ 10763 10752 10751 10750 ] final  -35.22 input  -60.55 | X-H torsion
[ 11005 11000 10999 10996 ] final   57.04 input  -57.11 | X-H torsion

> <Gold.Protein.ActiveResidues>
 VAL166  LYS551  ARG553  GLY616  TRP617  ASP618  TYR619  PRO620  LYS621  CYS622 
 ASP623  PHE694  ASN695  SER759  ASP760  ASP761  ALA762  ILE779  LEU786  VAL792 
 PHE793  MET794  SER795  GLU796  ALA797  LYS798  CYS799  TRP800  GLU811  SER814 

> <Gold.Protein.RotatedAtoms>
  152.4077  134.6178  160.0042 H   0  0  0  0  0  0  0  0  0  0  0  0  # atno 6907 bound_to 6896
  151.6364  133.3323  159.3128 H   0  0  0  0  0  0  0  0  0  0  0  0  # atno 6908 bound_to 6896
  150.7971  134.7079  159.6632 H   0  0  0  0  0  0  0  0  0  0  0  0  # atno 6909 bound_to 6896
  145.4844  139.2277  143.2864 H   0  0  0  0  0  0  0  0  0  0  0  0  # atno 7974 bound_to 7965
  156.1371  140.1539  156.8977 H   0  0  0  0  0  0  0  0  0  0  0  0  # atno 8008 bound_to 7997
  154.4956  140.0839  156.7729 H   0  0  0  0  0  0  0  0  0  0  0  0  # atno 8009 bound_to 7997
  155.4148  140.3420  155.4268 H   0  0  0  0  0  0  0  0  0  0  0  0  # atno 8010 bound_to 7997
  139.8931  143.6698  152.2608 H   0  0  0  0  0  0  0  0  0  0  0  0  # atno 10167 bound_to 10162
  157.3873  130.7787  149.7241 H   0  0  0  0  0  0  0  0  0  0  0  0  # atno 10718 bound_to 10713
  153.8596  135.6841  153.4784 H   0  0  0  0  0  0  0  0  0  0  0  0  # atno 10763 bound_to 10752
  153.1350  135.4682  154.9405 H   0  0  0  0  0  0  0  0  0  0  0  0  # atno 10764 bound_to 10752
  154.7765  135.3255  154.8030 H   0  0  0  0  0  0  0  0  0  0  0  0  # atno 10765 bound_to 10752
  140.0483  134.5774  155.9295 H   0  0  0  0  0  0  0  0  0  0  0  0  # atno 11005 bound_to 11000
  146.2321  140.5634  142.8970 LP  0  0  0  0  0  0  0  0  0  0  0  0  # atno 17320 bound_to 7965
  144.7870  140.5956  143.6567 LP  0  0  0  0  0  0  0  0  0  0  0  0  # atno 17321 bound_to 7965
  139.7091  144.7623  151.1142 LP  0  0  0  0  0  0  0  0  0  0  0  0  # atno 17342 bound_to 10162
  140.7722  143.5354  150.9374 LP  0  0  0  0  0  0  0  0  0  0  0  0  # atno 17343 bound_to 10162
  155.9790  130.4045  150.3616 LP  0  0  0  0  0  0  0  0  0  0  0  0  # atno 17370 bound_to 10713
  157.1728  131.0373  151.2787 LP  0  0  0  0  0  0  0  0  0  0  0  0  # atno 17371 bound_to 10713
  141.1918  133.6573  156.5471 LP  0  0  0  0  0  0  0  0  0  0  0  0  # atno 17394 bound_to 11000
  140.3959  134.7400  157.4750 LP  0  0  0  0  0  0  0  0  0  0  0  0  # atno 17395 bound_to 11000

$$$$
