AV-unprocessed.smi:1709|AV-procd|sdf|6894|dock7
  -GOLD-   22720 8103D 1   1.00000     0.00000
 Structure written by MMmdl.
 43 45  0  0  0  0  0  0  0  0  2 V2000
  147.3743  132.2454  152.8186 C   0  0  0  0  0  0  0  0  0  0  0  0
  146.2120  132.5477  151.8859 C   0  0  0  0  0  0  0  0  0  0  0  0
  145.5345  131.4778  151.2636 C   0  0  0  0  0  0  0  0  0  0  0  0
  144.4584  131.7547  150.4036 C   0  0  0  0  0  0  0  0  0  0  0  0
  144.1021  133.0984  150.2032 C   0  0  0  0  0  0  0  0  0  0  0  0
  144.7440  134.1269  150.7944 N   0  0  0  0  0  0  0  0  0  0  0  0
  145.7907  133.8796  151.6243 C   0  0  0  0  0  0  0  0  0  0  0  0
  146.5172  134.9075  152.3019 N   0  0  0  0  0  0  0  0  0  0  0  0
  146.2731  135.5660  153.4549 C   0  0  0  0  0  0  0  0  0  0  0  0
  145.2743  135.3200  154.1285 O   0  0  0  0  0  0  0  0  0  0  0  0
  147.1783  136.4923  153.8115 N   0  0  0  0  0  0  0  0  0  0  0  0
  147.1102  137.3455  154.9954 C   0  0  1  0  0  0  0  0  0  0  0  0
  148.2809  137.1057  155.9688 C   0  0  0  0  0  0  0  0  0  0  0  0
  148.7088  138.5064  156.4184 C   0  0  0  0  0  0  0  0  0  0  0  0
  148.4340  139.3300  155.2355 N   0  3  2  0  0  0  0  0  0  0  0  0
  148.4899  140.7996  155.3717 C   0  0  0  0  0  0  0  0  0  0  0  0
  148.3476  141.4260  153.9679 C   0  0  0  0  0  0  0  0  0  0  0  0
  147.1026  140.9020  153.2170 C   0  0  0  0  0  0  0  0  0  0  0  0
  147.0373  139.3597  153.2219 C   0  0  0  0  0  0  0  0  0  0  0  0
  147.1579  138.8573  154.6722 C   0  0  1  0  0  0  0  0  0  0  0  0
  147.5764  131.1752  152.8675 H   0  0  0  0  0  0  0  0  0  0  0  0
  147.1524  132.5916  153.8285 H   0  0  0  0  0  0  0  0  0  0  0  0
  148.2820  132.7411  152.4730 H   0  0  0  0  0  0  0  0  0  0  0  0
  145.8333  130.4553  151.4414 H   0  0  0  0  0  0  0  0  0  0  0  0
  143.9202  130.9577  149.9120 H   0  0  0  0  0  0  0  0  0  0  0  0
  143.2804  133.3562  149.5517 H   0  0  0  0  0  0  0  0  0  0  0  0
  147.3950  135.1479  151.8647 H   0  0  0  0  0  0  0  0  0  0  0  0
  147.9696  136.6259  153.1973 H   0  0  0  0  0  0  0  0  0  0  0  0
  146.1812  137.1377  155.5303 H   0  0  0  0  0  0  0  0  0  0  0  0
  148.0055  136.4659  156.8077 H   0  0  0  0  0  0  0  0  0  0  0  0
  149.1128  136.6265  155.4501 H   0  0  0  0  0  0  0  0  0  0  0  0
  148.0964  138.8459  157.2553 H   0  0  0  0  0  0  0  0  0  0  0  0
  149.7574  138.5525  156.7139 H   0  0  0  0  0  0  0  0  0  0  0  0
  147.6967  141.1463  156.0358 H   0  0  0  0  0  0  0  0  0  0  0  0
  149.4399  141.0927  155.8196 H   0  0  0  0  0  0  0  0  0  0  0  0
  148.3079  142.5129  154.0449 H   0  0  0  0  0  0  0  0  0  0  0  0
  149.2378  141.1936  153.3821 H   0  0  0  0  0  0  0  0  0  0  0  0
  146.2047  141.3010  153.6908 H   0  0  0  0  0  0  0  0  0  0  0  0
  147.0994  141.2738  152.1921 H   0  0  0  0  0  0  0  0  0  0  0  0
  146.0977  139.0298  152.7782 H   0  0  0  0  0  0  0  0  0  0  0  0
  147.8411  138.9498  152.6084 H   0  0  0  0  0  0  0  0  0  0  0  0
  146.3546  139.3176  155.2519 H   0  0  0  0  0  0  0  0  0  0  0  0
  149.1443  139.0779  154.5629 H   0  0  0  0  0  0  0  0  0  0  0  0
  1  2  1  0  0  0  0
  1 21  1  0  0  0  0
  1 22  1  0  0  0  0
  1 23  1  0  0  0  0
  2  7  1  0  0  0  0
  2  3  2  0  0  0  0
  3  4  1  0  0  0  0
  3 24  1  0  0  0  0
  4  5  2  0  0  0  0
  4 25  1  0  0  0  0
  5  6  1  0  0  0  0
  5 26  1  0  0  0  0
  6  7  2  0  0  0  0
  7  8  1  0  0  0  0
  8  9  1  0  0  0  0
  8 27  1  0  0  0  0
  9 10  2  0  0  0  0
  9 11  1  0  0  0  0
 11 12  1  0  0  0  0
 11 28  1  0  0  0  0
 12 20  1  0  0  0  0
 12 13  1  0  0  0  0
 12 29  1  0  0  0  0
 13 14  1  0  0  0  0
 13 30  1  0  0  0  0
 13 31  1  0  0  0  0
 14 15  1  0  0  0  0
 14 32  1  0  0  0  0
 14 33  1  0  0  0  0
 15 20  1  0  0  0  0
 15 16  1  0  0  0  0
 15 43  1  0  0  0  0
 16 17  1  0  0  0  0
 16 34  1  0  0  0  0
 16 35  1  0  0  0  0
 17 18  1  0  0  0  0
 17 36  1  0  0  0  0
 17 37  1  0  0  0  0
 18 19  1  0  0  0  0
 18 38  1  0  0  0  0
 18 39  1  0  0  0  0
 19 20  1  0  0  0  0
 19 40  1  0  0  0  0
 19 41  1  0  0  0  0
 20 42  1  0  0  0  0
M  CHG  1  15   1
M  END
> <s_m_source_file>
AV-unprocessed.smi

> <i_m_source_file_index>
1709

> <i_lp_mmshare_version>
43012

> <i_f3d_flags>
0

> <s_epik_input>
W0NIM11jMVtjSF1bY0hdW2NIXW5jMVtOSF1DKD1PKVtOSF1bQ0BIXShbQ0gyXVtDSDJdMilbQ0BASF0oTjIzKVtDSDJdW0NIMl1bQ0gyXVtDSDJdMw==

> <s_epik_cmdline>
J2VwaWtfcHl0aG9uJywgJy1waCcsICc3LjAnLCAnLXRuJywgJzgnLCAnLW1hJywgJzIwMCcsICctbWV0YWxfYmluZGluZycsICctaW1hZScsICc8aW5maWxlLm1hZT4nLCAnLW9tYWUnLCAnPG91dGZpbGUubWFlPic=

> <r_epik_Ionization_Penalty>
0.00101524

> <r_epik_Ionization_Penalty_Charging>
0.000974069

> <r_epik_Ionization_Penalty_Neutral>
4.11757e-05

> <r_epik_State_Penalty>
0.000633842

> <r_epik_Charging_Adjusted_Penalty>
0.00160791

> <i_epik_Tot_Q>
1

> <i_epik_Tot_abs_Q>
1

> <r_epik_Metal_State_Penalty>
-0

> <b_epik_Metal_Only>
0

> <s_lp_Force_Field>
OPLS_2005

> <r_lp_Energy>
46.0591

> <b_lp_Chiralities_Consistent>
1

> <s_lp_Variant>
AV-unprocessed.smi:1709-4

> <Gold.Version>
5.8.1

> <Gold.Id.Protein>
6NUR|6NUR_protein|mol2

> <Gold.PLP.Fitness>
35.2377

> <Gold.PLP.PLP>
-27.7357

> <Gold.PLP.part.hbond>
-2.0000

> <Gold.PLP.part.metal>
0.0000

> <Gold.PLP.part.buried>
-4.0136

> <Gold.PLP.part.nonpolar>
-22.3567

> <Gold.PLP.part.repulsive>
0.2291

> <Gold.PLP.ligand.clash>
0.0000

> <Gold.PLP.ligand.torsion>
0.7493

> <Gold.PLP.Chemscore.Hbond>
2.0000

> <Gold.PLP.Chemscore.CHOScore>
1.0000

> <Gold.PLP.Chemscore.Metal>
0.0000

> <Gold.Chemscore.Hbonds>
donor molecule, donor type, donor heavy atom, donor atom, acceptor molecule, acceptor atom, score
      L1  H     8    27       P1  7948  1.00
      L1  H    11    28       P1  7948  1.00
      L1  C     5    26       P1 10186  1.00

> <Gold.PLP.Chemscore.Internal.Correction>
0.0005

> <Gold.Rescore>
     Score         DG    S(hbond)    S(metal)    S(lipo)     H(rot)  DE(clash)    DE(int)     intcor
     16.95     -17.71       1.88        0.00      72.64       1.00       0.02       0.74       ----

> <Gold.Chemscore.Fitness>
16.9526

> <Gold.Chemscore.DG>
-17.7119

> <Gold.Chemscore.ZeroCoef>
-5.4800

> <Gold.Chemscore.Hbond>
1.8842

> <Gold.Chemscore.Metal>
0.0000

> <Gold.Chemscore.Lipo>
72.6371

> <Gold.Chemscore.Internal_Hbond>
0.0000

> <Gold.Chemscore.DEClash>
0.0186

> <Gold.Chemscore.DEInternal>
0.7406

> <Gold.Chemscore.Rot>
1.0000

> <Gold.Chemscore.Internal.Correction>
   9.000000E+99

> <Gold.Chemscore.Hbonds>
donor molecule, donor type, donor heavy atom, donor atom, acceptor molecule, acceptor atom, score
      L1  H     8    27       P1  7948  0.89
      L1  H    11    28       P1  7948  0.98

> <Gold.Chemscore.Hbond.Weighted>
-6.2933

> <Gold.Chemscore.Metal.Weighted>
-0.0000

> <Gold.Chemscore.Lipo.Weighted>
-8.4985

> <Gold.Chemscore.Internal_Hbond.Weighted>
0.0000

> <Gold.Chemscore.DEClash.Weighted>
0.0186

> <Gold.Chemscore.DEInternal.Weighted>
0.7406

> <Gold.Chemscore.Rot.Weighted>
2.5600

> <Gold.Chemscore.Internal.Correction.Weighted>
   9.000000E+99

> <Gold.Protein.RotatedTorsions>
[ 6907 6896 6895 6894 ] final  159.20 input  -60.11 | X-H torsion
[ 7974 7965 7964 7962 ] final  100.96 input  175.53 | X-H torsion
[ 8008 7997 7996 7995 ] final  139.14 input   59.86 | X-H torsion
[ 10167 10162 10161 10158 ] final   17.72 input  -65.29 | X-H torsion
[ 10718 10713 10712 10709 ] final  -40.38 input   66.30 | X-H torsion
[ 10763 10752 10751 10750 ] final  131.74 input  -60.55 | X-H torsion
[ 11005 11000 10999 10996 ] final  112.55 input  -57.11 | X-H torsion

> <Gold.Protein.ActiveResidues>
 VAL166  LYS551  ARG553  GLY616  TRP617  ASP618  TYR619  PRO620  LYS621  CYS622 
 ASP623  PHE694  ASN695  SER759  ASP760  ASP761  ALA762  ILE779  LEU786  VAL792 
 PHE793  MET794  SER795  GLU796  ALA797  LYS798  CYS799  TRP800  GLU811  SER814 

> <Gold.Protein.RotatedAtoms>
  151.9891  133.3784  159.4137 H   0  0  0  0  0  0  0  0  0  0  0  0  # atno 6907 bound_to 6896
  150.6924  134.3956  159.5105 H   0  0  0  0  0  0  0  0  0  0  0  0  # atno 6908 bound_to 6896
  152.1687  134.8852  160.0587 H   0  0  0  0  0  0  0  0  0  0  0  0  # atno 6909 bound_to 6896
  145.3787  139.2384  143.3415 H   0  0  0  0  0  0  0  0  0  0  0  0  # atno 7974 bound_to 7965
  156.2992  140.2375  156.4188 H   0  0  0  0  0  0  0  0  0  0  0  0  # atno 8008 bound_to 7997
  154.8374  140.0430  157.1538 H   0  0  0  0  0  0  0  0  0  0  0  0  # atno 8009 bound_to 7997
  154.9140  140.2994  155.5254 H   0  0  0  0  0  0  0  0  0  0  0  0  # atno 8010 bound_to 7997
  140.5705  143.9170  150.6709 H   0  0  0  0  0  0  0  0  0  0  0  0  # atno 10167 bound_to 10162
  156.2819  130.4218  149.8328 H   0  0  0  0  0  0  0  0  0  0  0  0  # atno 10718 bound_to 10713
  153.7793  135.3171  155.3363 H   0  0  0  0  0  0  0  0  0  0  0  0  # atno 10763 bound_to 10752
  154.8167  135.4631  154.0667 H   0  0  0  0  0  0  0  0  0  0  0  0  # atno 10764 bound_to 10752
  153.1951  135.6914  153.8388 H   0  0  0  0  0  0  0  0  0  0  0  0  # atno 10765 bound_to 10752
  139.8930  134.9532  156.6602 H   0  0  0  0  0  0  0  0  0  0  0  0  # atno 11005 bound_to 11000
  146.2852  140.4451  142.8761 LP  0  0  0  0  0  0  0  0  0  0  0  0  # atno 17320 bound_to 7965
  144.8523  140.7020  143.6160 LP  0  0  0  0  0  0  0  0  0  0  0  0  # atno 17321 bound_to 7965
  140.2644  143.3501  152.1294 LP  0  0  0  0  0  0  0  0  0  0  0  0  # atno 17342 bound_to 10162
  139.5115  144.6902  151.5781 LP  0  0  0  0  0  0  0  0  0  0  0  0  # atno 17343 bound_to 10162
  156.5772  130.8450  151.3373 LP  0  0  0  0  0  0  0  0  0  0  0  0  # atno 17370 bound_to 10713
  157.7317  130.9704  150.1892 LP  0  0  0  0  0  0  0  0  0  0  0  0  # atno 17371 bound_to 10713
  140.7452  133.8943  155.8307 LP  0  0  0  0  0  0  0  0  0  0  0  0  # atno 17394 bound_to 11000
  141.0045  134.1105  157.4284 LP  0  0  0  0  0  0  0  0  0  0  0  0  # atno 17395 bound_to 11000

$$$$
