AV-unprocessed.smi:311|AV-procd|sdf|2302|dock4
  -GOLD-   2262022203D 1   1.00000     0.00000
 Structure written by MMmdl.
 44 46  0  0  0  0  0  0  0  0  2 V2000
  150.9062  131.1472  156.3861 C   0  0  0  0  0  0  0  0  0  0  0  0
  150.5056  132.5924  156.4601 C   0  0  0  0  0  0  0  0  0  0  0  0
  150.6649  133.2583  157.5915 N   0  0  0  0  0  0  0  0  0  0  0  0
  150.2019  134.5538  157.3418 O   0  0  0  0  0  0  0  0  0  0  0  0
  149.7783  134.6178  156.0538 C   0  0  0  0  0  0  0  0  0  0  0  0
  149.2391  135.9291  155.5927 C   0  0  0  0  0  0  0  0  0  0  0  0
  149.9475  133.4094  155.4354 C   0  0  0  0  0  0  0  0  0  0  0  0
  149.6236  133.0233  154.0129 C   0  0  0  0  0  0  0  0  0  0  0  0
  148.1134  133.0427  153.7455 C   0  0  0  0  0  0  0  0  0  0  0  0
  147.4000  132.0780  154.0249 O   0  0  0  0  0  0  0  0  0  0  0  0
  147.6336  134.1697  153.1994 N   0  0  0  0  0  0  0  0  0  0  0  0
  146.2340  134.3978  152.8564 C   0  0  1  0  0  0  0  0  0  0  0  0
  145.9077  135.8547  152.4727 C   0  0  0  0  0  0  0  0  0  0  0  0
  144.8868  135.7557  151.3212 C   0  0  0  0  0  0  0  0  0  0  0  0
  144.6075  134.3148  151.1699 N   0  3  1  0  0  0  0  0  0  0  0  0
  144.1267  133.8537  149.8491 C   0  0  0  0  0  0  0  0  0  0  0  0
  143.8179  132.3442  149.9198 C   0  0  0  0  0  0  0  0  0  0  0  0
  145.0179  131.5369  150.4571 C   0  0  0  0  0  0  0  0  0  0  0  0
  145.5323  132.1221  151.7868 C   0  0  0  0  0  0  0  0  0  0  0  0
  145.8276  133.6197  151.6063 C   0  0  2  0  0  0  0  0  0  0  0  0
  150.1615  130.5630  155.8453 H   0  0  0  0  0  0  0  0  0  0  0  0
  151.0126  130.7062  157.3781 H   0  0  0  0  0  0  0  0  0  0  0  0
  151.8582  131.0338  155.8676 H   0  0  0  0  0  0  0  0  0  0  0  0
  148.5528  135.7960  154.7561 H   0  0  0  0  0  0  0  0  0  0  0  0
  150.0468  136.5851  155.2682 H   0  0  0  0  0  0  0  0  0  0  0  0
  148.6963  136.4301  156.3943 H   0  0  0  0  0  0  0  0  0  0  0  0
  150.1050  133.6985  153.3046 H   0  0  0  0  0  0  0  0  0  0  0  0
  150.0053  132.0268  153.7870 H   0  0  0  0  0  0  0  0  0  0  0  0
  148.2846  134.9160  153.0017 H   0  0  0  0  0  0  0  0  0  0  0  0
  145.5954  134.0929  153.6884 H   0  0  0  0  0  0  0  0  0  0  0  0
  145.5067  136.4037  153.3255 H   0  0  0  0  0  0  0  0  0  0  0  0
  146.7977  136.3857  152.1314 H   0  0  0  0  0  0  0  0  0  0  0  0
  143.9694  136.3067  151.5296 H   0  0  0  0  0  0  0  0  0  0  0  0
  145.3201  136.1535  150.4022 H   0  0  0  0  0  0  0  0  0  0  0  0
  143.2304  134.4091  149.5709 H   0  0  0  0  0  0  0  0  0  0  0  0
  144.8815  134.0547  149.0872 H   0  0  0  0  0  0  0  0  0  0  0  0
  142.9577  132.1830  150.5710 H   0  0  0  0  0  0  0  0  0  0  0  0
  143.5300  131.9746  148.9350 H   0  0  0  0  0  0  0  0  0  0  0  0
  144.7379  130.4914  150.5904 H   0  0  0  0  0  0  0  0  0  0  0  0
  145.8219  131.5496  149.7202 H   0  0  0  0  0  0  0  0  0  0  0  0
  144.7865  131.9767  152.5696 H   0  0  0  0  0  0  0  0  0  0  0  0
  146.4310  131.5940  152.1073 H   0  0  0  0  0  0  0  0  0  0  0  0
  146.5938  133.7493  150.8379 H   0  0  0  0  0  0  0  0  0  0  0  0
  143.8923  134.0891  151.8465 H   0  0  0  0  0  0  0  0  0  0  0  0
  1  2  1  0  0  0  0
  1 21  1  0  0  0  0
  1 22  1  0  0  0  0
  1 23  1  0  0  0  0
  2  7  1  0  0  0  0
  2  3  2  0  0  0  0
  3  4  1  0  0  0  0
  4  5  1  0  0  0  0
  5  6  1  0  0  0  0
  5  7  2  0  0  0  0
  6 24  1  0  0  0  0
  6 25  1  0  0  0  0
  6 26  1  0  0  0  0
  7  8  1  0  0  0  0
  8  9  1  0  0  0  0
  8 27  1  0  0  0  0
  8 28  1  0  0  0  0
  9 10  2  0  0  0  0
  9 11  1  0  0  0  0
 11 12  1  0  0  0  0
 11 29  1  0  0  0  0
 12 20  1  0  0  0  0
 12 13  1  0  0  0  0
 12 30  1  0  0  0  0
 13 14  1  0  0  0  0
 13 31  1  0  0  0  0
 13 32  1  0  0  0  0
 14 15  1  0  0  0  0
 14 33  1  0  0  0  0
 14 34  1  0  0  0  0
 15 20  1  0  0  0  0
 15 16  1  0  0  0  0
 15 44  1  0  0  0  0
 16 17  1  0  0  0  0
 16 35  1  0  0  0  0
 16 36  1  0  0  0  0
 17 18  1  0  0  0  0
 17 37  1  0  0  0  0
 17 38  1  0  0  0  0
 18 19  1  0  0  0  0
 18 39  1  0  0  0  0
 18 40  1  0  0  0  0
 19 20  1  0  0  0  0
 19 41  1  0  0  0  0
 19 42  1  0  0  0  0
 20 43  1  0  0  0  0
M  CHG  1  15   1
M  END
> <s_m_source_file>
AV-unprocessed.smi

> <i_m_source_file_index>
311

> <i_lp_mmshare_version>
43012

> <i_f3d_flags>
0

> <s_epik_input>
W0NIM11jMW5vYyhbQ0gzXSljMVtDSDJdQyg9TylbTkhdW0NASF0oW0NIMl1bQ0gyXTIpW0NAQEhdKE4yMylbQ0gyXVtDSDJdW0NIMl1bQ0gyXTM=

> <s_epik_cmdline>
J2VwaWtfcHl0aG9uJywgJy1waCcsICc3LjAnLCAnLXRuJywgJzgnLCAnLW1hJywgJzIwMCcsICctbWV0YWxfYmluZGluZycsICctaW1hZScsICc8aW5maWxlLm1hZT4nLCAnLW9tYWUnLCAnPG91dGZpbGUubWFlPic=

> <r_epik_Ionization_Penalty>
0.00173669

> <r_epik_Ionization_Penalty_Charging>
0.0017366

> <r_epik_Ionization_Penalty_Neutral>
9.2145e-08

> <r_epik_State_Penalty>
0.00117499

> <r_epik_Charging_Adjusted_Penalty>
0.00291159

> <i_epik_Tot_Q>
1

> <i_epik_Tot_abs_Q>
1

> <r_epik_Metal_State_Penalty>
-0

> <b_epik_Metal_Only>
0

> <s_lp_Force_Field>
OPLS_2005

> <r_lp_Energy>
29.9852

> <b_lp_Chiralities_Consistent>
1

> <s_lp_Variant>
AV-unprocessed.smi:311-6

> <Gold.Version>
5.8.1

> <Gold.Id.Protein>
6NUR|6NUR_protein|mol2

> <Gold.PLP.Fitness>
37.5277

> <Gold.PLP.PLP>
-32.8586

> <Gold.PLP.part.hbond>
-3.0000

> <Gold.PLP.part.metal>
0.0000

> <Gold.PLP.part.buried>
-3.6402

> <Gold.PLP.part.nonpolar>
-26.9575

> <Gold.PLP.part.repulsive>
0.0503

> <Gold.PLP.ligand.clash>
0.0000

> <Gold.PLP.ligand.torsion>
0.5159

> <Gold.PLP.Chemscore.Hbond>
1.8960

> <Gold.PLP.Chemscore.CHOScore>
0.0000

> <Gold.PLP.Chemscore.Metal>
0.0000

> <Gold.Chemscore.Hbonds>
donor molecule, donor type, donor heavy atom, donor atom, acceptor molecule, acceptor atom, score
      L1  H    11    29       P1  7948  1.00
      P1  H  6896  6909       L1     3  0.88

> <Gold.PLP.Chemscore.Internal.Correction>
0.0130

> <Gold.Rescore>
     Score         DG    S(hbond)    S(metal)    S(lipo)     H(rot)  DE(clash)    DE(int)     intcor
     14.89     -16.77       1.45        0.00      84.82       1.36       0.15       1.74       ----

> <Gold.Chemscore.Fitness>
14.8856

> <Gold.Chemscore.DG>
-16.7715

> <Gold.Chemscore.ZeroCoef>
-5.4800

> <Gold.Chemscore.Hbond>
1.4493

> <Gold.Chemscore.Metal>
0.0000

> <Gold.Chemscore.Lipo>
84.8197

> <Gold.Chemscore.Internal_Hbond>
0.0000

> <Gold.Chemscore.DEClash>
0.1509

> <Gold.Chemscore.DEInternal>
1.7350

> <Gold.Chemscore.Rot>
1.3567

> <Gold.Chemscore.Internal.Correction>
   9.000000E+99

> <Gold.Chemscore.Hbonds>
donor molecule, donor type, donor heavy atom, donor atom, acceptor molecule, acceptor atom, score
      L1  H    11    29       P1  7948  0.74
      P1  H  6896  6909       L1     3  0.26

> <Gold.Chemscore.Hbond.Weighted>
-4.8407

> <Gold.Chemscore.Metal.Weighted>
-0.0000

> <Gold.Chemscore.Lipo.Weighted>
-9.9239

> <Gold.Chemscore.Internal_Hbond.Weighted>
0.0000

> <Gold.Chemscore.DEClash.Weighted>
0.1509

> <Gold.Chemscore.DEInternal.Weighted>
1.7350

> <Gold.Chemscore.Rot.Weighted>
3.4731

> <Gold.Chemscore.Internal.Correction.Weighted>
   9.000000E+99

> <Gold.Protein.RotatedTorsions>
[ 6907 6896 6895 6894 ] final  -34.10 input  -60.11 | X-H torsion
[ 7974 7965 7964 7962 ] final  -16.83 input  175.53 | X-H torsion
[ 8008 7997 7996 7995 ] final    1.93 input   59.86 | X-H torsion
[ 10167 10162 10161 10158 ] final  123.72 input  -65.29 | X-H torsion
[ 10718 10713 10712 10709 ] final -119.18 input   66.30 | X-H torsion
[ 10763 10752 10751 10750 ] final  164.53 input  -60.55 | X-H torsion
[ 11005 11000 10999 10996 ] final   -6.02 input  -57.11 | X-H torsion

> <Gold.Protein.ActiveResidues>
 VAL166  LYS551  ARG553  GLY616  TRP617  ASP618  TYR619  PRO620  LYS621  CYS622 
 ASP623  PHE694  ASN695  SER759  ASP760  ASP761  ALA762  ILE779  LEU786  VAL792 
 PHE793  MET794  SER795  GLU796  ALA797  LYS798  CYS799  TRP800  GLU811  SER814 

> <Gold.Protein.RotatedAtoms>
  151.0569  134.9711  159.8240 H   0  0  0  0  0  0  0  0  0  0  0  0  # atno 6907 bound_to 6896
  152.5389  134.2466  159.8892 H   0  0  0  0  0  0  0  0  0  0  0  0  # atno 6908 bound_to 6896
  151.2484  133.4320  159.2644 H   0  0  0  0  0  0  0  0  0  0  0  0  # atno 6909 bound_to 6896
  146.1969  140.3692  142.8437 H   0  0  0  0  0  0  0  0  0  0  0  0  # atno 7974 bound_to 7965
  154.6856  140.2642  155.6864 H   0  0  0  0  0  0  0  0  0  0  0  0  # atno 8008 bound_to 7997
  156.2713  140.2801  156.1339 H   0  0  0  0  0  0  0  0  0  0  0  0  # atno 8009 bound_to 7997
  155.0969  140.0374  157.2675 H   0  0  0  0  0  0  0  0  0  0  0  0  # atno 8010 bound_to 7997
  139.5783  144.6974  151.3595 H   0  0  0  0  0  0  0  0  0  0  0  0  # atno 10167 bound_to 10162
  156.1162  130.6287  150.9385 H   0  0  0  0  0  0  0  0  0  0  0  0  # atno 10718 bound_to 10713
  154.3103  135.2757  155.2569 H   0  0  0  0  0  0  0  0  0  0  0  0  # atno 10763 bound_to 10752
  154.4967  135.5819  153.6503 H   0  0  0  0  0  0  0  0  0  0  0  0  # atno 10764 bound_to 10752
  152.9889  135.6148  154.3280 H   0  0  0  0  0  0  0  0  0  0  0  0  # atno 10765 bound_to 10752
  140.6975  133.9018  155.8660 H   0  0  0  0  0  0  0  0  0  0  0  0  # atno 11005 bound_to 11000
  144.8600  140.7126  143.6113 LP  0  0  0  0  0  0  0  0  0  0  0  0  # atno 17320 bound_to 7965
  145.3613  139.1681  143.4382 LP  0  0  0  0  0  0  0  0  0  0  0  0  # atno 17321 bound_to 7965
  140.7064  143.7504  150.7489 LP  0  0  0  0  0  0  0  0  0  0  0  0  # atno 17342 bound_to 10162
  140.1029  143.4770  152.2414 LP  0  0  0  0  0  0  0  0  0  0  0  0  # atno 17343 bound_to 10162
  157.6345  131.0917  150.8375 LP  0  0  0  0  0  0  0  0  0  0  0  0  # atno 17370 bound_to 10713
  156.8478  130.5070  149.5314 LP  0  0  0  0  0  0  0  0  0  0  0  0  # atno 17371 bound_to 10713
  141.0191  134.0914  157.4140 LP  0  0  0  0  0  0  0  0  0  0  0  0  # atno 17394 bound_to 11000
  139.8906  135.0113  156.6745 LP  0  0  0  0  0  0  0  0  0  0  0  0  # atno 17395 bound_to 11000

$$$$
