#       Name:                AV-unprocessed.smi:528
#       Creating user name   scv26
#       Creation time:       Thu Mar 26 23:32:29 2020


#       File generated by GOLD software.
#

@<TRIPOS>MOLECULE
AV-unprocessed.smi:528
    49    51     1
SMALL
NO_CHARGES


@<TRIPOS>ATOM
      1 ****        -2.0437  -1.8027  -1.8720 C.3            1 S1                 0.0000
      2 ****        -1.6122  -1.0221  -0.6186 C.3            1 S1                 0.0000
      3 ****        -0.1512  -0.9899  -0.5718 N.am           1 S1                 0.0000
      4 ****         0.6256   0.0517  -0.9074 C.2            1 S1                 0.0000
      5 ****         0.1802   1.1369  -1.2835 O.2            1 S1                 0.0000
      6 ****         2.1387  -0.1787  -0.7810 C.3            1 S1                 0.0000
      7 ****         2.9481   0.8204  -1.4990 N.am           1 S1                 0.0000
      8 ****         3.4791   1.8817  -0.7397 C.2            1 S1                 0.0000
      9 ****         4.2455   2.8527  -1.2724 C.2            1 S1                 0.0000
     10 ****         4.7548   4.0181  -0.4386 C.3            1 S1                 0.0000
     11 ****         4.9112   5.1107  -1.1864 F              1 S1                 0.0000
     12 ****         3.9114   4.3067   0.5532 F              1 S1                 0.0000
     13 ****         5.9350   3.7096   0.0972 F              1 S1                 0.0000
     14 ****         4.4807   2.7779  -2.7010 C.2            1 S1                 0.0000
     15 ****         3.9696   1.7769  -3.4442 C.2            1 S1                 0.0000
     16 ****         3.1547   0.7168  -2.8462 C.2            1 S1                 0.0000
     17 ****         2.6865  -0.2056  -3.5140 O.2            1 S1                 0.0000
     18 ****        -2.1692  -1.6437   0.6857 C.3            1 S1                 0.0000
     19 ****        -3.7146  -1.6092   0.7801 C.3            1 S1                 0.0000
     20 ****        -3.9736  -0.9170   2.1297 C.3            1 S1                 0.0000
     21 ****        -3.5518  -1.8511   3.2782 C.3            1 S1                 0.0000
     22 ****        -2.0147  -1.8158   3.1932 C.3            1 S1                 0.0000
     23 ****        -1.7614  -0.8967   1.9826 C.3            1 S1                 0.0000
     24 ****        -2.8725   0.1343   2.1500 C.3            1 S1                 0.0000
     25 ****        -3.1269  -1.8103  -1.9898 H              1 S1                 0.0000
     26 ****        -1.7078  -2.8394  -1.8290 H              1 S1                 0.0000
     27 ****        -1.6258  -1.3560  -2.7748 H              1 S1                 0.0000
     28 ****        -1.9996  -0.0059  -0.7059 H              1 S1                 0.0000
     29 ****         0.3076  -1.8368  -0.2686 H              1 S1                 0.0000
     30 ****         2.3934  -0.1878   0.2795 H              1 S1                 0.0000
     31 ****         2.3806  -1.1809  -1.1401 H              1 S1                 0.0000
     32 ****         3.2147   1.8609   0.3077 H              1 S1                 0.0000
     33 ****         5.0796   3.5358  -3.1841 H              1 S1                 0.0000
     34 ****         4.1659   1.7528  -4.5062 H              1 S1                 0.0000
     35 ****        -1.8212  -2.6767   0.7411 H              1 S1                 0.0000
     36 ****        -4.1533  -1.0174  -0.0243 H              1 S1                 0.0000
     37 ****        -4.1548  -2.6059   0.7335 H              1 S1                 0.0000
     38 ****        -4.9862  -0.5262   2.2328 H              1 S1                 0.0000
     39 ****        -3.8922  -1.4660   4.2404 H              1 S1                 0.0000
     40 ****        -3.9533  -2.8580   3.1585 H              1 S1                 0.0000
     41 ****        -1.5928  -1.3829   4.1012 H              1 S1                 0.0000
     42 ****        -1.5794  -2.8075   3.0651 H              1 S1                 0.0000
     43 ****        -0.7537  -0.4815   1.9725 H              1 S1                 0.0000
     44 ****        -2.9367   0.8469   1.3262 H              1 S1                 0.0000
     45 ****        -2.8156   0.6826   3.0920 H              1 S1                 0.0000
     46 ****        -0.8078   1.2755  -1.3512 LP             1 S1                 0.0000
     47 ****         0.8067   1.8792  -1.5212 LP             1 S1                 0.0000
     48 ****         2.1337  -0.9122  -3.0723 LP             1 S1                 0.0000
     49 ****         2.8591  -0.2482  -4.4981 LP             1 S1                 0.0000
@<TRIPOS>BOND
    1    1    2 1     
    2    1   25 1     
    3    1   26 1     
    4    1   27 1     
    5    2    3 1     
    6    2   18 1     
    7    2   28 1     
    8    3    4 am    
    9    3   29 1     
   10    4    5 2     
   11    4    6 1     
   12    6    7 1     
   13    6   30 1     
   14    6   31 1     
   15    7   16 am    
   16    7    8 1     
   17    8    9 2     
   18    8   32 1     
   19    9   10 1     
   20    9   14 1     
   21   10   11 1     
   22   10   12 1     
   23   10   13 1     
   24   14   15 2     
   25   14   33 1     
   26   15   16 1     
   27   15   34 1     
   28   16   17 2     
   29   18   23 1     
   30   18   19 1     
   31   18   35 1     
   32   19   20 1     
   33   19   36 1     
   34   19   37 1     
   35   20   24 1     
   36   20   21 1     
   37   20   38 1     
   38   21   22 1     
   39   21   39 1     
   40   21   40 1     
   41   22   23 1     
   42   22   41 1     
   43   22   42 1     
   44   23   24 1     
   45   23   43 1     
   46   24   44 1     
   47   24   45 1     
   48    5   46 1     
   49    5   47 1     
   50   17   48 1     
   51   17   49 1     
@<TRIPOS>SUBSTRUCTURE
      1 S1             1
@<TRIPOS>SET
LONE_PAIRS      STATIC     ATOMS    <user>   **** ""
4 46 47 48 49
DONOR_HYDROGENS      STATIC     ATOMS    <user>   **** ""
1 29
ATOM$BLUE        STATIC     ATOMS    COLORGROUP SYSTEM
4 46 47 48 49
ATOM$RED        STATIC     ATOMS    COLORGROUP SYSTEM
1 29
