#       Name:                AV-unprocessed.smi:870
#       Creating user name   scv26
#       Creation time:       Fri Mar 27 01:49:36 2020


#       File generated by GOLD software.
#

@<TRIPOS>MOLECULE
AV-unprocessed.smi:870
    53    55     1
SMALL
NO_CHARGES


@<TRIPOS>ATOM
      1 ****        -0.1177  -0.8544   3.4495 C.3            1 S1                 0.0000
      2 ****        -0.3168   0.3118   2.6719 O.3            1 S1                 0.0000
      3 ****        -1.6906   0.6089   2.4866 C.3            1 S1                 0.0000
      4 ****        -1.7752   1.8282   1.6189 C.2            1 S1                 0.0000
      5 ****        -2.2880   2.9748   2.0668 N.2            1 S1                 0.0000
      6 ****        -2.1950   3.8009   0.9639 C.ar           1 S1                 0.0000
      7 ****        -2.5765   5.1511   0.7939 C.ar           1 S1                 0.0000
      8 ****        -2.3873   5.7957  -0.4462 C.ar           1 S1                 0.0000
      9 ****        -1.8162   5.1007  -1.5318 C.ar           1 S1                 0.0000
     10 ****        -1.4289   3.7550  -1.3837 C.ar           1 S1                 0.0000
     11 ****        -1.6175   3.1168  -0.1430 C.ar           1 S1                 0.0000
     12 ****        -1.3496   1.8357   0.3292 N.pl3          1 S1                 0.0000
     13 ****        -0.7472   0.7487  -0.4329 C.3            1 S1                 0.0000
     14 ****         0.7554   0.9735  -0.7118 C.3            1 S1                 0.0000
     15 ****         1.4777   1.2774   0.4647 O.3            1 S1                 0.0000
     16 ****         1.4320  -0.2093  -1.4228 C.3            1 S1                 0.0000
     17 ****         1.1466  -1.4113  -0.7187 O.3            1 S1                 0.0000
     18 ****         1.6397  -2.6014  -1.2104 C.ar           1 S1                 0.0000
     19 ****         2.4189  -2.7038  -2.3908 C.ar           1 S1                 0.0000
     20 ****         2.8877  -3.9561  -2.8313 C.ar           1 S1                 0.0000
     21 ****         2.5860  -5.1194  -2.1011 C.ar           1 S1                 0.0000
     22 ****         1.8144  -5.0294  -0.9284 C.ar           1 S1                 0.0000
     23 ****         1.3419  -3.7772  -0.4829 C.ar           1 S1                 0.0000
     24 ****         0.5157  -3.6956   0.7871 C.3            1 S1                 0.0000
     25 ****         0.9497  -1.0497   3.5505 H              1 S1                 0.0000
     26 ****        -0.5758  -1.7248   2.9782 H              1 S1                 0.0000
     27 ****        -0.5365  -0.7371   4.4497 H              1 S1                 0.0000
     28 ****        -2.2181  -0.2182   2.0093 H              1 S1                 0.0000
     29 ****        -2.1712   0.8031   3.4471 H              1 S1                 0.0000
     30 ****        -3.0159   5.6914   1.6192 H              1 S1                 0.0000
     31 ****        -2.6823   6.8280  -0.5652 H              1 S1                 0.0000
     32 ****        -1.6755   5.6016  -2.4785 H              1 S1                 0.0000
     33 ****        -0.9919   3.2204  -2.2135 H              1 S1                 0.0000
     34 ****        -0.9030  -0.1906   0.0952 H              1 S1                 0.0000
     35 ****        -1.2878   0.6542  -1.3751 H              1 S1                 0.0000
     36 ****         0.8609   1.8479  -1.3543 H              1 S1                 0.0000
     37 ****         1.3883   0.5534   1.0658 H              1 S1                 0.0000
     38 ****         1.0353  -0.2829  -2.4366 H              1 S1                 0.0000
     39 ****         2.5084  -0.0437  -1.4963 H              1 S1                 0.0000
     40 ****         2.6719  -1.8350  -2.9788 H              1 S1                 0.0000
     41 ****         3.4805  -4.0234  -3.7316 H              1 S1                 0.0000
     42 ****         2.9461  -6.0796  -2.4400 H              1 S1                 0.0000
     43 ****         1.5875  -5.9268  -0.3717 H              1 S1                 0.0000
     44 ****         0.2776  -4.6866   1.1737 H              1 S1                 0.0000
     45 ****        -0.4222  -3.1717   0.6004 H              1 S1                 0.0000
     46 ****         1.0651  -3.1531   1.5565 H              1 S1                 0.0000
     47 ****         0.1064   0.1767   1.7760 LP             1 S1                 0.0000
     48 ****         0.1195   1.0842   3.1335 LP             1 S1                 0.0000
     49 ****        -2.6499   3.1844   2.9752 LP             1 S1                 0.0000
     50 ****         1.1103   2.1092   0.8810 LP             1 S1                 0.0000
     51 ****         2.4430   1.4143   0.2423 LP             1 S1                 0.0000
     52 ****         0.1513  -1.4994  -0.6788 LP             1 S1                 0.0000
     53 ****         1.5090  -1.3029   0.2070 LP             1 S1                 0.0000
@<TRIPOS>BOND
    1    1    2 1     
    2    1   25 1     
    3    1   26 1     
    4    1   27 1     
    5    2    3 1     
    6    3    4 1     
    7    3   28 1     
    8    3   29 1     
    9    4   12 1     
   10    4    5 2     
   11    5    6 1     
   12    6   11 ar    
   13    6    7 ar    
   14    7    8 ar    
   15    7   30 1     
   16    8    9 ar    
   17    8   31 1     
   18    9   10 ar    
   19    9   32 1     
   20   10   11 ar    
   21   10   33 1     
   22   11   12 1     
   23   12   13 1     
   24   13   14 1     
   25   13   34 1     
   26   13   35 1     
   27   14   15 1     
   28   14   16 1     
   29   14   36 1     
   30   15   37 1     
   31   16   17 1     
   32   16   38 1     
   33   16   39 1     
   34   17   18 1     
   35   18   23 ar    
   36   18   19 ar    
   37   19   20 ar    
   38   19   40 1     
   39   20   21 ar    
   40   20   41 1     
   41   21   22 ar    
   42   21   42 1     
   43   22   23 ar    
   44   22   43 1     
   45   23   24 1     
   46   24   44 1     
   47   24   45 1     
   48   24   46 1     
   49    2   47 1     
   50    2   48 1     
   51    5   49 1     
   52   15   50 1     
   53   15   51 1     
   54   17   52 1     
   55   17   53 1     
@<TRIPOS>SUBSTRUCTURE
      1 S1             1
@<TRIPOS>SET
LONE_PAIRS      STATIC     ATOMS    <user>   **** ""
7 47 48 49 50 51 52 53
DONOR_HYDROGENS      STATIC     ATOMS    <user>   **** ""
1 37
ATOM$BLUE        STATIC     ATOMS    COLORGROUP SYSTEM
7 47 48 49 50 51 52 53
ATOM$RED        STATIC     ATOMS    COLORGROUP SYSTEM
1 37
