AV-unprocessed.smi:196|AV-procd|sdf|1539|dock9
  -GOLD-   2262019393D 1   1.00000     0.00000
 Structure written by MMmdl.
 47 50  0  0  0  0  0  0  0  0  1 V2000
  146.2945  133.7619  161.6190 C   0  0  0  0  0  0  0  0  0  0  0  0
  146.1109  135.0703  162.4038 C   0  0  1  0  0  0  0  0  0  0  0  0
  147.1625  135.1513  163.3623 O   0  0  0  0  0  0  0  0  0  0  0  0
  147.4624  136.5150  163.5994 C   0  0  0  0  0  0  0  0  0  0  0  0
  147.3771  137.1151  162.2045 C   0  0  0  0  0  0  0  0  0  0  0  0
  146.1794  136.3939  161.5903 C   0  0  2  0  0  0  0  0  0  0  0  0
  145.0186  137.1475  161.8976 O   0  0  0  0  0  0  0  0  0  0  0  0
  146.2651  136.2510  160.0475 C   0  0  0  0  0  0  0  0  0  0  0  0
  147.5648  136.6152  159.5043 N   0  0  0  0  0  0  0  0  0  0  0  0
  148.7511  135.9379  159.6793 C   0  0  0  0  0  0  0  0  0  0  0  0
  149.7896  136.4713  159.0956 N   0  0  0  0  0  0  0  0  0  0  0  0
  149.2770  137.5948  158.4597 C   0  0  0  0  0  0  0  0  0  0  0  0
  149.8474  138.6145  157.6523 C   0  0  0  0  0  0  0  0  0  0  0  0
  151.1803  138.6327  157.3814 N   0  0  0  0  0  0  0  0  0  0  0  0
  151.8201  139.8092  157.9598 C   0  0  0  0  0  0  0  0  0  0  0  0
  151.9524  140.8323  156.8202 C   0  0  2  0  0  0  0  0  0  0  0  0
  151.0422  141.7993  156.9420 F   0  0  0  0  0  0  0  0  0  0  0  0
  151.7077  140.0335  155.5330 C   0  0  0  0  0  0  0  0  0  0  0  0
  151.6955  138.5697  156.0058 C   0  0  2  0  0  0  0  0  0  0  0  0
  151.0370  137.5591  155.0426 C   0  0  0  0  0  0  0  0  0  0  0  0
  150.4125  138.0591  153.9734 N   0  0  0  0  0  0  0  0  0  0  0  0
  151.1250  136.3464  155.2278 O   0  0  0  0  0  0  0  0  0  0  0  0
  149.0194  139.5943  157.1997 N   0  0  0  0  0  0  0  0  0  0  0  0
  147.7171  139.5649  157.4976 C   0  0  0  0  0  0  0  0  0  0  0  0
  147.0484  138.6721  158.2303 N   0  0  0  0  0  0  0  0  0  0  0  0
  147.8785  137.6975  158.7006 C   0  0  0  0  0  0  0  0  0  0  0  0
  152.9327  141.3096  156.8294 H   0  0  0  0  0  0  0  0  0  0  0  0
  152.7320  138.2393  156.0968 H   0  0  0  0  0  0  0  0  0  0  0  0
  145.5129  133.6327  160.8703 H   0  0  0  0  0  0  0  0  0  0  0  0
  146.2468  132.9038  162.2895 H   0  0  0  0  0  0  0  0  0  0  0  0
  147.2609  133.7279  161.1155 H   0  0  0  0  0  0  0  0  0  0  0  0
  145.1694  135.0109  162.9532 H   0  0  0  0  0  0  0  0  0  0  0  0
  146.7139  136.9498  164.2635 H   0  0  0  0  0  0  0  0  0  0  0  0
  148.4453  136.6391  164.0541 H   0  0  0  0  0  0  0  0  0  0  0  0
  147.2847  138.2022  162.2088 H   0  0  0  0  0  0  0  0  0  0  0  0
  148.2875  136.8616  161.6598 H   0  0  0  0  0  0  0  0  0  0  0  0
  144.4166  137.0819  161.1721 H   0  0  0  0  0  0  0  0  0  0  0  0
  146.0631  135.2224  159.7478 H   0  0  0  0  0  0  0  0  0  0  0  0
  145.5072  136.8688  159.5639 H   0  0  0  0  0  0  0  0  0  0  0  0
  148.8243  135.0322  160.2635 H   0  0  0  0  0  0  0  0  0  0  0  0
  151.2876  140.2233  158.8189 H   0  0  0  0  0  0  0  0  0  0  0  0
  152.8077  139.5133  158.3166 H   0  0  0  0  0  0  0  0  0  0  0  0
  150.7524  140.3109  155.0845 H   0  0  0  0  0  0  0  0  0  0  0  0
  152.4841  140.2160  154.7895 H   0  0  0  0  0  0  0  0  0  0  0  0
  149.9699  137.4385  153.3117 H   0  0  0  0  0  0  0  0  0  0  0  0
  150.3897  139.0583  153.8295 H   0  0  0  0  0  0  0  0  0  0  0  0
  147.1269  140.3737  157.0931 H   0  0  0  0  0  0  0  0  0  0  0  0
  1  2  1  0  0  0  0
  1 29  1  0  0  0  0
  1 30  1  0  0  0  0
  1 31  1  0  0  0  0
  2  6  1  0  0  0  0
  2  3  1  0  0  0  0
  2 32  1  0  0  0  0
  3  4  1  0  0  0  0
  4  5  1  0  0  0  0
  4 33  1  0  0  0  0
  4 34  1  0  0  0  0
  5  6  1  0  0  0  0
  5 35  1  0  0  0  0
  5 36  1  0  0  0  0
  6  7  1  0  0  0  0
  6  8  1  0  0  0  0
  7 37  1  0  0  0  0
  8  9  1  0  0  0  0
  8 38  1  0  0  0  0
  8 39  1  0  0  0  0
  9 26  1  0  0  0  0
  9 10  1  0  0  0  0
 10 11  2  0  0  0  0
 10 40  1  0  0  0  0
 11 12  1  0  0  0  0
 12 26  2  0  0  0  0
 12 13  1  0  0  0  0
 13 14  1  0  0  0  0
 13 23  2  0  0  0  0
 14 19  1  0  0  0  0
 14 15  1  0  0  0  0
 15 16  1  0  0  0  0
 15 41  1  0  0  0  0
 15 42  1  0  0  0  0
 16 27  1  0  0  0  0
 16 17  1  0  0  0  0
 16 18  1  0  0  0  0
 18 19  1  0  0  0  0
 18 43  1  0  0  0  0
 18 44  1  0  0  0  0
 19 28  1  0  0  0  0
 19 20  1  0  0  0  0
 20 21  1  0  0  0  0
 20 22  2  0  0  0  0
 21 45  1  0  0  0  0
 21 46  1  0  0  0  0
 23 24  1  0  0  0  0
 24 25  2  0  0  0  0
 24 47  1  0  0  0  0
 25 26  1  0  0  0  0
M  END
> <s_m_source_file>
AV-unprocessed.smi

> <i_m_source_file_index>
196

> <i_lp_mmshare_version>
43012

> <i_f3d_flags>
0

> <s_epik_input>
W0NIMl0xW0NIMl1PW0NAQEhdKFtDSDNdKVtDQEBdMShbT0hdKVtDSDJdbihbY0hdbjIpYyhjMjMpbltjSF1uYzNONFtDSDJdW0NASF0oRilbQ0gyXVtDQEhdNEMoPU8pW05IMl0=

> <s_epik_cmdline>
J2VwaWtfcHl0aG9uJywgJy1waCcsICc3LjAnLCAnLXRuJywgJzgnLCAnLW1hJywgJzIwMCcsICctbWV0YWxfYmluZGluZycsICctaW1hZScsICc8aW5maWxlLm1hZT4nLCAnLW9tYWUnLCAnPG91dGZpbGUubWFlPic=

> <r_lp_tautomer_probability>
1

> <r_epik_Ionization_Penalty>
0.000857933

> <r_epik_Ionization_Penalty_Charging>
0

> <r_epik_Ionization_Penalty_Neutral>
0.000857933

> <r_epik_State_Penalty>
0.000462053

> <r_epik_Charging_Adjusted_Penalty>
0.000462053

> <i_epik_Tot_Q>
0

> <i_epik_Tot_abs_Q>
0

> <r_epik_Metal_State_Penalty>
-0

> <b_epik_Metal_Only>
0

> <s_lp_Force_Field>
OPLS_2005

> <r_lp_Energy>
50.8061

> <b_lp_Chiralities_Consistent>
1

> <s_lp_Variant>
AV-unprocessed.smi:196-12

> <Gold.Version>
5.8.1

> <Gold.Id.Protein>
6NUR|6NUR_protein|mol2

> <Gold.PLP.Fitness>
40.8769

> <Gold.PLP.PLP>
-36.0455

> <Gold.PLP.part.hbond>
-4.8057

> <Gold.PLP.part.metal>
0.0000

> <Gold.PLP.part.buried>
-2.3960

> <Gold.PLP.part.nonpolar>
-28.8482

> <Gold.PLP.part.repulsive>
0.2143

> <Gold.PLP.ligand.clash>
0.0000

> <Gold.PLP.ligand.torsion>
1.2154

> <Gold.PLP.Chemscore.Hbond>
2.4000

> <Gold.PLP.Chemscore.CHOScore>
0.0000

> <Gold.PLP.Chemscore.Metal>
0.0000

> <Gold.Chemscore.Hbonds>
donor molecule, donor type, donor heavy atom, donor atom, acceptor molecule, acceptor atom, score
      L1  H    21    45       P1  7948  0.83
      P1  H  6896  6907       L1    11  0.60
      P1  H 10752 10763       L1    22  0.94

> <Gold.PLP.Chemscore.Internal.Correction>
0.0621

> <Gold.Rescore>
     Score         DG    S(hbond)    S(metal)    S(lipo)     H(rot)  DE(clash)    DE(int)     intcor
      5.19      -8.58       1.02        0.00      63.93       3.04       0.15       3.24       ----

> <Gold.Chemscore.Fitness>
5.1922

> <Gold.Chemscore.DG>
-8.5787

> <Gold.Chemscore.ZeroCoef>
-5.4800

> <Gold.Chemscore.Hbond>
1.0194

> <Gold.Chemscore.Metal>
0.0000

> <Gold.Chemscore.Lipo>
63.9290

> <Gold.Chemscore.Internal_Hbond>
0.0000

> <Gold.Chemscore.DEClash>
0.1470

> <Gold.Chemscore.DEInternal>
3.2395

> <Gold.Chemscore.Rot>
3.0413

> <Gold.Chemscore.Internal.Correction>
   9.000000E+99

> <Gold.Chemscore.Hbonds>
donor molecule, donor type, donor heavy atom, donor atom, acceptor molecule, acceptor atom, score
      L1  H    21    45       P1  7948  0.33
      P1  H  6896  6907       L1    11  0.04
      P1  H 10752 10763       L1    22  0.77

> <Gold.Chemscore.Hbond.Weighted>
-3.4047

> <Gold.Chemscore.Metal.Weighted>
-0.0000

> <Gold.Chemscore.Lipo.Weighted>
-7.4797

> <Gold.Chemscore.Internal_Hbond.Weighted>
0.0000

> <Gold.Chemscore.DEClash.Weighted>
0.1470

> <Gold.Chemscore.DEInternal.Weighted>
3.2395

> <Gold.Chemscore.Rot.Weighted>
7.7856

> <Gold.Chemscore.Internal.Correction.Weighted>
   9.000000E+99

> <Gold.Protein.RotatedTorsions>
[ 6907 6896 6895 6894 ] final  -33.55 input  -60.11 | X-H torsion
[ 7974 7965 7964 7962 ] final   98.63 input  175.53 | X-H torsion
[ 8008 7997 7996 7995 ] final   67.59 input   59.86 | X-H torsion
[ 10167 10162 10161 10158 ] final  154.46 input  -65.29 | X-H torsion
[ 10718 10713 10712 10709 ] final  -73.36 input   66.30 | X-H torsion
[ 10763 10752 10751 10750 ] final   62.26 input  -60.55 | X-H torsion
[ 11005 11000 10999 10996 ] final  164.11 input  -57.11 | X-H torsion

> <Gold.Protein.ActiveResidues>
 VAL166  LYS551  ARG553  GLY616  TRP617  ASP618  TYR619  PRO620  LYS621  CYS622 
 ASP623  PHE694  ASN695  SER759  ASP760  ASP761  ALA762  ILE779  LEU786  VAL792 
 PHE793  MET794  SER795  GLU796  ALA797  LYS798  CYS799  TRP800  GLU811  SER814 

> <Gold.Protein.RotatedAtoms>
  151.0641  134.9756  159.8275 H   0  0  0  0  0  0  0  0  0  0  0  0  # atno 6907 bound_to 6896
  152.5399  134.2381  159.8861 H   0  0  0  0  0  0  0  0  0  0  0  0  # atno 6908 bound_to 6896
  151.2402  133.4360  159.2641 H   0  0  0  0  0  0  0  0  0  0  0  0  # atno 6909 bound_to 6896
  145.4096  139.2335  143.3255 H   0  0  0  0  0  0  0  0  0  0  0  0  # atno 7974 bound_to 7965
  155.6953  140.3496  155.4910 H   0  0  0  0  0  0  0  0  0  0  0  0  # atno 8008 bound_to 7997
  155.9489  140.1115  157.1016 H   0  0  0  0  0  0  0  0  0  0  0  0  # atno 8009 bound_to 7997
  154.4117  140.1198  156.5012 H   0  0  0  0  0  0  0  0  0  0  0  0  # atno 8010 bound_to 7997
  139.4823  144.5184  151.7914 H   0  0  0  0  0  0  0  0  0  0  0  0  # atno 10167 bound_to 10162
  156.0283  130.4392  150.2731 H   0  0  0  0  0  0  0  0  0  0  0  0  # atno 10718 bound_to 10713
  152.9977  135.5471  154.6165 H   0  0  0  0  0  0  0  0  0  0  0  0  # atno 10763 bound_to 10752
  154.5474  135.2824  155.1042 H   0  0  0  0  0  0  0  0  0  0  0  0  # atno 10764 bound_to 10752
  154.2295  135.6436  153.5223 H   0  0  0  0  0  0  0  0  0  0  0  0  # atno 10765 bound_to 10752
  140.2426  134.8039  157.3425 H   0  0  0  0  0  0  0  0  0  0  0  0  # atno 11005 bound_to 11000
  146.2711  140.4806  142.8814 LP  0  0  0  0  0  0  0  0  0  0  0  0  # atno 17320 bound_to 7965
  144.8318  140.6718  143.6286 LP  0  0  0  0  0  0  0  0  0  0  0  0  # atno 17321 bound_to 7965
  140.4695  144.1606  150.5916 LP  0  0  0  0  0  0  0  0  0  0  0  0  # atno 17342 bound_to 10162
  140.4397  143.2532  151.9489 LP  0  0  0  0  0  0  0  0  0  0  0  0  # atno 17343 bound_to 10162
  157.0834  131.0150  151.3148 LP  0  0  0  0  0  0  0  0  0  0  0  0  # atno 17370 bound_to 10713
  157.4909  130.7822  149.7507 LP  0  0  0  0  0  0  0  0  0  0  0  0  # atno 17371 bound_to 10713
  140.1638  134.4695  155.7877 LP  0  0  0  0  0  0  0  0  0  0  0  0  # atno 17394 bound_to 11000
  141.2209  133.6912  156.7590 LP  0  0  0  0  0  0  0  0  0  0  0  0  # atno 17395 bound_to 11000

$$$$
