AV-unprocessed.smi:2803|AV-procd|sdf|10807|dock4
  -GOLD-   2272015243D 1   1.00000     0.00000
 Structure written by MMmdl.
 42 43  0  0  0  0  0  0  0  0  1 V2000
  150.8787  140.6587  157.9109 C   0  0  0  0  0  0  0  0  0  0  0  0
  150.5747  139.7742  156.6858 C   0  0  1  0  0  0  0  0  0  0  0  0
  151.6998  139.8357  155.7341 C   0  0  0  0  0  0  0  0  0  0  0  0
  152.5830  139.8825  154.9877 N   0  0  0  0  0  0  0  0  0  0  0  0
  150.3553  138.3939  157.1233 N   0  0  0  0  0  0  0  0  0  0  0  0
  149.4257  137.9221  157.9728 C   0  0  0  0  0  0  0  0  0  0  0  0
  148.5774  138.6365  158.5038 O   0  0  0  0  0  0  0  0  0  0  0  0
  149.4475  136.4178  158.2967 C   0  0  0  0  0  0  0  0  0  0  0  0
  148.2998  135.9406  159.0768 N   0  0  0  0  0  0  0  0  0  0  0  0
  147.3028  135.1605  158.5432 C   0  0  0  0  0  0  0  0  0  0  0  0
  146.3775  134.9140  159.4033 N   0  0  0  0  0  0  0  0  0  0  0  0
  146.8025  135.5600  160.5297 N   0  0  0  0  0  0  0  0  0  0  0  0
  145.9749  135.5300  161.7629 C   0  0  0  0  0  0  0  0  0  0  0  0
  145.5929  136.9705  162.1667 C   0  0  0  0  0  0  0  0  0  0  0  0
  146.7313  134.8885  162.9527 C   0  0  0  0  0  0  0  0  0  0  0  0
  144.6975  134.6994  161.5121 C   0  0  0  0  0  0  0  0  0  0  0  0
  147.9794  136.1886  160.3439 C   0  0  0  0  0  0  0  0  0  0  0  0
  148.6177  136.8689  161.1464 O   0  0  0  0  0  0  0  0  0  0  0  0
  149.3592  140.3441  155.9592 C   0  0  0  0  0  0  0  0  0  0  0  0
  149.1208  140.1236  154.4816 C   0  0  0  0  0  0  0  0  0  0  0  0
  149.4693  141.5039  154.9930 C   0  0  0  0  0  0  0  0  0  0  0  0
  151.0150  141.7004  157.6187 H   0  0  0  0  0  0  0  0  0  0  0  0
  151.7902  140.3494  158.4226 H   0  0  0  0  0  0  0  0  0  0  0  0
  150.0642  140.6241  158.6353 H   0  0  0  0  0  0  0  0  0  0  0  0
  150.9993  137.7159  156.7431 H   0  0  0  0  0  0  0  0  0  0  0  0
  149.5207  135.8614  157.3607 H   0  0  0  0  0  0  0  0  0  0  0  0
  150.3634  136.2008  158.8481 H   0  0  0  0  0  0  0  0  0  0  0  0
  147.3649  134.8384  157.5024 H   0  0  0  0  0  0  0  0  0  0  0  0
  145.0287  136.9822  163.0998 H   0  0  0  0  0  0  0  0  0  0  0  0
  144.9725  137.4597  161.4158 H   0  0  0  0  0  0  0  0  0  0  0  0
  146.4806  137.5870  162.3136 H   0  0  0  0  0  0  0  0  0  0  0  0
  147.6395  135.4400  163.1992 H   0  0  0  0  0  0  0  0  0  0  0  0
  147.0117  133.8551  162.7442 H   0  0  0  0  0  0  0  0  0  0  0  0
  146.1133  134.8750  163.8512 H   0  0  0  0  0  0  0  0  0  0  0  0
  144.0922  134.6254  162.4163 H   0  0  0  0  0  0  0  0  0  0  0  0
  144.9429  133.6838  161.1995 H   0  0  0  0  0  0  0  0  0  0  0  0
  144.0628  135.1376  160.7421 H   0  0  0  0  0  0  0  0  0  0  0  0
  148.4618  140.3471  156.5759 H   0  0  0  0  0  0  0  0  0  0  0  0
  149.8792  139.5913  153.9114 H   0  0  0  0  0  0  0  0  0  0  0  0
  148.0956  139.9520  154.1602 H   0  0  0  0  0  0  0  0  0  0  0  0
  148.6750  142.2472  155.0113 H   0  0  0  0  0  0  0  0  0  0  0  0
  150.4588  141.8899  154.7557 H   0  0  0  0  0  0  0  0  0  0  0  0
  1  2  1  0  0  0  0
  1 22  1  0  0  0  0
  1 23  1  0  0  0  0
  1 24  1  0  0  0  0
  2  3  1  0  0  0  0
  2  5  1  0  0  0  0
  2 19  1  0  0  0  0
  3  4  3  0  0  0  0
  5  6  1  0  0  0  0
  5 25  1  0  0  0  0
  6  7  2  0  0  0  0
  6  8  1  0  0  0  0
  8  9  1  0  0  0  0
  8 26  1  0  0  0  0
  8 27  1  0  0  0  0
  9 17  1  0  0  0  0
  9 10  1  0  0  0  0
 10 11  2  0  0  0  0
 10 28  1  0  0  0  0
 11 12  1  0  0  0  0
 12 13  1  0  0  0  0
 12 17  1  0  0  0  0
 13 14  1  0  0  0  0
 13 15  1  0  0  0  0
 13 16  1  0  0  0  0
 14 29  1  0  0  0  0
 14 30  1  0  0  0  0
 14 31  1  0  0  0  0
 15 32  1  0  0  0  0
 15 33  1  0  0  0  0
 15 34  1  0  0  0  0
 16 35  1  0  0  0  0
 16 36  1  0  0  0  0
 16 37  1  0  0  0  0
 17 18  2  0  0  0  0
 19 21  1  0  0  0  0
 19 20  1  0  0  0  0
 19 38  1  0  0  0  0
 20 21  1  0  0  0  0
 20 39  1  0  0  0  0
 20 40  1  0  0  0  0
 21 41  1  0  0  0  0
 21 42  1  0  0  0  0
M  END
> <s_m_source_file>
AV-unprocessed.smi

> <i_m_source_file_index>
2803

> <i_lp_mmshare_version>
43012

> <i_f3d_flags>
0

> <s_epik_input>
W0NIMl0xW0NIMl1bQ0hdMVtDQF0oW0NIM10pKEMjTilbTkhdQyg9TylbQ0gyXW4yW2NIXW5uKGMyPU8pQyhbQ0gzXSkoW0NIM10pW0NIM10=

> <s_epik_cmdline>
J2VwaWtfcHl0aG9uJywgJy1waCcsICc3LjAnLCAnLXRuJywgJzgnLCAnLW1hJywgJzIwMCcsICctbWV0YWxfYmluZGluZycsICctaW1hZScsICc8aW5maWxlLm1hZT4nLCAnLW9tYWUnLCAnPG91dGZpbGUubWFlPic=

> <r_lp_tautomer_probability>
1

> <r_epik_Ionization_Penalty>
4.88615e-06

> <r_epik_Ionization_Penalty_Charging>
4.80261e-08

> <r_epik_Ionization_Penalty_Neutral>
4.83813e-06

> <r_epik_State_Penalty>
-0

> <r_epik_Charging_Adjusted_Penalty>
4.80261e-08

> <i_epik_Tot_Q>
0

> <i_epik_Tot_abs_Q>
0

> <r_epik_Metal_State_Penalty>
-0

> <b_epik_Metal_Only>
0

> <s_lp_Force_Field>
OPLS_2005

> <r_lp_Energy>
32.3619

> <b_lp_Chiralities_Consistent>
1

> <s_lp_Variant>
AV-unprocessed.smi:2803-1

> <Gold.Version>
5.8.1

> <Gold.Id.Protein>
6NUR|6NUR_protein|mol2

> <Gold.PLP.Fitness>
37.9195

> <Gold.PLP.PLP>
-30.7422

> <Gold.PLP.part.hbond>
-4.1552

> <Gold.PLP.part.metal>
0.0000

> <Gold.PLP.part.buried>
-4.5599

> <Gold.PLP.part.nonpolar>
-24.3771

> <Gold.PLP.part.repulsive>
0.0194

> <Gold.PLP.ligand.clash>
0.0000

> <Gold.PLP.ligand.torsion>
0.9419

> <Gold.PLP.Chemscore.Hbond>
2.5035

> <Gold.PLP.Chemscore.CHOScore>
0.0000

> <Gold.PLP.Chemscore.Metal>
0.0000

> <Gold.Chemscore.Hbonds>
donor molecule, donor type, donor heavy atom, donor atom, acceptor molecule, acceptor atom, score
      P1  H  6931  6943       L1    18  1.00
      P1  H  7989  7998       L1     4  0.53
      P1  H  7997  8009       L1     4  0.83

> <Gold.PLP.Chemscore.Internal.Correction>
1.5504

> <Gold.Rescore>
     Score         DG    S(hbond)    S(metal)    S(lipo)     H(rot)  DE(clash)    DE(int)     intcor
     12.98     -14.06       2.04        0.00      59.92       2.05       0.14       0.94       ----

> <Gold.Chemscore.Fitness>
12.9757

> <Gold.Chemscore.DG>
-14.0573

> <Gold.Chemscore.ZeroCoef>
-5.4800

> <Gold.Chemscore.Hbond>
2.0368

> <Gold.Chemscore.Metal>
0.0000

> <Gold.Chemscore.Lipo>
59.9248

> <Gold.Chemscore.Internal_Hbond>
0.0000

> <Gold.Chemscore.DEClash>
0.1403

> <Gold.Chemscore.DEInternal>
0.9413

> <Gold.Chemscore.Rot>
2.0457

> <Gold.Chemscore.Internal.Correction>
   9.000000E+99

> <Gold.Chemscore.Hbonds>
donor molecule, donor type, donor heavy atom, donor atom, acceptor molecule, acceptor atom, score
      P1  H  6931  6943       L1    18  0.99
      P1  H  7989  7998       L1     4  0.12
      P1  H  7997  8009       L1     4  0.64

> <Gold.Chemscore.Hbond.Weighted>
-6.8031

> <Gold.Chemscore.Metal.Weighted>
-0.0000

> <Gold.Chemscore.Lipo.Weighted>
-7.0112

> <Gold.Chemscore.Internal_Hbond.Weighted>
0.0000

> <Gold.Chemscore.DEClash.Weighted>
0.1403

> <Gold.Chemscore.DEInternal.Weighted>
0.9413

> <Gold.Chemscore.Rot.Weighted>
5.2370

> <Gold.Chemscore.Internal.Correction.Weighted>
   9.000000E+99

> <Gold.Protein.RotatedTorsions>
[ 6907 6896 6895 6894 ] final   -9.59 input  -60.11 | X-H torsion
[ 7974 7965 7964 7962 ] final   27.54 input  175.53 | X-H torsion
[ 8008 7997 7996 7995 ] final -142.28 input   59.86 | X-H torsion
[ 10167 10162 10161 10158 ] final  105.60 input  -65.29 | X-H torsion
[ 10718 10713 10712 10709 ] final  167.86 input   66.30 | X-H torsion
[ 10763 10752 10751 10750 ] final  -98.83 input  -60.55 | X-H torsion
[ 11005 11000 10999 10996 ] final  -76.17 input  -57.11 | X-H torsion

> <Gold.Protein.ActiveResidues>
 VAL166  LYS551  ARG553  GLY616  TRP617  ASP618  TYR619  PRO620  LYS621  CYS622 
 ASP623  PHE694  ASN695  SER759  ASP760  ASP761  ALA762  ILE779  LEU786  VAL792 
 PHE793  MET794  SER795  GLU796  ALA797  LYS798  CYS799  TRP800  GLU811  SER814 

> <Gold.Protein.RotatedAtoms>
  151.4153  135.0990  159.9597 H   0  0  0  0  0  0  0  0  0  0  0  0  # atno 6907 bound_to 6896
  152.5006  133.8758  159.7332 H   0  0  0  0  0  0  0  0  0  0  0  0  # atno 6908 bound_to 6896
  150.9262  133.6763  159.2849 H   0  0  0  0  0  0  0  0  0  0  0  0  # atno 6909 bound_to 6896
  146.1779  139.7178  142.8921 H   0  0  0  0  0  0  0  0  0  0  0  0  # atno 7974 bound_to 7965
  155.4916  140.0568  157.2953 H   0  0  0  0  0  0  0  0  0  0  0  0  # atno 8008 bound_to 7997
  154.4621  140.2001  156.0168 H   0  0  0  0  0  0  0  0  0  0  0  0  # atno 8009 bound_to 7997
  156.0909  140.3233  155.7818 H   0  0  0  0  0  0  0  0  0  0  0  0  # atno 8010 bound_to 7997
  139.7079  144.7083  151.1076 H   0  0  0  0  0  0  0  0  0  0  0  0  # atno 10167 bound_to 10162
  157.0455  131.0298  151.2699 H   0  0  0  0  0  0  0  0  0  0  0  0  # atno 10718 bound_to 10713
  154.7447  135.4994  153.9184 H   0  0  0  0  0  0  0  0  0  0  0  0  # atno 10763 bound_to 10752
  153.1080  135.6702  153.9560 H   0  0  0  0  0  0  0  0  0  0  0  0  # atno 10764 bound_to 10752
  153.9327  135.3076  155.3424 H   0  0  0  0  0  0  0  0  0  0  0  0  # atno 10765 bound_to 10752
  141.1652  133.6974  156.7628 H   0  0  0  0  0  0  0  0  0  0  0  0  # atno 11005 bound_to 11000
  145.4160  141.0401  143.2990 LP  0  0  0  0  0  0  0  0  0  0  0  0  # atno 17320 bound_to 7965
  144.8266  139.5700  143.6963 LP  0  0  0  0  0  0  0  0  0  0  0  0  # atno 17321 bound_to 7965
  140.7726  143.5333  150.9397 LP  0  0  0  0  0  0  0  0  0  0  0  0  # atno 17342 bound_to 10162
  139.9017  143.6828  152.3130 LP  0  0  0  0  0  0  0  0  0  0  0  0  # atno 17343 bound_to 10162
  157.5071  130.7916  149.7666 LP  0  0  0  0  0  0  0  0  0  0  0  0  # atno 17370 bound_to 10713
  156.0024  130.3873  150.2555 LP  0  0  0  0  0  0  0  0  0  0  0  0  # atno 17371 bound_to 10713
  140.2521  134.8532  157.3677 LP  0  0  0  0  0  0  0  0  0  0  0  0  # atno 17394 bound_to 11000
  140.1693  134.4629  155.7842 LP  0  0  0  0  0  0  0  0  0  0  0  0  # atno 17395 bound_to 11000

$$$$
