AV-unprocessed.smi:1825|AV-procd|sdf|7413|dock1
  -GOLD-   22720 9 93D 1   1.00000     0.00000
 Structure written by MMmdl.
 34 35  0  0  0  0  0  0  0  0  1 V2000
  146.2154  139.1268  153.8887 O   0  0  0  0  0  0  0  0  0  0  0  0
  147.0446  138.4807  153.2474 C   0  0  0  0  0  0  0  0  0  0  0  0
  146.7299  137.4372  152.4672 N   0  0  0  0  0  0  0  0  0  0  0  0
  145.3876  136.8855  152.2994 C   0  0  0  0  0  0  0  0  0  0  0  0
  145.3333  135.6948  151.3083 C   0  0  0  0  0  0  0  0  0  0  0  0
  145.6357  136.2095  150.0243 O   0  0  0  0  0  0  0  0  0  0  0  0
  146.4441  134.6762  151.6618 C   0  0  0  0  0  0  0  0  0  0  0  0
  146.4148  133.4164  150.7779 C   0  0  0  0  0  0  0  0  0  0  0  0
  145.0354  132.7446  150.8116 C   0  0  0  0  0  0  0  0  0  0  0  0
  143.9361  133.7309  150.3941 C   0  0  0  0  0  0  0  0  0  0  0  0
  143.9491  134.9966  151.2702 C   0  0  0  0  0  0  0  0  0  0  0  0
  148.3689  138.7123  153.2348 N   0  0  0  0  0  0  0  0  0  0  0  0
  149.0907  139.7197  153.9265 C   0  0  0  0  0  0  0  0  0  0  0  0
  150.2622  139.5216  154.5425 N   0  0  0  0  0  0  0  0  0  0  0  0
  150.7427  140.6879  155.1431 C   0  0  0  0  0  0  0  0  0  0  0  0
  149.9182  141.7722  154.9739 C   0  0  0  0  0  0  0  0  0  0  0  0
  148.4964  141.3691  154.0491 S   0  0  0  0  0  0  0  0  0  0  0  0
  147.4764  136.9681  151.9760 H   0  0  0  0  0  0  0  0  0  0  0  0
  144.9451  136.6167  153.2606 H   0  0  0  0  0  0  0  0  0  0  0  0
  144.7762  137.7015  151.9131 H   0  0  0  0  0  0  0  0  0  0  0  0
  145.6129  135.4976  149.4035 H   0  0  0  0  0  0  0  0  0  0  0  0
  147.4254  135.1484  151.5952 H   0  0  0  0  0  0  0  0  0  0  0  0
  146.3307  134.3674  152.7021 H   0  0  0  0  0  0  0  0  0  0  0  0
  146.6716  133.6772  149.7504 H   0  0  0  0  0  0  0  0  0  0  0  0
  147.1770  132.7130  151.1135 H   0  0  0  0  0  0  0  0  0  0  0  0
  145.0275  131.8769  150.1513 H   0  0  0  0  0  0  0  0  0  0  0  0
  144.8324  132.3722  151.8166 H   0  0  0  0  0  0  0  0  0  0  0  0
  144.0698  134.0060  149.3472 H   0  0  0  0  0  0  0  0  0  0  0  0
  142.9611  133.2471  150.4603 H   0  0  0  0  0  0  0  0  0  0  0  0
  143.6600  134.7223  152.2857 H   0  0  0  0  0  0  0  0  0  0  0  0
  143.1805  135.6817  150.9106 H   0  0  0  0  0  0  0  0  0  0  0  0
  148.9274  138.0902  152.6695 H   0  0  0  0  0  0  0  0  0  0  0  0
  151.6833  140.6563  155.6728 H   0  0  0  0  0  0  0  0  0  0  0  0
  150.0604  142.7793  155.3364 H   0  0  0  0  0  0  0  0  0  0  0  0
  1  2  2  0  0  0  0
  2  3  1  0  0  0  0
  2 12  1  0  0  0  0
  3  4  1  0  0  0  0
  3 18  1  0  0  0  0
  4  5  1  0  0  0  0
  4 19  1  0  0  0  0
  4 20  1  0  0  0  0
  5 11  1  0  0  0  0
  5  6  1  0  0  0  0
  5  7  1  0  0  0  0
  6 21  1  0  0  0  0
  7  8  1  0  0  0  0
  7 22  1  0  0  0  0
  7 23  1  0  0  0  0
  8  9  1  0  0  0  0
  8 24  1  0  0  0  0
  8 25  1  0  0  0  0
  9 10  1  0  0  0  0
  9 26  1  0  0  0  0
  9 27  1  0  0  0  0
 10 11  1  0  0  0  0
 10 28  1  0  0  0  0
 10 29  1  0  0  0  0
 11 30  1  0  0  0  0
 11 31  1  0  0  0  0
 12 13  1  0  0  0  0
 12 32  1  0  0  0  0
 13 17  1  0  0  0  0
 13 14  2  0  0  0  0
 14 15  1  0  0  0  0
 15 16  2  0  0  0  0
 15 33  1  0  0  0  0
 16 17  1  0  0  0  0
 16 34  1  0  0  0  0
M  END
> <s_m_source_file>
AV-unprocessed.smi

> <i_m_source_file_index>
1825

> <i_lp_mmshare_version>
43012

> <i_f3d_flags>
0

> <s_epik_input>
czFbY0hdW2NIXW5jMVtOSF1DKD1PKVtOSF1bQ0gyXUMyKFtPSF0pW0NIMl1bQ0gyXVtDSDJdW0NIMl1bQ0gyXTI=

> <s_epik_cmdline>
J2VwaWtfcHl0aG9uJywgJy1waCcsICc3LjAnLCAnLXRuJywgJzgnLCAnLW1hJywgJzIwMCcsICctbWV0YWxfYmluZGluZycsICctaW1hZScsICc8aW5maWxlLm1hZT4nLCAnLW9tYWUnLCAnPG91dGZpbGUubWFlPic=

> <r_lp_tautomer_probability>
0.999

> <r_epik_Ionization_Penalty>
0.000358719

> <r_epik_Ionization_Penalty_Charging>
0

> <r_epik_Ionization_Penalty_Neutral>
0.000358719

> <r_epik_State_Penalty>
0.000177984

> <r_epik_Charging_Adjusted_Penalty>
0.000177984

> <i_epik_Tot_Q>
0

> <i_epik_Tot_abs_Q>
0

> <r_epik_Metal_State_Penalty>
0.00708714

> <b_epik_Metal_Only>
0

> <s_lp_Force_Field>
OPLS_2005

> <r_lp_Energy>
11.7205

> <b_lp_Chiralities_Consistent>
1

> <s_lp_Variant>
AV-unprocessed.smi:1825-1

> <Gold.Version>
5.8.1

> <Gold.Id.Protein>
6NUR|6NUR_protein|mol2

> <Gold.PLP.Fitness>
41.2875

> <Gold.PLP.PLP>
-30.2942

> <Gold.PLP.part.hbond>
-5.0000

> <Gold.PLP.part.metal>
0.0000

> <Gold.PLP.part.buried>
-0.3531

> <Gold.PLP.part.nonpolar>
-25.3850

> <Gold.PLP.part.repulsive>
0.3175

> <Gold.PLP.ligand.clash>
0.0000

> <Gold.PLP.ligand.torsion>
0.3895

> <Gold.PLP.Chemscore.Hbond>
2.9200

> <Gold.PLP.Chemscore.CHOScore>
1.0000

> <Gold.PLP.Chemscore.Metal>
0.0000

> <Gold.Chemscore.Hbonds>
donor molecule, donor type, donor heavy atom, donor atom, acceptor molecule, acceptor atom, score
      L1  H     3    18       P1  7948  1.00
      L1  H     6    21       P1  7921  0.93
      L1  H    12    32       P1  7948  0.88
      L1  C    16    34       P1  8028  1.00

> <Gold.PLP.Chemscore.Internal.Correction>
0.0123

> <Gold.Rescore>
     Score         DG    S(hbond)    S(metal)    S(lipo)     H(rot)  DE(clash)    DE(int)     intcor
     15.39     -17.85       2.85        0.00      64.88       1.86       1.34       1.12       ----

> <Gold.Chemscore.Fitness>
15.3937

> <Gold.Chemscore.DG>
-17.8488

> <Gold.Chemscore.ZeroCoef>
-5.4800

> <Gold.Chemscore.Hbond>
2.8541

> <Gold.Chemscore.Metal>
0.0000

> <Gold.Chemscore.Lipo>
64.8766

> <Gold.Chemscore.Internal_Hbond>
0.0000

> <Gold.Chemscore.DEClash>
1.3366

> <Gold.Chemscore.DEInternal>
1.1185

> <Gold.Chemscore.Rot>
1.8572

> <Gold.Chemscore.Internal.Correction>
   9.000000E+99

> <Gold.Chemscore.Hbonds>
donor molecule, donor type, donor heavy atom, donor atom, acceptor molecule, acceptor atom, score
      L1  H     3    18       P1  7948  0.98
      L1  H     6    21       P1  7921  0.90
      L1  H    12    32       P1  7948  0.83

> <Gold.Chemscore.Hbond.Weighted>
-9.5328

> <Gold.Chemscore.Metal.Weighted>
-0.0000

> <Gold.Chemscore.Lipo.Weighted>
-7.5906

> <Gold.Chemscore.Internal_Hbond.Weighted>
0.0000

> <Gold.Chemscore.DEClash.Weighted>
1.3366

> <Gold.Chemscore.DEInternal.Weighted>
1.1185

> <Gold.Chemscore.Rot.Weighted>
4.7545

> <Gold.Chemscore.Internal.Correction.Weighted>
   9.000000E+99

> <Gold.Protein.RotatedTorsions>
[ 6907 6896 6895 6894 ] final  -42.60 input  -60.11 | X-H torsion
[ 7974 7965 7964 7962 ] final  158.17 input  175.53 | X-H torsion
[ 8008 7997 7996 7995 ] final  -92.13 input   59.86 | X-H torsion
[ 10167 10162 10161 10158 ] final -101.32 input  -65.29 | X-H torsion
[ 10718 10713 10712 10709 ] final   -3.38 input   66.30 | X-H torsion
[ 10763 10752 10751 10750 ] final   86.80 input  -60.55 | X-H torsion
[ 11005 11000 10999 10996 ] final  -93.06 input  -57.11 | X-H torsion

> <Gold.Protein.ActiveResidues>
 VAL166  LYS551  ARG553  GLY616  TRP617  ASP618  TYR619  PRO620  LYS621  CYS622 
 ASP623  PHE694  ASN695  SER759  ASP760  ASP761  ALA762  ILE779  LEU786  VAL792 
 PHE793  MET794  SER795  GLU796  ALA797  LYS798  CYS799  TRP800  GLU811  SER814 

> <Gold.Protein.RotatedAtoms>
  150.9533  134.8931  159.7685 H   0  0  0  0  0  0  0  0  0  0  0  0  # atno 6907 bound_to 6896
  152.5128  134.3775  159.9349 H   0  0  0  0  0  0  0  0  0  0  0  0  # atno 6908 bound_to 6896
  151.3790  133.3787  159.2743 H   0  0  0  0  0  0  0  0  0  0  0  0  # atno 6909 bound_to 6896
  144.7861  139.7442  143.6240 H   0  0  0  0  0  0  0  0  0  0  0  0  # atno 7974 bound_to 7965
  154.7192  140.0512  157.0624 H   0  0  0  0  0  0  0  0  0  0  0  0  # atno 8008 bound_to 7997
  155.0450  140.3173  155.4692 H   0  0  0  0  0  0  0  0  0  0  0  0  # atno 8009 bound_to 7997
  156.2812  140.2126  156.5574 H   0  0  0  0  0  0  0  0  0  0  0  0  # atno 8010 bound_to 7997
  140.2426  143.3528  152.0788 H   0  0  0  0  0  0  0  0  0  0  0  0  # atno 10167 bound_to 10162
  156.7769  130.5318  149.5757 H   0  0  0  0  0  0  0  0  0  0  0  0  # atno 10718 bound_to 10713
  153.1605  135.4567  154.9766 H   0  0  0  0  0  0  0  0  0  0  0  0  # atno 10763 bound_to 10752
  154.7894  135.3215  154.7814 H   0  0  0  0  0  0  0  0  0  0  0  0  # atno 10764 bound_to 10752
  153.8305  135.6939  153.4869 H   0  0  0  0  0  0  0  0  0  0  0  0  # atno 10765 bound_to 10752
  141.1507  133.7862  157.0107 H   0  0  0  0  0  0  0  0  0  0  0  0  # atno 11005 bound_to 11000
  146.2093  139.5438  142.9692 LP  0  0  0  0  0  0  0  0  0  0  0  0  # atno 17320 bound_to 7965
  145.5919  141.0368  143.2065 LP  0  0  0  0  0  0  0  0  0  0  0  0  # atno 17321 bound_to 7965
  139.5072  144.6828  151.5964 LP  0  0  0  0  0  0  0  0  0  0  0  0  # atno 17342 bound_to 10162
  140.6102  143.9450  150.6448 LP  0  0  0  0  0  0  0  0  0  0  0  0  # atno 17343 bound_to 10162
  156.1243  130.6132  151.0239 LP  0  0  0  0  0  0  0  0  0  0  0  0  # atno 17370 bound_to 10713
  157.6665  131.0870  150.7716 LP  0  0  0  0  0  0  0  0  0  0  0  0  # atno 17371 bound_to 10713
  140.0880  134.9609  157.1730 LP  0  0  0  0  0  0  0  0  0  0  0  0  # atno 17394 bound_to 11000
  140.3485  134.2625  155.7202 LP  0  0  0  0  0  0  0  0  0  0  0  0  # atno 17395 bound_to 11000

$$$$
