AV-unprocessed.smi:101|AV-procd|sdf|914|dock3
  -GOLD-   2262017413D 1   1.00000     0.00000
 Structure written by MMmdl.
 44 46  0  0  0  0  0  0  0  0  1 V2000
  150.4089  137.0613  159.2496 C   0  0  0  0  0  0  0  0  0  0  0  0
  149.4988  137.0137  158.0328 C   0  0  0  0  0  0  0  0  0  0  0  0
  148.9889  138.1355  157.4638 C   0  0  0  0  0  0  0  0  0  0  0  0
  148.1600  138.1306  156.3485 N   0  0  0  0  0  0  0  0  0  0  0  0
  147.6026  139.4038  155.7334 C   0  0  1  0  0  0  0  0  0  0  0  0
  148.1067  140.5245  156.4119 O   0  0  0  0  0  0  0  0  0  0  0  0
  148.9267  141.3285  155.5629 C   0  0  1  0  0  0  0  0  0  0  0  0
  150.4049  140.9140  155.7027 C   0  0  0  0  0  0  0  0  0  0  0  0
  150.9636  141.5506  156.8410 O   0  0  0  0  0  0  0  0  0  0  0  0
  151.9109  140.9245  157.5688 C   0  0  0  0  0  0  0  0  0  0  0  0
  152.4674  139.8828  157.2152 O   0  0  0  0  0  0  0  0  0  0  0  0
  152.1996  141.6116  158.8601 C   0  0  0  0  0  0  0  0  0  0  0  0
  151.6486  142.8918  159.1007 C   0  0  0  0  0  0  0  0  0  0  0  0
  151.9105  143.5702  160.3067 C   0  0  0  0  0  0  0  0  0  0  0  0
  152.7267  142.9764  161.2868 C   0  0  0  0  0  0  0  0  0  0  0  0
  153.2814  141.7035  161.0593 C   0  0  0  0  0  0  0  0  0  0  0  0
  153.0210  141.0235  159.8536 C   0  0  0  0  0  0  0  0  0  0  0  0
  148.3131  141.0637  154.1866 C   0  0  1  0  0  0  0  0  0  0  0  0
  149.1270  141.4343  153.0884 O   0  0  0  0  0  0  0  0  0  0  0  0
  147.9533  139.5845  154.2333 C   0  0  1  0  0  0  0  0  0  0  0  0
  149.0236  138.7671  153.7837 O   0  0  0  0  0  0  0  0  0  0  0  0
  147.7641  136.8944  155.7966 C   0  0  0  0  0  0  0  0  0  0  0  0
  146.9943  136.8108  154.8401 O   0  0  0  0  0  0  0  0  0  0  0  0
  148.2875  135.7409  156.3777 N   0  0  0  0  0  0  0  0  0  0  0  0
  149.1545  135.7043  157.4724 C   0  0  0  0  0  0  0  0  0  0  0  0
  149.5575  134.6209  157.8924 O   0  0  0  0  0  0  0  0  0  0  0  0
  148.0155  134.8561  155.9747 H   0  0  0  0  0  0  0  0  0  0  0  0
  150.6081  138.0850  159.5686 H   0  0  0  0  0  0  0  0  0  0  0  0
  151.3674  136.5913  159.0270 H   0  0  0  0  0  0  0  0  0  0  0  0
  149.9532  136.5329  160.0874 H   0  0  0  0  0  0  0  0  0  0  0  0
  149.2459  139.0734  157.9260 H   0  0  0  0  0  0  0  0  0  0  0  0
  146.5275  139.3589  155.9179 H   0  0  0  0  0  0  0  0  0  0  0  0
  148.8206  142.3805  155.8299 H   0  0  0  0  0  0  0  0  0  0  0  0
  150.4940  139.8308  155.7846 H   0  0  0  0  0  0  0  0  0  0  0  0
  150.9726  141.2204  154.8239 H   0  0  0  0  0  0  0  0  0  0  0  0
  151.0204  143.3686  158.3618 H   0  0  0  0  0  0  0  0  0  0  0  0
  151.4845  144.5475  160.4789 H   0  0  0  0  0  0  0  0  0  0  0  0
  152.9274  143.4967  162.2118 H   0  0  0  0  0  0  0  0  0  0  0  0
  153.9086  141.2475  161.8110 H   0  0  0  0  0  0  0  0  0  0  0  0
  153.4639  140.0488  159.7100 H   0  0  0  0  0  0  0  0  0  0  0  0
  147.3867  141.6359  154.1157 H   0  0  0  0  0  0  0  0  0  0  0  0
  149.2295  140.6841  152.5225 H   0  0  0  0  0  0  0  0  0  0  0  0
  147.0769  139.3668  153.6219 H   0  0  0  0  0  0  0  0  0  0  0  0
  149.3108  139.0911  152.9436 H   0  0  0  0  0  0  0  0  0  0  0  0
  1  2  1  0  0  0  0
  1 28  1  0  0  0  0
  1 29  1  0  0  0  0
  1 30  1  0  0  0  0
  2 25  1  0  0  0  0
  2  3  2  0  0  0  0
  3  4  1  0  0  0  0
  3 31  1  0  0  0  0
  4  5  1  0  0  0  0
  4 22  1  0  0  0  0
  5 20  1  0  0  0  0
  5  6  1  0  0  0  0
  5 32  1  0  0  0  0
  6  7  1  0  0  0  0
  7  8  1  0  0  0  0
  7 18  1  0  0  0  0
  7 33  1  0  0  0  0
  8  9  1  0  0  0  0
  8 34  1  0  0  0  0
  8 35  1  0  0  0  0
  9 10  1  0  0  0  0
 10 11  2  0  0  0  0
 10 12  1  0  0  0  0
 12 17  1  0  0  0  0
 12 13  2  0  0  0  0
 13 14  1  0  0  0  0
 13 36  1  0  0  0  0
 14 15  2  0  0  0  0
 14 37  1  0  0  0  0
 15 16  1  0  0  0  0
 15 38  1  0  0  0  0
 16 17  2  0  0  0  0
 16 39  1  0  0  0  0
 17 40  1  0  0  0  0
 18 19  1  0  0  0  0
 18 20  1  0  0  0  0
 18 41  1  0  0  0  0
 19 42  1  0  0  0  0
 20 21  1  0  0  0  0
 20 43  1  0  0  0  0
 21 44  1  0  0  0  0
 22 23  2  0  0  0  0
 22 24  1  0  0  0  0
 24 27  1  0  0  0  0
 24 25  1  0  0  0  0
 25 26  2  0  0  0  0
M  END
> <s_m_source_file>
AV-unprocessed.smi

> <i_m_source_file_index>
101

> <i_lp_mmshare_version>
43012

> <i_f3d_flags>
0

> <s_epik_input>
Tz1jMVtuSF1jKD1PKW4oW2NIXWMxW0NIM10pW0NAQEhdMk9bQ0BIXShbQ0BASF0oW09IXSlbQ0BIXTJbT0hdKVtDSDJdT0MoPU8pYzNbY0hdW2NIXVtjSF1bY0hdW2NIXTM=

> <s_epik_cmdline>
J2VwaWtfcHl0aG9uJywgJy1waCcsICc3LjAnLCAnLXRuJywgJzgnLCAnLW1hJywgJzIwMCcsICctbWV0YWxfYmluZGluZycsICctaW1hZScsICc8aW5maWxlLm1hZT4nLCAnLW9tYWUnLCAnPG91dGZpbGUubWFlPic=

> <r_lp_tautomer_probability>
0.999537

> <r_epik_Ionization_Penalty>
0.00263537

> <r_epik_Ionization_Penalty_Charging>
0.00263428

> <r_epik_Ionization_Penalty_Neutral>
1.09111e-06

> <r_epik_State_Penalty>
0.00183335

> <r_epik_Charging_Adjusted_Penalty>
0.00446763

> <i_epik_Tot_Q>
0

> <i_epik_Tot_abs_Q>
0

> <r_epik_Metal_State_Penalty>
1.00528

> <b_epik_Metal_Only>
0

> <s_epik_Chemistry_Notes>
This compound has an ester and may undergo hydrolysis at high or low pH. This compound contains an acetal/aminal-like group ( X-CH(R)-Y where X, Y are N, S, or O) that may be acid/base labile, releasing an aldehyde.

> <s_lp_Force_Field>
OPLS_2005

> <r_lp_Energy>
43.2991

> <b_lp_Chiralities_Consistent>
1

> <s_lp_Variant>
AV-unprocessed.smi:101-2

> <Gold.Version>
5.8.1

> <Gold.Id.Protein>
6NUR|6NUR_protein|mol2

> <Gold.PLP.Fitness>
50.5694

> <Gold.PLP.PLP>
-37.9978

> <Gold.PLP.part.hbond>
-5.4530

> <Gold.PLP.part.metal>
0.0000

> <Gold.PLP.part.buried>
-3.8868

> <Gold.PLP.part.nonpolar>
-28.4481

> <Gold.PLP.part.repulsive>
0.1597

> <Gold.PLP.ligand.clash>
0.0000

> <Gold.PLP.ligand.torsion>
0.5546

> <Gold.PLP.Chemscore.Hbond>
4.5203

> <Gold.PLP.Chemscore.CHOScore>
0.0000

> <Gold.PLP.Chemscore.Metal>
0.0000

> <Gold.Chemscore.Hbonds>
donor molecule, donor type, donor heavy atom, donor atom, acceptor molecule, acceptor atom, score
      L1  H    19    42       P1  7957  1.00
      L1  H    21    44       P1  7957  0.99
      P1  H  6896  6907       L1    26  1.00
      P1  H  7997  8010       L1    11  1.00
      P1  H  8011  8017       L1    19  0.68

> <Gold.PLP.Chemscore.Internal.Correction>
0.1201

> <Gold.Rescore>
     Score         DG    S(hbond)    S(metal)    S(lipo)     H(rot)  DE(clash)    DE(int)     intcor
     20.66     -21.54       3.92        0.00      98.05       3.32       0.29       0.59       ----

> <Gold.Chemscore.Fitness>
20.6627

> <Gold.Chemscore.DG>
-21.5429

> <Gold.Chemscore.ZeroCoef>
-5.4800

> <Gold.Chemscore.Hbond>
3.9171

> <Gold.Chemscore.Metal>
0.0000

> <Gold.Chemscore.Lipo>
98.0496

> <Gold.Chemscore.Internal_Hbond>
0.0000

> <Gold.Chemscore.DEClash>
0.2926

> <Gold.Chemscore.DEInternal>
0.5876

> <Gold.Chemscore.Rot>
3.3172

> <Gold.Chemscore.Internal.Correction>
   9.000000E+99

> <Gold.Chemscore.Hbonds>
donor molecule, donor type, donor heavy atom, donor atom, acceptor molecule, acceptor atom, score
      L1  H    19    42       P1  7957  0.91
      L1  H    21    44       P1  7957  0.92
      P1  H  6896  6907       L1    26  0.94
      P1  H  7997  8010       L1    11  0.87
      P1  H  8011  8017       L1    19  0.17

> <Gold.Chemscore.Hbond.Weighted>
-13.0832

> <Gold.Chemscore.Metal.Weighted>
-0.0000

> <Gold.Chemscore.Lipo.Weighted>
-11.4718

> <Gold.Chemscore.Internal_Hbond.Weighted>
0.0000

> <Gold.Chemscore.DEClash.Weighted>
0.2926

> <Gold.Chemscore.DEInternal.Weighted>
0.5876

> <Gold.Chemscore.Rot.Weighted>
8.4920

> <Gold.Chemscore.Internal.Correction.Weighted>
   9.000000E+99

> <Gold.Protein.RotatedTorsions>
[ 6907 6896 6895 6894 ] final  -78.76 input  -60.11 | X-H torsion
[ 7974 7965 7964 7962 ] final  -68.38 input  175.53 | X-H torsion
[ 8008 7997 7996 7995 ] final   62.05 input   59.86 | X-H torsion
[ 10167 10162 10161 10158 ] final -147.44 input  -65.29 | X-H torsion
[ 10718 10713 10712 10709 ] final -132.25 input   66.30 | X-H torsion
[ 10763 10752 10751 10750 ] final   76.21 input  -60.55 | X-H torsion
[ 11005 11000 10999 10996 ] final   33.46 input  -57.11 | X-H torsion

> <Gold.Protein.ActiveResidues>
 VAL166  LYS551  ARG553  GLY616  TRP617  ASP618  TYR619  PRO620  LYS621  CYS622 
 ASP623  PHE694  ASN695  SER759  ASP760  ASP761  ALA762  ILE779  LEU786  VAL792 
 PHE793  MET794  SER795  GLU796  ALA797  LYS798  CYS799  TRP800  GLU811  SER814 

> <Gold.Protein.RotatedAtoms>
  150.6965  134.4223  159.5210 H   0  0  0  0  0  0  0  0  0  0  0  0  # atno 6907 bound_to 6896
  152.1964  134.8624  160.0521 H   0  0  0  0  0  0  0  0  0  0  0  0  # atno 6908 bound_to 6896
  151.9561  133.3646  159.4055 H   0  0  0  0  0  0  0  0  0  0  0  0  # atno 6909 bound_to 6896
  145.7172  140.9054  143.0649 H   0  0  0  0  0  0  0  0  0  0  0  0  # atno 7974 bound_to 7965
  155.6082  140.3494  155.4614 H   0  0  0  0  0  0  0  0  0  0  0  0  # atno 8008 bound_to 7997
  156.0175  140.1246  157.0416 H   0  0  0  0  0  0  0  0  0  0  0  0  # atno 8009 bound_to 7997
  154.4303  140.1069  156.5902 H   0  0  0  0  0  0  0  0  0  0  0  0  # atno 8010 bound_to 7997
  139.7622  143.8360  152.2609 H   0  0  0  0  0  0  0  0  0  0  0  0  # atno 10167 bound_to 10162
  156.2327  130.7047  151.0875 H   0  0  0  0  0  0  0  0  0  0  0  0  # atno 10718 bound_to 10713
  153.0709  135.4960  154.8303 H   0  0  0  0  0  0  0  0  0  0  0  0  # atno 10763 bound_to 10752
  154.7021  135.3003  154.9327 H   0  0  0  0  0  0  0  0  0  0  0  0  # atno 10764 bound_to 10752
  154.0048  135.6762  153.4814 H   0  0  0  0  0  0  0  0  0  0  0  0  # atno 10765 bound_to 10752
  140.2629  134.3172  155.7852 H   0  0  0  0  0  0  0  0  0  0  0  0  # atno 11005 bound_to 11000
  144.6926  139.9153  143.7465 LP  0  0  0  0  0  0  0  0  0  0  0  0  # atno 17320 bound_to 7965
  146.0659  139.3650  143.0553 LP  0  0  0  0  0  0  0  0  0  0  0  0  # atno 17321 bound_to 7965
  139.8370  144.7228  150.9379 LP  0  0  0  0  0  0  0  0  0  0  0  0  # atno 17342 bound_to 10162
  140.7808  143.4018  151.1136 LP  0  0  0  0  0  0  0  0  0  0  0  0  # atno 17343 bound_to 10162
  157.7140  131.0719  150.6396 LP  0  0  0  0  0  0  0  0  0  0  0  0  # atno 17370 bound_to 10713
  156.6464  130.4473  149.5734 LP  0  0  0  0  0  0  0  0  0  0  0  0  # atno 17371 bound_to 10713
  141.2188  133.7420  156.9214 LP  0  0  0  0  0  0  0  0  0  0  0  0  # atno 17394 bound_to 11000
  140.1447  134.9270  157.2514 LP  0  0  0  0  0  0  0  0  0  0  0  0  # atno 17395 bound_to 11000

$$$$
