AV-unprocessed.smi:203|AV-procd|sdf|1591|dock7
  -GOLD-   2262019493D 1   1.00000     0.00000
 Structure written by MMmdl.
 57 61  0  0  0  0  0  0  0  0  1 V2000
  155.4757  138.1767  158.8926 O   0  0  0  0  0  0  0  0  0  0  0  0
  154.8516  139.0952  159.4183 C   0  0  0  0  0  0  0  0  0  0  0  0
  153.3766  139.3572  159.1676 C   0  0  0  0  0  0  0  0  0  0  0  0
  153.1232  140.7101  159.8608 C   0  0  2  0  0  0  0  0  0  0  0  0
  152.7810  141.8761  158.8781 C   0  0  2  0  0  0  0  0  0  0  0  0
  153.1031  143.2756  159.4647 C   0  0  0  0  0  0  0  0  0  0  0  0
  152.7740  144.3960  158.4683 C   0  0  0  0  0  0  0  0  0  0  0  0
  151.3101  144.2915  158.0258 C   0  0  0  0  0  0  0  0  0  0  0  0
  151.0214  142.8974  157.4522 C   0  0  0  0  0  0  0  0  0  0  0  0
  151.3850  141.8490  158.4037 N   0  0  0  0  0  0  0  0  0  0  0  0
  150.9168  140.6485  157.9984 C   0  0  0  0  0  0  0  0  0  0  0  0
  150.2221  139.9175  158.9041 N   0  0  0  0  0  0  0  0  0  0  0  0
  149.7921  138.6937  158.5830 C   0  0  0  0  0  0  0  0  0  0  0  0
  149.9551  138.0250  157.4393 N   0  0  0  0  0  0  0  0  0  0  0  0
  150.6412  138.7678  156.5234 C   0  0  0  0  0  0  0  0  0  0  0  0
  151.1424  140.0851  156.7117 C   0  0  0  0  0  0  0  0  0  0  0  0
  151.7858  140.5195  155.5589 N   0  0  0  0  0  0  0  0  0  0  0  0
  151.6983  139.5031  154.7450 C   0  0  0  0  0  0  0  0  0  0  0  0
  151.0477  138.4022  155.2529 N   0  0  0  0  0  0  0  0  0  0  0  0
  150.8735  137.1193  154.5991 C   0  0  0  0  0  0  0  0  0  0  0  0
  150.6987  135.9617  155.6072 C   0  0  2  0  0  0  0  0  0  0  0  0
  151.8993  135.8614  156.3465 O   0  0  0  0  0  0  0  0  0  0  0  0
  150.3782  134.5920  154.9629 C   0  0  1  0  0  0  0  0  0  0  0  0
  150.2812  133.4238  155.9476 C   0  0  0  0  0  0  0  0  0  0  0  0
  149.3797  132.4222  155.2398 C   0  0  0  0  0  0  0  0  0  0  0  0
  148.7473  133.2289  154.1041 C   0  0  0  0  0  0  0  0  0  0  0  0
  149.0718  134.5770  154.4032 O   0  0  0  0  0  0  0  0  0  0  0  0
  154.3794  140.9618  160.7244 C   0  0  0  0  0  0  0  0  0  0  0  0
  155.3502  139.9836  160.2750 N   0  0  0  0  0  0  0  0  0  0  0  0
  153.1441  139.3640  158.1029 H   0  0  0  0  0  0  0  0  0  0  0  0
  152.7915  138.5630  159.6322 H   0  0  0  0  0  0  0  0  0  0  0  0
  152.2777  140.5515  160.5308 H   0  0  0  0  0  0  0  0  0  0  0  0
  153.4142  141.7499  157.9991 H   0  0  0  0  0  0  0  0  0  0  0  0
  152.5358  143.4425  160.3804 H   0  0  0  0  0  0  0  0  0  0  0  0
  154.1541  143.3504  159.7405 H   0  0  0  0  0  0  0  0  0  0  0  0
  152.9626  145.3698  158.9211 H   0  0  0  0  0  0  0  0  0  0  0  0
  153.4298  144.3216  157.5999 H   0  0  0  0  0  0  0  0  0  0  0  0
  150.6541  144.4814  158.8762 H   0  0  0  0  0  0  0  0  0  0  0  0
  151.0864  145.0563  157.2819 H   0  0  0  0  0  0  0  0  0  0  0  0
  149.9631  142.8197  157.1980 H   0  0  0  0  0  0  0  0  0  0  0  0
  151.5821  142.7561  156.5269 H   0  0  0  0  0  0  0  0  0  0  0  0
  149.2507  138.1705  159.3572 H   0  0  0  0  0  0  0  0  0  0  0  0
  152.1328  139.5182  153.7563 H   0  0  0  0  0  0  0  0  0  0  0  0
  150.0052  137.1840  153.9417 H   0  0  0  0  0  0  0  0  0  0  0  0
  151.7372  136.9397  153.9576 H   0  0  0  0  0  0  0  0  0  0  0  0
  149.9036  136.2147  156.3096 H   0  0  0  0  0  0  0  0  0  0  0  0
  152.0147  136.6577  156.8419 H   0  0  0  0  0  0  0  0  0  0  0  0
  151.1070  134.3582  154.1841 H   0  0  0  0  0  0  0  0  0  0  0  0
  151.2566  133.0071  156.2007 H   0  0  0  0  0  0  0  0  0  0  0  0
  149.8059  133.7508  156.8736 H   0  0  0  0  0  0  0  0  0  0  0  0
  149.9467  131.5789  154.8445 H   0  0  0  0  0  0  0  0  0  0  0  0
  148.6254  132.0305  155.9231 H   0  0  0  0  0  0  0  0  0  0  0  0
  149.1883  132.9588  153.1434 H   0  0  0  0  0  0  0  0  0  0  0  0
  147.6687  133.0875  154.0353 H   0  0  0  0  0  0  0  0  0  0  0  0
  154.7733  141.9737  160.6289 H   0  0  0  0  0  0  0  0  0  0  0  0
  154.1640  140.7907  161.7800 H   0  0  0  0  0  0  0  0  0  0  0  0
  156.3121  139.9933  160.5821 H   0  0  0  0  0  0  0  0  0  0  0  0
  1  2  2  0  0  0  0
  2 29  1  0  0  0  0
  2  3  1  0  0  0  0
  3  4  1  0  0  0  0
  3 30  1  0  0  0  0
  3 31  1  0  0  0  0
  4  5  1  0  0  0  0
  4 28  1  0  0  0  0
  4 32  1  0  0  0  0
  5 10  1  0  0  0  0
  5  6  1  0  0  0  0
  5 33  1  0  0  0  0
  6  7  1  0  0  0  0
  6 34  1  0  0  0  0
  6 35  1  0  0  0  0
  7  8  1  0  0  0  0
  7 36  1  0  0  0  0
  7 37  1  0  0  0  0
  8  9  1  0  0  0  0
  8 38  1  0  0  0  0
  8 39  1  0  0  0  0
  9 10  1  0  0  0  0
  9 40  1  0  0  0  0
  9 41  1  0  0  0  0
 10 11  1  0  0  0  0
 11 16  1  0  0  0  0
 11 12  2  0  0  0  0
 12 13  1  0  0  0  0
 13 14  2  0  0  0  0
 13 42  1  0  0  0  0
 14 15  1  0  0  0  0
 15 19  1  0  0  0  0
 15 16  2  0  0  0  0
 16 17  1  0  0  0  0
 17 18  2  0  0  0  0
 18 19  1  0  0  0  0
 18 43  1  0  0  0  0
 19 20  1  0  0  0  0
 20 21  1  0  0  0  0
 20 44  1  0  0  0  0
 20 45  1  0  0  0  0
 21 22  1  0  0  0  0
 21 23  1  0  0  0  0
 21 46  1  0  0  0  0
 22 47  1  0  0  0  0
 23 27  1  0  0  0  0
 23 24  1  0  0  0  0
 23 48  1  0  0  0  0
 24 25  1  0  0  0  0
 24 49  1  0  0  0  0
 24 50  1  0  0  0  0
 25 26  1  0  0  0  0
 25 51  1  0  0  0  0
 25 52  1  0  0  0  0
 26 27  1  0  0  0  0
 26 53  1  0  0  0  0
 26 54  1  0  0  0  0
 28 29  1  0  0  0  0
 28 55  1  0  0  0  0
 28 56  1  0  0  0  0
 29 57  1  0  0  0  0
M  END
> <s_m_source_file>
AV-unprocessed.smi

> <i_m_source_file_index>
203

> <i_lp_mmshare_version>
43012

> <i_f3d_flags>
0

> <s_epik_input>
Tz1DMVtDSDJdW0NASF0oW0NIMl1bTkhdMSlbQ0BASF0yW0NIMl1bQ0gyXVtDSDJdW0NIMl1OMmMobltjSF1uMyljKGMzNCluW2NIXW40W0NIMl1bQ0BIXShbT0hdKVtDQEBIXTVbQ0gyXVtDSDJdW0NIMl1PNQ==

> <s_epik_cmdline>
J2VwaWtfcHl0aG9uJywgJy1waCcsICc3LjAnLCAnLXRuJywgJzgnLCAnLW1hJywgJzIwMCcsICctbWV0YWxfYmluZGluZycsICctaW1hZScsICc8aW5maWxlLm1hZT4nLCAnLW9tYWUnLCAnPG91dGZpbGUubWFlPic=

> <r_lp_tautomer_probability>
1

> <r_epik_Ionization_Penalty>
0.00175146

> <r_epik_Ionization_Penalty_Charging>
0

> <r_epik_Ionization_Penalty_Neutral>
0.00175146

> <r_epik_State_Penalty>
0.00109045

> <r_epik_Charging_Adjusted_Penalty>
0.00109045

> <i_epik_Tot_Q>
0

> <i_epik_Tot_abs_Q>
0

> <r_epik_Metal_State_Penalty>
-0

> <b_epik_Metal_Only>
0

> <s_lp_Force_Field>
OPLS_2005

> <r_lp_Energy>
54.7877

> <b_lp_Chiralities_Consistent>
1

> <s_lp_Variant>
AV-unprocessed.smi:203-10

> <Gold.Version>
5.8.1

> <Gold.Id.Protein>
6NUR|6NUR_protein|mol2

> <Gold.PLP.Fitness>
47.8749

> <Gold.PLP.PLP>
-47.0659

> <Gold.PLP.part.hbond>
-2.3533

> <Gold.PLP.part.metal>
0.0000

> <Gold.PLP.part.buried>
-2.4371

> <Gold.PLP.part.nonpolar>
-43.3365

> <Gold.PLP.part.repulsive>
0.8682

> <Gold.PLP.ligand.clash>
0.0000

> <Gold.PLP.ligand.torsion>
1.2483

> <Gold.PLP.Chemscore.Hbond>
1.0000

> <Gold.PLP.Chemscore.CHOScore>
0.0000

> <Gold.PLP.Chemscore.Metal>
0.0000

> <Gold.Chemscore.Hbonds>
donor molecule, donor type, donor heavy atom, donor atom, acceptor molecule, acceptor atom, score
      P1  H 10752 10765       L1    22  1.00

> <Gold.PLP.Chemscore.Internal.Correction>
0.3057

> <Gold.Rescore>
     Score         DG    S(hbond)    S(metal)    S(lipo)     H(rot)  DE(clash)    DE(int)     intcor
     11.98     -14.85       0.85        0.00     115.17       2.72       0.23       2.65       ----

> <Gold.Chemscore.Fitness>
11.9761

> <Gold.Chemscore.DG>
-14.8542

> <Gold.Chemscore.ZeroCoef>
-5.4800

> <Gold.Chemscore.Hbond>
0.8548

> <Gold.Chemscore.Metal>
0.0000

> <Gold.Chemscore.Lipo>
115.1700

> <Gold.Chemscore.Internal_Hbond>
0.0000

> <Gold.Chemscore.DEClash>
0.2268

> <Gold.Chemscore.DEInternal>
2.6513

> <Gold.Chemscore.Rot>
2.7171

> <Gold.Chemscore.Internal.Correction>
   9.000000E+99

> <Gold.Chemscore.Hbonds>
donor molecule, donor type, donor heavy atom, donor atom, acceptor molecule, acceptor atom, score
      P1  H 10752 10765       L1    22  0.38

> <Gold.Chemscore.Hbond.Weighted>
-2.8550

> <Gold.Chemscore.Metal.Weighted>
-0.0000

> <Gold.Chemscore.Lipo.Weighted>
-13.4749

> <Gold.Chemscore.Internal_Hbond.Weighted>
0.0000

> <Gold.Chemscore.DEClash.Weighted>
0.2268

> <Gold.Chemscore.DEInternal.Weighted>
2.6513

> <Gold.Chemscore.Rot.Weighted>
6.9557

> <Gold.Chemscore.Internal.Correction.Weighted>
   9.000000E+99

> <Gold.Protein.RotatedTorsions>
[ 6907 6896 6895 6894 ] final -107.22 input  -60.11 | X-H torsion
[ 7974 7965 7964 7962 ] final  -62.30 input  175.53 | X-H torsion
[ 8008 7997 7996 7995 ] final -105.52 input   59.86 | X-H torsion
[ 10167 10162 10161 10158 ] final  128.26 input  -65.29 | X-H torsion
[ 10718 10713 10712 10709 ] final   41.19 input   66.30 | X-H torsion
[ 10763 10752 10751 10750 ] final -150.08 input  -60.55 | X-H torsion
[ 11005 11000 10999 10996 ] final -149.73 input  -57.11 | X-H torsion

> <Gold.Protein.ActiveResidues>
 VAL166  LYS551  ARG553  GLY616  TRP617  ASP618  TYR619  PRO620  LYS621  CYS622 
 ASP623  PHE694  ASN695  SER759  ASP760  ASP761  ALA762  ILE779  LEU786  VAL792 
 PHE793  MET794  SER795  GLU796  ALA797  LYS798  CYS799  TRP800  GLU811  SER814 

> <Gold.Protein.RotatedAtoms>
  150.7432  133.9858  159.3590 H   0  0  0  0  0  0  0  0  0  0  0  0  # atno 6907 bound_to 6896
  151.7803  135.0761  160.0382 H   0  0  0  0  0  0  0  0  0  0  0  0  # atno 6908 bound_to 6896
  152.3279  133.5888  159.5825 H   0  0  0  0  0  0  0  0  0  0  0  0  # atno 6909 bound_to 6896
  145.7930  140.8699  143.0271 H   0  0  0  0  0  0  0  0  0  0  0  0  # atno 7974 bound_to 7965
  154.9010  140.0413  157.1893 H   0  0  0  0  0  0  0  0  0  0  0  0  # atno 8008 bound_to 7997
  154.8443  140.2919  155.5618 H   0  0  0  0  0  0  0  0  0  0  0  0  # atno 8009 bound_to 7997
  156.2993  140.2477  156.3391 H   0  0  0  0  0  0  0  0  0  0  0  0  # atno 8010 bound_to 7997
  139.5536  144.6832  151.4250 H   0  0  0  0  0  0  0  0  0  0  0  0  # atno 10167 bound_to 10162
  157.3907  130.7805  149.7267 H   0  0  0  0  0  0  0  0  0  0  0  0  # atno 10718 bound_to 10713
  154.8140  135.3293  154.7227 H   0  0  0  0  0  0  0  0  0  0  0  0  # atno 10763 bound_to 10752
  153.7872  135.6914  153.4882 H   0  0  0  0  0  0  0  0  0  0  0  0  # atno 10764 bound_to 10752
  153.1941  135.4540  155.0133 H   0  0  0  0  0  0  0  0  0  0  0  0  # atno 10765 bound_to 10752
  140.7476  134.3443  157.5133 H   0  0  0  0  0  0  0  0  0  0  0  0  # atno 11005 bound_to 11000
  144.6779  140.0150  143.7484 LP  0  0  0  0  0  0  0  0  0  0  0  0  # atno 17320 bound_to 7965
  145.9957  139.3050  143.0958 LP  0  0  0  0  0  0  0  0  0  0  0  0  # atno 17321 bound_to 7965
  140.6804  143.8095  150.7114 LP  0  0  0  0  0  0  0  0  0  0  0  0  # atno 17342 bound_to 10162
  140.1546  143.4328  152.2108 LP  0  0  0  0  0  0  0  0  0  0  0  0  # atno 17343 bound_to 10162
  155.9798  130.4036  150.3568 LP  0  0  0  0  0  0  0  0  0  0  0  0  # atno 17370 bound_to 10713
  157.1683  131.0362  151.2807 LP  0  0  0  0  0  0  0  0  0  0  0  0  # atno 17371 bound_to 10713
  139.8794  134.9121  156.3053 LP  0  0  0  0  0  0  0  0  0  0  0  0  # atno 17394 bound_to 11000
  140.9780  133.7285  156.0630 LP  0  0  0  0  0  0  0  0  0  0  0  0  # atno 17395 bound_to 11000

$$$$
